MODEL 1
REMARK VINA RESULT:      -8.7      0.000      0.000
REMARK  10 active torsions:
REMARK  status: ('A' for Active; 'I' for Inactive)
REMARK    1  A    between atoms: C6_6  and  N7_7 
REMARK    2  A    between atoms: C13_13  and  C15_14 
REMARK    3  A    between atoms: C15_14  and  N16_15 
REMARK    4  A    between atoms: N16_15  and  C17_16 
REMARK    5  A    between atoms: C20_19  and  C21_20 
REMARK       I    between atoms: C21_20  and  N23_22 
REMARK    6  A    between atoms: N23_22  and  C24_23 
REMARK    7  A    between atoms: C24_23  and  C26_24 
REMARK    8  A    between atoms: C24_23  and  C31_29 
REMARK    9  A    between atoms: C26_24  and  C27_25 
REMARK   10  A    between atoms: C27_25  and  C28_26 
ROOT
ATOM      1  N16 RES d   1      19.046   2.278   8.452  0.00  0.00    -0.388 N 
ATOM      2  H47 RES d   1      19.058   2.899   7.707  0.00  0.00     0.159 HD
ENDROOT
BRANCH   1   3
ATOM      3  C15 RES d   1      19.224   0.844   8.213  0.00  0.00     0.146 C 
BRANCH   3   4
ATOM      4  C13 RES d   1      17.873   0.135   8.329  0.00  0.00     0.119 C 
ATOM      5  N2  RES d   1      18.034  -1.100   9.114  0.00  0.00    -0.370 N 
ATOM      6  C1  RES d   1      17.573  -1.170  10.503  0.00  0.00     0.150 C 
ATOM      7  C3  RES d   1      18.638  -2.216   8.496  0.00  0.00     0.146 A 
ATOM      8  C9  RES d   1      19.113  -3.289   9.260  0.00  0.00     0.290 A 
ATOM      9  C4  RES d   1      18.768  -2.262   7.115  0.00  0.00     0.175 A 
ATOM     10  N8  RES d   1      19.680  -4.334   8.621  0.00  0.00    -0.153 N 
ATOM     11  O10 RES d   1      19.015  -3.278  10.478  0.00  0.00    -0.265 OA
ATOM     12  C6  RES d   1      19.782  -4.333   7.263  0.00  0.00     0.703 A 
ATOM     13  H41 RES d   1      20.017  -5.088   9.131  0.00  0.00     0.187 HD
ATOM     14  N5  RES d   1      19.338  -3.327   6.540  0.00  0.00    -0.045 NA
ATOM     15  N11 RES d   1      18.309  -1.206   6.344  0.00  0.00    -0.370 N 
ATOM     16  C12 RES d   1      17.368  -0.245   6.935  0.00  0.00     0.148 C 
ATOM     17  H42 RES d   1      18.607  -1.102   5.426  0.00  0.00     0.161 HD
BRANCH  12  18
ATOM     18  N7  RES d   1      20.361  -5.406   6.635  0.00  0.00    -0.233 N 
ATOM     19  H39 RES d   1      20.891  -5.270   5.833  0.00  0.00     0.174 HD
ATOM     20  H40 RES d   1      20.241  -6.299   6.993  0.00  0.00     0.174 HD
ENDBRANCH  12  18
ENDBRANCH   3   4
ENDBRANCH   1   3
BRANCH   1  21
ATOM     21  C17 RES d   1      18.859   2.750   9.746  0.00  0.00     0.028 A 
ATOM     22  C35 RES d   1      17.983   3.807   9.982  0.00  0.00     0.030 A 
ATOM     23  C34 RES d   1      17.792   4.272  11.262  0.00  0.00     0.019 A 
ATOM     24  C20 RES d   1      18.486   3.689  12.327  0.00  0.00     0.032 A 
ATOM     25  C19 RES d   1      19.369   2.631  12.087  0.00  0.00     0.019 A 
ATOM     26  C18 RES d   1      19.551   2.168  10.805  0.00  0.00     0.030 A 
BRANCH  24  27
ATOM     27  C21 RES d   1      18.289   4.190  13.700  0.00  0.00     0.252 C 
ATOM     28  O22 RES d   1      17.231   4.701  14.015  0.00  0.00    -0.268 OA
ATOM     29  N23 RES d   1      19.281   4.081  14.607  0.00  0.00    -0.342 N 
ATOM     30  H50 RES d   1      20.124   3.674  14.355  0.00  0.00     0.163 HD
BRANCH  29  31
ATOM     31  C24 RES d   1      19.085   4.578  15.970  0.00  0.00     0.186 C 
BRANCH  31  32
ATOM     32  C26 RES d   1      19.698   3.592  16.965  0.00  0.00     0.046 C 
BRANCH  32  33
ATOM     33  C27 RES d   1      18.678   3.270  18.060  0.00  0.00     0.116 C 
BRANCH  33  34
ATOM     34  C28 RES d   1      18.802   1.821  18.454  0.00  0.00     0.172 C 
ATOM     35  O29 RES d   1      19.895   1.280  18.450  0.00  0.00    -0.648 OA
ATOM     36  O30 RES d   1      17.811   1.190  18.775  0.00  0.00    -0.648 OA
ENDBRANCH  33  34
ENDBRANCH  32  33
ENDBRANCH  31  32
BRANCH  31  37
ATOM     37  C31 RES d   1      19.754   5.920  16.117  0.00  0.00     0.196 C 
ATOM     38  O32 RES d   1      19.110   6.884  16.495  0.00  0.00    -0.646 OA
ATOM     39  O33 RES d   1      20.939   6.043  15.859  0.00  0.00    -0.646 OA
ENDBRANCH  31  37
ENDBRANCH  29  31
ENDBRANCH  24  27
ENDBRANCH   1  21
TORSDOF 10
ENDMDL
MODEL 2
REMARK VINA RESULT:      -8.4      3.639      9.542
REMARK  10 active torsions:
REMARK  status: ('A' for Active; 'I' for Inactive)
REMARK    1  A    between atoms: C6_6  and  N7_7 
REMARK    2  A    between atoms: C13_13  and  C15_14 
REMARK    3  A    between atoms: C15_14  and  N16_15 
REMARK    4  A    between atoms: N16_15  and  C17_16 
REMARK    5  A    between atoms: C20_19  and  C21_20 
REMARK       I    between atoms: C21_20  and  N23_22 
REMARK    6  A    between atoms: N23_22  and  C24_23 
REMARK    7  A    between atoms: C24_23  and  C26_24 
REMARK    8  A    between atoms: C24_23  and  C31_29 
REMARK    9  A    between atoms: C26_24  and  C27_25 
REMARK   10  A    between atoms: C27_25  and  C28_26 
ROOT
ATOM      1  N16 RES d   1      17.940   2.425   9.889  0.00  0.00    -0.388 N 
ATOM      2  H47 RES d   1      17.905   3.339   9.567  0.00  0.00     0.159 HD
ENDROOT
BRANCH   1   3
ATOM      3  C15 RES d   1      17.766   2.143  11.315  0.00  0.00     0.146 C 
BRANCH   3   4
ATOM      4  C13 RES d   1      19.117   2.256  12.026  0.00  0.00     0.119 C 
ATOM      5  N2  RES d   1      19.536   0.925  12.494  0.00  0.00    -0.370 N 
ATOM      6  C1  RES d   1      20.586   0.181  11.793  0.00  0.00     0.150 C 
ATOM      7  C3  RES d   1      18.908   0.384  13.637  0.00  0.00     0.146 A 
ATOM      8  C9  RES d   1      19.018  -0.978  13.938  0.00  0.00     0.290 A 
ATOM      9  C4  RES d   1      18.172   1.204  14.481  0.00  0.00     0.175 A 
ATOM     10  N8  RES d   1      18.401  -1.446  15.045  0.00  0.00    -0.153 N 
ATOM     11  O10 RES d   1      19.658  -1.727  13.215  0.00  0.00    -0.265 OA
ATOM     12  C6  RES d   1      17.691  -0.600  15.841  0.00  0.00     0.703 A 
ATOM     13  H41 RES d   1      18.463  -2.387  15.271  0.00  0.00     0.187 HD
ATOM     14  N5  RES d   1      17.584   0.682  15.564  0.00  0.00    -0.045 NA
ATOM     15  N11 RES d   1      18.047   2.554  14.194  0.00  0.00    -0.370 N 
ATOM     16  C12 RES d   1      18.984   3.173  13.245  0.00  0.00     0.148 C 
ATOM     17  H42 RES d   1      17.351   3.084  14.614  0.00  0.00     0.161 HD
BRANCH  12  18
ATOM     18  N7  RES d   1      17.074  -1.097  16.961  0.00  0.00    -0.233 N 
ATOM     19  H39 RES d   1      16.610  -1.949  16.920  0.00  0.00     0.174 HD
ATOM     20  H40 RES d   1      17.102  -0.598  17.791  0.00  0.00     0.174 HD
ENDBRANCH  12  18
ENDBRANCH   3   4
ENDBRANCH   1   3
BRANCH   1  21
ATOM     21  C17 RES d   1      18.156   1.383   8.995  0.00  0.00     0.028 A 
ATOM     22  C35 RES d   1      18.948   1.585   7.867  0.00  0.00     0.030 A 
ATOM     23  C34 RES d   1      19.167   0.553   6.984  0.00  0.00     0.019 A 
ATOM     24  C20 RES d   1      18.584  -0.697   7.213  0.00  0.00     0.032 A 
ATOM     25  C19 RES d   1      17.785  -0.896   8.343  0.00  0.00     0.019 A 
ATOM     26  C18 RES d   1      17.574   0.138   9.225  0.00  0.00     0.030 A 
BRANCH  24  27
ATOM     27  C21 RES d   1      18.812  -1.804   6.265  0.00  0.00     0.252 C 
ATOM     28  O22 RES d   1      19.714  -1.732   5.452  0.00  0.00    -0.268 OA
ATOM     29  N23 RES d   1      18.020  -2.894   6.299  0.00  0.00    -0.342 N 
ATOM     30  H50 RES d   1      17.301  -2.950   6.947  0.00  0.00     0.163 HD
BRANCH  29  31
ATOM     31  C24 RES d   1      18.245  -3.993   5.357  0.00  0.00     0.186 C 
BRANCH  31  32
ATOM     32  C26 RES d   1      18.352  -5.310   6.127  0.00  0.00     0.046 C 
BRANCH  32  33
ATOM     33  C27 RES d   1      19.749  -5.431   6.741  0.00  0.00     0.116 C 
BRANCH  33  34
ATOM     34  C28 RES d   1      19.640  -5.429   8.243  0.00  0.00     0.172 C 
ATOM     35  O29 RES d   1      19.098  -4.497   8.814  0.00  0.00    -0.648 OA
ATOM     36  O30 RES d   1      20.093  -6.358   8.889  0.00  0.00    -0.648 OA
ENDBRANCH  33  34
ENDBRANCH  32  33
ENDBRANCH  31  32
BRANCH  31  37
ATOM     37  C31 RES d   1      17.093  -4.069   4.389  0.00  0.00     0.196 C 
ATOM     38  O32 RES d   1      16.404  -5.074   4.339  0.00  0.00    -0.646 OA
ATOM     39  O33 RES d   1      16.850  -3.127   3.655  0.00  0.00    -0.646 OA
ENDBRANCH  31  37
ENDBRANCH  29  31
ENDBRANCH  24  27
ENDBRANCH   1  21
TORSDOF 10
ENDMDL
MODEL 3
REMARK VINA RESULT:      -8.4      3.140     10.298
REMARK  10 active torsions:
REMARK  status: ('A' for Active; 'I' for Inactive)
REMARK    1  A    between atoms: C6_6  and  N7_7 
REMARK    2  A    between atoms: C13_13  and  C15_14 
REMARK    3  A    between atoms: C15_14  and  N16_15 
REMARK    4  A    between atoms: N16_15  and  C17_16 
REMARK    5  A    between atoms: C20_19  and  C21_20 
REMARK       I    between atoms: C21_20  and  N23_22 
REMARK    6  A    between atoms: N23_22  and  C24_23 
REMARK    7  A    between atoms: C24_23  and  C26_24 
REMARK    8  A    between atoms: C24_23  and  C31_29 
REMARK    9  A    between atoms: C26_24  and  C27_25 
REMARK   10  A    between atoms: C27_25  and  C28_26 
ROOT
ATOM      1  N16 RES d   1      19.261   2.187   8.793  0.00  0.00    -0.388 N 
ATOM      2  H47 RES d   1      19.404   3.086   8.458  0.00  0.00     0.159 HD
ENDROOT
BRANCH   1   3
ATOM      3  C15 RES d   1      19.162   1.948  10.234  0.00  0.00     0.146 C 
BRANCH   3   4
ATOM      4  C13 RES d   1      17.706   2.110  10.678  0.00  0.00     0.119 C 
ATOM      5  N2  RES d   1      17.598   3.259  11.592  0.00  0.00    -0.370 N 
ATOM      6  C1  RES d   1      17.026   4.528  11.134  0.00  0.00     0.150 C 
ATOM      7  C3  RES d   1      18.053   3.109  12.920  0.00  0.00     0.146 A 
ATOM      8  C9  RES d   1      18.282   4.227  13.730  0.00  0.00     0.290 A 
ATOM      9  C4  RES d   1      18.279   1.842  13.439  0.00  0.00     0.175 A 
ATOM     10  N8  RES d   1      18.714   4.029  14.994  0.00  0.00    -0.153 N 
ATOM     11  O10 RES d   1      18.094   5.356  13.302  0.00  0.00    -0.265 OA
ATOM     12  C6  RES d   1      18.919   2.766  15.458  0.00  0.00     0.703 A 
ATOM     13  H41 RES d   1      18.881   4.791  15.573  0.00  0.00     0.187 HD
ATOM     14  N5  RES d   1      18.706   1.711  14.701  0.00  0.00    -0.045 NA
ATOM     15  N11 RES d   1      18.064   0.724  12.649  0.00  0.00    -0.370 N 
ATOM     16  C12 RES d   1      17.253   0.855  11.430  0.00  0.00     0.148 C 
ATOM     17  H42 RES d   1      18.445  -0.134  12.897  0.00  0.00     0.161 HD
BRANCH  12  18
ATOM     18  N7  RES d   1      19.357   2.590  16.746  0.00  0.00    -0.233 N 
ATOM     19  H39 RES d   1      18.803   2.876  17.489  0.00  0.00     0.174 HD
ATOM     20  H40 RES d   1      20.219   2.178  16.912  0.00  0.00     0.174 HD
ENDBRANCH  12  18
ENDBRANCH   3   4
ENDBRANCH   1   3
BRANCH   1  21
ATOM     21  C17 RES d   1      19.152   1.124   7.903  0.00  0.00     0.028 A 
ATOM     22  C35 RES d   1      18.886   1.368   6.558  0.00  0.00     0.030 A 
ATOM     23  C34 RES d   1      18.783   0.319   5.674  0.00  0.00     0.019 A 
ATOM     24  C20 RES d   1      18.934  -0.994   6.129  0.00  0.00     0.032 A 
ATOM     25  C19 RES d   1      19.195  -1.237   7.481  0.00  0.00     0.019 A 
ATOM     26  C18 RES d   1      19.303  -0.183   8.359  0.00  0.00     0.030 A 
BRANCH  24  27
ATOM     27  C21 RES d   1      18.817  -2.122   5.186  0.00  0.00     0.252 C 
ATOM     28  O22 RES d   1      19.576  -2.204   4.239  0.00  0.00    -0.268 OA
ATOM     29  N23 RES d   1      17.869  -3.062   5.372  0.00  0.00    -0.342 N 
ATOM     30  H50 RES d   1      17.264  -2.996   6.127  0.00  0.00     0.163 HD
BRANCH  29  31
ATOM     31  C24 RES d   1      17.752  -4.182   4.436  0.00  0.00     0.186 C 
BRANCH  31  32
ATOM     32  C26 RES d   1      17.800  -5.501   5.209  0.00  0.00     0.046 C 
BRANCH  32  33
ATOM     33  C27 RES d   1      17.872  -5.211   6.710  0.00  0.00     0.116 C 
BRANCH  33  34
ATOM     34  C28 RES d   1      19.248  -5.547   7.222  0.00  0.00     0.172 C 
ATOM     35  O29 RES d   1      19.409  -6.518   7.943  0.00  0.00    -0.648 OA
ATOM     36  O30 RES d   1      20.200  -4.850   6.917  0.00  0.00    -0.648 OA
ENDBRANCH  33  34
ENDBRANCH  32  33
ENDBRANCH  31  32
BRANCH  31  37
ATOM     37  C31 RES d   1      16.445  -4.082   3.693  0.00  0.00     0.196 C 
ATOM     38  O32 RES d   1      16.405  -3.541   2.601  0.00  0.00    -0.646 OA
ATOM     39  O33 RES d   1      15.428  -4.542   4.183  0.00  0.00    -0.646 OA
ENDBRANCH  31  37
ENDBRANCH  29  31
ENDBRANCH  24  27
ENDBRANCH   1  21
TORSDOF 10
ENDMDL
MODEL 4
REMARK VINA RESULT:      -8.4      2.712      5.676
REMARK  10 active torsions:
REMARK  status: ('A' for Active; 'I' for Inactive)
REMARK    1  A    between atoms: C6_6  and  N7_7 
REMARK    2  A    between atoms: C13_13  and  C15_14 
REMARK    3  A    between atoms: C15_14  and  N16_15 
REMARK    4  A    between atoms: N16_15  and  C17_16 
REMARK    5  A    between atoms: C20_19  and  C21_20 
REMARK       I    between atoms: C21_20  and  N23_22 
REMARK    6  A    between atoms: N23_22  and  C24_23 
REMARK    7  A    between atoms: C24_23  and  C26_24 
REMARK    8  A    between atoms: C24_23  and  C31_29 
REMARK    9  A    between atoms: C26_24  and  C27_25 
REMARK   10  A    between atoms: C27_25  and  C28_26 
ROOT
ATOM      1  N16 RES d   1      19.133  -1.392  13.666  0.00  0.00    -0.388 N 
ATOM      2  H47 RES d   1      18.837  -2.306  13.801  0.00  0.00     0.159 HD
ENDROOT
BRANCH   1   3
ATOM      3  C15 RES d   1      19.680  -0.981  12.372  0.00  0.00     0.146 C 
BRANCH   3   4
ATOM      4  C13 RES d   1      18.669  -1.298  11.267  0.00  0.00     0.119 C 
ATOM      5  N2  RES d   1      18.909  -0.413  10.116  0.00  0.00    -0.370 N 
ATOM      6  C1  RES d   1      19.564  -0.917   8.906  0.00  0.00     0.150 C 
ATOM      7  C3  RES d   1      18.488   0.932  10.202  0.00  0.00     0.146 A 
ATOM      8  C9  RES d   1      18.965   1.892   9.303  0.00  0.00     0.290 A 
ATOM      9  C4  RES d   1      17.590   1.319  11.187  0.00  0.00     0.175 A 
ATOM     10  N8  RES d   1      18.530   3.165   9.426  0.00  0.00    -0.153 N 
ATOM     11  O10 RES d   1      19.758   1.585   8.425  0.00  0.00    -0.265 OA
ATOM     12  C6  RES d   1      17.646   3.493  10.407  0.00  0.00     0.703 A 
ATOM     13  H41 RES d   1      18.849   3.846   8.813  0.00  0.00     0.187 HD
ATOM     14  N5  RES d   1      17.194   2.596  11.257  0.00  0.00    -0.045 NA
ATOM     15  N11 RES d   1      17.111   0.383  12.090  0.00  0.00    -0.370 N 
ATOM     16  C12 RES d   1      17.248  -1.047  11.778  0.00  0.00     0.148 C 
ATOM     17  H42 RES d   1      16.693   0.668  12.918  0.00  0.00     0.161 HD
BRANCH  12  18
ATOM     18  N7  RES d   1      17.217   4.792  10.513  0.00  0.00    -0.233 N 
ATOM     19  H39 RES d   1      17.747   5.510  10.132  0.00  0.00     0.174 HD
ATOM     20  H40 RES d   1      16.384   4.991  10.967  0.00  0.00     0.174 HD
ENDBRANCH  12  18
ENDBRANCH   3   4
ENDBRANCH   1   3
BRANCH   1  21
ATOM     21  C17 RES d   1      19.037  -0.472  14.704  0.00  0.00     0.028 A 
ATOM     22  C35 RES d   1      19.385   0.859  14.489  0.00  0.00     0.030 A 
ATOM     23  C34 RES d   1      19.284   1.773  15.513  0.00  0.00     0.019 A 
ATOM     24  C20 RES d   1      18.843   1.361  16.774  0.00  0.00     0.032 A 
ATOM     25  C19 RES d   1      18.498   0.023  16.989  0.00  0.00     0.019 A 
ATOM     26  C18 RES d   1      18.596  -0.884  15.960  0.00  0.00     0.030 A 
BRANCH  24  27
ATOM     27  C21 RES d   1      18.740   2.337  17.876  0.00  0.00     0.252 C 
ATOM     28  O22 RES d   1      19.517   2.283  18.810  0.00  0.00    -0.268 OA
ATOM     29  N23 RES d   1      17.786   3.288  17.848  0.00  0.00    -0.342 N 
ATOM     30  H50 RES d   1      17.166   3.330  17.103  0.00  0.00     0.163 HD
BRANCH  29  31
ATOM     31  C24 RES d   1      17.683   4.256  18.941  0.00  0.00     0.186 C 
BRANCH  31  32
ATOM     32  C26 RES d   1      17.701   5.675  18.370  0.00  0.00     0.046 C 
BRANCH  32  33
ATOM     33  C27 RES d   1      17.710   5.610  16.842  0.00  0.00     0.116 C 
BRANCH  33  34
ATOM     34  C28 RES d   1      18.868   6.414  16.310  0.00  0.00     0.172 C 
ATOM     35  O29 RES d   1      18.698   7.571  15.963  0.00  0.00    -0.648 OA
ATOM     36  O30 RES d   1      19.974   5.909  16.226  0.00  0.00    -0.648 OA
ENDBRANCH  33  34
ENDBRANCH  32  33
ENDBRANCH  31  32
BRANCH  31  37
ATOM     37  C31 RES d   1      16.395   4.033  19.692  0.00  0.00     0.196 C 
ATOM     38  O32 RES d   1      15.352   4.493  19.261  0.00  0.00    -0.646 OA
ATOM     39  O33 RES d   1      16.397   3.392  20.729  0.00  0.00    -0.646 OA
ENDBRANCH  31  37
ENDBRANCH  29  31
ENDBRANCH  24  27
ENDBRANCH   1  21
TORSDOF 10
ENDMDL
MODEL 5
REMARK VINA RESULT:      -8.1      4.293      8.969
REMARK  10 active torsions:
REMARK  status: ('A' for Active; 'I' for Inactive)
REMARK    1  A    between atoms: C6_6  and  N7_7 
REMARK    2  A    between atoms: C13_13  and  C15_14 
REMARK    3  A    between atoms: C15_14  and  N16_15 
REMARK    4  A    between atoms: N16_15  and  C17_16 
REMARK    5  A    between atoms: C20_19  and  C21_20 
REMARK       I    between atoms: C21_20  and  N23_22 
REMARK    6  A    between atoms: N23_22  and  C24_23 
REMARK    7  A    between atoms: C24_23  and  C26_24 
REMARK    8  A    between atoms: C24_23  and  C31_29 
REMARK    9  A    between atoms: C26_24  and  C27_25 
REMARK   10  A    between atoms: C27_25  and  C28_26 
ROOT
ATOM      1  N16 RES d   1      17.836   2.067  10.298  0.00  0.00    -0.388 N 
ATOM      2  H47 RES d   1      18.107   2.991  10.178  0.00  0.00     0.159 HD
ENDROOT
BRANCH   1   3
ATOM      3  C15 RES d   1      17.174   1.653  11.536  0.00  0.00     0.146 C 
BRANCH   3   4
ATOM      4  C13 RES d   1      18.208   1.558  12.661  0.00  0.00     0.119 C 
ATOM      5  N2  RES d   1      19.420   0.893  12.155  0.00  0.00    -0.370 N 
ATOM      6  C1  RES d   1      20.627   1.667  11.853  0.00  0.00     0.150 C 
ATOM      7  C3  RES d   1      19.395  -0.507  11.974  0.00  0.00     0.146 A 
ATOM      8  C9  RES d   1      20.372  -1.148  11.205  0.00  0.00     0.290 A 
ATOM      9  C4  RES d   1      18.393  -1.267  12.561  0.00  0.00     0.175 A 
ATOM     10  N8  RES d   1      20.305  -2.489  11.064  0.00  0.00    -0.153 N 
ATOM     11  O10 RES d   1      21.267  -0.507  10.673  0.00  0.00    -0.265 OA
ATOM     12  C6  RES d   1      19.304  -3.191  11.663  0.00  0.00     0.703 A 
ATOM     13  H41 RES d   1      20.972  -2.954  10.535  0.00  0.00     0.187 HD
ATOM     14  N5  RES d   1      18.381  -2.594  12.387  0.00  0.00    -0.045 NA
ATOM     15  N11 RES d   1      17.413  -0.648  13.321  0.00  0.00    -0.370 N 
ATOM     16  C12 RES d   1      17.645   0.718  13.811  0.00  0.00     0.148 C 
ATOM     17  H42 RES d   1      16.585  -1.110  13.526  0.00  0.00     0.161 HD
BRANCH  12  18
ATOM     18  N7  RES d   1      19.256  -4.553  11.507  0.00  0.00    -0.233 N 
ATOM     19  H39 RES d   1      19.492  -4.951  10.654  0.00  0.00     0.174 HD
ATOM     20  H40 RES d   1      18.988  -5.116  12.249  0.00  0.00     0.174 HD
ENDBRANCH  12  18
ENDBRANCH   3   4
ENDBRANCH   1   3
BRANCH   1  21
ATOM     21  C17 RES d   1      18.076   1.137   9.293  0.00  0.00     0.028 A 
ATOM     22  C35 RES d   1      19.045   1.392   8.325  0.00  0.00     0.030 A 
ATOM     23  C34 RES d   1      19.289   0.471   7.334  0.00  0.00     0.019 A 
ATOM     24  C20 RES d   1      18.555  -0.719   7.291  0.00  0.00     0.032 A 
ATOM     25  C19 RES d   1      17.579  -0.970   8.261  0.00  0.00     0.019 A 
ATOM     26  C18 RES d   1      17.344  -0.047   9.253  0.00  0.00     0.030 A 
BRANCH  24  27
ATOM     27  C21 RES d   1      18.809  -1.706   6.225  0.00  0.00     0.252 C 
ATOM     28  O22 RES d   1      19.697  -1.514   5.417  0.00  0.00    -0.268 OA
ATOM     29  N23 RES d   1      18.056  -2.822   6.146  0.00  0.00    -0.342 N 
ATOM     30  H50 RES d   1      17.348  -2.974   6.790  0.00  0.00     0.163 HD
BRANCH  29  31
ATOM     31  C24 RES d   1      18.308  -3.802   5.088  0.00  0.00     0.186 C 
BRANCH  31  32
ATOM     32  C26 RES d   1      18.324  -5.208   5.689  0.00  0.00     0.046 C 
BRANCH  32  33
ATOM     33  C27 RES d   1      19.558  -5.368   6.580  0.00  0.00     0.116 C 
BRANCH  33  34
ATOM     34  C28 RES d   1      19.124  -5.526   8.015  0.00  0.00     0.172 C 
ATOM     35  O29 RES d   1      19.643  -6.377   8.718  0.00  0.00    -0.648 OA
ATOM     36  O30 RES d   1      18.256  -4.805   8.473  0.00  0.00    -0.648 OA
ENDBRANCH  33  34
ENDBRANCH  32  33
ENDBRANCH  31  32
BRANCH  31  37
ATOM     37  C31 RES d   1      17.219  -3.712   4.050  0.00  0.00     0.196 C 
ATOM     38  O32 RES d   1      17.212  -4.484   3.106  0.00  0.00    -0.646 OA
ATOM     39  O33 RES d   1      16.345  -2.869   4.154  0.00  0.00    -0.646 OA
ENDBRANCH  31  37
ENDBRANCH  29  31
ENDBRANCH  24  27
ENDBRANCH   1  21
TORSDOF 10
ENDMDL
MODEL 6
REMARK VINA RESULT:      -8.1      2.476      4.893
REMARK  10 active torsions:
REMARK  status: ('A' for Active; 'I' for Inactive)
REMARK    1  A    between atoms: C6_6  and  N7_7 
REMARK    2  A    between atoms: C13_13  and  C15_14 
REMARK    3  A    between atoms: C15_14  and  N16_15 
REMARK    4  A    between atoms: N16_15  and  C17_16 
REMARK    5  A    between atoms: C20_19  and  C21_20 
REMARK       I    between atoms: C21_20  and  N23_22 
REMARK    6  A    between atoms: N23_22  and  C24_23 
REMARK    7  A    between atoms: C24_23  and  C26_24 
REMARK    8  A    between atoms: C24_23  and  C31_29 
REMARK    9  A    between atoms: C26_24  and  C27_25 
REMARK   10  A    between atoms: C27_25  and  C28_26 
ROOT
ATOM      1  N16 RES d   1      19.004  -1.561  13.932  0.00  0.00    -0.388 N 
ATOM      2  H47 RES d   1      19.074  -2.495  14.181  0.00  0.00     0.159 HD
ENDROOT
BRANCH   1   3
ATOM      3  C15 RES d   1      18.970  -1.178  12.519  0.00  0.00     0.146 C 
BRANCH   3   4
ATOM      4  C13 RES d   1      17.592  -1.500  11.936  0.00  0.00     0.119 C 
ATOM      5  N2  RES d   1      17.755  -2.122  10.611  0.00  0.00    -0.370 N 
ATOM      6  C1  RES d   1      17.563  -3.563  10.431  0.00  0.00     0.150 C 
ATOM      7  C3  RES d   1      18.095  -1.296   9.518  0.00  0.00     0.146 A 
ATOM      8  C9  RES d   1      18.578  -1.848   8.326  0.00  0.00     0.290 A 
ATOM      9  C4  RES d   1      17.951   0.081   9.614  0.00  0.00     0.175 A 
ATOM     10  N8  RES d   1      18.886  -1.015   7.308  0.00  0.00    -0.153 N 
ATOM     11  O10 RES d   1      18.717  -3.057   8.209  0.00  0.00    -0.265 OA
ATOM     12  C6  RES d   1      18.726   0.329   7.451  0.00  0.00     0.703 A 
ATOM     13  H41 RES d   1      19.224  -1.377   6.473  0.00  0.00     0.187 HD
ATOM     14  N5  RES d   1      18.272   0.854   8.569  0.00  0.00    -0.045 NA
ATOM     15  N11 RES d   1      17.480   0.645  10.789  0.00  0.00    -0.370 N 
ATOM     16  C12 RES d   1      16.788  -0.209  11.764  0.00  0.00     0.148 C 
ATOM     17  H42 RES d   1      17.607   1.591  10.965  0.00  0.00     0.161 HD
BRANCH  12  18
ATOM     18  N7  RES d   1      19.044   1.155   6.404  0.00  0.00    -0.233 N 
ATOM     19  H39 RES d   1      18.340   1.617   5.920  0.00  0.00     0.174 HD
ATOM     20  H40 RES d   1      19.971   1.278   6.147  0.00  0.00     0.174 HD
ENDBRANCH  12  18
ENDBRANCH   3   4
ENDBRANCH   1   3
BRANCH   1  21
ATOM     21  C17 RES d   1      18.934  -0.584  14.919  0.00  0.00     0.028 A 
ATOM     22  C35 RES d   1      19.039   0.762  14.576  0.00  0.00     0.030 A 
ATOM     23  C34 RES d   1      18.964   1.730  15.550  0.00  0.00     0.019 A 
ATOM     24  C20 RES d   1      18.794   1.362  16.888  0.00  0.00     0.032 A 
ATOM     25  C19 RES d   1      18.693   0.010  17.231  0.00  0.00     0.019 A 
ATOM     26  C18 RES d   1      18.763  -0.953  16.252  0.00  0.00     0.030 A 
BRANCH  24  27
ATOM     27  C21 RES d   1      18.720   2.398  17.936  0.00  0.00     0.252 C 
ATOM     28  O22 RES d   1      19.504   2.380  18.864  0.00  0.00    -0.268 OA
ATOM     29  N23 RES d   1      17.782   3.364  17.864  0.00  0.00    -0.342 N 
ATOM     30  H50 RES d   1      17.156   3.377  17.123  0.00  0.00     0.163 HD
BRANCH  29  31
ATOM     31  C24 RES d   1      17.708   4.392  18.904  0.00  0.00     0.186 C 
BRANCH  31  32
ATOM     32  C26 RES d   1      17.707   5.776  18.254  0.00  0.00     0.046 C 
BRANCH  32  33
ATOM     33  C27 RES d   1      17.875   5.630  16.740  0.00  0.00     0.116 C 
BRANCH  33  34
ATOM     34  C28 RES d   1      18.568   6.849  16.190  0.00  0.00     0.172 C 
ATOM     35  O29 RES d   1      18.219   7.962  16.549  0.00  0.00    -0.648 OA
ATOM     36  O30 RES d   1      19.476   6.725  15.387  0.00  0.00    -0.648 OA
ENDBRANCH  33  34
ENDBRANCH  32  33
ENDBRANCH  31  32
BRANCH  31  37
ATOM     37  C31 RES d   1      16.442   4.211  19.701  0.00  0.00     0.196 C 
ATOM     38  O32 RES d   1      15.362   4.469  19.196  0.00  0.00    -0.646 OA
ATOM     39  O33 RES d   1      16.496   3.806  20.850  0.00  0.00    -0.646 OA
ENDBRANCH  31  37
ENDBRANCH  29  31
ENDBRANCH  24  27
ENDBRANCH   1  21
TORSDOF 10
ENDMDL
MODEL 7
REMARK VINA RESULT:      -8.1      3.185     10.535
REMARK  10 active torsions:
REMARK  status: ('A' for Active; 'I' for Inactive)
REMARK    1  A    between atoms: C6_6  and  N7_7 
REMARK    2  A    between atoms: C13_13  and  C15_14 
REMARK    3  A    between atoms: C15_14  and  N16_15 
REMARK    4  A    between atoms: N16_15  and  C17_16 
REMARK    5  A    between atoms: C20_19  and  C21_20 
REMARK       I    between atoms: C21_20  and  N23_22 
REMARK    6  A    between atoms: N23_22  and  C24_23 
REMARK    7  A    between atoms: C24_23  and  C26_24 
REMARK    8  A    between atoms: C24_23  and  C31_29 
REMARK    9  A    between atoms: C26_24  and  C27_25 
REMARK   10  A    between atoms: C27_25  and  C28_26 
ROOT
ATOM      1  N16 RES d   1      19.675  -1.449  13.650  0.00  0.00    -0.388 N 
ATOM      2  H47 RES d   1      19.997  -1.980  14.395  0.00  0.00     0.159 HD
ENDROOT
BRANCH   1   3
ATOM      3  C15 RES d   1      19.664   0.012  13.743  0.00  0.00     0.146 C 
BRANCH   3   4
ATOM      4  C13 RES d   1      18.241   0.527  13.513  0.00  0.00     0.119 C 
ATOM      5  N2  RES d   1      18.298   1.848  12.866  0.00  0.00    -0.370 N 
ATOM      6  C1  RES d   1      17.996   1.997  11.440  0.00  0.00     0.150 C 
ATOM      7  C3  RES d   1      18.645   2.969  13.651  0.00  0.00     0.146 A 
ATOM      8  C9  RES d   1      19.031   4.173  13.052  0.00  0.00     0.290 A 
ATOM      9  C4  RES d   1      18.604   2.888  15.036  0.00  0.00     0.175 A 
ATOM     10  N8  RES d   1      19.351   5.216  13.847  0.00  0.00    -0.153 N 
ATOM     11  O10 RES d   1      19.078   4.277  11.835  0.00  0.00    -0.265 OA
ATOM     12  C6  RES d   1      19.293   5.087  15.201  0.00  0.00     0.703 A 
ATOM     13  H41 RES d   1      19.623   6.060  13.453  0.00  0.00     0.187 HD
ATOM     14  N5  RES d   1      18.930   3.958  15.771  0.00  0.00    -0.045 NA
ATOM     15  N11 RES d   1      18.229   1.701  15.647  0.00  0.00    -0.370 N 
ATOM     16  C12 RES d   1      17.524   0.682  14.857  0.00  0.00     0.148 C 
ATOM     17  H42 RES d   1      18.431   1.546  16.583  0.00  0.00     0.161 HD
BRANCH  12  18
ATOM     18  N7  RES d   1      19.620   6.160  15.990  0.00  0.00    -0.233 N 
ATOM     19  H39 RES d   1      20.089   6.020  16.828  0.00  0.00     0.174 HD
ATOM     20  H40 RES d   1      19.385   7.058  15.710  0.00  0.00     0.174 HD
ENDBRANCH  12  18
ENDBRANCH   3   4
ENDBRANCH   1   3
BRANCH   1  21
ATOM     21  C17 RES d   1      19.224  -2.076  12.494  0.00  0.00     0.028 A 
ATOM     22  C35 RES d   1      18.171  -2.985  12.560  0.00  0.00     0.030 A 
ATOM     23  C34 RES d   1      17.719  -3.602  11.417  0.00  0.00     0.019 A 
ATOM     24  C20 RES d   1      18.327  -3.325  10.188  0.00  0.00     0.032 A 
ATOM     25  C19 RES d   1      19.388  -2.417  10.125  0.00  0.00     0.019 A 
ATOM     26  C18 RES d   1      19.831  -1.799  11.271  0.00  0.00     0.030 A 
BRANCH  24  27
ATOM     27  C21 RES d   1      17.850  -3.991   8.961  0.00  0.00     0.252 C 
ATOM     28  O22 RES d   1      16.788  -4.584   8.964  0.00  0.00    -0.268 OA
ATOM     29  N23 RES d   1      18.591  -3.941   7.836  0.00  0.00    -0.342 N 
ATOM     30  H50 RES d   1      19.438  -3.469   7.834  0.00  0.00     0.163 HD
BRANCH  29  31
ATOM     31  C24 RES d   1      18.118  -4.602   6.618  0.00  0.00     0.186 C 
BRANCH  31  32
ATOM     32  C26 RES d   1      18.297  -3.661   5.425  0.00  0.00     0.046 C 
BRANCH  32  33
ATOM     33  C27 RES d   1      19.227  -2.511   5.817  0.00  0.00     0.116 C 
BRANCH  33  34
ATOM     34  C28 RES d   1      19.030  -1.359   4.867  0.00  0.00     0.172 C 
ATOM     35  O29 RES d   1      19.985  -0.685   4.519  0.00  0.00    -0.648 OA
ATOM     36  O30 RES d   1      17.916  -1.098   4.447  0.00  0.00    -0.648 OA
ENDBRANCH  33  34
ENDBRANCH  32  33
ENDBRANCH  31  32
BRANCH  31  37
ATOM     37  C31 RES d   1      18.913  -5.861   6.388  0.00  0.00     0.196 C 
ATOM     38  O32 RES d   1      18.430  -6.778   5.744  0.00  0.00    -0.646 OA
ATOM     39  O33 RES d   1      20.038  -5.964   6.845  0.00  0.00    -0.646 OA
ENDBRANCH  31  37
ENDBRANCH  29  31
ENDBRANCH  24  27
ENDBRANCH   1  21
TORSDOF 10
ENDMDL
MODEL 8
REMARK VINA RESULT:      -8.1      3.103     10.345
REMARK  10 active torsions:
REMARK  status: ('A' for Active; 'I' for Inactive)
REMARK    1  A    between atoms: C6_6  and  N7_7 
REMARK    2  A    between atoms: C13_13  and  C15_14 
REMARK    3  A    between atoms: C15_14  and  N16_15 
REMARK    4  A    between atoms: N16_15  and  C17_16 
REMARK    5  A    between atoms: C20_19  and  C21_20 
REMARK       I    between atoms: C21_20  and  N23_22 
REMARK    6  A    between atoms: N23_22  and  C24_23 
REMARK    7  A    between atoms: C24_23  and  C26_24 
REMARK    8  A    between atoms: C24_23  and  C31_29 
REMARK    9  A    between atoms: C26_24  and  C27_25 
REMARK   10  A    between atoms: C27_25  and  C28_26 
ROOT
ATOM      1  N16 RES d   1      18.127   2.084   9.624  0.00  0.00    -0.388 N 
ATOM      2  H47 RES d   1      18.024   3.018   9.384  0.00  0.00     0.159 HD
ENDROOT
BRANCH   1   3
ATOM      3  C15 RES d   1      18.111   1.683  11.032  0.00  0.00     0.146 C 
BRANCH   3   4
ATOM      4  C13 RES d   1      19.518   1.823  11.618  0.00  0.00     0.119 C 
ATOM      5  N2  RES d   1      19.496   1.442  13.040  0.00  0.00    -0.370 N 
ATOM      6  C1  RES d   1      20.034   0.152  13.479  0.00  0.00     0.150 C 
ATOM      7  C3  RES d   1      18.949   2.351  13.972  0.00  0.00     0.146 A 
ATOM      8  C9  RES d   1      18.600   1.933  15.261  0.00  0.00     0.290 A 
ATOM      9  C4  RES d   1      18.750   3.678  13.617  0.00  0.00     0.175 A 
ATOM     10  N8  RES d   1      18.083   2.842  16.116  0.00  0.00    -0.153 N 
ATOM     11  O10 RES d   1      18.762   0.772  15.606  0.00  0.00    -0.265 OA
ATOM     12  C6  RES d   1      17.910   4.133  15.720  0.00  0.00     0.703 A 
ATOM     13  H41 RES d   1      17.834   2.574  17.015  0.00  0.00     0.187 HD
ATOM     14  N5  RES d   1      18.235   4.532  14.509  0.00  0.00    -0.045 NA
ATOM     15  N11 RES d   1      19.084   4.107  12.341  0.00  0.00    -0.370 N 
ATOM     16  C12 RES d   1      19.977   3.280  11.519  0.00  0.00     0.148 C 
ATOM     17  H42 RES d   1      18.730   4.943  11.996  0.00  0.00     0.161 HD
BRANCH  12  18
ATOM     18  N7  RES d   1      17.385   5.039  16.605  0.00  0.00    -0.233 N 
ATOM     19  H39 RES d   1      16.518   4.874  17.010  0.00  0.00     0.174 HD
ATOM     20  H40 RES d   1      17.879   5.843  16.827  0.00  0.00     0.174 HD
ENDBRANCH  12  18
ENDBRANCH   3   4
ENDBRANCH   1   3
BRANCH   1  21
ATOM     21  C17 RES d   1      18.288   1.126   8.630  0.00  0.00     0.028 A 
ATOM     22  C35 RES d   1      18.982   1.442   7.465  0.00  0.00     0.030 A 
ATOM     23  C34 RES d   1      19.148   0.494   6.482  0.00  0.00     0.019 A 
ATOM     24  C20 RES d   1      18.610  -0.786   6.649  0.00  0.00     0.032 A 
ATOM     25  C19 RES d   1      17.909  -1.099   7.817  0.00  0.00     0.019 A 
ATOM     26  C18 RES d   1      17.751  -0.149   8.799  0.00  0.00     0.030 A 
BRANCH  24  27
ATOM     27  C21 RES d   1      18.780  -1.803   5.594  0.00  0.00     0.252 C 
ATOM     28  O22 RES d   1      19.670  -1.685   4.774  0.00  0.00    -0.268 OA
ATOM     29  N23 RES d   1      17.949  -2.863   5.539  0.00  0.00    -0.342 N 
ATOM     30  H50 RES d   1      17.239  -2.956   6.193  0.00  0.00     0.163 HD
BRANCH  29  31
ATOM     31  C24 RES d   1      18.117  -3.873   4.492  0.00  0.00     0.186 C 
BRANCH  31  32
ATOM     32  C26 RES d   1      18.145  -5.265   5.126  0.00  0.00     0.046 C 
BRANCH  32  33
ATOM     33  C27 RES d   1      18.028  -5.136   6.646  0.00  0.00     0.116 C 
BRANCH  33  34
ATOM     34  C28 RES d   1      19.276  -5.678   7.294  0.00  0.00     0.172 C 
ATOM     35  O29 RES d   1      20.367  -5.227   6.986  0.00  0.00    -0.648 OA
ATOM     36  O30 RES d   1      19.197  -6.565   8.125  0.00  0.00    -0.648 OA
ENDBRANCH  33  34
ENDBRANCH  32  33
ENDBRANCH  31  32
BRANCH  31  37
ATOM     37  C31 RES d   1      16.969  -3.786   3.520  0.00  0.00     0.196 C 
ATOM     38  O32 RES d   1      17.072  -4.280   2.410  0.00  0.00    -0.646 OA
ATOM     39  O33 RES d   1      15.937  -3.222   3.844  0.00  0.00    -0.646 OA
ENDBRANCH  31  37
ENDBRANCH  29  31
ENDBRANCH  24  27
ENDBRANCH   1  21
TORSDOF 10
ENDMDL
MODEL 9
REMARK VINA RESULT:      -8.0      3.115     10.388
REMARK  10 active torsions:
REMARK  status: ('A' for Active; 'I' for Inactive)
REMARK    1  A    between atoms: C6_6  and  N7_7 
REMARK    2  A    between atoms: C13_13  and  C15_14 
REMARK    3  A    between atoms: C15_14  and  N16_15 
REMARK    4  A    between atoms: N16_15  and  C17_16 
REMARK    5  A    between atoms: C20_19  and  C21_20 
REMARK       I    between atoms: C21_20  and  N23_22 
REMARK    6  A    between atoms: N23_22  and  C24_23 
REMARK    7  A    between atoms: C24_23  and  C26_24 
REMARK    8  A    between atoms: C24_23  and  C31_29 
REMARK    9  A    between atoms: C26_24  and  C27_25 
REMARK   10  A    between atoms: C27_25  and  C28_26 
ROOT
ATOM      1  N16 RES d   1      18.896  -1.833  13.030  0.00  0.00    -0.388 N 
ATOM      2  H47 RES d   1      19.502  -2.262  13.654  0.00  0.00     0.159 HD
ENDROOT
BRANCH   1   3
ATOM      3  C15 RES d   1      18.419  -0.473  13.290  0.00  0.00     0.146 C 
BRANCH   3   4
ATOM      4  C13 RES d   1      19.603   0.421  13.664  0.00  0.00     0.119 C 
ATOM      5  N2  RES d   1      19.108   1.755  14.043  0.00  0.00    -0.370 N 
ATOM      6  C1  RES d   1      19.059   2.164  15.449  0.00  0.00     0.150 C 
ATOM      7  C3  RES d   1      18.687   2.632  13.021  0.00  0.00     0.146 A 
ATOM      8  C9  RES d   1      17.915   3.761  13.317  0.00  0.00     0.290 A 
ATOM      9  C4  RES d   1      19.037   2.383  11.701  0.00  0.00     0.175 A 
ATOM     10  N8  RES d   1      17.540   4.571  12.304  0.00  0.00    -0.153 N 
ATOM     11  O10 RES d   1      17.589   4.009  14.469  0.00  0.00    -0.265 OA
ATOM     12  C6  RES d   1      17.912   4.284  11.026  0.00  0.00     0.703 A 
ATOM     13  H41 RES d   1      17.004   5.359  12.487  0.00  0.00     0.187 HD
ATOM     14  N5  RES d   1      18.637   3.224  10.740  0.00  0.00    -0.045 NA
ATOM     15  N11 RES d   1      19.796   1.266  11.388  0.00  0.00    -0.370 N 
ATOM     16  C12 RES d   1      20.533   0.579  12.458  0.00  0.00     0.148 C 
ATOM     17  H42 RES d   1      19.838   0.941  10.475  0.00  0.00     0.161 HD
BRANCH  12  18
ATOM     18  N7  RES d   1      17.520   5.121  10.012  0.00  0.00    -0.233 N 
ATOM     19  H39 RES d   1      18.175   5.685   9.569  0.00  0.00     0.174 HD
ATOM     20  H40 RES d   1      16.591   5.149   9.738  0.00  0.00     0.174 HD
ENDBRANCH  12  18
ENDBRANCH   3   4
ENDBRANCH   1   3
BRANCH   1  21
ATOM     21  C17 RES d   1      18.481  -2.510  11.889  0.00  0.00     0.028 A 
ATOM     22  C35 RES d   1      17.998  -3.812  11.989  0.00  0.00     0.030 A 
ATOM     23  C34 RES d   1      17.582  -4.482  10.862  0.00  0.00     0.019 A 
ATOM     24  C20 RES d   1      17.654  -3.858   9.613  0.00  0.00     0.032 A 
ATOM     25  C19 RES d   1      18.145  -2.552   9.514  0.00  0.00     0.019 A 
ATOM     26  C18 RES d   1      18.554  -1.886  10.646  0.00  0.00     0.030 A 
BRANCH  24  27
ATOM     27  C21 RES d   1      17.215  -4.575   8.401  0.00  0.00     0.252 C 
ATOM     28  O22 RES d   1      16.287  -5.359   8.461  0.00  0.00    -0.268 OA
ATOM     29  N23 RES d   1      17.842  -4.362   7.227  0.00  0.00    -0.342 N 
ATOM     30  H50 RES d   1      18.582  -3.737   7.179  0.00  0.00     0.163 HD
BRANCH  29  31
ATOM     31  C24 RES d   1      17.406  -5.074   6.024  0.00  0.00     0.186 C 
BRANCH  31  32
ATOM     32  C26 RES d   1      17.491  -4.138   4.817  0.00  0.00     0.046 C 
BRANCH  32  33
ATOM     33  C27 RES d   1      18.907  -3.567   4.712  0.00  0.00     0.116 C 
BRANCH  33  34
ATOM     34  C28 RES d   1      18.867  -2.078   4.934  0.00  0.00     0.172 C 
ATOM     35  O29 RES d   1      18.060  -1.599   5.713  0.00  0.00    -0.648 OA
ATOM     36  O30 RES d   1      19.641  -1.351   4.336  0.00  0.00    -0.648 OA
ENDBRANCH  33  34
ENDBRANCH  32  33
ENDBRANCH  31  32
BRANCH  31  37
ATOM     37  C31 RES d   1      18.297  -6.268   5.796  0.00  0.00     0.196 C 
ATOM     38  O32 RES d   1      18.047  -7.052   4.896  0.00  0.00    -0.646 OA
ATOM     39  O33 RES d   1      19.267  -6.450   6.511  0.00  0.00    -0.646 OA
ENDBRANCH  31  37
ENDBRANCH  29  31
ENDBRANCH  24  27
ENDBRANCH   1  21
TORSDOF 10
ENDMDL
