MODEL 1
REMARK VINA RESULT:      -3.2      0.000      0.000
REMARK  2 active torsions:
REMARK  status: ('A' for Active; 'I' for Inactive)
REMARK    1  A    between atoms: C2_2  and  N4_3 
REMARK    2  A    between atoms: C2_2  and  C8_7 
ROOT
ATOM      1  C1  ZIN A   1      18.725  -1.324  16.394  0.00  0.00     0.051 C 
ATOM      2  C2  ZIN A   1      18.183  -0.256  17.346  0.00  0.00     0.279 C 
ENDROOT
BRANCH   2   3
ATOM      3  N4  ZIN A   1      16.891   0.236  16.847  0.00  0.00    -0.066 N 
ATOM      4  H5  ZIN A   1      16.282  -0.546  16.663  0.00  0.00     0.275 HD
ATOM      5  H6  ZIN A   1      16.470   0.836  17.541  0.00  0.00     0.275 HD
ATOM      6  H7  ZIN A   1      17.036   0.759  15.995  0.00  0.00     0.275 HD
ENDBRANCH   2   3
BRANCH   2   7
ATOM      7  C8  ZIN A   1      19.159   0.889  17.425  0.00  0.00     0.204 C 
ATOM      8  O9  ZIN A   1      19.262   1.668  16.492  0.00  0.00    -0.646 OA
ATOM      9  O10 ZIN A   1      19.847   1.036  18.421  0.00  0.00    -0.646 OA
ENDBRANCH   2   7
TORSDOF 2
ENDMDL
MODEL 2
REMARK VINA RESULT:      -3.2     10.963     11.652
REMARK  2 active torsions:
REMARK  status: ('A' for Active; 'I' for Inactive)
REMARK    1  A    between atoms: C2_2  and  N4_3 
REMARK    2  A    between atoms: C2_2  and  C8_7 
ROOT
ATOM      1  C1  ZIN A   1      18.858   1.012   6.720  0.00  0.00     0.051 C 
ATOM      2  C2  ZIN A   1      18.300   0.024   5.694  0.00  0.00     0.279 C 
ENDROOT
BRANCH   2   3
ATOM      3  N4  ZIN A   1      17.060  -0.571   6.212  0.00  0.00    -0.066 N 
ATOM      4  H5  ZIN A   1      16.581  -1.052   5.465  0.00  0.00     0.275 HD
ATOM      5  H6  ZIN A   1      17.283  -1.227   6.945  0.00  0.00     0.275 HD
ATOM      6  H7  ZIN A   1      16.466   0.156   6.581  0.00  0.00     0.275 HD
ENDBRANCH   2   3
BRANCH   2   7
ATOM      7  C8  ZIN A   1      19.311  -1.064   5.443  0.00  0.00     0.204 C 
ATOM      8  O9  ZIN A   1      19.614  -1.834   6.339  0.00  0.00    -0.646 OA
ATOM      9  O10 ZIN A   1      19.828  -1.175   4.344  0.00  0.00    -0.646 OA
ENDBRANCH   2   7
TORSDOF 2
ENDMDL
MODEL 3
REMARK VINA RESULT:      -3.2      7.049      7.469
REMARK  2 active torsions:
REMARK  status: ('A' for Active; 'I' for Inactive)
REMARK    1  A    between atoms: C2_2  and  N4_3 
REMARK    2  A    between atoms: C2_2  and  C8_7 
ROOT
ATOM      1  C1  ZIN A   1      19.087   1.961   8.915  0.00  0.00     0.051 C 
ATOM      2  C2  ZIN A   1      18.949   2.933  10.089  0.00  0.00     0.279 C 
ENDROOT
BRANCH   2   3
ATOM      3  N4  ZIN A   1      20.015   2.676  11.067  0.00  0.00    -0.066 N 
ATOM      4  H5  ZIN A   1      19.606   2.369  11.936  0.00  0.00     0.275 HD
ATOM      5  H6  ZIN A   1      20.629   1.958  10.712  0.00  0.00     0.275 HD
ATOM      6  H7  ZIN A   1      20.541   3.522  11.221  0.00  0.00     0.275 HD
ENDBRANCH   2   3
BRANCH   2   7
ATOM      7  C8  ZIN A   1      17.607   2.738  10.747  0.00  0.00     0.204 C 
ATOM      8  O9  ZIN A   1      17.220   1.615  11.022  0.00  0.00    -0.646 OA
ATOM      9  O10 ZIN A   1      16.907   3.703  11.003  0.00  0.00    -0.646 OA
ENDBRANCH   2   7
TORSDOF 2
ENDMDL
MODEL 4
REMARK VINA RESULT:      -3.1      1.612      2.111
REMARK  2 active torsions:
REMARK  status: ('A' for Active; 'I' for Inactive)
REMARK    1  A    between atoms: C2_2  and  N4_3 
REMARK    2  A    between atoms: C2_2  and  C8_7 
ROOT
ATOM      1  C1  ZIN A   1      19.137   2.565  16.286  0.00  0.00     0.051 C 
ATOM      2  C2  ZIN A   1      18.902   1.084  16.592  0.00  0.00     0.279 C 
ENDROOT
BRANCH   2   3
ATOM      3  N4  ZIN A   1      17.470   0.780  16.468  0.00  0.00    -0.066 N 
ATOM      4  H5  ZIN A   1      17.312  -0.190  16.696  0.00  0.00     0.275 HD
ATOM      5  H6  ZIN A   1      16.946   1.364  17.102  0.00  0.00     0.275 HD
ATOM      6  H7  ZIN A   1      17.169   0.958  15.521  0.00  0.00     0.275 HD
ENDBRANCH   2   3
BRANCH   2   7
ATOM      7  C8  ZIN A   1      19.359   0.783  17.996  0.00  0.00     0.204 C 
ATOM      8  O9  ZIN A   1      19.769   1.683  18.710  0.00  0.00    -0.646 OA
ATOM      9  O10 ZIN A   1      19.318  -0.360  18.419  0.00  0.00    -0.646 OA
ENDBRANCH   2   7
TORSDOF 2
ENDMDL
MODEL 5
REMARK VINA RESULT:      -3.0      4.434      4.858
REMARK  2 active torsions:
REMARK  status: ('A' for Active; 'I' for Inactive)
REMARK    1  A    between atoms: C2_2  and  N4_3 
REMARK    2  A    between atoms: C2_2  and  C8_7 
ROOT
ATOM      1  C1  ZIN A   1      19.828  -1.001  11.510  0.00  0.00     0.051 C 
ATOM      2  C2  ZIN A   1      20.143   0.263  12.313  0.00  0.00     0.279 C 
ENDROOT
BRANCH   2   3
ATOM      3  N4  ZIN A   1      21.568   0.592  12.171  0.00  0.00    -0.066 N 
ATOM      4  H5  ZIN A   1      22.053   0.361  13.025  0.00  0.00     0.275 HD
ATOM      5  H6  ZIN A   1      21.960   0.061  11.407  0.00  0.00     0.275 HD
ATOM      6  H7  ZIN A   1      21.669   1.578  11.982  0.00  0.00     0.275 HD
ENDBRANCH   2   3
BRANCH   2   7
ATOM      7  C8  ZIN A   1      19.825   0.026  13.767  0.00  0.00     0.204 C 
ATOM      8  O9  ZIN A   1      19.742  -1.113  14.195  0.00  0.00    -0.646 OA
ATOM      9  O10 ZIN A   1      19.650   0.973  14.515  0.00  0.00    -0.646 OA
ENDBRANCH   2   7
TORSDOF 2
ENDMDL
MODEL 6
REMARK VINA RESULT:      -3.0      6.420      6.855
REMARK  2 active torsions:
REMARK  status: ('A' for Active; 'I' for Inactive)
REMARK    1  A    between atoms: C2_2  and  N4_3 
REMARK    2  A    between atoms: C2_2  and  C8_7 
ROOT
ATOM      1  C1  ZIN A   1      19.558   1.643  11.340  0.00  0.00     0.051 C 
ATOM      2  C2  ZIN A   1      20.230   0.347  11.797  0.00  0.00     0.279 C 
ENDROOT
BRANCH   2   3
ATOM      3  N4  ZIN A   1      21.631   0.617  12.147  0.00  0.00    -0.066 N 
ATOM      4  H5  ZIN A   1      21.880   1.546  11.843  0.00  0.00     0.275 HD
ATOM      5  H6  ZIN A   1      21.747   0.549  13.147  0.00  0.00     0.275 HD
ATOM      6  H7  ZIN A   1      22.228  -0.058  11.692  0.00  0.00     0.275 HD
ENDBRANCH   2   3
BRANCH   2   7
ATOM      7  C8  ZIN A   1      20.177  -0.667  10.683  0.00  0.00     0.204 C 
ATOM      8  O9  ZIN A   1      20.363  -0.315   9.530  0.00  0.00    -0.646 OA
ATOM      9  O10 ZIN A   1      19.948  -1.838  10.934  0.00  0.00    -0.646 OA
ENDBRANCH   2   7
TORSDOF 2
ENDMDL
MODEL 7
REMARK VINA RESULT:      -3.0      6.698      7.168
REMARK  2 active torsions:
REMARK  status: ('A' for Active; 'I' for Inactive)
REMARK    1  A    between atoms: C2_2  and  N4_3 
REMARK    2  A    between atoms: C2_2  and  C8_7 
ROOT
ATOM      1  C1  ZIN A   1      19.193   4.679  12.567  0.00  0.00     0.051 C 
ATOM      2  C2  ZIN A   1      19.300   3.257  12.014  0.00  0.00     0.279 C 
ENDROOT
BRANCH   2   3
ATOM      3  N4  ZIN A   1      20.675   3.009  11.560  0.00  0.00    -0.066 N 
ATOM      4  H5  ZIN A   1      21.172   3.885  11.500  0.00  0.00     0.275 HD
ATOM      5  H6  ZIN A   1      21.142   2.402  12.217  0.00  0.00     0.275 HD
ATOM      6  H7  ZIN A   1      20.656   2.570  10.652  0.00  0.00     0.275 HD
ENDBRANCH   2   3
BRANCH   2   7
ATOM      7  C8  ZIN A   1      18.352   3.096  10.854  0.00  0.00     0.204 C 
ATOM      8  O9  ZIN A   1      17.148   3.071  11.050  0.00  0.00    -0.646 OA
ATOM      9  O10 ZIN A   1      18.787   2.991   9.720  0.00  0.00    -0.646 OA
ENDBRANCH   2   7
TORSDOF 2
ENDMDL
MODEL 8
REMARK VINA RESULT:      -2.9      6.646      7.167
REMARK  2 active torsions:
REMARK  status: ('A' for Active; 'I' for Inactive)
REMARK    1  A    between atoms: C2_2  and  N4_3 
REMARK    2  A    between atoms: C2_2  and  C8_7 
ROOT
ATOM      1  C1  ZIN A   1      19.890  -0.377   9.216  0.00  0.00     0.051 C 
ATOM      2  C2  ZIN A   1      20.147  -0.501  10.719  0.00  0.00     0.279 C 
ENDROOT
BRANCH   2   3
ATOM      3  N4  ZIN A   1      21.593  -0.592  10.964  0.00  0.00    -0.066 N 
ATOM      4  H5  ZIN A   1      22.093  -0.280  10.146  0.00  0.00     0.275 HD
ATOM      5  H6  ZIN A   1      21.837  -0.008  11.750  0.00  0.00     0.275 HD
ATOM      6  H7  ZIN A   1      21.841  -1.549  11.167  0.00  0.00     0.275 HD
ENDBRANCH   2   3
BRANCH   2   7
ATOM      7  C8  ZIN A   1      19.470  -1.741  11.244  0.00  0.00     0.204 C 
ATOM      8  O9  ZIN A   1      20.104  -2.776  11.365  0.00  0.00    -0.646 OA
ATOM      9  O10 ZIN A   1      18.290  -1.710  11.547  0.00  0.00    -0.646 OA
ENDBRANCH   2   7
TORSDOF 2
ENDMDL
MODEL 9
REMARK VINA RESULT:      -2.8      6.131      6.560
REMARK  2 active torsions:
REMARK  status: ('A' for Active; 'I' for Inactive)
REMARK    1  A    between atoms: C2_2  and  N4_3 
REMARK    2  A    between atoms: C2_2  and  C8_7 
ROOT
ATOM      1  C1  ZIN A   1      18.803   2.924   9.759  0.00  0.00     0.051 C 
ATOM      2  C2  ZIN A   1      19.181   3.253  11.204  0.00  0.00     0.279 C 
ENDROOT
BRANCH   2   3
ATOM      3  N4  ZIN A   1      20.514   2.709  11.499  0.00  0.00    -0.066 N 
ATOM      4  H5  ZIN A   1      20.566   2.457  12.474  0.00  0.00     0.275 HD
ATOM      5  H6  ZIN A   1      20.675   1.891  10.930  0.00  0.00     0.275 HD
ATOM      6  H7  ZIN A   1      21.214   3.406  11.292  0.00  0.00     0.275 HD
ENDBRANCH   2   3
BRANCH   2   7
ATOM      7  C8  ZIN A   1      18.171   2.640  12.140  0.00  0.00     0.204 C 
ATOM      8  O9  ZIN A   1      18.326   2.727  13.346  0.00  0.00    -0.646 OA
ATOM      9  O10 ZIN A   1      17.199   2.057  11.690  0.00  0.00    -0.646 OA
ENDBRANCH   2   7
TORSDOF 2
ENDMDL
