MODEL 1
REMARK VINA RESULT:      -7.3      0.000      0.000
REMARK  20 active torsions:
REMARK  status: ('A' for Active; 'I' for Inactive)
REMARK    1  A    between atoms: C2_2  and  C18_18 
REMARK    2  A    between atoms: C3_3  and  C4_4 
REMARK    3  A    between atoms: C4_4  and  O6_6 
REMARK    4  A    between atoms: O6_6  and  C7_7 
REMARK    5  A    between atoms: C7_7  and  C8_8 
REMARK    6  A    between atoms: C8_8  and  C9_9 
REMARK    7  A    between atoms: C9_9  and  C10_10 
REMARK    8  A    between atoms: C10_10  and  C11_11 
REMARK    9  A    between atoms: C11_11  and  C12_12 
REMARK   10  A    between atoms: C12_12  and  C13_13 
REMARK   11  A    between atoms: C13_13  and  C14_14 
REMARK   12  A    between atoms: C14_14  and  C15_15 
REMARK   13  A    between atoms: C18_18  and  C19_19 
REMARK   14  A    between atoms: C23_22  and  C25_23 
REMARK   15  A    between atoms: C25_23  and  C26_24 
REMARK   16  A    between atoms: C29_26  and  C31_27 
REMARK   17  A    between atoms: C31_27  and  C34_29 
REMARK   18  A    between atoms: C34_29  and  O37_31 
REMARK   19  A    between atoms: C38_32  and  O40_33 
REMARK   20  A    between atoms: C41_34  and  O43_35 
ROOT
ATOM      1  C19 ZIN A   1      18.483   0.189   9.497  0.00  0.00     0.156 C 
ATOM      2  O21 ZIN A   1      17.318   0.540  10.245  0.00  0.00    -0.382 OA
ATOM      3  C22 ZIN A   1      17.021  -0.358  11.318  0.00  0.00     0.175 C 
ATOM      4  C23 ZIN A   1      18.185  -0.363  12.313  0.00  0.00     0.043 C 
ATOM      5  C38 ZIN A   1      19.470  -0.762  11.582  0.00  0.00     0.155 C 
ATOM      6  C41 ZIN A   1      19.705   0.205  10.419  0.00  0.00     0.176 C 
ENDROOT
BRANCH   1   7
ATOM      7  C18 ZIN A   1      18.684   1.199   8.365  0.00  0.00     0.068 C 
BRANCH   7   8
ATOM      8  C2  ZIN A   1      18.460   0.519   7.039  0.00  0.00    -0.075 C 
ATOM      9  C1  ZIN A   1      17.167  -0.208   6.774  0.00  0.00     0.043 C 
ATOM     10  C3  ZIN A   1      19.403   0.561   6.102  0.00  0.00     0.084 C 
BRANCH  10  11
ATOM     11  C4  ZIN A   1      19.258  -0.236   4.875  0.00  0.00     0.283 C 
ATOM     12  O5  ZIN A   1      18.670   0.227   3.917  0.00  0.00    -0.260 OA
BRANCH  11  13
ATOM     13  O6  ZIN A   1      19.775  -1.478   4.812  0.00  0.00    -0.318 OA
BRANCH  13  14
ATOM     14  C7  ZIN A   1      18.877  -2.547   4.411  0.00  0.00     0.179 C 
BRANCH  14  15
ATOM     15  C8  ZIN A   1      18.987  -3.706   5.404  0.00  0.00     0.027 C 
BRANCH  15  16
ATOM     16  C9  ZIN A   1      19.735  -3.235   6.654  0.00  0.00     0.002 C 
BRANCH  16  17
ATOM     17  C10 ZIN A   1      18.824  -3.374   7.875  0.00  0.00     0.000 C 
BRANCH  17  18
ATOM     18  C11 ZIN A   1      17.800  -4.482   7.625  0.00  0.00     0.000 C 
BRANCH  18  19
ATOM     19  C12 ZIN A   1      18.107  -5.675   8.532  0.00  0.00     0.001 C 
BRANCH  19  20
ATOM     20  C13 ZIN A   1      16.862  -6.029   9.348  0.00  0.00     0.010 C 
BRANCH  20  21
ATOM     21  C14 ZIN A   1      17.244  -6.179  10.822  0.00  0.00     0.113 C 
BRANCH  21  22
ATOM     22  C15 ZIN A   1      17.613  -4.830  11.384  0.00  0.00     0.172 C 
ATOM     23  O16 ZIN A   1      18.718  -4.653  11.869  0.00  0.00    -0.648 OA
ATOM     24  O17 ZIN A   1      16.808  -3.916  11.354  0.00  0.00    -0.648 OA
ENDBRANCH  21  22
ENDBRANCH  20  21
ENDBRANCH  19  20
ENDBRANCH  18  19
ENDBRANCH  17  18
ENDBRANCH  16  17
ENDBRANCH  15  16
ENDBRANCH  14  15
ENDBRANCH  13  14
ENDBRANCH  11  13
ENDBRANCH  10  11
ENDBRANCH   7   8
ENDBRANCH   1   7
BRANCH   6  25
ATOM     25  O43 ZIN A   1      20.863  -0.199   9.686  0.00  0.00    -0.390 OA
ATOM     26  H78 ZIN A   1      20.727  -0.984   9.137  0.00  0.00     0.210 HD
ENDBRANCH   6  25
BRANCH   5  27
ATOM     27  O40 ZIN A   1      19.340  -2.094  11.079  0.00  0.00    -0.392 OA
ATOM     28  H77 ZIN A   1      19.862  -2.749  11.562  0.00  0.00     0.210 HD
ENDBRANCH   5  27
BRANCH   4  29
ATOM     29  C25 ZIN A   1      18.349   1.033  12.914  0.00  0.00     0.044 C 
BRANCH  29  30
ATOM     30  C26 ZIN A   1      17.830   1.035  14.353  0.00  0.00     0.152 A 
ATOM     31  C29 ZIN A   1      18.847   0.840  15.479  0.00  0.00     0.157 A 
ATOM     32  O28 ZIN A   1      18.238   2.105  15.207  0.00  0.00    -0.375 OA
BRANCH  31  33
ATOM     33  C31 ZIN A   1      18.393   0.083  16.729  0.00  0.00     0.041 C 
ATOM     34  C33 ZIN A   1      19.025  -1.310  16.740  0.00  0.00     0.015 C 
BRANCH  33  35
ATOM     35  C34 ZIN A   1      18.829   0.852  17.977  0.00  0.00     0.120 C 
ATOM     36  C36 ZIN A   1      17.593   1.384  18.706  0.00  0.00     0.040 C 
BRANCH  35  37
ATOM     37  O37 ZIN A   1      19.664   1.946  17.594  0.00  0.00    -0.396 OA
ATOM     38  H76 ZIN A   1      19.239   2.575  16.993  0.00  0.00     0.210 HD
ENDBRANCH  35  37
ENDBRANCH  33  35
ENDBRANCH  31  33
ENDBRANCH  29  30
ENDBRANCH   4  29
TORSDOF 20
ENDMDL
MODEL 2
REMARK VINA RESULT:      -7.2      2.447      8.847
REMARK  20 active torsions:
REMARK  status: ('A' for Active; 'I' for Inactive)
REMARK    1  A    between atoms: C2_2  and  C18_18 
REMARK    2  A    between atoms: C3_3  and  C4_4 
REMARK    3  A    between atoms: C4_4  and  O6_6 
REMARK    4  A    between atoms: O6_6  and  C7_7 
REMARK    5  A    between atoms: C7_7  and  C8_8 
REMARK    6  A    between atoms: C8_8  and  C9_9 
REMARK    7  A    between atoms: C9_9  and  C10_10 
REMARK    8  A    between atoms: C10_10  and  C11_11 
REMARK    9  A    between atoms: C11_11  and  C12_12 
REMARK   10  A    between atoms: C12_12  and  C13_13 
REMARK   11  A    between atoms: C13_13  and  C14_14 
REMARK   12  A    between atoms: C14_14  and  C15_15 
REMARK   13  A    between atoms: C18_18  and  C19_19 
REMARK   14  A    between atoms: C23_22  and  C25_23 
REMARK   15  A    between atoms: C25_23  and  C26_24 
REMARK   16  A    between atoms: C29_26  and  C31_27 
REMARK   17  A    between atoms: C31_27  and  C34_29 
REMARK   18  A    between atoms: C34_29  and  O37_31 
REMARK   19  A    between atoms: C38_32  and  O40_33 
REMARK   20  A    between atoms: C41_34  and  O43_35 
ROOT
ATOM      1  C19 ZIN A   1      19.052   3.455  12.218  0.00  0.00     0.156 C 
ATOM      2  O21 ZIN A   1      20.079   2.712  11.557  0.00  0.00    -0.382 OA
ATOM      3  C22 ZIN A   1      19.695   1.386  11.187  0.00  0.00     0.175 C 
ATOM      4  C23 ZIN A   1      18.517   1.452  10.211  0.00  0.00     0.043 C 
ATOM      5  C38 ZIN A   1      17.361   2.212  10.868  0.00  0.00     0.155 C 
ATOM      6  C41 ZIN A   1      17.849   3.602  11.283  0.00  0.00     0.176 C 
ENDROOT
BRANCH   1   7
ATOM      7  C18 ZIN A   1      19.584   4.840  12.589  0.00  0.00     0.068 C 
BRANCH   7   8
ATOM      8  C2  ZIN A   1      19.623   4.978  14.090  0.00  0.00    -0.075 C 
ATOM      9  C1  ZIN A   1      20.503   6.022  14.727  0.00  0.00     0.043 C 
ATOM     10  C3  ZIN A   1      18.880   4.179  14.851  0.00  0.00     0.084 C 
BRANCH  10  11
ATOM     11  C4  ZIN A   1      19.039   4.198  16.312  0.00  0.00     0.283 C 
ATOM     12  O5  ZIN A   1      18.398   4.986  16.981  0.00  0.00    -0.260 OA
BRANCH  11  13
ATOM     13  O6  ZIN A   1      19.892   3.344  16.910  0.00  0.00    -0.318 OA
BRANCH  13  14
ATOM     14  C7  ZIN A   1      19.338   2.455  17.916  0.00  0.00     0.179 C 
BRANCH  14  15
ATOM     15  C8  ZIN A   1      18.194   1.644  17.306  0.00  0.00     0.027 C 
BRANCH  15  16
ATOM     16  C9  ZIN A   1      18.304   0.186  17.758  0.00  0.00     0.002 C 
BRANCH  16  17
ATOM     17  C10 ZIN A   1      17.332  -0.674  16.948  0.00  0.00     0.000 C 
BRANCH  17  18
ATOM     18  C11 ZIN A   1      18.104  -1.791  16.243  0.00  0.00     0.000 C 
BRANCH  18  19
ATOM     19  C12 ZIN A   1      19.104  -1.179  15.261  0.00  0.00     0.001 C 
BRANCH  19  20
ATOM     20  C13 ZIN A   1      18.405  -0.902  13.928  0.00  0.00     0.010 C 
BRANCH  20  21
ATOM     21  C14 ZIN A   1      18.728  -2.026  12.941  0.00  0.00     0.113 C 
BRANCH  21  22
ATOM     22  C15 ZIN A   1      17.638  -2.110  11.902  0.00  0.00     0.172 C 
ATOM     23  O16 ZIN A   1      16.784  -1.242  11.843  0.00  0.00    -0.648 OA
ATOM     24  O17 ZIN A   1      17.612  -3.044  11.120  0.00  0.00    -0.648 OA
ENDBRANCH  21  22
ENDBRANCH  20  21
ENDBRANCH  19  20
ENDBRANCH  18  19
ENDBRANCH  17  18
ENDBRANCH  16  17
ENDBRANCH  15  16
ENDBRANCH  14  15
ENDBRANCH  13  14
ENDBRANCH  11  13
ENDBRANCH  10  11
ENDBRANCH   7   8
ENDBRANCH   1   7
BRANCH   6  25
ATOM     25  O43 ZIN A   1      16.799   4.295  11.961  0.00  0.00    -0.390 OA
ATOM     26  H78 ZIN A   1      16.950   5.246  12.053  0.00  0.00     0.210 HD
ENDBRANCH   6  25
BRANCH   5  27
ATOM     27  O40 ZIN A   1      16.912   1.497  12.021  0.00  0.00    -0.392 OA
ATOM     28  H77 ZIN A   1      16.373   0.721  11.817  0.00  0.00     0.210 HD
ENDBRANCH   5  27
BRANCH   4  29
ATOM     29  C25 ZIN A   1      18.950   2.178   8.937  0.00  0.00     0.044 C 
BRANCH  29  30
ATOM     30  C26 ZIN A   1      19.566   1.173   7.961  0.00  0.00     0.152 A 
ATOM     31  C29 ZIN A   1      18.625   0.196   7.254  0.00  0.00     0.157 A 
ATOM     32  O28 ZIN A   1      19.234   1.300   6.577  0.00  0.00    -0.375 OA
BRANCH  31  33
ATOM     33  C31 ZIN A   1      19.151  -1.207   6.946  0.00  0.00     0.041 C 
ATOM     34  C33 ZIN A   1      18.381  -2.234   7.779  0.00  0.00     0.015 C 
BRANCH  33  35
ATOM     35  C34 ZIN A   1      18.960  -1.510   5.460  0.00  0.00     0.120 C 
ATOM     36  C36 ZIN A   1      19.030  -3.021   5.233  0.00  0.00     0.040 C 
BRANCH  35  37
ATOM     37  O37 ZIN A   1      19.990  -0.867   4.707  0.00  0.00    -0.396 OA
ATOM     38  H76 ZIN A   1      20.626  -1.479   4.308  0.00  0.00     0.210 HD
ENDBRANCH  35  37
ENDBRANCH  33  35
ENDBRANCH  31  33
ENDBRANCH  29  30
ENDBRANCH   4  29
TORSDOF 20
ENDMDL
MODEL 3
REMARK VINA RESULT:      -7.0      1.933      2.503
REMARK  20 active torsions:
REMARK  status: ('A' for Active; 'I' for Inactive)
REMARK    1  A    between atoms: C2_2  and  C18_18 
REMARK    2  A    between atoms: C3_3  and  C4_4 
REMARK    3  A    between atoms: C4_4  and  O6_6 
REMARK    4  A    between atoms: O6_6  and  C7_7 
REMARK    5  A    between atoms: C7_7  and  C8_8 
REMARK    6  A    between atoms: C8_8  and  C9_9 
REMARK    7  A    between atoms: C9_9  and  C10_10 
REMARK    8  A    between atoms: C10_10  and  C11_11 
REMARK    9  A    between atoms: C11_11  and  C12_12 
REMARK   10  A    between atoms: C12_12  and  C13_13 
REMARK   11  A    between atoms: C13_13  and  C14_14 
REMARK   12  A    between atoms: C14_14  and  C15_15 
REMARK   13  A    between atoms: C18_18  and  C19_19 
REMARK   14  A    between atoms: C23_22  and  C25_23 
REMARK   15  A    between atoms: C25_23  and  C26_24 
REMARK   16  A    between atoms: C29_26  and  C31_27 
REMARK   17  A    between atoms: C31_27  and  C34_29 
REMARK   18  A    between atoms: C34_29  and  O37_31 
REMARK   19  A    between atoms: C38_32  and  O40_33 
REMARK   20  A    between atoms: C41_34  and  O43_35 
ROOT
ATOM      1  C19 ZIN A   1      18.878  -0.463   9.475  0.00  0.00     0.156 C 
ATOM      2  O21 ZIN A   1      18.342  -1.688   9.977  0.00  0.00    -0.382 OA
ATOM      3  C22 ZIN A   1      19.263  -2.451  10.762  0.00  0.00     0.175 C 
ATOM      4  C23 ZIN A   1      19.685  -1.633  11.986  0.00  0.00     0.043 C 
ATOM      5  C38 ZIN A   1      20.300  -0.310  11.520  0.00  0.00     0.155 C 
ATOM      6  C41 ZIN A   1      19.285   0.433  10.648  0.00  0.00     0.176 C 
ENDROOT
BRANCH   1   7
ATOM      7  C18 ZIN A   1      17.818   0.249   8.632  0.00  0.00     0.068 C 
BRANCH   7   8
ATOM      8  C2  ZIN A   1      18.016  -0.096   7.179  0.00  0.00    -0.075 C 
ATOM      9  C1  ZIN A   1      16.855  -0.022   6.222  0.00  0.00     0.043 C 
ATOM     10  C3  ZIN A   1      19.217  -0.465   6.741  0.00  0.00     0.084 C 
BRANCH  10  11
ATOM     11  C4  ZIN A   1      19.379  -0.959   5.366  0.00  0.00     0.283 C 
ATOM     12  O5  ZIN A   1      19.590  -0.176   4.460  0.00  0.00    -0.260 OA
BRANCH  11  13
ATOM     13  O6  ZIN A   1      19.292  -2.279   5.108  0.00  0.00    -0.318 OA
BRANCH  13  14
ATOM     14  C7  ZIN A   1      19.548  -3.185   6.214  0.00  0.00     0.179 C 
BRANCH  14  15
ATOM     15  C8  ZIN A   1      18.868  -4.528   5.940  0.00  0.00     0.027 C 
BRANCH  15  16
ATOM     16  C9  ZIN A   1      19.549  -5.621   6.766  0.00  0.00     0.002 C 
BRANCH  16  17
ATOM     17  C10 ZIN A   1      19.770  -5.118   8.194  0.00  0.00     0.000 C 
BRANCH  17  18
ATOM     18  C11 ZIN A   1      19.294  -6.179   9.188  0.00  0.00     0.000 C 
BRANCH  18  19
ATOM     19  C12 ZIN A   1      17.956  -5.749   9.792  0.00  0.00     0.001 C 
BRANCH  19  20
ATOM     20  C13 ZIN A   1      16.830  -6.593   9.191  0.00  0.00     0.010 C 
BRANCH  20  21
ATOM     21  C14 ZIN A   1      16.089  -5.773   8.133  0.00  0.00     0.113 C 
BRANCH  21  22
ATOM     22  C15 ZIN A   1      14.706  -6.341   7.937  0.00  0.00     0.172 C 
ATOM     23  O16 ZIN A   1      14.555  -7.379   7.315  0.00  0.00    -0.648 OA
ATOM     24  O17 ZIN A   1      13.738  -5.762   8.400  0.00  0.00    -0.648 OA
ENDBRANCH  21  22
ENDBRANCH  20  21
ENDBRANCH  19  20
ENDBRANCH  18  19
ENDBRANCH  17  18
ENDBRANCH  16  17
ENDBRANCH  15  16
ENDBRANCH  14  15
ENDBRANCH  13  14
ENDBRANCH  11  13
ENDBRANCH  10  11
ENDBRANCH   7   8
ENDBRANCH   1   7
BRANCH   6  25
ATOM     25  O43 ZIN A   1      19.874   1.637  10.149  0.00  0.00    -0.390 OA
ATOM     26  H78 ZIN A   1      19.291   2.407  10.193  0.00  0.00     0.210 HD
ENDBRANCH   6  25
BRANCH   5  27
ATOM     27  O40 ZIN A   1      21.483  -0.573  10.761  0.00  0.00    -0.392 OA
ATOM     28  H77 ZIN A   1      22.206   0.043  10.935  0.00  0.00     0.210 HD
ENDBRANCH   5  27
BRANCH   4  29
ATOM     29  C25 ZIN A   1      18.461  -1.351  12.858  0.00  0.00     0.044 C 
BRANCH  29  30
ATOM     30  C26 ZIN A   1      18.916  -0.977  14.270  0.00  0.00     0.152 A 
ATOM     31  C29 ZIN A   1      18.117   0.094  15.017  0.00  0.00     0.157 A 
ATOM     32  O28 ZIN A   1      18.043  -1.293  15.357  0.00  0.00    -0.375 OA
BRANCH  31  33
ATOM     33  C31 ZIN A   1      18.879   1.022  15.966  0.00  0.00     0.041 C 
ATOM     34  C33 ZIN A   1      18.865   2.446  15.408  0.00  0.00     0.015 C 
BRANCH  33  35
ATOM     35  C34 ZIN A   1      18.209   1.006  17.341  0.00  0.00     0.120 C 
ATOM     36  C36 ZIN A   1      19.040   0.155  18.303  0.00  0.00     0.040 C 
BRANCH  35  37
ATOM     37  O37 ZIN A   1      16.898   0.450  17.225  0.00  0.00    -0.396 OA
ATOM     38  H76 ZIN A   1      16.210   0.969  17.668  0.00  0.00     0.210 HD
ENDBRANCH  35  37
ENDBRANCH  33  35
ENDBRANCH  31  33
ENDBRANCH  29  30
ENDBRANCH   4  29
TORSDOF 20
ENDMDL
MODEL 4
REMARK VINA RESULT:      -6.8      2.777     10.089
REMARK  20 active torsions:
REMARK  status: ('A' for Active; 'I' for Inactive)
REMARK    1  A    between atoms: C2_2  and  C18_18 
REMARK    2  A    between atoms: C3_3  and  C4_4 
REMARK    3  A    between atoms: C4_4  and  O6_6 
REMARK    4  A    between atoms: O6_6  and  C7_7 
REMARK    5  A    between atoms: C7_7  and  C8_8 
REMARK    6  A    between atoms: C8_8  and  C9_9 
REMARK    7  A    between atoms: C9_9  and  C10_10 
REMARK    8  A    between atoms: C10_10  and  C11_11 
REMARK    9  A    between atoms: C11_11  and  C12_12 
REMARK   10  A    between atoms: C12_12  and  C13_13 
REMARK   11  A    between atoms: C13_13  and  C14_14 
REMARK   12  A    between atoms: C14_14  and  C15_15 
REMARK   13  A    between atoms: C18_18  and  C19_19 
REMARK   14  A    between atoms: C23_22  and  C25_23 
REMARK   15  A    between atoms: C25_23  and  C26_24 
REMARK   16  A    between atoms: C29_26  and  C31_27 
REMARK   17  A    between atoms: C31_27  and  C34_29 
REMARK   18  A    between atoms: C34_29  and  O37_31 
REMARK   19  A    between atoms: C38_32  and  O40_33 
REMARK   20  A    between atoms: C41_34  and  O43_35 
ROOT
ATOM      1  C19 ZIN A   1      18.479  -0.298  13.668  0.00  0.00     0.156 C 
ATOM      2  O21 ZIN A   1      17.321  -0.713  12.942  0.00  0.00    -0.382 OA
ATOM      3  C22 ZIN A   1      16.959   0.160  11.869  0.00  0.00     0.175 C 
ATOM      4  C23 ZIN A   1      18.104   0.218  10.854  0.00  0.00     0.043 C 
ATOM      5  C38 ZIN A   1      19.379   0.688  11.560  0.00  0.00     0.155 C 
ATOM      6  C41 ZIN A   1      19.684  -0.258  12.724  0.00  0.00     0.176 C 
ENDROOT
BRANCH   1   7
ATOM      7  C18 ZIN A   1      18.752  -1.288  14.802  0.00  0.00     0.068 C 
BRANCH   7   8
ATOM      8  C2  ZIN A   1      18.468  -0.626  16.126  0.00  0.00    -0.075 C 
ATOM      9  C1  ZIN A   1      17.068  -0.182  16.461  0.00  0.00     0.043 C 
ATOM     10  C3  ZIN A   1      19.454  -0.434  16.998  0.00  0.00     0.084 C 
BRANCH  10  11
ATOM     11  C4  ZIN A   1      19.216   0.355  18.216  0.00  0.00     0.283 C 
ATOM     12  O5  ZIN A   1      18.520  -0.096  19.105  0.00  0.00    -0.260 OA
BRANCH  11  13
ATOM     13  O6  ZIN A   1      19.768   1.576  18.346  0.00  0.00    -0.318 OA
BRANCH  13  14
ATOM     14  C7  ZIN A   1      19.409   2.573  17.353  0.00  0.00     0.179 C 
BRANCH  14  15
ATOM     15  C8  ZIN A   1      18.419   3.567  17.963  0.00  0.00     0.027 C 
BRANCH  15  16
ATOM     16  C9  ZIN A   1      18.055   4.628  16.922  0.00  0.00     0.002 C 
BRANCH  16  17
ATOM     17  C10 ZIN A   1      19.329   5.127  16.237  0.00  0.00     0.000 C 
BRANCH  17  18
ATOM     18  C11 ZIN A   1      18.970   5.763  14.893  0.00  0.00     0.000 C 
BRANCH  18  19
ATOM     19  C12 ZIN A   1      17.515   6.236  14.924  0.00  0.00     0.001 C 
BRANCH  19  20
ATOM     20  C13 ZIN A   1      16.799   5.767  13.656  0.00  0.00     0.010 C 
BRANCH  20  21
ATOM     21  C14 ZIN A   1      17.798   5.054  12.742  0.00  0.00     0.113 C 
BRANCH  21  22
ATOM     22  C15 ZIN A   1      17.158   4.801  11.400  0.00  0.00     0.172 C 
ATOM     23  O16 ZIN A   1      16.802   3.675  11.097  0.00  0.00    -0.648 OA
ATOM     24  O17 ZIN A   1      16.995   5.722  10.619  0.00  0.00    -0.648 OA
ENDBRANCH  21  22
ENDBRANCH  20  21
ENDBRANCH  19  20
ENDBRANCH  18  19
ENDBRANCH  17  18
ENDBRANCH  16  17
ENDBRANCH  15  16
ENDBRANCH  14  15
ENDBRANCH  13  14
ENDBRANCH  11  13
ENDBRANCH  10  11
ENDBRANCH   7   8
ENDBRANCH   1   7
BRANCH   6  25
ATOM     25  O43 ZIN A   1      20.832   0.212  13.434  0.00  0.00    -0.390 OA
ATOM     26  H78 ZIN A   1      20.881   1.175  13.511  0.00  0.00     0.210 HD
ENDBRANCH   6  25
BRANCH   5  27
ATOM     27  O40 ZIN A   1      19.189   2.015  12.056  0.00  0.00    -0.392 OA
ATOM     28  H77 ZIN A   1      19.029   2.059  13.008  0.00  0.00     0.210 HD
ENDBRANCH   5  27
BRANCH   4  29
ATOM     29  C25 ZIN A   1      18.330  -1.172  10.259  0.00  0.00     0.044 C 
BRANCH  29  30
ATOM     30  C26 ZIN A   1      17.838  -1.195   8.810  0.00  0.00     0.152 A 
ATOM     31  C29 ZIN A   1      18.867  -0.953   7.704  0.00  0.00     0.157 A 
ATOM     32  O28 ZIN A   1      18.309  -2.244   7.963  0.00  0.00    -0.375 OA
BRANCH  31  33
ATOM     33  C31 ZIN A   1      18.404  -0.215   6.446  0.00  0.00     0.041 C 
ATOM     34  C33 ZIN A   1      18.952   1.213   6.461  0.00  0.00     0.015 C 
BRANCH  33  35
ATOM     35  C34 ZIN A   1      18.920  -0.946   5.206  0.00  0.00     0.120 C 
ATOM     36  C36 ZIN A   1      17.736  -1.496   4.408  0.00  0.00     0.040 C 
BRANCH  35  37
ATOM     37  O37 ZIN A   1      19.766  -2.026   5.608  0.00  0.00    -0.396 OA
ATOM     38  H76 ZIN A   1      20.642  -2.014   5.195  0.00  0.00     0.210 HD
ENDBRANCH  35  37
ENDBRANCH  33  35
ENDBRANCH  31  33
ENDBRANCH  29  30
ENDBRANCH   4  29
TORSDOF 20
ENDMDL
MODEL 5
REMARK VINA RESULT:      -6.6      1.563      2.272
REMARK  20 active torsions:
REMARK  status: ('A' for Active; 'I' for Inactive)
REMARK    1  A    between atoms: C2_2  and  C18_18 
REMARK    2  A    between atoms: C3_3  and  C4_4 
REMARK    3  A    between atoms: C4_4  and  O6_6 
REMARK    4  A    between atoms: O6_6  and  C7_7 
REMARK    5  A    between atoms: C7_7  and  C8_8 
REMARK    6  A    between atoms: C8_8  and  C9_9 
REMARK    7  A    between atoms: C9_9  and  C10_10 
REMARK    8  A    between atoms: C10_10  and  C11_11 
REMARK    9  A    between atoms: C11_11  and  C12_12 
REMARK   10  A    between atoms: C12_12  and  C13_13 
REMARK   11  A    between atoms: C13_13  and  C14_14 
REMARK   12  A    between atoms: C14_14  and  C15_15 
REMARK   13  A    between atoms: C18_18  and  C19_19 
REMARK   14  A    between atoms: C23_22  and  C25_23 
REMARK   15  A    between atoms: C25_23  and  C26_24 
REMARK   16  A    between atoms: C29_26  and  C31_27 
REMARK   17  A    between atoms: C31_27  and  C34_29 
REMARK   18  A    between atoms: C34_29  and  O37_31 
REMARK   19  A    between atoms: C38_32  and  O40_33 
REMARK   20  A    between atoms: C41_34  and  O43_35 
ROOT
ATOM      1  C19 ZIN A   1      18.915   0.896  10.010  0.00  0.00     0.156 C 
ATOM      2  O21 ZIN A   1      19.399  -0.377  10.440  0.00  0.00    -0.382 OA
ATOM      3  C22 ZIN A   1      20.518  -0.308  11.327  0.00  0.00     0.175 C 
ATOM      4  C23 ZIN A   1      20.115   0.449  12.595  0.00  0.00     0.043 C 
ATOM      5  C38 ZIN A   1      19.612   1.843  12.210  0.00  0.00     0.155 C 
ATOM      6  C41 ZIN A   1      18.449   1.701  11.225  0.00  0.00     0.176 C 
ENDROOT
BRANCH   1   7
ATOM      7  C18 ZIN A   1      17.742   0.697   9.048  0.00  0.00     0.068 C 
BRANCH   7   8
ATOM      8  C2  ZIN A   1      18.264   0.273   7.699  0.00  0.00    -0.075 C 
ATOM      9  C1  ZIN A   1      19.030   1.250   6.846  0.00  0.00     0.043 C 
ATOM     10  C3  ZIN A   1      18.048  -0.965   7.263  0.00  0.00     0.084 C 
BRANCH  10  11
ATOM     11  C4  ZIN A   1      18.410  -1.333   5.886  0.00  0.00     0.283 C 
ATOM     12  O5  ZIN A   1      17.688  -1.012   4.963  0.00  0.00    -0.260 OA
BRANCH  11  13
ATOM     13  O6  ZIN A   1      19.540  -2.026   5.647  0.00  0.00    -0.318 OA
BRANCH  13  14
ATOM     14  C7  ZIN A   1      19.622  -3.366   6.203  0.00  0.00     0.179 C 
BRANCH  14  15
ATOM     15  C8  ZIN A   1      18.661  -4.289   5.451  0.00  0.00     0.027 C 
BRANCH  15  16
ATOM     16  C9  ZIN A   1      18.421  -5.555   6.277  0.00  0.00     0.002 C 
BRANCH  16  17
ATOM     17  C10 ZIN A   1      18.027  -5.166   7.703  0.00  0.00     0.000 C 
BRANCH  17  18
ATOM     18  C11 ZIN A   1      18.256  -6.355   8.638  0.00  0.00     0.000 C 
BRANCH  18  19
ATOM     19  C12 ZIN A   1      17.089  -6.463   9.621  0.00  0.00     0.001 C 
BRANCH  19  20
ATOM     20  C13 ZIN A   1      17.519  -5.917  10.985  0.00  0.00     0.010 C 
BRANCH  20  21
ATOM     21  C14 ZIN A   1      16.651  -4.710  11.346  0.00  0.00     0.113 C 
BRANCH  21  22
ATOM     22  C15 ZIN A   1      17.532  -3.508  11.570  0.00  0.00     0.172 C 
ATOM     23  O16 ZIN A   1      18.714  -3.658  11.830  0.00  0.00    -0.648 OA
ATOM     24  O17 ZIN A   1      17.063  -2.385  11.490  0.00  0.00    -0.648 OA
ENDBRANCH  21  22
ENDBRANCH  20  21
ENDBRANCH  19  20
ENDBRANCH  18  19
ENDBRANCH  17  18
ENDBRANCH  16  17
ENDBRANCH  15  16
ENDBRANCH  14  15
ENDBRANCH  13  14
ENDBRANCH  11  13
ENDBRANCH  10  11
ENDBRANCH   7   8
ENDBRANCH   1   7
BRANCH   6  25
ATOM     25  O43 ZIN A   1      18.017   2.997  10.805  0.00  0.00    -0.390 OA
ATOM     26  H78 ZIN A   1      17.960   3.100   9.845  0.00  0.00     0.210 HD
ENDBRANCH   6  25
BRANCH   5  27
ATOM     27  O40 ZIN A   1      20.672   2.582  11.599  0.00  0.00    -0.392 OA
ATOM     28  H77 ZIN A   1      20.977   3.336  12.120  0.00  0.00     0.210 HD
ENDBRANCH   5  27
BRANCH   4  29
ATOM     29  C25 ZIN A   1      19.004  -0.316  13.315  0.00  0.00     0.044 C 
BRANCH  29  30
ATOM     30  C26 ZIN A   1      19.231  -0.245  14.827  0.00  0.00     0.152 A 
ATOM     31  C29 ZIN A   1      18.399   0.760  15.626  0.00  0.00     0.157 A 
ATOM     32  O28 ZIN A   1      18.159  -0.649  15.681  0.00  0.00    -0.375 OA
BRANCH  31  33
ATOM     33  C31 ZIN A   1      19.052   1.421  16.843  0.00  0.00     0.041 C 
ATOM     34  C33 ZIN A   1      19.221   2.918  16.580  0.00  0.00     0.015 C 
BRANCH  33  35
ATOM     35  C34 ZIN A   1      18.165   1.215  18.072  0.00  0.00     0.120 C 
ATOM     36  C36 ZIN A   1      18.658  -0.002  18.858  0.00  0.00     0.040 C 
BRANCH  35  37
ATOM     37  O37 ZIN A   1      16.816   0.999  17.654  0.00  0.00    -0.396 OA
ATOM     38  H76 ZIN A   1      16.702   0.963  16.694  0.00  0.00     0.210 HD
ENDBRANCH  35  37
ENDBRANCH  33  35
ENDBRANCH  31  33
ENDBRANCH  29  30
ENDBRANCH   4  29
TORSDOF 20
ENDMDL
MODEL 6
REMARK VINA RESULT:      -6.6      2.088      2.621
REMARK  20 active torsions:
REMARK  status: ('A' for Active; 'I' for Inactive)
REMARK    1  A    between atoms: C2_2  and  C18_18 
REMARK    2  A    between atoms: C3_3  and  C4_4 
REMARK    3  A    between atoms: C4_4  and  O6_6 
REMARK    4  A    between atoms: O6_6  and  C7_7 
REMARK    5  A    between atoms: C7_7  and  C8_8 
REMARK    6  A    between atoms: C8_8  and  C9_9 
REMARK    7  A    between atoms: C9_9  and  C10_10 
REMARK    8  A    between atoms: C10_10  and  C11_11 
REMARK    9  A    between atoms: C11_11  and  C12_12 
REMARK   10  A    between atoms: C12_12  and  C13_13 
REMARK   11  A    between atoms: C13_13  and  C14_14 
REMARK   12  A    between atoms: C14_14  and  C15_15 
REMARK   13  A    between atoms: C18_18  and  C19_19 
REMARK   14  A    between atoms: C23_22  and  C25_23 
REMARK   15  A    between atoms: C25_23  and  C26_24 
REMARK   16  A    between atoms: C29_26  and  C31_27 
REMARK   17  A    between atoms: C31_27  and  C34_29 
REMARK   18  A    between atoms: C34_29  and  O37_31 
REMARK   19  A    between atoms: C38_32  and  O40_33 
REMARK   20  A    between atoms: C41_34  and  O43_35 
ROOT
ATOM      1  C19 ZIN A   1      18.969   0.433  10.815  0.00  0.00     0.156 C 
ATOM      2  O21 ZIN A   1      18.382  -0.635  11.560  0.00  0.00    -0.382 OA
ATOM      3  C22 ZIN A   1      19.294  -1.311  12.430  0.00  0.00     0.175 C 
ATOM      4  C23 ZIN A   1      19.843  -0.320  13.460  0.00  0.00     0.043 C 
ATOM      5  C38 ZIN A   1      20.517   0.844  12.728  0.00  0.00     0.155 C 
ATOM      6  C41 ZIN A   1      19.505   1.493  11.781  0.00  0.00     0.176 C 
ENDROOT
BRANCH   1   7
ATOM      7  C18 ZIN A   1      17.912   1.060   9.905  0.00  0.00     0.068 C 
BRANCH   7   8
ATOM      8  C2  ZIN A   1      18.301   0.851   8.464  0.00  0.00    -0.075 C 
ATOM      9  C1  ZIN A   1      19.239   1.818   7.789  0.00  0.00     0.043 C 
ATOM     10  C3  ZIN A   1      17.817  -0.188   7.788  0.00  0.00     0.084 C 
BRANCH  10  11
ATOM     11  C4  ZIN A   1      18.061  -0.304   6.343  0.00  0.00     0.283 C 
ATOM     12  O5  ZIN A   1      17.279   0.188   5.554  0.00  0.00    -0.260 OA
BRANCH  11  13
ATOM     13  O6  ZIN A   1      19.152  -0.955   5.894  0.00  0.00    -0.318 OA
BRANCH  13  14
ATOM     14  C7  ZIN A   1      18.977  -1.813   4.734  0.00  0.00     0.179 C 
BRANCH  14  15
ATOM     15  C8  ZIN A   1      19.117  -3.277   5.157  0.00  0.00     0.027 C 
BRANCH  15  16
ATOM     16  C9  ZIN A   1      19.480  -3.346   6.641  0.00  0.00     0.002 C 
BRANCH  16  17
ATOM     17  C10 ZIN A   1      20.295  -4.612   6.909  0.00  0.00     0.000 C 
BRANCH  17  18
ATOM     18  C11 ZIN A   1      19.465  -5.586   7.748  0.00  0.00     0.000 C 
BRANCH  18  19
ATOM     19  C12 ZIN A   1      20.211  -5.905   9.045  0.00  0.00     0.001 C 
BRANCH  19  20
ATOM     20  C13 ZIN A   1      19.589  -5.115  10.198  0.00  0.00     0.010 C 
BRANCH  20  21
ATOM     21  C14 ZIN A   1      18.067  -5.271  10.161  0.00  0.00     0.113 C 
BRANCH  21  22
ATOM     22  C15 ZIN A   1      17.419  -3.937  10.427  0.00  0.00     0.172 C 
ATOM     23  O16 ZIN A   1      16.858  -3.733  11.490  0.00  0.00    -0.648 OA
ATOM     24  O17 ZIN A   1      17.457  -3.061   9.579  0.00  0.00    -0.648 OA
ENDBRANCH  21  22
ENDBRANCH  20  21
ENDBRANCH  19  20
ENDBRANCH  18  19
ENDBRANCH  17  18
ENDBRANCH  16  17
ENDBRANCH  15  16
ENDBRANCH  14  15
ENDBRANCH  13  14
ENDBRANCH  11  13
ENDBRANCH  10  11
ENDBRANCH   7   8
ENDBRANCH   1   7
BRANCH   6  25
ATOM     25  O43 ZIN A   1      20.143   2.536  11.041  0.00  0.00    -0.390 OA
ATOM     26  H78 ZIN A   1      20.904   2.242  10.522  0.00  0.00     0.210 HD
ENDBRANCH   6  25
BRANCH   5  27
ATOM     27  O40 ZIN A   1      21.632   0.357  11.979  0.00  0.00    -0.392 OA
ATOM     28  H77 ZIN A   1      22.388   0.097  12.522  0.00  0.00     0.210 HD
ENDBRANCH   5  27
BRANCH   4  29
ATOM     29  C25 ZIN A   1      18.695   0.210  14.320  0.00  0.00     0.044 C 
BRANCH  29  30
ATOM     30  C26 ZIN A   1      19.206   1.343  15.213  0.00  0.00     0.152 A 
ATOM     31  C29 ZIN A   1      18.426   2.659  15.212  0.00  0.00     0.157 A 
ATOM     32  O28 ZIN A   1      18.387   1.745  16.312  0.00  0.00    -0.375 OA
BRANCH  31  33
ATOM     33  C31 ZIN A   1      19.216   3.958  15.391  0.00  0.00     0.041 C 
ATOM     34  C33 ZIN A   1      19.177   4.761  14.090  0.00  0.00     0.015 C 
BRANCH  33  35
ATOM     35  C34 ZIN A   1      18.593   4.781  16.519  0.00  0.00     0.120 C 
ATOM     36  C36 ZIN A   1      19.087   6.227  16.427  0.00  0.00     0.040 C 
BRANCH  35  37
ATOM     37  O37 ZIN A   1      18.974   4.228  17.780  0.00  0.00    -0.396 OA
ATOM     38  H76 ZIN A   1      18.646   3.329  17.930  0.00  0.00     0.210 HD
ENDBRANCH  35  37
ENDBRANCH  33  35
ENDBRANCH  31  33
ENDBRANCH  29  30
ENDBRANCH   4  29
TORSDOF 20
ENDMDL
MODEL 7
REMARK VINA RESULT:      -6.6      2.533      9.658
REMARK  20 active torsions:
REMARK  status: ('A' for Active; 'I' for Inactive)
REMARK    1  A    between atoms: C2_2  and  C18_18 
REMARK    2  A    between atoms: C3_3  and  C4_4 
REMARK    3  A    between atoms: C4_4  and  O6_6 
REMARK    4  A    between atoms: O6_6  and  C7_7 
REMARK    5  A    between atoms: C7_7  and  C8_8 
REMARK    6  A    between atoms: C8_8  and  C9_9 
REMARK    7  A    between atoms: C9_9  and  C10_10 
REMARK    8  A    between atoms: C10_10  and  C11_11 
REMARK    9  A    between atoms: C11_11  and  C12_12 
REMARK   10  A    between atoms: C12_12  and  C13_13 
REMARK   11  A    between atoms: C13_13  and  C14_14 
REMARK   12  A    between atoms: C14_14  and  C15_15 
REMARK   13  A    between atoms: C18_18  and  C19_19 
REMARK   14  A    between atoms: C23_22  and  C25_23 
REMARK   15  A    between atoms: C25_23  and  C26_24 
REMARK   16  A    between atoms: C29_26  and  C31_27 
REMARK   17  A    between atoms: C31_27  and  C34_29 
REMARK   18  A    between atoms: C34_29  and  O37_31 
REMARK   19  A    between atoms: C38_32  and  O40_33 
REMARK   20  A    between atoms: C41_34  and  O43_35 
ROOT
ATOM      1  C19 ZIN A   1      18.975  -0.152  12.175  0.00  0.00     0.156 C 
ATOM      2  O21 ZIN A   1      18.433   0.707  11.170  0.00  0.00    -0.382 OA
ATOM      3  C22 ZIN A   1      19.363   1.067  10.146  0.00  0.00     0.175 C 
ATOM      4  C23 ZIN A   1      19.836  -0.197   9.422  0.00  0.00     0.043 C 
ATOM      5  C38 ZIN A   1      20.460  -1.156  10.440  0.00  0.00     0.155 C 
ATOM      6  C41 ZIN A   1      19.432  -1.463  11.532  0.00  0.00     0.176 C 
ENDROOT
BRANCH   1   7
ATOM      7  C18 ZIN A   1      17.903  -0.445  13.227  0.00  0.00     0.068 C 
BRANCH   7   8
ATOM      8  C2  ZIN A   1      18.383   0.019  14.578  0.00  0.00    -0.075 C 
ATOM      9  C1  ZIN A   1      19.587   0.919  14.680  0.00  0.00     0.043 C 
ATOM     10  C3  ZIN A   1      17.744  -0.365  15.679  0.00  0.00     0.084 C 
BRANCH  10  11
ATOM     11  C4  ZIN A   1      18.303  -0.051  17.002  0.00  0.00     0.283 C 
ATOM     12  O5  ZIN A   1      19.094  -0.813  17.523  0.00  0.00    -0.260 OA
BRANCH  11  13
ATOM     13  O6  ZIN A   1      17.939   1.080  17.637  0.00  0.00    -0.318 OA
BRANCH  13  14
ATOM     14  C7  ZIN A   1      18.997   1.859  18.257  0.00  0.00     0.179 C 
BRANCH  14  15
ATOM     15  C8  ZIN A   1      18.807   3.338  17.916  0.00  0.00     0.027 C 
BRANCH  15  16
ATOM     16  C9  ZIN A   1      19.651   3.691  16.690  0.00  0.00     0.002 C 
BRANCH  16  17
ATOM     17  C10 ZIN A   1      19.583   5.199  16.441  0.00  0.00     0.000 C 
BRANCH  17  18
ATOM     18  C11 ZIN A   1      20.147   5.513  15.054  0.00  0.00     0.000 C 
BRANCH  18  19
ATOM     19  C12 ZIN A   1      19.010   5.516  14.030  0.00  0.00     0.001 C 
BRANCH  19  20
ATOM     20  C13 ZIN A   1      19.138   4.291  13.122  0.00  0.00     0.010 C 
BRANCH  20  21
ATOM     21  C14 ZIN A   1      17.771   3.618  12.979  0.00  0.00     0.113 C 
BRANCH  21  22
ATOM     22  C15 ZIN A   1      17.015   4.256  11.841  0.00  0.00     0.172 C 
ATOM     23  O16 ZIN A   1      17.101   3.793  10.716  0.00  0.00    -0.648 OA
ATOM     24  O17 ZIN A   1      16.317   5.234  12.045  0.00  0.00    -0.648 OA
ENDBRANCH  21  22
ENDBRANCH  20  21
ENDBRANCH  19  20
ENDBRANCH  18  19
ENDBRANCH  17  18
ENDBRANCH  16  17
ENDBRANCH  15  16
ENDBRANCH  14  15
ENDBRANCH  13  14
ENDBRANCH  11  13
ENDBRANCH  10  11
ENDBRANCH   7   8
ENDBRANCH   1   7
BRANCH   6  25
ATOM     25  O43 ZIN A   1      20.027  -2.302  12.526  0.00  0.00    -0.390 OA
ATOM     26  H78 ZIN A   1      19.415  -2.937  12.922  0.00  0.00     0.210 HD
ENDBRANCH   6  25
BRANCH   5  27
ATOM     27  O40 ZIN A   1      21.614  -0.549  11.024  0.00  0.00    -0.392 OA
ATOM     28  H77 ZIN A   1      21.810  -0.856  11.919  0.00  0.00     0.210 HD
ENDBRANCH   5  27
BRANCH   4  29
ATOM     29  C25 ZIN A   1      18.644  -0.873   8.744  0.00  0.00     0.044 C 
BRANCH  29  30
ATOM     30  C26 ZIN A   1      19.137  -2.043   7.891  0.00  0.00     0.152 A 
ATOM     31  C29 ZIN A   1      18.482  -3.410   8.107  0.00  0.00     0.157 A 
ATOM     32  O28 ZIN A   1      18.226  -2.611   6.948  0.00  0.00    -0.375 OA
BRANCH  31  33
ATOM     33  C31 ZIN A   1      19.355  -4.655   7.937  0.00  0.00     0.041 C 
ATOM     34  C33 ZIN A   1      19.689  -5.235   9.312  0.00  0.00     0.015 C 
BRANCH  33  35
ATOM     35  C34 ZIN A   1      18.599  -5.698   7.112  0.00  0.00     0.120 C 
ATOM     36  C36 ZIN A   1      18.097  -6.811   8.035  0.00  0.00     0.040 C 
BRANCH  35  37
ATOM     37  O37 ZIN A   1      19.474  -6.253   6.129  0.00  0.00    -0.396 OA
ATOM     38  H76 ZIN A   1      19.134  -7.056   5.707  0.00  0.00     0.210 HD
ENDBRANCH  35  37
ENDBRANCH  33  35
ENDBRANCH  31  33
ENDBRANCH  29  30
ENDBRANCH   4  29
TORSDOF 20
ENDMDL
MODEL 8
REMARK VINA RESULT:      -6.5      1.873      4.240
REMARK  20 active torsions:
REMARK  status: ('A' for Active; 'I' for Inactive)
REMARK    1  A    between atoms: C2_2  and  C18_18 
REMARK    2  A    between atoms: C3_3  and  C4_4 
REMARK    3  A    between atoms: C4_4  and  O6_6 
REMARK    4  A    between atoms: O6_6  and  C7_7 
REMARK    5  A    between atoms: C7_7  and  C8_8 
REMARK    6  A    between atoms: C8_8  and  C9_9 
REMARK    7  A    between atoms: C9_9  and  C10_10 
REMARK    8  A    between atoms: C10_10  and  C11_11 
REMARK    9  A    between atoms: C11_11  and  C12_12 
REMARK   10  A    between atoms: C12_12  and  C13_13 
REMARK   11  A    between atoms: C13_13  and  C14_14 
REMARK   12  A    between atoms: C14_14  and  C15_15 
REMARK   13  A    between atoms: C18_18  and  C19_19 
REMARK   14  A    between atoms: C23_22  and  C25_23 
REMARK   15  A    between atoms: C25_23  and  C26_24 
REMARK   16  A    between atoms: C29_26  and  C31_27 
REMARK   17  A    between atoms: C31_27  and  C34_29 
REMARK   18  A    between atoms: C34_29  and  O37_31 
REMARK   19  A    between atoms: C38_32  and  O40_33 
REMARK   20  A    between atoms: C41_34  and  O43_35 
ROOT
ATOM      1  C19 ZIN A   1      18.679  -2.013  10.432  0.00  0.00     0.156 C 
ATOM      2  O21 ZIN A   1      17.899  -0.867  10.777  0.00  0.00    -0.382 OA
ATOM      3  C22 ZIN A   1      17.165  -1.005  11.997  0.00  0.00     0.175 C 
ATOM      4  C23 ZIN A   1      18.143  -1.224  13.155  0.00  0.00     0.043 C 
ATOM      5  C38 ZIN A   1      18.997  -2.462  12.866  0.00  0.00     0.155 C 
ATOM      6  C41 ZIN A   1      19.716  -2.272  11.528  0.00  0.00     0.176 C 
ENDROOT
BRANCH   1   7
ATOM      7  C18 ZIN A   1      19.393  -1.762   9.103  0.00  0.00     0.068 C 
BRANCH   7   8
ATOM      8  C2  ZIN A   1      18.937  -2.778   8.087  0.00  0.00    -0.075 C 
ATOM      9  C1  ZIN A   1      17.639  -3.514   8.289  0.00  0.00     0.043 C 
ATOM     10  C3  ZIN A   1      19.681  -3.024   7.012  0.00  0.00     0.084 C 
BRANCH  10  11
ATOM     11  C4  ZIN A   1      19.325  -4.126   6.107  0.00  0.00     0.283 C 
ATOM     12  O5  ZIN A   1      19.671  -5.262   6.369  0.00  0.00    -0.260 OA
BRANCH  11  13
ATOM     13  O6  ZIN A   1      18.616  -3.879   4.989  0.00  0.00    -0.318 OA
BRANCH  13  14
ATOM     14  C7  ZIN A   1      18.887  -2.630   4.298  0.00  0.00     0.179 C 
BRANCH  14  15
ATOM     15  C8  ZIN A   1      17.737  -1.651   4.545  0.00  0.00     0.027 C 
BRANCH  15  16
ATOM     16  C9  ZIN A   1      18.265  -0.217   4.474  0.00  0.00     0.002 C 
BRANCH  16  17
ATOM     17  C10 ZIN A   1      19.229   0.030   5.635  0.00  0.00     0.000 C 
BRANCH  17  18
ATOM     18  C11 ZIN A   1      18.824   1.307   6.373  0.00  0.00     0.000 C 
BRANCH  18  19
ATOM     19  C12 ZIN A   1      19.235   1.200   7.843  0.00  0.00     0.001 C 
BRANCH  19  20
ATOM     20  C13 ZIN A   1      18.646   2.376   8.624  0.00  0.00     0.010 C 
BRANCH  20  21
ATOM     21  C14 ZIN A   1      19.162   2.341  10.064  0.00  0.00     0.113 C 
BRANCH  21  22
ATOM     22  C15 ZIN A   1      18.201   3.080  10.960  0.00  0.00     0.172 C 
ATOM     23  O16 ZIN A   1      18.419   4.240  11.263  0.00  0.00    -0.648 OA
ATOM     24  O17 ZIN A   1      17.205   2.517  11.380  0.00  0.00    -0.648 OA
ENDBRANCH  21  22
ENDBRANCH  20  21
ENDBRANCH  19  20
ENDBRANCH  18  19
ENDBRANCH  17  18
ENDBRANCH  16  17
ENDBRANCH  15  16
ENDBRANCH  14  15
ENDBRANCH  13  14
ENDBRANCH  11  13
ENDBRANCH  10  11
ENDBRANCH   7   8
ENDBRANCH   1   7
BRANCH   6  25
ATOM     25  O43 ZIN A   1      20.461  -3.451  11.214  0.00  0.00    -0.390 OA
ATOM     26  H78 ZIN A   1      21.160  -3.312  10.560  0.00  0.00     0.210 HD
ENDBRANCH   6  25
BRANCH   5  27
ATOM     27  O40 ZIN A   1      18.158  -3.617  12.800  0.00  0.00    -0.392 OA
ATOM     28  H77 ZIN A   1      18.554  -4.413  13.179  0.00  0.00     0.210 HD
ENDBRANCH   5  27
BRANCH   4  29
ATOM     29  C25 ZIN A   1      19.047   0.001  13.298  0.00  0.00     0.044 C 
BRANCH  29  30
ATOM     30  C26 ZIN A   1      18.518   0.898  14.419  0.00  0.00     0.152 A 
ATOM     31  C29 ZIN A   1      18.994   0.614  15.845  0.00  0.00     0.157 A 
ATOM     32  O28 ZIN A   1      19.453   1.742  15.094  0.00  0.00    -0.375 OA
BRANCH  31  33
ATOM     33  C31 ZIN A   1      18.013   0.871  16.991  0.00  0.00     0.041 C 
ATOM     34  C33 ZIN A   1      17.172  -0.384  17.234  0.00  0.00     0.015 C 
BRANCH  33  35
ATOM     35  C34 ZIN A   1      18.791   1.218  18.261  0.00  0.00     0.120 C 
ATOM     36  C36 ZIN A   1      19.078   2.721  18.288  0.00  0.00     0.040 C 
BRANCH  35  37
ATOM     37  O37 ZIN A   1      20.024   0.497  18.275  0.00  0.00    -0.396 OA
ATOM     38  H76 ZIN A   1      20.124  -0.127  17.542  0.00  0.00     0.210 HD
ENDBRANCH  35  37
ENDBRANCH  33  35
ENDBRANCH  31  33
ENDBRANCH  29  30
ENDBRANCH   4  29
TORSDOF 20
ENDMDL
MODEL 9
REMARK VINA RESULT:      -6.4      2.624     10.182
REMARK  20 active torsions:
REMARK  status: ('A' for Active; 'I' for Inactive)
REMARK    1  A    between atoms: C2_2  and  C18_18 
REMARK    2  A    between atoms: C3_3  and  C4_4 
REMARK    3  A    between atoms: C4_4  and  O6_6 
REMARK    4  A    between atoms: O6_6  and  C7_7 
REMARK    5  A    between atoms: C7_7  and  C8_8 
REMARK    6  A    between atoms: C8_8  and  C9_9 
REMARK    7  A    between atoms: C9_9  and  C10_10 
REMARK    8  A    between atoms: C10_10  and  C11_11 
REMARK    9  A    between atoms: C11_11  and  C12_12 
REMARK   10  A    between atoms: C12_12  and  C13_13 
REMARK   11  A    between atoms: C13_13  and  C14_14 
REMARK   12  A    between atoms: C14_14  and  C15_15 
REMARK   13  A    between atoms: C18_18  and  C19_19 
REMARK   14  A    between atoms: C23_22  and  C25_23 
REMARK   15  A    between atoms: C25_23  and  C26_24 
REMARK   16  A    between atoms: C29_26  and  C31_27 
REMARK   17  A    between atoms: C31_27  and  C34_29 
REMARK   18  A    between atoms: C34_29  and  O37_31 
REMARK   19  A    between atoms: C38_32  and  O40_33 
REMARK   20  A    between atoms: C41_34  and  O43_35 
ROOT
ATOM      1  C19 ZIN A   1      18.850   0.216  12.676  0.00  0.00     0.156 C 
ATOM      2  O21 ZIN A   1      18.274   0.985  11.619  0.00  0.00    -0.382 OA
ATOM      3  C22 ZIN A   1      19.195   1.338  10.584  0.00  0.00     0.175 C 
ATOM      4  C23 ZIN A   1      19.746   0.064   9.938  0.00  0.00     0.043 C 
ATOM      5  C38 ZIN A   1      20.410  -0.800  11.014  0.00  0.00     0.155 C 
ATOM      6  C41 ZIN A   1      19.388  -1.102  12.113  0.00  0.00     0.176 C 
ENDROOT
BRANCH   1   7
ATOM      7  C18 ZIN A   1      17.783  -0.077  13.733  0.00  0.00     0.068 C 
BRANCH   7   8
ATOM      8  C2  ZIN A   1      18.236   0.461  15.067  0.00  0.00    -0.075 C 
ATOM      9  C1  ZIN A   1      19.238   1.584  15.125  0.00  0.00     0.043 C 
ATOM     10  C3  ZIN A   1      17.749  -0.056  16.192  0.00  0.00     0.084 C 
BRANCH  10  11
ATOM     11  C4  ZIN A   1      18.307   0.351  17.490  0.00  0.00     0.283 C 
ATOM     12  O5  ZIN A   1      19.238  -0.265  17.969  0.00  0.00    -0.260 OA
BRANCH  11  13
ATOM     13  O6  ZIN A   1      17.786   1.405  18.148  0.00  0.00    -0.318 OA
BRANCH  13  14
ATOM     14  C7  ZIN A   1      18.713   2.437  18.578  0.00  0.00     0.179 C 
BRANCH  14  15
ATOM     15  C8  ZIN A   1      18.033   3.805  18.480  0.00  0.00     0.027 C 
BRANCH  15  16
ATOM     16  C9  ZIN A   1      18.296   4.406  17.098  0.00  0.00     0.002 C 
BRANCH  16  17
ATOM     17  C10 ZIN A   1      17.941   5.894  17.113  0.00  0.00     0.000 C 
BRANCH  17  18
ATOM     18  C11 ZIN A   1      17.645   6.363  15.688  0.00  0.00     0.000 C 
BRANCH  18  19
ATOM     19  C12 ZIN A   1      16.190   6.046  15.338  0.00  0.00     0.001 C 
BRANCH  19  20
ATOM     20  C13 ZIN A   1      16.104   5.591  13.880  0.00  0.00     0.010 C 
BRANCH  20  21
ATOM     21  C14 ZIN A   1      17.331   4.743  13.538  0.00  0.00     0.113 C 
BRANCH  21  22
ATOM     22  C15 ZIN A   1      17.464   4.634  12.040  0.00  0.00     0.172 C 
ATOM     23  O16 ZIN A   1      18.563   4.718  11.518  0.00  0.00    -0.648 OA
ATOM     24  O17 ZIN A   1      16.473   4.462  11.351  0.00  0.00    -0.648 OA
ENDBRANCH  21  22
ENDBRANCH  20  21
ENDBRANCH  19  20
ENDBRANCH  18  19
ENDBRANCH  17  18
ENDBRANCH  16  17
ENDBRANCH  15  16
ENDBRANCH  14  15
ENDBRANCH  13  14
ENDBRANCH  11  13
ENDBRANCH  10  11
ENDBRANCH   7   8
ENDBRANCH   1   7
BRANCH   6  25
ATOM     25  O43 ZIN A   1      20.015  -1.848  13.158  0.00  0.00    -0.390 OA
ATOM     26  H78 ZIN A   1      20.189  -2.773  12.933  0.00  0.00     0.210 HD
ENDBRANCH   6  25
BRANCH   5  27
ATOM     27  O40 ZIN A   1      21.521  -0.097  11.573  0.00  0.00    -0.392 OA
ATOM     28  H77 ZIN A   1      21.277   0.560  12.238  0.00  0.00     0.210 HD
ENDBRANCH   5  27
BRANCH   4  29
ATOM     29  C25 ZIN A   1      18.601  -0.715   9.289  0.00  0.00     0.044 C 
BRANCH  29  30
ATOM     30  C26 ZIN A   1      18.056   0.075   8.098  0.00  0.00     0.152 A 
ATOM     31  C29 ZIN A   1      17.898  -0.660   6.765  0.00  0.00     0.157 A 
ATOM     32  O28 ZIN A   1      16.778  -0.299   7.578  0.00  0.00    -0.375 OA
BRANCH  31  33
ATOM     33  C31 ZIN A   1      18.131   0.135   5.478  0.00  0.00     0.041 C 
ATOM     34  C33 ZIN A   1      19.303   1.098   5.679  0.00  0.00     0.015 C 
BRANCH  33  35
ATOM     35  C34 ZIN A   1      18.452  -0.828   4.335  0.00  0.00     0.120 C 
ATOM     36  C36 ZIN A   1      17.418  -1.956   4.313  0.00  0.00     0.040 C 
BRANCH  35  37
ATOM     37  O37 ZIN A   1      19.755  -1.380   4.528  0.00  0.00    -0.396 OA
ATOM     38  H76 ZIN A   1      20.133  -1.201   5.401  0.00  0.00     0.210 HD
ENDBRANCH  35  37
ENDBRANCH  33  35
ENDBRANCH  31  33
ENDBRANCH  29  30
ENDBRANCH   4  29
TORSDOF 20
ENDMDL
