MODEL 1
REMARK VINA RESULT:      -8.8      0.000      0.000
REMARK  8 active torsions:
REMARK  status: ('A' for Active; 'I' for Inactive)
REMARK    1  A    between atoms: O1_1  and  C2_2 
REMARK    2  A    between atoms: C2_2  and  C4_3 
REMARK    3  A    between atoms: C2_2  and  C22_19 
REMARK    4  A    between atoms: C4_3  and  N5_4 
REMARK    5  A    between atoms: N5_4  and  C6_5 
REMARK    6  A    between atoms: C6_5  and  C7_6 
REMARK    7  A    between atoms: C7_6  and  O9_7 
REMARK    8  A    between atoms: C7_6  and  C10_8 
ROOT
ATOM      1  N5  ZIN A   1      19.398   3.155  15.194  0.00  0.00     0.088 N 
ATOM      2  H37 ZIN A   1      19.449   2.231  14.792  0.00  0.00     0.316 HD
ENDROOT
BRANCH   1   3
ATOM      3  C4  ZIN A   1      18.453   4.000  14.454  0.00  0.00     0.303 C 
BRANCH   3   4
ATOM      4  C2  ZIN A   1      19.219   4.860  13.446  0.00  0.00     0.175 C 
BRANCH   4   5
ATOM      5  O1  ZIN A   1      20.492   5.211  13.990  0.00  0.00    -0.391 OA
ATOM      6  H34 ZIN A   1      20.873   6.017  13.613  0.00  0.00     0.210 HD
ENDBRANCH   4   5
BRANCH   4   7
ATOM      7  C22 ZIN A   1      19.419   4.071  12.150  0.00  0.00     0.159 C 
ATOM      8  O33 ZIN A   1      19.834   2.740  12.457  0.00  0.00    -0.343 OA
ATOM      9  C32 ZIN A   1      19.838   1.827  11.450  0.00  0.00     0.075 A 
ATOM     10  C26 ZIN A   1      19.144   2.039  10.272  0.00  0.00    -0.022 A 
ATOM     11  C31 ZIN A   1      20.559   0.650  11.624  0.00  0.00     0.040 A 
ATOM     12  C25 ZIN A   1      18.356   3.303  10.041  0.00  0.00     0.044 C 
ATOM     13  C27 ZIN A   1      19.166   1.077   9.276  0.00  0.00     0.052 A 
ATOM     14  C24 ZIN A   1      18.096   4.000  11.378  0.00  0.00     0.040 C 
ATOM     15  C28 ZIN A   1      19.882  -0.094   9.452  0.00  0.00     0.117 A 
ATOM     16  F29 ZIN A   1      19.900  -1.029   8.478  0.00  0.00    -0.206 F 
ATOM     17  C30 ZIN A   1      20.580  -0.305  10.628  0.00  0.00     0.045 A 
ENDBRANCH   4   7
ENDBRANCH   3   4
ENDBRANCH   1   3
BRANCH   1  18
ATOM     18  C6  ZIN A   1      19.044   3.090  16.618  0.00  0.00     0.303 C 
BRANCH  18  19
ATOM     19  C7  ZIN A   1      18.783   1.635  17.014  0.00  0.00     0.175 C 
BRANCH  19  20
ATOM     20  O9  ZIN A   1      19.686   1.255  18.054  0.00  0.00    -0.391 OA
ATOM     21  H40 ZIN A   1      19.249   0.939  18.857  0.00  0.00     0.210 HD
ENDBRANCH  19  20
BRANCH  19  22
ATOM     22  C10 ZIN A   1      18.996   0.730  15.798  0.00  0.00     0.159 C 
ATOM     23  O21 ZIN A   1      17.898   0.873  14.894  0.00  0.00    -0.343 OA
ATOM     24  C20 ZIN A   1      17.797  -0.018  13.873  0.00  0.00     0.075 A 
ATOM     25  C14 ZIN A   1      18.480  -1.221  13.885  0.00  0.00    -0.022 A 
ATOM     26  C19 ZIN A   1      16.974   0.298  12.797  0.00  0.00     0.040 A 
ATOM     27  C13 ZIN A   1      19.387  -1.599  15.029  0.00  0.00     0.044 C 
ATOM     28  C15 ZIN A   1      18.338  -2.105  12.829  0.00  0.00     0.052 A 
ATOM     29  C12 ZIN A   1      19.063  -0.734  16.250  0.00  0.00     0.040 C 
ATOM     30  C16 ZIN A   1      17.518  -1.789  11.759  0.00  0.00     0.117 A 
ATOM     31  F17 ZIN A   1      17.384  -2.655  10.732  0.00  0.00    -0.206 F 
ATOM     32  C18 ZIN A   1      16.836  -0.584  11.745  0.00  0.00     0.045 A 
ENDBRANCH  19  22
ENDBRANCH  18  19
ENDBRANCH   1  18
TORSDOF 8
ENDMDL
MODEL 2
REMARK VINA RESULT:      -8.7      4.558      6.937
REMARK  8 active torsions:
REMARK  status: ('A' for Active; 'I' for Inactive)
REMARK    1  A    between atoms: O1_1  and  C2_2 
REMARK    2  A    between atoms: C2_2  and  C4_3 
REMARK    3  A    between atoms: C2_2  and  C22_19 
REMARK    4  A    between atoms: C4_3  and  N5_4 
REMARK    5  A    between atoms: N5_4  and  C6_5 
REMARK    6  A    between atoms: C6_5  and  C7_6 
REMARK    7  A    between atoms: C7_6  and  O9_7 
REMARK    8  A    between atoms: C7_6  and  C10_8 
ROOT
ATOM      1  N5  ZIN A   1      17.917  -3.682   7.039  0.00  0.00     0.088 N 
ATOM      2  H37 ZIN A   1      18.217  -2.880   7.572  0.00  0.00     0.316 HD
ENDROOT
BRANCH   1   3
ATOM      3  C4  ZIN A   1      18.300  -3.553   5.628  0.00  0.00     0.303 C 
BRANCH   3   4
ATOM      4  C2  ZIN A   1      19.326  -2.427   5.479  0.00  0.00     0.175 C 
BRANCH   4   5
ATOM      5  O1  ZIN A   1      19.439  -2.065   4.101  0.00  0.00    -0.391 OA
ATOM      6  H34 ZIN A   1      20.259  -1.601   3.882  0.00  0.00     0.210 HD
ENDBRANCH   4   5
BRANCH   4   7
ATOM      7  C22 ZIN A   1      18.871  -1.211   6.289  0.00  0.00     0.159 C 
ATOM      8  O33 ZIN A   1      19.540  -1.196   7.550  0.00  0.00    -0.343 OA
ATOM      9  C32 ZIN A   1      19.440  -0.073   8.309  0.00  0.00     0.075 A 
ATOM     10  C26 ZIN A   1      19.031   1.135   7.773  0.00  0.00    -0.022 A 
ATOM     11  C31 ZIN A   1      19.766  -0.153   9.659  0.00  0.00     0.040 A 
ATOM     12  C25 ZIN A   1      18.663   1.264   6.316  0.00  0.00     0.044 C 
ATOM     13  C27 ZIN A   1      18.954   2.257   8.581  0.00  0.00     0.052 A 
ATOM     14  C24 ZIN A   1      19.228   0.076   5.535  0.00  0.00     0.040 C 
ATOM     15  C28 ZIN A   1      19.280   2.175   9.922  0.00  0.00     0.117 A 
ATOM     16  F29 ZIN A   1      19.203   3.273  10.705  0.00  0.00    -0.206 F 
ATOM     17  C30 ZIN A   1      19.685   0.967  10.461  0.00  0.00     0.045 A 
ENDBRANCH   4   7
ENDBRANCH   3   4
ENDBRANCH   1   3
BRANCH   1  18
ATOM     18  C6  ZIN A   1      18.446  -4.925   7.617  0.00  0.00     0.303 C 
BRANCH  18  19
ATOM     19  C7  ZIN A   1      17.513  -5.409   8.729  0.00  0.00     0.175 C 
BRANCH  19  20
ATOM     20  O9  ZIN A   1      16.182  -4.966   8.460  0.00  0.00    -0.391 OA
ATOM     21  H40 ZIN A   1      16.119  -4.029   8.227  0.00  0.00     0.210 HD
ENDBRANCH  19  20
BRANCH  19  22
ATOM     22  C10 ZIN A   1      17.980  -4.838  10.070  0.00  0.00     0.159 C 
ATOM     23  O21 ZIN A   1      17.425  -3.535  10.258  0.00  0.00    -0.343 OA
ATOM     24  C20 ZIN A   1      17.909  -2.780  11.279  0.00  0.00     0.075 A 
ATOM     25  C14 ZIN A   1      19.115  -3.070  11.892  0.00  0.00    -0.022 A 
ATOM     26  C19 ZIN A   1      17.165  -1.685  11.703  0.00  0.00     0.040 A 
ATOM     27  C13 ZIN A   1      19.950  -4.251  11.466  0.00  0.00     0.044 C 
ATOM     28  C15 ZIN A   1      19.577  -2.266  12.921  0.00  0.00     0.052 A 
ATOM     29  C12 ZIN A   1      19.510  -4.718  10.076  0.00  0.00     0.040 C 
ATOM     30  C16 ZIN A   1      18.835  -1.176  13.342  0.00  0.00     0.117 A 
ATOM     31  F17 ZIN A   1      19.289  -0.396  14.346  0.00  0.00    -0.206 F 
ATOM     32  C18 ZIN A   1      17.626  -0.887  12.731  0.00  0.00     0.045 A 
ENDBRANCH  19  22
ENDBRANCH  18  19
ENDBRANCH   1  18
TORSDOF 8
ENDMDL
MODEL 3
REMARK VINA RESULT:      -8.6      4.225      7.615
REMARK  8 active torsions:
REMARK  status: ('A' for Active; 'I' for Inactive)
REMARK    1  A    between atoms: O1_1  and  C2_2 
REMARK    2  A    between atoms: C2_2  and  C4_3 
REMARK    3  A    between atoms: C2_2  and  C22_19 
REMARK    4  A    between atoms: C4_3  and  N5_4 
REMARK    5  A    between atoms: N5_4  and  C6_5 
REMARK    6  A    between atoms: C6_5  and  C7_6 
REMARK    7  A    between atoms: C7_6  and  O9_7 
REMARK    8  A    between atoms: C7_6  and  C10_8 
ROOT
ATOM      1  N5  ZIN A   1      19.621  -3.118   7.562  0.00  0.00     0.088 N 
ATOM      2  H37 ZIN A   1      19.617  -2.190   7.958  0.00  0.00     0.316 HD
ENDROOT
BRANCH   1   3
ATOM      3  C4  ZIN A   1      18.663  -3.990   8.253  0.00  0.00     0.303 C 
BRANCH   3   4
ATOM      4  C2  ZIN A   1      19.398  -4.816   9.312  0.00  0.00     0.175 C 
BRANCH   4   5
ATOM      5  O1  ZIN A   1      20.705  -5.144   8.838  0.00  0.00    -0.391 OA
ATOM      6  H34 ZIN A   1      20.710  -5.629   8.001  0.00  0.00     0.210 HD
ENDBRANCH   4   5
BRANCH   4   7
ATOM      7  C22 ZIN A   1      19.513  -4.004  10.604  0.00  0.00     0.159 C 
ATOM      8  O33 ZIN A   1      19.987  -2.690  10.305  0.00  0.00    -0.343 OA
ATOM      9  C32 ZIN A   1      19.933  -1.755  11.290  0.00  0.00     0.075 A 
ATOM     10  C26 ZIN A   1      19.140  -1.924  12.412  0.00  0.00    -0.022 A 
ATOM     11  C31 ZIN A   1      20.696  -0.601  11.152  0.00  0.00     0.040 A 
ATOM     12  C25 ZIN A   1      18.303  -3.163  12.604  0.00  0.00     0.044 C 
ATOM     13  C27 ZIN A   1      19.108  -0.941  13.387  0.00  0.00     0.052 A 
ATOM     14  C24 ZIN A   1      18.134  -3.883  11.264  0.00  0.00     0.040 C 
ATOM     15  C28 ZIN A   1      19.866   0.207  13.246  0.00  0.00     0.117 A 
ATOM     16  F29 ZIN A   1      19.829   1.163  14.200  0.00  0.00    -0.206 F 
ATOM     17  C30 ZIN A   1      20.662   0.376  12.127  0.00  0.00     0.045 A 
ENDBRANCH   4   7
ENDBRANCH   3   4
ENDBRANCH   1   3
BRANCH   1  18
ATOM     18  C6  ZIN A   1      19.349  -3.076   6.119  0.00  0.00     0.303 C 
BRANCH  18  19
ATOM     19  C7  ZIN A   1      18.874  -1.674   5.730  0.00  0.00     0.175 C 
BRANCH  19  20
ATOM     20  O9  ZIN A   1      19.628  -1.209   4.609  0.00  0.00    -0.391 OA
ATOM     21  H40 ZIN A   1      20.324  -1.818   4.325  0.00  0.00     0.210 HD
ENDBRANCH  19  20
BRANCH  19  22
ATOM     22  C10 ZIN A   1      19.075  -0.722   6.911  0.00  0.00     0.159 C 
ATOM     23  O21 ZIN A   1      17.992  -0.863   7.832  0.00  0.00    -0.343 OA
ATOM     24  C20 ZIN A   1      17.877   0.061   8.823  0.00  0.00     0.075 A 
ATOM     25  C14 ZIN A   1      18.526   1.281   8.761  0.00  0.00    -0.022 A 
ATOM     26  C19 ZIN A   1      17.075  -0.240   9.919  0.00  0.00     0.040 A 
ATOM     27  C13 ZIN A   1      19.409   1.643   7.594  0.00  0.00     0.044 C 
ATOM     28  C15 ZIN A   1      18.371   2.197   9.788  0.00  0.00     0.052 A 
ATOM     29  C12 ZIN A   1      19.096   0.727   6.408  0.00  0.00     0.040 C 
ATOM     30  C16 ZIN A   1      17.573   1.897  10.877  0.00  0.00     0.117 A 
ATOM     31  F17 ZIN A   1      17.426   2.794  11.876  0.00  0.00    -0.206 F 
ATOM     32  C18 ZIN A   1      16.925   0.675  10.942  0.00  0.00     0.045 A 
ENDBRANCH  19  22
ENDBRANCH  18  19
ENDBRANCH   1  18
TORSDOF 8
ENDMDL
MODEL 4
REMARK VINA RESULT:      -8.5      1.674      4.785
REMARK  8 active torsions:
REMARK  status: ('A' for Active; 'I' for Inactive)
REMARK    1  A    between atoms: O1_1  and  C2_2 
REMARK    2  A    between atoms: C2_2  and  C4_3 
REMARK    3  A    between atoms: C2_2  and  C22_19 
REMARK    4  A    between atoms: C4_3  and  N5_4 
REMARK    5  A    between atoms: N5_4  and  C6_5 
REMARK    6  A    between atoms: C6_5  and  C7_6 
REMARK    7  A    between atoms: C7_6  and  O9_7 
REMARK    8  A    between atoms: C7_6  and  C10_8 
ROOT
ATOM      1  N5  ZIN A   1      18.004   2.437  16.336  0.00  0.00     0.088 N 
ATOM      2  H37 ZIN A   1      17.459   2.397  15.487  0.00  0.00     0.316 HD
ENDROOT
BRANCH   1   3
ATOM      3  C4  ZIN A   1      18.918   1.291  16.429  0.00  0.00     0.303 C 
BRANCH   3   4
ATOM      4  C2  ZIN A   1      18.106   0.001  16.568  0.00  0.00     0.175 C 
BRANCH   4   5
ATOM      5  O1  ZIN A   1      16.776   0.318  16.985  0.00  0.00    -0.391 OA
ATOM      6  H34 ZIN A   1      16.232  -0.456  17.183  0.00  0.00     0.210 HD
ENDBRANCH   4   5
BRANCH   4   7
ATOM      7  C22 ZIN A   1      18.060  -0.721  15.220  0.00  0.00     0.159 C 
ATOM      8  O33 ZIN A   1      17.490   0.140  14.234  0.00  0.00    -0.343 OA
ATOM      9  C32 ZIN A   1      17.578  -0.239  12.931  0.00  0.00     0.075 A 
ATOM     10  C26 ZIN A   1      18.474  -1.208  12.514  0.00  0.00    -0.022 A 
ATOM     11  C31 ZIN A   1      16.743   0.374  12.003  0.00  0.00     0.040 A 
ATOM     12  C25 ZIN A   1      19.392  -1.902  13.488  0.00  0.00     0.044 C 
ATOM     13  C27 ZIN A   1      18.537  -1.556  11.175  0.00  0.00     0.052 A 
ATOM     14  C24 ZIN A   1      19.482  -1.087  14.780  0.00  0.00     0.040 C 
ATOM     15  C28 ZIN A   1      17.707  -0.943  10.254  0.00  0.00     0.117 A 
ATOM     16  F29 ZIN A   1      17.774  -1.287   8.949  0.00  0.00    -0.206 F 
ATOM     17  C30 ZIN A   1      16.808   0.023  10.670  0.00  0.00     0.045 A 
ENDBRANCH   4   7
ENDBRANCH   3   4
ENDBRANCH   1   3
BRANCH   1  18
ATOM     18  C6  ZIN A   1      18.738   3.706  16.431  0.00  0.00     0.303 C 
BRANCH  18  19
ATOM     19  C7  ZIN A   1      17.967   4.798  15.687  0.00  0.00     0.175 C 
BRANCH  19  20
ATOM     20  O9  ZIN A   1      16.752   5.082  16.383  0.00  0.00    -0.391 OA
ATOM     21  H40 ZIN A   1      16.619   4.545  17.176  0.00  0.00     0.210 HD
ENDBRANCH  19  20
BRANCH  19  22
ATOM     22  C10 ZIN A   1      17.644   4.319  14.270  0.00  0.00     0.159 C 
ATOM     23  O21 ZIN A   1      18.803   3.717  13.690  0.00  0.00    -0.343 OA
ATOM     24  C20 ZIN A   1      18.776   3.442  12.358  0.00  0.00     0.075 A 
ATOM     25  C14 ZIN A   1      17.849   4.025  11.512  0.00  0.00    -0.022 A 
ATOM     26  C19 ZIN A   1      19.715   2.553  11.847  0.00  0.00     0.040 A 
ATOM     27  C13 ZIN A   1      16.811   4.988  12.028  0.00  0.00     0.044 C 
ATOM     28  C15 ZIN A   1      17.866   3.724  10.160  0.00  0.00     0.052 A 
ATOM     29  C12 ZIN A   1      17.233   5.515  13.401  0.00  0.00     0.040 C 
ATOM     30  C16 ZIN A   1      18.802   2.841   9.653  0.00  0.00     0.117 A 
ATOM     31  F17 ZIN A   1      18.814   2.551   8.334  0.00  0.00    -0.206 F 
ATOM     32  C18 ZIN A   1      19.728   2.254  10.500  0.00  0.00     0.045 A 
ENDBRANCH  19  22
ENDBRANCH  18  19
ENDBRANCH   1  18
TORSDOF 8
ENDMDL
MODEL 5
REMARK VINA RESULT:      -8.3      2.227      3.700
REMARK  8 active torsions:
REMARK  status: ('A' for Active; 'I' for Inactive)
REMARK    1  A    between atoms: O1_1  and  C2_2 
REMARK    2  A    between atoms: C2_2  and  C4_3 
REMARK    3  A    between atoms: C2_2  and  C22_19 
REMARK    4  A    between atoms: C4_3  and  N5_4 
REMARK    5  A    between atoms: N5_4  and  C6_5 
REMARK    6  A    between atoms: C6_5  and  C7_6 
REMARK    7  A    between atoms: C7_6  and  O9_7 
REMARK    8  A    between atoms: C7_6  and  C10_8 
ROOT
ATOM      1  N5  ZIN A   1      20.005   4.546  13.603  0.00  0.00     0.088 N 
ATOM      2  H37 ZIN A   1      20.597   3.781  13.892  0.00  0.00     0.316 HD
ENDROOT
BRANCH   1   3
ATOM      3  C4  ZIN A   1      19.161   4.160  12.466  0.00  0.00     0.303 C 
BRANCH   3   4
ATOM      4  C2  ZIN A   1      19.855   3.054  11.667  0.00  0.00     0.175 C 
BRANCH   4   5
ATOM      5  O1  ZIN A   1      20.348   2.056  12.564  0.00  0.00    -0.391 OA
ATOM      6  H34 ZIN A   1      19.770   1.889  13.321  0.00  0.00     0.210 HD
ENDBRANCH   4   5
BRANCH   4   7
ATOM      7  C22 ZIN A   1      18.856   2.419  10.698  0.00  0.00     0.159 C 
ATOM      8  O33 ZIN A   1      19.470   2.243   9.421  0.00  0.00    -0.343 OA
ATOM      9  C32 ZIN A   1      18.817   1.485   8.501  0.00  0.00     0.075 A 
ATOM     10  C26 ZIN A   1      17.796   0.622   8.860  0.00  0.00    -0.022 A 
ATOM     11  C31 ZIN A   1      19.197   1.587   7.167  0.00  0.00     0.040 A 
ATOM     12  C25 ZIN A   1      17.348   0.487  10.293  0.00  0.00     0.044 C 
ATOM     13  C27 ZIN A   1      17.164  -0.139   7.890  0.00  0.00     0.052 A 
ATOM     14  C24 ZIN A   1      18.428   1.044  11.224  0.00  0.00     0.040 C 
ATOM     15  C28 ZIN A   1      17.546  -0.038   6.565  0.00  0.00     0.117 A 
ATOM     16  F29 ZIN A   1      16.927  -0.783   5.624  0.00  0.00    -0.206 F 
ATOM     17  C30 ZIN A   1      18.564   0.828   6.204  0.00  0.00     0.045 A 
ENDBRANCH   4   7
ENDBRANCH   3   4
ENDBRANCH   1   3
BRANCH   1  18
ATOM     18  C6  ZIN A   1      19.189   5.031  14.724  0.00  0.00     0.303 C 
BRANCH  18  19
ATOM     19  C7  ZIN A   1      19.963   4.857  16.033  0.00  0.00     0.175 C 
BRANCH  19  20
ATOM     20  O9  ZIN A   1      21.360   5.025  15.785  0.00  0.00    -0.391 OA
ATOM     21  H40 ZIN A   1      21.918   4.359  16.213  0.00  0.00     0.210 HD
ENDBRANCH  19  20
BRANCH  19  22
ATOM     22  C10 ZIN A   1      19.709   3.456  16.593  0.00  0.00     0.159 C 
ATOM     23  O21 ZIN A   1      19.198   2.610  15.560  0.00  0.00    -0.343 OA
ATOM     24  C20 ZIN A   1      18.697   1.399  15.921  0.00  0.00     0.075 A 
ATOM     25  C14 ZIN A   1      18.348   1.116  17.230  0.00  0.00    -0.022 A 
ATOM     26  C19 ZIN A   1      18.530   0.432  14.936  0.00  0.00     0.040 A 
ATOM     27  C13 ZIN A   1      18.519   2.135  18.328  0.00  0.00     0.044 C 
ATOM     28  C15 ZIN A   1      17.829  -0.128  17.550  0.00  0.00     0.052 A 
ATOM     29  C12 ZIN A   1      18.667   3.530  17.717  0.00  0.00     0.040 C 
ATOM     30  C16 ZIN A   1      17.663  -1.089  16.569  0.00  0.00     0.117 A 
ATOM     31  F17 ZIN A   1      17.158  -2.300  16.887  0.00  0.00    -0.206 F 
ATOM     32  C18 ZIN A   1      18.016  -0.807  15.260  0.00  0.00     0.045 A 
ENDBRANCH  19  22
ENDBRANCH  18  19
ENDBRANCH   1  18
TORSDOF 8
ENDMDL
MODEL 6
REMARK VINA RESULT:      -8.1      4.109      5.688
REMARK  8 active torsions:
REMARK  status: ('A' for Active; 'I' for Inactive)
REMARK    1  A    between atoms: O1_1  and  C2_2 
REMARK    2  A    between atoms: C2_2  and  C4_3 
REMARK    3  A    between atoms: C2_2  and  C22_19 
REMARK    4  A    between atoms: C4_3  and  N5_4 
REMARK    5  A    between atoms: N5_4  and  C6_5 
REMARK    6  A    between atoms: C6_5  and  C7_6 
REMARK    7  A    between atoms: C7_6  and  O9_7 
REMARK    8  A    between atoms: C7_6  and  C10_8 
ROOT
ATOM      1  N5  ZIN A   1      18.825  -1.376  13.111  0.00  0.00     0.088 N 
ATOM      2  H37 ZIN A   1      19.821  -1.342  13.268  0.00  0.00     0.316 HD
ENDROOT
BRANCH   1   3
ATOM      3  C4  ZIN A   1      18.340  -0.118  12.530  0.00  0.00     0.303 C 
BRANCH   3   4
ATOM      4  C2  ZIN A   1      19.523   0.824  12.292  0.00  0.00     0.175 C 
BRANCH   4   5
ATOM      5  O1  ZIN A   1      20.716   0.227  12.802  0.00  0.00    -0.391 OA
ATOM      6  H34 ZIN A   1      21.053   0.647  13.606  0.00  0.00     0.210 HD
ENDBRANCH   4   5
BRANCH   4   7
ATOM      7  C22 ZIN A   1      19.680   1.075  10.791  0.00  0.00     0.159 C 
ATOM      8  O33 ZIN A   1      19.355  -0.112  10.068  0.00  0.00    -0.343 OA
ATOM      9  C32 ZIN A   1      19.213  -0.017   8.719  0.00  0.00     0.075 A 
ATOM     10  C26 ZIN A   1      19.027   1.202   8.091  0.00  0.00    -0.022 A 
ATOM     11  C31 ZIN A   1      19.253  -1.184   7.963  0.00  0.00     0.040 A 
ATOM     12  C25 ZIN A   1      18.985   2.491   8.872  0.00  0.00     0.044 C 
ATOM     13  C27 ZIN A   1      18.877   1.252   6.715  0.00  0.00     0.052 A 
ATOM     14  C24 ZIN A   1      18.723   2.189  10.349  0.00  0.00     0.040 C 
ATOM     15  C28 ZIN A   1      18.914   0.090   5.966  0.00  0.00     0.117 A 
ATOM     16  F29 ZIN A   1      18.766   0.145   4.624  0.00  0.00    -0.206 F 
ATOM     17  C30 ZIN A   1      19.104  -1.129   6.592  0.00  0.00     0.045 A 
ENDBRANCH   4   7
ENDBRANCH   3   4
ENDBRANCH   1   3
BRANCH   1  18
ATOM     18  C6  ZIN A   1      18.463  -2.521  12.265  0.00  0.00     0.303 C 
BRANCH  18  19
ATOM     19  C7  ZIN A   1      19.723  -3.320  11.923  0.00  0.00     0.175 C 
BRANCH  19  20
ATOM     20  O9  ZIN A   1      20.645  -2.480  11.227  0.00  0.00    -0.391 OA
ATOM     21  H40 ZIN A   1      21.365  -2.961  10.794  0.00  0.00     0.210 HD
ENDBRANCH  19  20
BRANCH  19  22
ATOM     22  C10 ZIN A   1      19.346  -4.509  11.036  0.00  0.00     0.159 C 
ATOM     23  O21 ZIN A   1      19.576  -4.179   9.665  0.00  0.00    -0.343 OA
ATOM     24  C20 ZIN A   1      19.085  -5.022   8.718  0.00  0.00     0.075 A 
ATOM     25  C14 ZIN A   1      18.105  -5.954   9.010  0.00  0.00    -0.022 A 
ATOM     26  C19 ZIN A   1      19.587  -4.929   7.425  0.00  0.00     0.040 A 
ATOM     27  C13 ZIN A   1      17.540  -6.092  10.401  0.00  0.00     0.044 C 
ATOM     28  C15 ZIN A   1      17.625  -6.785   8.011  0.00  0.00     0.052 A 
ATOM     29  C12 ZIN A   1      17.857  -4.834  11.213  0.00  0.00     0.040 C 
ATOM     30  C16 ZIN A   1      18.125  -6.690   6.724  0.00  0.00     0.117 A 
ATOM     31  F17 ZIN A   1      17.653  -7.503   5.754  0.00  0.00    -0.206 F 
ATOM     32  C18 ZIN A   1      19.108  -5.760   6.432  0.00  0.00     0.045 A 
ENDBRANCH  19  22
ENDBRANCH  18  19
ENDBRANCH   1  18
TORSDOF 8
ENDMDL
MODEL 7
REMARK VINA RESULT:      -8.1      1.721      2.311
REMARK  8 active torsions:
REMARK  status: ('A' for Active; 'I' for Inactive)
REMARK    1  A    between atoms: O1_1  and  C2_2 
REMARK    2  A    between atoms: C2_2  and  C4_3 
REMARK    3  A    between atoms: C2_2  and  C22_19 
REMARK    4  A    between atoms: C4_3  and  N5_4 
REMARK    5  A    between atoms: N5_4  and  C6_5 
REMARK    6  A    between atoms: C6_5  and  C7_6 
REMARK    7  A    between atoms: C7_6  and  O9_7 
REMARK    8  A    between atoms: C7_6  and  C10_8 
ROOT
ATOM      1  N5  ZIN A   1      17.910   4.076  14.698  0.00  0.00     0.088 N 
ATOM      2  H37 ZIN A   1      17.379   4.728  15.255  0.00  0.00     0.316 HD
ENDROOT
BRANCH   1   3
ATOM      3  C4  ZIN A   1      18.176   4.619  13.360  0.00  0.00     0.303 C 
BRANCH   3   4
ATOM      4  C2  ZIN A   1      17.191   4.012  12.358  0.00  0.00     0.175 C 
BRANCH   4   5
ATOM      5  O1  ZIN A   1      16.574   5.057  11.603  0.00  0.00    -0.391 OA
ATOM      6  H34 ZIN A   1      17.199   5.697  11.235  0.00  0.00     0.210 HD
ENDBRANCH   4   5
BRANCH   4   7
ATOM      7  C22 ZIN A   1      17.941   3.072  11.411  0.00  0.00     0.159 C 
ATOM      8  O33 ZIN A   1      17.161   1.898  11.182  0.00  0.00    -0.343 OA
ATOM      9  C32 ZIN A   1      17.556   1.056  10.190  0.00  0.00     0.075 A 
ATOM     10  C26 ZIN A   1      18.438   1.457   9.202  0.00  0.00    -0.022 A 
ATOM     11  C31 ZIN A   1      17.048  -0.239  10.178  0.00  0.00     0.040 A 
ATOM     12  C25 ZIN A   1      19.017   2.849   9.183  0.00  0.00     0.044 C 
ATOM     13  C27 ZIN A   1      18.805   0.569   8.205  0.00  0.00     0.052 A 
ATOM     14  C24 ZIN A   1      18.171   3.771  10.065  0.00  0.00     0.040 C 
ATOM     15  C28 ZIN A   1      18.297  -0.717   8.193  0.00  0.00     0.117 A 
ATOM     16  F29 ZIN A   1      18.658  -1.578   7.217  0.00  0.00    -0.206 F 
ATOM     17  C30 ZIN A   1      17.418  -1.121   9.183  0.00  0.00     0.045 A 
ENDBRANCH   4   7
ENDBRANCH   3   4
ENDBRANCH   1   3
BRANCH   1  18
ATOM     18  C6  ZIN A   1      19.161   3.705  15.373  0.00  0.00     0.303 C 
BRANCH  18  19
ATOM     19  C7  ZIN A   1      18.895   2.550  16.341  0.00  0.00     0.175 C 
BRANCH  19  20
ATOM     20  O9  ZIN A   1      19.757   2.670  17.474  0.00  0.00    -0.391 OA
ATOM     21  H40 ZIN A   1      19.388   3.202  18.193  0.00  0.00     0.210 HD
ENDBRANCH  19  20
BRANCH  19  22
ATOM     22  C10 ZIN A   1      19.165   1.220  15.633  0.00  0.00     0.159 C 
ATOM     23  O21 ZIN A   1      19.647   1.468  14.311  0.00  0.00    -0.343 OA
ATOM     24  C20 ZIN A   1      19.721   0.414  13.455  0.00  0.00     0.075 A 
ATOM     25  C14 ZIN A   1      19.039  -0.766  13.691  0.00  0.00    -0.022 A 
ATOM     26  C19 ZIN A   1      20.502   0.545  12.312  0.00  0.00     0.040 A 
ATOM     27  C13 ZIN A   1      18.187  -0.950  14.921  0.00  0.00     0.044 C 
ATOM     28  C15 ZIN A   1      19.134  -1.810  12.785  0.00  0.00     0.052 A 
ATOM     29  C12 ZIN A   1      17.862   0.416  15.531  0.00  0.00     0.040 C 
ATOM     30  C16 ZIN A   1      19.911  -1.678  11.648  0.00  0.00     0.117 A 
ATOM     31  F17 ZIN A   1      20.000  -2.699  10.768  0.00  0.00    -0.206 F 
ATOM     32  C18 ZIN A   1      20.596  -0.498  11.412  0.00  0.00     0.045 A 
ENDBRANCH  19  22
ENDBRANCH  18  19
ENDBRANCH   1  18
TORSDOF 8
ENDMDL
MODEL 8
REMARK VINA RESULT:      -8.1      1.868      2.807
REMARK  8 active torsions:
REMARK  status: ('A' for Active; 'I' for Inactive)
REMARK    1  A    between atoms: O1_1  and  C2_2 
REMARK    2  A    between atoms: C2_2  and  C4_3 
REMARK    3  A    between atoms: C2_2  and  C22_19 
REMARK    4  A    between atoms: C4_3  and  N5_4 
REMARK    5  A    between atoms: N5_4  and  C6_5 
REMARK    6  A    between atoms: C6_5  and  C7_6 
REMARK    7  A    between atoms: C7_6  and  O9_7 
REMARK    8  A    between atoms: C7_6  and  C10_8 
ROOT
ATOM      1  N5  ZIN A   1      19.108   3.887  17.316  0.00  0.00     0.088 N 
ATOM      2  H37 ZIN A   1      19.288   3.361  16.475  0.00  0.00     0.316 HD
ENDROOT
BRANCH   1   3
ATOM      3  C4  ZIN A   1      17.901   4.712  17.175  0.00  0.00     0.303 C 
BRANCH   3   4
ATOM      4  C2  ZIN A   1      18.262   6.034  16.494  0.00  0.00     0.175 C 
BRANCH   4   5
ATOM      5  O1  ZIN A   1      19.633   6.344  16.754  0.00  0.00    -0.391 OA
ATOM      6  H34 ZIN A   1      19.844   7.285  16.683  0.00  0.00     0.210 HD
ENDBRANCH   4   5
BRANCH   4   7
ATOM      7  C22 ZIN A   1      18.045   5.907  14.985  0.00  0.00     0.159 C 
ATOM      8  O33 ZIN A   1      18.913   4.902  14.458  0.00  0.00    -0.343 OA
ATOM      9  C32 ZIN A   1      18.701   4.486  13.181  0.00  0.00     0.075 A 
ATOM     10  C26 ZIN A   1      17.509   4.730  12.523  0.00  0.00    -0.022 A 
ATOM     11  C31 ZIN A   1      19.718   3.794  12.532  0.00  0.00     0.040 A 
ATOM     12  C25 ZIN A   1      16.384   5.482  13.189  0.00  0.00     0.044 C 
ATOM     13  C27 ZIN A   1      17.332   4.279  11.226  0.00  0.00     0.052 A 
ATOM     14  C24 ZIN A   1      16.596   5.492  14.704  0.00  0.00     0.040 C 
ATOM     15  C28 ZIN A   1      18.344   3.589  10.583  0.00  0.00     0.117 A 
ATOM     16  F29 ZIN A   1      18.167   3.152   9.318  0.00  0.00    -0.206 F 
ATOM     17  C30 ZIN A   1      19.539   3.349  11.238  0.00  0.00     0.045 A 
ENDBRANCH   4   7
ENDBRANCH   3   4
ENDBRANCH   1   3
BRANCH   1  18
ATOM     18  C6  ZIN A   1      19.006   2.999  18.482  0.00  0.00     0.303 C 
BRANCH  18  19
ATOM     19  C7  ZIN A   1      18.000   1.884  18.187  0.00  0.00     0.175 C 
BRANCH  19  20
ATOM     20  O9  ZIN A   1      17.813   1.090  19.360  0.00  0.00    -0.391 OA
ATOM     21  H40 ZIN A   1      17.927   0.140  19.214  0.00  0.00     0.210 HD
ENDBRANCH  19  20
BRANCH  19  22
ATOM     22  C10 ZIN A   1      18.532   1.003  17.054  0.00  0.00     0.159 C 
ATOM     23  O21 ZIN A   1      17.846   1.314  15.841  0.00  0.00    -0.343 OA
ATOM     24  C20 ZIN A   1      18.018   0.479  14.782  0.00  0.00     0.075 A 
ATOM     25  C14 ZIN A   1      18.524  -0.800  14.937  0.00  0.00    -0.022 A 
ATOM     26  C19 ZIN A   1      17.666   0.933  13.516  0.00  0.00     0.040 A 
ATOM     27  C13 ZIN A   1      18.924  -1.328  16.291  0.00  0.00     0.044 C 
ATOM     28  C15 ZIN A   1      18.672  -1.621  13.832  0.00  0.00     0.052 A 
ATOM     29  C12 ZIN A   1      18.283  -0.473  17.388  0.00  0.00     0.040 C 
ATOM     30  C16 ZIN A   1      18.320  -1.167  12.573  0.00  0.00     0.117 A 
ATOM     31  F17 ZIN A   1      18.467  -1.973  11.499  0.00  0.00    -0.206 F 
ATOM     32  C18 ZIN A   1      17.817   0.113  12.416  0.00  0.00     0.045 A 
ENDBRANCH  19  22
ENDBRANCH  18  19
ENDBRANCH   1  18
TORSDOF 8
ENDMDL
MODEL 9
REMARK VINA RESULT:      -8.0      3.209      6.845
REMARK  8 active torsions:
REMARK  status: ('A' for Active; 'I' for Inactive)
REMARK    1  A    between atoms: O1_1  and  C2_2 
REMARK    2  A    between atoms: C2_2  and  C4_3 
REMARK    3  A    between atoms: C2_2  and  C22_19 
REMARK    4  A    between atoms: C4_3  and  N5_4 
REMARK    5  A    between atoms: N5_4  and  C6_5 
REMARK    6  A    between atoms: C6_5  and  C7_6 
REMARK    7  A    between atoms: C7_6  and  O9_7 
REMARK    8  A    between atoms: C7_6  and  C10_8 
ROOT
ATOM      1  N5  ZIN A   1      18.342   2.198  12.130  0.00  0.00     0.088 N 
ATOM      2  H37 ZIN A   1      17.880   1.612  12.809  0.00  0.00     0.316 HD
ENDROOT
BRANCH   1   3
ATOM      3  C4  ZIN A   1      19.801   2.129  12.279  0.00  0.00     0.303 C 
BRANCH   3   4
ATOM      4  C2  ZIN A   1      20.227   0.671  12.462  0.00  0.00     0.175 C 
BRANCH   4   5
ATOM      5  O1  ZIN A   1      21.610   0.533  12.126  0.00  0.00    -0.391 OA
ATOM      6  H34 ZIN A   1      21.827  -0.303  11.692  0.00  0.00     0.210 HD
ENDBRANCH   4   5
BRANCH   4   7
ATOM      7  C22 ZIN A   1      20.013   0.255  13.918  0.00  0.00     0.159 C 
ATOM      8  O33 ZIN A   1      19.538   1.371  14.672  0.00  0.00    -0.343 OA
ATOM      9  C32 ZIN A   1      19.072   1.138  15.927  0.00  0.00     0.075 A 
ATOM     10  C26 ZIN A   1      18.723  -0.132  16.351  0.00  0.00    -0.022 A 
ATOM     11  C31 ZIN A   1      18.943   2.216  16.798  0.00  0.00     0.040 A 
ATOM     12  C25 ZIN A   1      18.853  -1.328  15.442  0.00  0.00     0.044 C 
ATOM     13  C27 ZIN A   1      18.242  -0.322  17.636  0.00  0.00     0.052 A 
ATOM     14  C24 ZIN A   1      18.962  -0.860  13.989  0.00  0.00     0.040 C 
ATOM     15  C28 ZIN A   1      18.113   0.751  18.499  0.00  0.00     0.117 A 
ATOM     16  F29 ZIN A   1      17.643   0.560  19.751  0.00  0.00    -0.206 F 
ATOM     17  C30 ZIN A   1      18.466   2.021  18.078  0.00  0.00     0.045 A 
ENDBRANCH   4   7
ENDBRANCH   3   4
ENDBRANCH   1   3
BRANCH   1  18
ATOM     18  C6  ZIN A   1      17.935   1.841  10.764  0.00  0.00     0.303 C 
BRANCH  18  19
ATOM     19  C7  ZIN A   1      19.038   2.243   9.781  0.00  0.00     0.175 C 
BRANCH  19  20
ATOM     20  O9  ZIN A   1      18.572   3.309   8.952  0.00  0.00    -0.391 OA
ATOM     21  H40 ZIN A   1      17.660   3.577   9.133  0.00  0.00     0.210 HD
ENDBRANCH  19  20
BRANCH  19  22
ATOM     22  C10 ZIN A   1      19.405   1.040   8.909  0.00  0.00     0.159 C 
ATOM     23  O21 ZIN A   1      18.998   1.282   7.561  0.00  0.00    -0.343 OA
ATOM     24  C20 ZIN A   1      19.032   0.238   6.690  0.00  0.00     0.075 A 
ATOM     25  C14 ZIN A   1      19.097  -1.073   7.128  0.00  0.00    -0.022 A 
ATOM     26  C19 ZIN A   1      18.991   0.511   5.328  0.00  0.00     0.040 A 
ATOM     27  C13 ZIN A   1      19.149  -1.411   8.596  0.00  0.00     0.044 C 
ATOM     28  C15 ZIN A   1      19.117  -2.106   6.206  0.00  0.00     0.052 A 
ATOM     29  C12 ZIN A   1      18.675  -0.209   9.418  0.00  0.00     0.040 C 
ATOM     30  C16 ZIN A   1      19.076  -1.833   4.850  0.00  0.00     0.117 A 
ATOM     31  F17 ZIN A   1      19.096  -2.845   3.955  0.00  0.00    -0.206 F 
ATOM     32  C18 ZIN A   1      19.013  -0.521   4.412  0.00  0.00     0.045 A 
ENDBRANCH  19  22
ENDBRANCH  18  19
ENDBRANCH   1  18
TORSDOF 8
ENDMDL
