MODEL 1
REMARK VINA RESULT:      -7.5      0.000      0.000
REMARK  1 active torsions:
REMARK  status: ('A' for Active; 'I' for Inactive)
REMARK    1  A    between atoms: C19_17  and  O20_18 
ROOT
ATOM      1  C1  ZIN A   1      18.423  -2.201  12.960  0.00  0.00     0.270 C 
ATOM      2  N2  ZIN A   1      18.835  -0.795  13.072  0.00  0.00    -0.070 N 
ATOM      3  H3  ZIN A   1      19.294  -0.659  13.961  0.00  0.00     0.279 HD
ATOM      4  C4  ZIN A   1      17.644   0.055  13.015  0.00  0.00     0.236 C 
ATOM      5  C5  ZIN A   1      16.940  -0.130  11.666  0.00  0.00     0.042 C 
ATOM      6  C6  ZIN A   1      17.926   0.289  10.567  0.00  0.00    -0.005 C 
ATOM      7  C7  ZIN A   1      17.262   0.207   9.198  0.00  0.00     0.015 C 
ATOM      8  C8  ZIN A   1      18.270   0.601   8.115  0.00  0.00     0.001 C 
ATOM      9  C9  ZIN A   1      19.470  -0.346   8.169  0.00  0.00     0.001 C 
ATOM     10  C10 ZIN A   1      20.139  -0.248   9.542  0.00  0.00     0.008 C 
ATOM     11  C11 ZIN A   1      19.134  -0.648  10.626  0.00  0.00     0.030 C 
ATOM     12  C13 ZIN A   1      19.775  -0.491  12.004  0.00  0.00     0.197 C 
ATOM     13  C15 ZIN A   1      20.390   0.891  12.137  0.00  0.00     0.072 C 
ATOM     14  C16 ZIN A   1      19.494   1.971  11.595  0.00  0.00    -0.049 A 
ATOM     15  C17 ZIN A   1      19.837   3.291  11.865  0.00  0.00     0.010 A 
ATOM     16  C18 ZIN A   1      19.068   4.328  11.383  0.00  0.00     0.037 A 
ATOM     17  C19 ZIN A   1      17.940   4.057  10.622  0.00  0.00     0.066 A 
ATOM     18  C21 ZIN A   1      17.594   2.742  10.357  0.00  0.00     0.045 A 
ATOM     19  C22 ZIN A   1      18.369   1.702  10.852  0.00  0.00    -0.040 A 
ENDROOT
BRANCH  17  20
ATOM     20  O20 ZIN A   1      17.180   5.074  10.138  0.00  0.00    -0.361 OA
ATOM     21  H42 ZIN A   1      17.651   5.661   9.529  0.00  0.00     0.217 HD
ENDBRANCH  17  20
TORSDOF 1
ENDMDL
MODEL 2
REMARK VINA RESULT:      -7.2      1.637      3.627
REMARK  1 active torsions:
REMARK  status: ('A' for Active; 'I' for Inactive)
REMARK    1  A    between atoms: C19_17  and  O20_18 
ROOT
ATOM      1  C1  ZIN A   1      19.155  -2.608   9.606  0.00  0.00     0.270 C 
ATOM      2  N2  ZIN A   1      18.743  -1.205   9.462  0.00  0.00    -0.070 N 
ATOM      3  H3  ZIN A   1      18.311  -1.082   8.558  0.00  0.00     0.279 HD
ATOM      4  C4  ZIN A   1      19.930  -0.351   9.543  0.00  0.00     0.236 C 
ATOM      5  C5  ZIN A   1      20.593  -0.516  10.915  0.00  0.00     0.042 C 
ATOM      6  C6  ZIN A   1      19.574  -0.085  11.978  0.00  0.00    -0.005 C 
ATOM      7  C7  ZIN A   1      20.197  -0.147  13.368  0.00  0.00     0.015 C 
ATOM      8  C8  ZIN A   1      19.156   0.257  14.415  0.00  0.00     0.001 C 
ATOM      9  C9  ZIN A   1      17.960  -0.693  14.338  0.00  0.00     0.001 C 
ATOM     10  C10 ZIN A   1      17.333  -0.616  12.944  0.00  0.00     0.008 C 
ATOM     11  C11 ZIN A   1      18.370  -1.027  11.896  0.00  0.00     0.030 C 
ATOM     12  C13 ZIN A   1      17.770  -0.890  10.497  0.00  0.00     0.197 C 
ATOM     13  C15 ZIN A   1      17.156   0.488  10.327  0.00  0.00     0.072 C 
ATOM     14  C16 ZIN A   1      18.033   1.578  10.882  0.00  0.00    -0.049 A 
ATOM     15  C17 ZIN A   1      17.695   2.893  10.585  0.00  0.00     0.010 A 
ATOM     16  C18 ZIN A   1      18.446   3.939  11.076  0.00  0.00     0.037 A 
ATOM     17  C19 ZIN A   1      19.552   3.681  11.873  0.00  0.00     0.066 A 
ATOM     18  C21 ZIN A   1      19.893   2.371  12.166  0.00  0.00     0.045 A 
ATOM     19  C22 ZIN A   1      19.136   1.322  11.662  0.00  0.00    -0.040 A 
ENDROOT
BRANCH  17  20
ATOM     20  O20 ZIN A   1      20.294   4.707  12.366  0.00  0.00    -0.361 OA
ATOM     21  H42 ZIN A   1      20.114   5.560  11.946  0.00  0.00     0.217 HD
ENDBRANCH  17  20
TORSDOF 1
ENDMDL
MODEL 3
REMARK VINA RESULT:      -7.1      2.560      4.306
REMARK  1 active torsions:
REMARK  status: ('A' for Active; 'I' for Inactive)
REMARK    1  A    between atoms: C19_17  and  O20_18 
ROOT
ATOM      1  C1  ZIN A   1      18.328  -1.903   9.528  0.00  0.00     0.270 C 
ATOM      2  N2  ZIN A   1      18.518  -2.210  10.952  0.00  0.00    -0.070 N 
ATOM      3  H3  ZIN A   1      18.764  -3.184  11.047  0.00  0.00     0.279 HD
ATOM      4  C4  ZIN A   1      17.261  -1.964  11.663  0.00  0.00     0.236 C 
ATOM      5  C5  ZIN A   1      16.878  -0.485  11.539  0.00  0.00     0.042 C 
ATOM      6  C6  ZIN A   1      18.003   0.341  12.179  0.00  0.00    -0.005 C 
ATOM      7  C7  ZIN A   1      17.648   1.823  12.164  0.00  0.00     0.015 C 
ATOM      8  C8  ZIN A   1      18.794   2.631  12.778  0.00  0.00     0.001 C 
ATOM      9  C9  ZIN A   1      20.073   2.393  11.974  0.00  0.00     0.001 C 
ATOM     10  C10 ZIN A   1      20.429   0.905  12.004  0.00  0.00     0.008 C 
ATOM     11  C11 ZIN A   1      19.287   0.097  11.384  0.00  0.00     0.030 C 
ATOM     12  C13 ZIN A   1      19.608  -1.395  11.469  0.00  0.00     0.197 C 
ATOM     13  C15 ZIN A   1      19.994  -1.763  12.891  0.00  0.00     0.072 C 
ATOM     14  C16 ZIN A   1      19.092  -1.126  13.912  0.00  0.00    -0.049 A 
ATOM     15  C17 ZIN A   1      19.194  -1.564  15.228  0.00  0.00     0.010 A 
ATOM     16  C18 ZIN A   1      18.409  -1.009  16.215  0.00  0.00     0.037 A 
ATOM     17  C19 ZIN A   1      17.506  -0.005  15.898  0.00  0.00     0.066 A 
ATOM     18  C21 ZIN A   1      17.398   0.428  14.587  0.00  0.00     0.045 A 
ATOM     19  C22 ZIN A   1      18.187  -0.140  13.596  0.00  0.00    -0.040 A 
ENDROOT
BRANCH  17  20
ATOM     20  O20 ZIN A   1      16.733   0.551  16.867  0.00  0.00    -0.361 OA
ATOM     21  H42 ZIN A   1      17.014   0.335  17.767  0.00  0.00     0.217 HD
ENDBRANCH  17  20
TORSDOF 1
ENDMDL
MODEL 4
REMARK VINA RESULT:      -7.0      2.412      3.420
REMARK  1 active torsions:
REMARK  status: ('A' for Active; 'I' for Inactive)
REMARK    1  A    between atoms: C19_17  and  O20_18 
ROOT
ATOM      1  C1  ZIN A   1      18.585  -0.029  14.550  0.00  0.00     0.270 C 
ATOM      2  N2  ZIN A   1      18.881   0.555  13.235  0.00  0.00    -0.070 N 
ATOM      3  H3  ZIN A   1      19.302   1.463  13.368  0.00  0.00     0.279 HD
ATOM      4  C4  ZIN A   1      17.628   0.715  12.493  0.00  0.00     0.236 C 
ATOM      5  C5  ZIN A   1      16.980  -0.657  12.272  0.00  0.00     0.042 C 
ATOM      6  C6  ZIN A   1      17.961  -1.506  11.452  0.00  0.00    -0.005 C 
ATOM      7  C7  ZIN A   1      17.344  -2.861  11.125  0.00  0.00     0.015 C 
ATOM      8  C8  ZIN A   1      18.348  -3.704  10.333  0.00  0.00     0.001 C 
ATOM      9  C9  ZIN A   1      19.618  -3.896  11.165  0.00  0.00     0.001 C 
ATOM     10  C10 ZIN A   1      20.237  -2.533  11.479  0.00  0.00     0.008 C 
ATOM     11  C11 ZIN A   1      19.237  -1.692  12.276  0.00  0.00     0.030 C 
ATOM     12  C13 ZIN A   1      19.824  -0.306  12.538  0.00  0.00     0.197 C 
ATOM     13  C15 ZIN A   1      20.324   0.301  11.238  0.00  0.00     0.072 C 
ATOM     14  C16 ZIN A   1      19.361   0.092  10.101  0.00  0.00    -0.049 A 
ATOM     15  C17 ZIN A   1      19.591   0.793   8.923  0.00  0.00     0.010 A 
ATOM     16  C18 ZIN A   1      18.757   0.634   7.838  0.00  0.00     0.037 A 
ATOM     17  C19 ZIN A   1      17.676  -0.232   7.918  0.00  0.00     0.066 A 
ATOM     18  C21 ZIN A   1      17.442  -0.927   9.093  0.00  0.00     0.045 A 
ATOM     19  C22 ZIN A   1      18.283  -0.756  10.185  0.00  0.00    -0.040 A 
ENDROOT
BRANCH  17  20
ATOM     20  O20 ZIN A   1      16.852  -0.399   6.850  0.00  0.00    -0.361 OA
ATOM     21  H42 ZIN A   1      16.568   0.430   6.439  0.00  0.00     0.217 HD
ENDBRANCH  17  20
TORSDOF 1
ENDMDL
MODEL 5
REMARK VINA RESULT:      -7.0      2.898      4.796
REMARK  1 active torsions:
REMARK  status: ('A' for Active; 'I' for Inactive)
REMARK    1  A    between atoms: C19_17  and  O20_18 
ROOT
ATOM      1  C1  ZIN A   1      19.542   0.662   8.742  0.00  0.00     0.270 C 
ATOM      2  N2  ZIN A   1      18.915   0.902  10.049  0.00  0.00    -0.070 N 
ATOM      3  H3  ZIN A   1      18.485   1.815  10.042  0.00  0.00     0.279 HD
ATOM      4  C4  ZIN A   1      19.950   0.872  11.085  0.00  0.00     0.236 C 
ATOM      5  C5  ZIN A   1      20.609  -0.512  11.118  0.00  0.00     0.042 C 
ATOM      6  C6  ZIN A   1      19.516  -1.537  11.450  0.00  0.00    -0.005 C 
ATOM      7  C7  ZIN A   1      20.118  -2.931  11.580  0.00  0.00     0.015 C 
ATOM      8  C8  ZIN A   1      19.009  -3.943  11.882  0.00  0.00     0.001 C 
ATOM      9  C9  ZIN A   1      17.980  -3.922  10.750  0.00  0.00     0.001 C 
ATOM     10  C10 ZIN A   1      17.372  -2.523  10.635  0.00  0.00     0.008 C 
ATOM     11  C11 ZIN A   1      18.478  -1.512  10.326  0.00  0.00     0.030 C 
ATOM     12  C13 ZIN A   1      17.888  -0.103  10.273  0.00  0.00     0.197 C 
ATOM     13  C15 ZIN A   1      17.066   0.163  11.521  0.00  0.00     0.072 C 
ATOM     14  C16 ZIN A   1      17.749  -0.322  12.771  0.00  0.00    -0.049 A 
ATOM     15  C17 ZIN A   1      17.212   0.066  13.993  0.00  0.00     0.010 A 
ATOM     16  C18 ZIN A   1      17.780  -0.357  15.175  0.00  0.00     0.037 A 
ATOM     17  C19 ZIN A   1      18.899  -1.177  15.150  0.00  0.00     0.066 A 
ATOM     18  C21 ZIN A   1      19.439  -1.560  13.933  0.00  0.00     0.045 A 
ATOM     19  C22 ZIN A   1      18.866  -1.123  12.746  0.00  0.00    -0.040 A 
ENDROOT
BRANCH  17  20
ATOM     20  O20 ZIN A   1      19.461  -1.604  16.311  0.00  0.00    -0.361 OA
ATOM     21  H42 ZIN A   1      19.025  -2.377  16.698  0.00  0.00     0.217 HD
ENDBRANCH  17  20
TORSDOF 1
ENDMDL
MODEL 6
REMARK VINA RESULT:      -7.0      1.722      3.838
REMARK  1 active torsions:
REMARK  status: ('A' for Active; 'I' for Inactive)
REMARK    1  A    between atoms: C19_17  and  O20_18 
ROOT
ATOM      1  C1  ZIN A   1      19.627  -0.993  13.879  0.00  0.00     0.270 C 
ATOM      2  N2  ZIN A   1      18.968  -1.234  12.588  0.00  0.00    -0.070 N 
ATOM      3  H3  ZIN A   1      18.562  -2.158  12.596  0.00  0.00     0.279 HD
ATOM      4  C4  ZIN A   1      19.970  -1.163  11.522  0.00  0.00     0.236 C 
ATOM      5  C5  ZIN A   1      20.590   0.239  11.487  0.00  0.00     0.042 C 
ATOM      6  C6  ZIN A   1      19.461   1.238  11.202  0.00  0.00    -0.005 C 
ATOM      7  C7  ZIN A   1      20.021   2.649  11.073  0.00  0.00     0.015 C 
ATOM      8  C8  ZIN A   1      18.877   3.634  10.818  0.00  0.00     0.001 C 
ATOM      9  C9  ZIN A   1      17.883   3.572  11.980  0.00  0.00     0.001 C 
ATOM     10  C10 ZIN A   1      17.316   2.155  12.095  0.00  0.00     0.008 C 
ATOM     11  C11 ZIN A   1      18.459   1.171  12.357  0.00  0.00     0.030 C 
ATOM     12  C13 ZIN A   1      17.908  -0.254  12.409  0.00  0.00     0.197 C 
ATOM     13  C15 ZIN A   1      17.055  -0.527  11.182  0.00  0.00     0.072 C 
ATOM     14  C16 ZIN A   1      17.688  -0.008   9.919  0.00  0.00    -0.049 A 
ATOM     15  C17 ZIN A   1      17.124  -0.395   8.708  0.00  0.00     0.010 A 
ATOM     16  C18 ZIN A   1      17.644   0.058   7.515  0.00  0.00     0.037 A 
ATOM     17  C19 ZIN A   1      18.741   0.908   7.518  0.00  0.00     0.066 A 
ATOM     18  C21 ZIN A   1      19.307   1.290   8.723  0.00  0.00     0.045 A 
ATOM     19  C22 ZIN A   1      18.783   0.823   9.921  0.00  0.00    -0.040 A 
ENDROOT
BRANCH  17  20
ATOM     20  O20 ZIN A   1      19.256   1.364   6.346  0.00  0.00    -0.361 OA
ATOM     21  H42 ZIN A   1      18.876   2.204   6.050  0.00  0.00     0.217 HD
ENDBRANCH  17  20
TORSDOF 1
ENDMDL
MODEL 7
REMARK VINA RESULT:      -6.9      2.938      5.290
REMARK  1 active torsions:
REMARK  status: ('A' for Active; 'I' for Inactive)
REMARK    1  A    between atoms: C19_17  and  O20_18 
ROOT
ATOM      1  C1  ZIN A   1      18.778   2.348   9.702  0.00  0.00     0.270 C 
ATOM      2  N2  ZIN A   1      19.225   0.950   9.641  0.00  0.00    -0.070 N 
ATOM      3  H3  ZIN A   1      19.812   0.830   8.829  0.00  0.00     0.279 HD
ATOM      4  C4  ZIN A   1      18.053   0.081   9.514  0.00  0.00     0.236 C 
ATOM      5  C5  ZIN A   1      17.154   0.242  10.746  0.00  0.00     0.042 C 
ATOM      6  C6  ZIN A   1      17.973  -0.173  11.975  0.00  0.00    -0.005 C 
ATOM      7  C7  ZIN A   1      17.112  -0.115  13.231  0.00  0.00     0.015 C 
ATOM      8  C8  ZIN A   1      17.954  -0.503  14.449  0.00  0.00     0.001 C 
ATOM      9  C9  ZIN A   1      19.134   0.462  14.581  0.00  0.00     0.001 C 
ATOM     10  C10 ZIN A   1      20.000   0.388  13.321  0.00  0.00     0.008 C 
ATOM     11  C11 ZIN A   1      19.161   0.783  12.104  0.00  0.00     0.030 C 
ATOM     12  C13 ZIN A   1      20.002   0.650  10.835  0.00  0.00     0.197 C 
ATOM     13  C15 ZIN A   1      20.653  -0.721  10.784  0.00  0.00     0.072 C 
ATOM     14  C16 ZIN A   1      19.704  -1.820  11.179  0.00  0.00    -0.049 A 
ATOM     15  C17 ZIN A   1      20.105  -3.132  10.953  0.00  0.00     0.010 A 
ATOM     16  C18 ZIN A   1      19.291  -4.186  11.308  0.00  0.00     0.037 A 
ATOM     17  C19 ZIN A   1      18.058  -3.939  11.895  0.00  0.00     0.066 A 
ATOM     18  C21 ZIN A   1      17.654  -2.632  12.116  0.00  0.00     0.045 A 
ATOM     19  C22 ZIN A   1      18.477  -1.576  11.749  0.00  0.00    -0.040 A 
ENDROOT
BRANCH  17  20
ATOM     20  O20 ZIN A   1      17.252  -4.973  12.254  0.00  0.00    -0.361 OA
ATOM     21  H42 ZIN A   1      17.381  -5.275  13.164  0.00  0.00     0.217 HD
ENDBRANCH  17  20
TORSDOF 1
ENDMDL
MODEL 8
REMARK VINA RESULT:      -6.8      2.753      4.802
REMARK  1 active torsions:
REMARK  status: ('A' for Active; 'I' for Inactive)
REMARK    1  A    between atoms: C19_17  and  O20_18 
ROOT
ATOM      1  C1  ZIN A   1      19.142   2.512  13.004  0.00  0.00     0.270 C 
ATOM      2  N2  ZIN A   1      18.636   1.141  13.154  0.00  0.00    -0.070 N 
ATOM      3  H3  ZIN A   1      18.144   1.068  14.033  0.00  0.00     0.279 HD
ATOM      4  C4  ZIN A   1      19.771   0.214  13.166  0.00  0.00     0.236 C 
ATOM      5  C5  ZIN A   1      20.524   0.301  11.834  0.00  0.00     0.042 C 
ATOM      6  C6  ZIN A   1      19.545  -0.096  10.721  0.00  0.00    -0.005 C 
ATOM      7  C7  ZIN A   1      20.252  -0.109   9.371  0.00  0.00     0.015 C 
ATOM      8  C8  ZIN A   1      19.253  -0.478   8.271  0.00  0.00     0.001 C 
ATOM      9  C9  ZIN A   1      18.115   0.545   8.254  0.00  0.00     0.001 C 
ATOM     10  C10 ZIN A   1      17.402   0.543   9.608  0.00  0.00     0.008 C 
ATOM     11  C11 ZIN A   1      18.399   0.919  10.707  0.00  0.00     0.030 C 
ATOM     12  C13 ZIN A   1      17.709   0.857  12.069  0.00  0.00     0.197 C 
ATOM     13  C15 ZIN A   1      17.002  -0.477  12.233  0.00  0.00     0.072 C 
ATOM     14  C16 ZIN A   1      17.841  -1.633  11.759  0.00  0.00    -0.049 A 
ATOM     15  C17 ZIN A   1      17.405  -2.916  12.066  0.00  0.00     0.010 A 
ATOM     16  C18 ZIN A   1      18.118  -4.018  11.647  0.00  0.00     0.037 A 
ATOM     17  C19 ZIN A   1      19.283  -3.850  10.912  0.00  0.00     0.066 A 
ATOM     18  C21 ZIN A   1      19.722  -2.571  10.610  0.00  0.00     0.045 A 
ATOM     19  C22 ZIN A   1      19.002  -1.465  11.043  0.00  0.00    -0.040 A 
ENDROOT
BRANCH  17  20
ATOM     20  O20 ZIN A   1      19.988  -4.931  10.490  0.00  0.00    -0.361 OA
ATOM     21  H42 ZIN A   1      20.108  -5.612  11.167  0.00  0.00     0.217 HD
ENDBRANCH  17  20
TORSDOF 1
ENDMDL
MODEL 9
REMARK VINA RESULT:      -6.5      2.312      4.271
REMARK  1 active torsions:
REMARK  status: ('A' for Active; 'I' for Inactive)
REMARK    1  A    between atoms: C19_17  and  O20_18 
ROOT
ATOM      1  C1  ZIN A   1      19.252   1.465  15.097  0.00  0.00     0.270 C 
ATOM      2  N2  ZIN A   1      18.746   0.343  14.295  0.00  0.00    -0.070 N 
ATOM      3  H3  ZIN A   1      18.335  -0.341  14.912  0.00  0.00     0.279 HD
ATOM      4  C4  ZIN A   1      19.867  -0.273  13.580  0.00  0.00     0.236 C 
ATOM      5  C5  ZIN A   1      20.498   0.749  12.628  0.00  0.00     0.042 C 
ATOM      6  C6  ZIN A   1      19.419   1.176  11.624  0.00  0.00    -0.005 C 
ATOM      7  C7  ZIN A   1      20.002   2.135  10.594  0.00  0.00     0.015 C 
ATOM      8  C8  ZIN A   1      18.904   2.572   9.620  0.00  0.00     0.001 C 
ATOM      9  C9  ZIN A   1      17.781   3.262  10.397  0.00  0.00     0.001 C 
ATOM     10  C10 ZIN A   1      17.193   2.289  11.421  0.00  0.00     0.008 C 
ATOM     11  C11 ZIN A   1      18.288   1.857  12.399  0.00  0.00     0.030 C 
ATOM     12  C13 ZIN A   1      17.723   0.836  13.386  0.00  0.00     0.197 C 
ATOM     13  C15 ZIN A   1      17.018  -0.279  12.633  0.00  0.00     0.072 C 
ATOM     14  C16 ZIN A   1      17.798  -0.742  11.433  0.00  0.00    -0.049 A 
ATOM     15  C17 ZIN A   1      17.377  -1.905  10.798  0.00  0.00     0.010 A 
ATOM     16  C18 ZIN A   1      18.037  -2.373   9.683  0.00  0.00     0.037 A 
ATOM     17  C19 ZIN A   1      19.133  -1.683   9.186  0.00  0.00     0.066 A 
ATOM     18  C21 ZIN A   1      19.557  -0.527   9.822  0.00  0.00     0.045 A 
ATOM     19  C22 ZIN A   1      18.892  -0.064  10.949  0.00  0.00    -0.040 A 
ENDROOT
BRANCH  17  20
ATOM     20  O20 ZIN A   1      19.785  -2.135   8.084  0.00  0.00    -0.361 OA
ATOM     21  H42 ZIN A   1      20.679  -1.779   7.982  0.00  0.00     0.217 HD
ENDBRANCH  17  20
TORSDOF 1
ENDMDL
