MODEL 1
REMARK VINA RESULT:      -8.4      0.000      0.000
REMARK  2 active torsions:
REMARK  status: ('A' for Active; 'I' for Inactive)
REMARK    1  A    between atoms: C17_16  and  O18_17 
REMARK    2  A    between atoms: C19_18  and  O20_19 
ROOT
ATOM      1  C1  ZIN A   1      17.374   1.008  11.665  0.00  0.00     0.310 C 
ATOM      2  N2  ZIN A   1      17.727  -0.409  11.504  0.00  0.00     0.093 N 
ATOM      3  C3  ZIN A   1      18.528  -0.882  12.635  0.00  0.00     0.277 C 
ATOM      4  C4  ZIN A   1      18.677  -2.393  12.597  0.00  0.00     0.069 C 
ATOM      5  C5  ZIN A   1      18.851  -2.915  11.199  0.00  0.00    -0.047 A 
ATOM      6  C6  ZIN A   1      19.151  -4.261  11.036  0.00  0.00     0.008 A 
ATOM      7  C7  ZIN A   1      19.345  -4.796   9.778  0.00  0.00     0.001 A 
ATOM      8  C8  ZIN A   1      19.238  -3.990   8.663  0.00  0.00     0.013 A 
ATOM      9  C9  ZIN A   1      18.918  -2.645   8.815  0.00  0.00    -0.014 A 
ATOM     10  C10 ZIN A   1      18.733  -2.105  10.091  0.00  0.00    -0.007 A 
ATOM     11  C11 ZIN A   1      18.428  -0.637  10.232  0.00  0.00     0.261 C 
ATOM     12  C13 ZIN A   1      17.535  -0.154   9.091  0.00  0.00     0.080 C 
ATOM     13  C14 ZIN A   1      18.116  -0.548   7.760  0.00  0.00    -0.042 A 
ATOM     14  C15 ZIN A   1      17.992   0.288   6.669  0.00  0.00     0.011 A 
ATOM     15  C16 ZIN A   1      18.511  -0.087   5.442  0.00  0.00     0.040 A 
ATOM     16  C17 ZIN A   1      19.158  -1.304   5.298  0.00  0.00     0.099 A 
ATOM     17  C19 ZIN A   1      19.295  -2.150   6.393  0.00  0.00     0.110 A 
ATOM     18  C21 ZIN A   1      18.792  -1.765   7.629  0.00  0.00     0.017 A 
ENDROOT
BRANCH  16  19
ATOM     19  O18 ZIN A   1      19.658  -1.670   4.087  0.00  0.00    -0.358 OA
ATOM     20  H36 ZIN A   1      19.772  -2.625   3.981  0.00  0.00     0.217 HD
ENDBRANCH  16  19
BRANCH  17  21
ATOM     21  O20 ZIN A   1      19.930  -3.346   6.258  0.00  0.00    -0.357 OA
ATOM     22  H37 ZIN A   1      20.483  -3.584   7.013  0.00  0.00     0.217 HD
ENDBRANCH  17  21
TORSDOF 2
ENDMDL
MODEL 2
REMARK VINA RESULT:      -8.4      1.476      3.595
REMARK  2 active torsions:
REMARK  status: ('A' for Active; 'I' for Inactive)
REMARK    1  A    between atoms: C17_16  and  O18_17 
REMARK    2  A    between atoms: C19_18  and  O20_19 
ROOT
ATOM      1  C1  ZIN A   1      17.585  -2.520  12.090  0.00  0.00     0.310 C 
ATOM      2  N2  ZIN A   1      17.905  -1.184  11.570  0.00  0.00     0.093 N 
ATOM      3  C3  ZIN A   1      16.999  -0.174  12.121  0.00  0.00     0.277 C 
ATOM      4  C4  ZIN A   1      17.483   1.227  11.787  0.00  0.00     0.069 C 
ATOM      5  C5  ZIN A   1      18.059   1.316  10.402  0.00  0.00    -0.047 A 
ATOM      6  C6  ZIN A   1      18.398   2.573   9.915  0.00  0.00     0.008 A 
ATOM      7  C7  ZIN A   1      18.911   2.723   8.642  0.00  0.00     0.001 A 
ATOM      8  C8  ZIN A   1      19.096   1.616   7.839  0.00  0.00     0.013 A 
ATOM      9  C9  ZIN A   1      18.779   0.353   8.326  0.00  0.00    -0.014 A 
ATOM     10  C10 ZIN A   1      18.250   0.205   9.611  0.00  0.00    -0.007 A 
ATOM     11  C11 ZIN A   1      17.876  -1.169  10.100  0.00  0.00     0.261 C 
ATOM     12  C13 ZIN A   1      18.860  -2.217   9.583  0.00  0.00     0.080 C 
ATOM     13  C14 ZIN A   1      19.019  -2.105   8.091  0.00  0.00    -0.042 A 
ATOM     14  C15 ZIN A   1      19.198  -3.236   7.322  0.00  0.00     0.011 A 
ATOM     15  C16 ZIN A   1      19.363  -3.128   5.952  0.00  0.00     0.040 A 
ATOM     16  C17 ZIN A   1      19.352  -1.883   5.342  0.00  0.00     0.099 A 
ATOM     17  C19 ZIN A   1      19.164  -0.737   6.107  0.00  0.00     0.110 A 
ATOM     18  C21 ZIN A   1      18.978  -0.848   7.480  0.00  0.00     0.017 A 
ENDROOT
BRANCH  16  19
ATOM     19  O18 ZIN A   1      19.524  -1.783   3.997  0.00  0.00    -0.358 OA
ATOM     20  H36 ZIN A   1      19.043  -2.450   3.487  0.00  0.00     0.217 HD
ENDBRANCH  16  19
BRANCH  17  21
ATOM     21  O20 ZIN A   1      19.151   0.487   5.515  0.00  0.00    -0.357 OA
ATOM     22  H37 ZIN A   1      18.511   1.101   5.897  0.00  0.00     0.217 HD
ENDBRANCH  17  21
TORSDOF 2
ENDMDL
MODEL 3
REMARK VINA RESULT:      -8.3      5.473      8.801
REMARK  2 active torsions:
REMARK  status: ('A' for Active; 'I' for Inactive)
REMARK    1  A    between atoms: C17_16  and  O18_17 
REMARK    2  A    between atoms: C19_18  and  O20_19 
ROOT
ATOM      1  C1  ZIN A   1      17.130  -0.524  11.261  0.00  0.00     0.310 C 
ATOM      2  N2  ZIN A   1      17.499   0.876  11.506  0.00  0.00     0.093 N 
ATOM      3  C3  ZIN A   1      18.259   1.423  10.380  0.00  0.00     0.277 C 
ATOM      4  C4  ZIN A   1      18.421   2.927  10.517  0.00  0.00     0.069 C 
ATOM      5  C5  ZIN A   1      18.654   3.349  11.940  0.00  0.00    -0.047 A 
ATOM      6  C6  ZIN A   1      18.970   4.680  12.184  0.00  0.00     0.008 A 
ATOM      7  C7  ZIN A   1      19.219   5.124  13.468  0.00  0.00     0.001 A 
ATOM      8  C8  ZIN A   1      19.150   4.242  14.527  0.00  0.00     0.013 A 
ATOM      9  C9  ZIN A   1      18.814   2.913  14.294  0.00  0.00    -0.014 A 
ATOM     10  C10 ZIN A   1      18.574   2.464  12.992  0.00  0.00    -0.007 A 
ATOM     11  C11 ZIN A   1      18.252   1.011  12.762  0.00  0.00     0.261 C 
ATOM     12  C13 ZIN A   1      17.402   0.455  13.902  0.00  0.00     0.080 C 
ATOM     13  C14 ZIN A   1      18.038   0.752  15.232  0.00  0.00    -0.042 A 
ATOM     14  C15 ZIN A   1      17.951  -0.158  16.266  0.00  0.00     0.011 A 
ATOM     15  C16 ZIN A   1      18.521   0.127  17.495  0.00  0.00     0.040 A 
ATOM     16  C17 ZIN A   1      19.183   1.328  17.697  0.00  0.00     0.099 A 
ATOM     17  C19 ZIN A   1      19.283   2.248  16.659  0.00  0.00     0.110 A 
ATOM     18  C21 ZIN A   1      18.729   1.953  15.420  0.00  0.00     0.017 A 
ENDROOT
BRANCH  16  19
ATOM     19  O18 ZIN A   1      19.733   1.606  18.909  0.00  0.00    -0.358 OA
ATOM     20  H36 ZIN A   1      19.629   0.899  19.561  0.00  0.00     0.217 HD
ENDBRANCH  16  19
BRANCH  17  21
ATOM     21  O20 ZIN A   1      19.932   3.428  16.852  0.00  0.00    -0.357 OA
ATOM     22  H37 ZIN A   1      20.561   3.649  16.153  0.00  0.00     0.217 HD
ENDBRANCH  17  21
TORSDOF 2
ENDMDL
MODEL 4
REMARK VINA RESULT:      -8.2      2.858      5.963
REMARK  2 active torsions:
REMARK  status: ('A' for Active; 'I' for Inactive)
REMARK    1  A    between atoms: C17_16  and  O18_17 
REMARK    2  A    between atoms: C19_18  and  O20_19 
ROOT
ATOM      1  C1  ZIN A   1      18.632  -3.527   5.165  0.00  0.00     0.310 C 
ATOM      2  N2  ZIN A   1      18.610  -2.145   5.662  0.00  0.00     0.093 N 
ATOM      3  C3  ZIN A   1      19.284  -1.241   4.729  0.00  0.00     0.277 C 
ATOM      4  C4  ZIN A   1      19.043   0.210   5.111  0.00  0.00     0.069 C 
ATOM      5  C5  ZIN A   1      19.054   0.417   6.599  0.00  0.00    -0.047 A 
ATOM      6  C6  ZIN A   1      18.997   1.720   7.079  0.00  0.00     0.008 A 
ATOM      7  C7  ZIN A   1      19.028   1.976   8.435  0.00  0.00     0.001 A 
ATOM      8  C8  ZIN A   1      19.109   0.931   9.332  0.00  0.00     0.013 A 
ATOM      9  C9  ZIN A   1      19.145  -0.377   8.862  0.00  0.00    -0.014 A 
ATOM     10  C10 ZIN A   1      19.126  -0.633   7.488  0.00  0.00    -0.007 A 
ATOM     11  C11 ZIN A   1      19.207  -2.056   7.003  0.00  0.00     0.261 C 
ATOM     12  C13 ZIN A   1      18.447  -2.994   7.938  0.00  0.00     0.080 C 
ATOM     13  C14 ZIN A   1      18.885  -2.793   9.363  0.00  0.00    -0.042 A 
ATOM     14  C15 ZIN A   1      18.959  -3.865  10.228  0.00  0.00     0.011 A 
ATOM     15  C16 ZIN A   1      19.344  -3.672  11.544  0.00  0.00     0.040 A 
ATOM     16  C17 ZIN A   1      19.657  -2.402  12.003  0.00  0.00     0.099 A 
ATOM     17  C19 ZIN A   1      19.593  -1.317  11.137  0.00  0.00     0.110 A 
ATOM     18  C21 ZIN A   1      19.227  -1.513   9.811  0.00  0.00     0.017 A 
ENDROOT
BRANCH  16  19
ATOM     19  O18 ZIN A   1      20.026  -2.219  13.299  0.00  0.00    -0.358 OA
ATOM     20  H36 ZIN A   1      19.800  -1.347  13.653  0.00  0.00     0.217 HD
ENDBRANCH  16  19
BRANCH  17  21
ATOM     21  O20 ZIN A   1      19.900  -0.068  11.581  0.00  0.00    -0.357 OA
ATOM     22  H37 ZIN A   1      19.381   0.216  12.344  0.00  0.00     0.217 HD
ENDBRANCH  17  21
TORSDOF 2
ENDMDL
MODEL 5
REMARK VINA RESULT:      -8.1      4.312      7.519
REMARK  2 active torsions:
REMARK  status: ('A' for Active; 'I' for Inactive)
REMARK    1  A    between atoms: C17_16  and  O18_17 
REMARK    2  A    between atoms: C19_18  and  O20_19 
ROOT
ATOM      1  C1  ZIN A   1      19.358  -1.299   9.099  0.00  0.00     0.310 C 
ATOM      2  N2  ZIN A   1      18.879   0.073   9.309  0.00  0.00     0.093 N 
ATOM      3  C3  ZIN A   1      19.602   1.018   8.456  0.00  0.00     0.277 C 
ATOM      4  C4  ZIN A   1      18.943   2.387   8.485  0.00  0.00     0.069 C 
ATOM      5  C5  ZIN A   1      18.433   2.746   9.852  0.00  0.00    -0.047 A 
ATOM      6  C6  ZIN A   1      17.946   4.032  10.050  0.00  0.00     0.008 A 
ATOM      7  C7  ZIN A   1      17.485   4.430  11.290  0.00  0.00     0.001 A 
ATOM      8  C8  ZIN A   1      17.500   3.544  12.347  0.00  0.00     0.013 A 
ATOM      9  C9  ZIN A   1      17.967   2.249  12.153  0.00  0.00    -0.014 A 
ATOM     10  C10 ZIN A   1      18.444   1.852  10.900  0.00  0.00    -0.007 A 
ATOM     11  C11 ZIN A   1      18.982   0.457  10.724  0.00  0.00     0.261 C 
ATOM     12  C13 ZIN A   1      18.186  -0.543  11.560  0.00  0.00     0.080 C 
ATOM     13  C14 ZIN A   1      18.091  -0.084  12.989  0.00  0.00    -0.042 A 
ATOM     14  C15 ZIN A   1      18.115  -1.000  14.020  0.00  0.00     0.011 A 
ATOM     15  C16 ZIN A   1      18.008  -0.575  15.333  0.00  0.00     0.040 A 
ATOM     16  C17 ZIN A   1      17.875   0.774  15.623  0.00  0.00     0.099 A 
ATOM     17  C19 ZIN A   1      17.858   1.707  14.592  0.00  0.00     0.110 A 
ATOM     18  C21 ZIN A   1      17.986   1.281  13.276  0.00  0.00     0.017 A 
ENDROOT
BRANCH  16  19
ATOM     19  O18 ZIN A   1      17.762   1.184  16.915  0.00  0.00    -0.358 OA
ATOM     20  H36 ZIN A   1      18.132   0.565  17.559  0.00  0.00     0.217 HD
ENDBRANCH  16  19
BRANCH  17  21
ATOM     21  O20 ZIN A   1      17.728   3.032  14.870  0.00  0.00    -0.357 OA
ATOM     22  H37 ZIN A   1      17.112   3.224  15.589  0.00  0.00     0.217 HD
ENDBRANCH  17  21
TORSDOF 2
ENDMDL
MODEL 6
REMARK VINA RESULT:      -7.9      3.428      6.341
REMARK  2 active torsions:
REMARK  status: ('A' for Active; 'I' for Inactive)
REMARK    1  A    between atoms: C17_16  and  O18_17 
REMARK    2  A    between atoms: C19_18  and  O20_19 
ROOT
ATOM      1  C1  ZIN A   1      18.558  -3.990   9.047  0.00  0.00     0.310 C 
ATOM      2  N2  ZIN A   1      18.569  -2.564   8.692  0.00  0.00     0.093 N 
ATOM      3  C3  ZIN A   1      19.301  -2.339   7.445  0.00  0.00     0.277 C 
ATOM      4  C4  ZIN A   1      19.100  -0.917   6.948  0.00  0.00     0.069 C 
ATOM      5  C5  ZIN A   1      19.073   0.081   8.071  0.00  0.00    -0.047 A 
ATOM      6  C6  ZIN A   1      19.047   1.431   7.745  0.00  0.00     0.008 A 
ATOM      7  C7  ZIN A   1      19.045   2.398   8.731  0.00  0.00     0.001 A 
ATOM      8  C8  ZIN A   1      19.063   2.025  10.060  0.00  0.00     0.013 A 
ATOM      9  C9  ZIN A   1      19.068   0.676  10.396  0.00  0.00    -0.014 A 
ATOM     10  C10 ZIN A   1      19.082  -0.299   9.395  0.00  0.00    -0.007 A 
ATOM     11  C11 ZIN A   1      19.128  -1.753   9.784  0.00  0.00     0.261 C 
ATOM     12  C13 ZIN A   1      18.308  -2.005  11.047  0.00  0.00     0.080 C 
ATOM     13  C14 ZIN A   1      18.709  -1.052  12.140  0.00  0.00    -0.042 A 
ATOM     14  C15 ZIN A   1      18.719  -1.463  13.456  0.00  0.00     0.011 A 
ATOM     15  C16 ZIN A   1      19.071  -0.577  14.460  0.00  0.00     0.040 A 
ATOM     16  C17 ZIN A   1      19.414   0.730  14.152  0.00  0.00     0.099 A 
ATOM     17  C19 ZIN A   1      19.414   1.152  12.827  0.00  0.00     0.110 A 
ATOM     18  C21 ZIN A   1      19.082   0.257  11.818  0.00  0.00     0.017 A 
ENDROOT
BRANCH  16  19
ATOM     19  O18 ZIN A   1      19.749   1.598  15.144  0.00  0.00    -0.358 OA
ATOM     20  H36 ZIN A   1      19.078   2.271  15.322  0.00  0.00     0.217 HD
ENDBRANCH  16  19
BRANCH  17  21
ATOM     21  O20 ZIN A   1      19.751   2.433  12.518  0.00  0.00    -0.357 OA
ATOM     22  H37 ZIN A   1      19.006   2.976  12.228  0.00  0.00     0.217 HD
ENDBRANCH  17  21
TORSDOF 2
ENDMDL
MODEL 7
REMARK VINA RESULT:      -7.8      2.081      4.640
REMARK  2 active torsions:
REMARK  status: ('A' for Active; 'I' for Inactive)
REMARK    1  A    between atoms: C17_16  and  O18_17 
REMARK    2  A    between atoms: C19_18  and  O20_19 
ROOT
ATOM      1  C1  ZIN A   1      17.966   1.735  13.961  0.00  0.00     0.310 C 
ATOM      2  N2  ZIN A   1      18.321   1.921  12.548  0.00  0.00     0.093 N 
ATOM      3  C3  ZIN A   1      17.838   3.210  12.051  0.00  0.00     0.277 C 
ATOM      4  C4  ZIN A   1      18.417   3.513  10.679  0.00  0.00     0.069 C 
ATOM      5  C5  ZIN A   1      18.508   2.287   9.815  0.00  0.00    -0.047 A 
ATOM      6  C6  ZIN A   1      18.877   2.450   8.486  0.00  0.00     0.008 A 
ATOM      7  C7  ZIN A   1      18.955   1.365   7.635  0.00  0.00     0.001 A 
ATOM      8  C8  ZIN A   1      18.670   0.099   8.106  0.00  0.00     0.013 A 
ATOM      9  C9  ZIN A   1      18.320  -0.076   9.440  0.00  0.00    -0.014 A 
ATOM     10  C10 ZIN A   1      18.230   1.026  10.295  0.00  0.00    -0.007 A 
ATOM     11  C11 ZIN A   1      17.809   0.815  11.725  0.00  0.00     0.261 C 
ATOM     12  C13 ZIN A   1      18.368  -0.497  12.270  0.00  0.00     0.080 C 
ATOM     13  C14 ZIN A   1      18.040  -1.638  11.346  0.00  0.00    -0.042 A 
ATOM     14  C15 ZIN A   1      17.756  -2.889  11.855  0.00  0.00     0.011 A 
ATOM     15  C16 ZIN A   1      17.473  -3.941  11.001  0.00  0.00     0.040 A 
ATOM     16  C17 ZIN A   1      17.474  -3.747   9.628  0.00  0.00     0.099 A 
ATOM     17  C19 ZIN A   1      17.752  -2.489   9.105  0.00  0.00     0.110 A 
ATOM     18  C21 ZIN A   1      18.016  -1.428   9.964  0.00  0.00     0.017 A 
ENDROOT
BRANCH  16  19
ATOM     19  O18 ZIN A   1      17.204  -4.787   8.794  0.00  0.00    -0.358 OA
ATOM     20  H36 ZIN A   1      16.406  -4.667   8.261  0.00  0.00     0.217 HD
ENDBRANCH  16  19
BRANCH  17  21
ATOM     21  O20 ZIN A   1      17.754  -2.292   7.759  0.00  0.00    -0.357 OA
ATOM     22  H37 ZIN A   1      17.279  -1.500   7.477  0.00  0.00     0.217 HD
ENDBRANCH  17  21
TORSDOF 2
ENDMDL
MODEL 8
REMARK VINA RESULT:      -7.8      4.942      6.582
REMARK  2 active torsions:
REMARK  status: ('A' for Active; 'I' for Inactive)
REMARK    1  A    between atoms: C17_16  and  O18_17 
REMARK    2  A    between atoms: C19_18  and  O20_19 
ROOT
ATOM      1  C1  ZIN A   1      18.505   4.437  17.433  0.00  0.00     0.310 C 
ATOM      2  N2  ZIN A   1      18.469   2.981  17.238  0.00  0.00     0.093 N 
ATOM      3  C3  ZIN A   1      19.114   2.286  18.353  0.00  0.00     0.277 C 
ATOM      4  C4  ZIN A   1      18.856   0.791  18.280  0.00  0.00     0.069 C 
ATOM      5  C5  ZIN A   1      18.887   0.274  16.870  0.00  0.00    -0.047 A 
ATOM      6  C6  ZIN A   1      18.817  -1.100  16.674  0.00  0.00     0.008 A 
ATOM      7  C7  ZIN A   1      18.864  -1.637  15.403  0.00  0.00     0.001 A 
ATOM      8  C8  ZIN A   1      18.975  -0.805  14.308  0.00  0.00     0.013 A 
ATOM      9  C9  ZIN A   1      19.025   0.572  14.492  0.00  0.00    -0.014 A 
ATOM     10  C10 ZIN A   1      18.989   1.112  15.781  0.00  0.00    -0.007 A 
ATOM     11  C11 ZIN A   1      19.085   2.605  15.957  0.00  0.00     0.261 C 
ATOM     12  C13 ZIN A   1      18.354   3.334  14.832  0.00  0.00     0.080 C 
ATOM     13  C14 ZIN A   1      18.810   2.831  13.489  0.00  0.00    -0.042 A 
ATOM     14  C15 ZIN A   1      18.914   3.695  12.419  0.00  0.00     0.011 A 
ATOM     15  C16 ZIN A   1      19.316   3.225  11.180  0.00  0.00     0.040 A 
ATOM     16  C17 ZIN A   1      19.616   1.883  11.005  0.00  0.00     0.099 A 
ATOM     17  C19 ZIN A   1      19.522   1.005  12.080  0.00  0.00     0.110 A 
ATOM     18  C21 ZIN A   1      19.139   1.481  13.327  0.00  0.00     0.017 A 
ENDROOT
BRANCH  16  19
ATOM     19  O18 ZIN A   1      20.001   1.426   9.784  0.00  0.00    -0.358 OA
ATOM     20  H36 ZIN A   1      20.723   0.783   9.814  0.00  0.00     0.217 HD
ENDBRANCH  16  19
BRANCH  17  21
ATOM     21  O20 ZIN A   1      19.816  -0.312  11.914  0.00  0.00    -0.357 OA
ATOM     22  H37 ZIN A   1      20.706  -0.555  12.200  0.00  0.00     0.217 HD
ENDBRANCH  17  21
TORSDOF 2
ENDMDL
MODEL 9
REMARK VINA RESULT:      -7.7      4.310      6.478
REMARK  2 active torsions:
REMARK  status: ('A' for Active; 'I' for Inactive)
REMARK    1  A    between atoms: C17_16  and  O18_17 
REMARK    2  A    between atoms: C19_18  and  O20_19 
ROOT
ATOM      1  C1  ZIN A   1      17.924  -0.847   8.830  0.00  0.00     0.310 C 
ATOM      2  N2  ZIN A   1      18.222  -0.856  10.269  0.00  0.00     0.093 N 
ATOM      3  C3  ZIN A   1      17.739  -2.087  10.896  0.00  0.00     0.277 C 
ATOM      4  C4  ZIN A   1      18.264  -2.212  12.316  0.00  0.00     0.069 C 
ATOM      5  C5  ZIN A   1      18.296  -0.891  13.031  0.00  0.00    -0.047 A 
ATOM      6  C6  ZIN A   1      18.611  -0.886  14.384  0.00  0.00     0.008 A 
ATOM      7  C7  ZIN A   1      18.634   0.293  15.101  0.00  0.00     0.001 A 
ATOM      8  C8  ZIN A   1      18.348   1.487  14.472  0.00  0.00     0.013 A 
ATOM      9  C9  ZIN A   1      18.052   1.495  13.113  0.00  0.00    -0.014 A 
ATOM     10  C10 ZIN A   1      18.018   0.298  12.393  0.00  0.00    -0.007 A 
ATOM     11  C11 ZIN A   1      17.655   0.328  10.932  0.00  0.00     0.261 C 
ATOM     12  C13 ZIN A   1      18.215   1.579  10.257  0.00  0.00     0.080 C 
ATOM     13  C14 ZIN A   1      17.828   2.814  11.024  0.00  0.00    -0.042 A 
ATOM     14  C15 ZIN A   1      17.544   3.988  10.358  0.00  0.00     0.011 A 
ATOM     15  C16 ZIN A   1      17.207   5.128  11.068  0.00  0.00     0.040 A 
ATOM     16  C17 ZIN A   1      17.152   5.098  12.453  0.00  0.00     0.099 A 
ATOM     17  C19 ZIN A   1      17.429   3.918  13.133  0.00  0.00     0.110 A 
ATOM     18  C21 ZIN A   1      17.747   2.769  12.419  0.00  0.00     0.017 A 
ENDROOT
BRANCH  16  19
ATOM     19  O18 ZIN A   1      16.829   6.224  13.145  0.00  0.00    -0.358 OA
ATOM     20  H36 ZIN A   1      16.348   6.056  13.968  0.00  0.00     0.217 HD
ENDBRANCH  16  19
BRANCH  17  21
ATOM     21  O20 ZIN A   1      17.377   3.883  14.492  0.00  0.00    -0.357 OA
ATOM     22  H37 ZIN A   1      18.188   3.563  14.908  0.00  0.00     0.217 HD
ENDBRANCH  17  21
TORSDOF 2
ENDMDL
