MODEL 1
REMARK VINA RESULT:      -5.6      0.000      0.000
REMARK  3 active torsions:
REMARK  status: ('A' for Active; 'I' for Inactive)
REMARK    1  A    between atoms: C2_2  and  C3_3 
REMARK    2  A    between atoms: C3_3  and  C6_5 
REMARK    3  A    between atoms: C6_5  and  C7_6 
ROOT
ATOM      1  C6  ZIN A   1      18.202   0.003  12.731  0.00  0.00     0.125 A 
ATOM      2  C9  ZIN A   1      17.233   0.443  11.651  0.00  0.00     0.244 A 
ATOM      3  O10 ZIN A   1      16.081   0.060  11.646  0.00  0.00    -0.272 OA
ATOM      4  N11 ZIN A   1      17.697   1.276  10.696  0.00  0.00    -0.278 N 
ATOM      5  C12 ZIN A   1      18.964   1.706  10.688  0.00  0.00     0.329 A 
ATOM      6  O13 ZIN A   1      19.298   2.455   9.791  0.00  0.00    -0.247 OA
ATOM      7  N14 ZIN A   1      19.890   1.374  11.596  0.00  0.00    -0.278 N 
ATOM      8  C15 ZIN A   1      19.614   0.549  12.628  0.00  0.00     0.244 A 
ATOM      9  O16 ZIN A   1      20.463   0.256  13.442  0.00  0.00    -0.272 OA
ATOM     10  H30 ZIN A   1      17.096   1.571   9.995  0.00  0.00     0.173 HD
ATOM     11  H31 ZIN A   1      20.785   1.735  11.508  0.00  0.00     0.173 HD
ENDROOT
BRANCH   1  12
ATOM     12  C3  ZIN A   1      17.628   0.420  14.087  0.00  0.00     0.008 C 
ATOM     13  C5  ZIN A   1      18.065   1.852  14.406  0.00  0.00     0.011 C 
BRANCH  12  14
ATOM     14  C2  ZIN A   1      18.144  -0.525  15.172  0.00  0.00     0.001 C 
ATOM     15  C1  ZIN A   1      17.275  -0.387  16.425  0.00  0.00     0.005 C 
ENDBRANCH  12  14
ENDBRANCH   1  12
BRANCH   1  16
ATOM     16  C7  ZIN A   1      18.281  -1.525  12.702  0.00  0.00     0.025 C 
ATOM     17  C8  ZIN A   1      18.887  -1.980  11.373  0.00  0.00     0.007 C 
ENDBRANCH   1  16
TORSDOF 3
ENDMDL
MODEL 2
REMARK VINA RESULT:      -5.6      2.531      4.805
REMARK  3 active torsions:
REMARK  status: ('A' for Active; 'I' for Inactive)
REMARK    1  A    between atoms: C2_2  and  C3_3 
REMARK    2  A    between atoms: C3_3  and  C6_5 
REMARK    3  A    between atoms: C6_5  and  C7_6 
ROOT
ATOM      1  C6  ZIN A   1      18.302   0.143  10.475  0.00  0.00     0.125 A 
ATOM      2  C9  ZIN A   1      17.140  -0.464  11.237  0.00  0.00     0.244 A 
ATOM      3  O10 ZIN A   1      16.121   0.163  11.433  0.00  0.00    -0.272 OA
ATOM      4  N11 ZIN A   1      17.282  -1.728  11.689  0.00  0.00    -0.278 N 
ATOM      5  C12 ZIN A   1      18.400  -2.433  11.481  0.00  0.00     0.329 A 
ATOM      6  O13 ZIN A   1      18.442  -3.564  11.921  0.00  0.00    -0.247 OA
ATOM      7  N14 ZIN A   1      19.474  -1.984  10.821  0.00  0.00    -0.278 N 
ATOM      8  C15 ZIN A   1      19.521  -0.742  10.295  0.00  0.00     0.244 A 
ATOM      9  O16 ZIN A   1      20.502  -0.348   9.700  0.00  0.00    -0.272 OA
ATOM     10  H30 ZIN A   1      16.552  -2.138  12.179  0.00  0.00     0.173 HD
ATOM     11  H31 ZIN A   1      20.241  -2.568  10.720  0.00  0.00     0.173 HD
ENDROOT
BRANCH   1  12
ATOM     12  C3  ZIN A   1      17.801   0.551   9.088  0.00  0.00     0.008 C 
ATOM     13  C5  ZIN A   1      17.651  -0.695   8.213  0.00  0.00     0.011 C 
BRANCH  12  14
ATOM     14  C2  ZIN A   1      18.805   1.509   8.444  0.00  0.00     0.001 C 
ATOM     15  C1  ZIN A   1      18.897   1.220   6.944  0.00  0.00     0.005 C 
ENDBRANCH  12  14
ENDBRANCH   1  12
BRANCH   1  16
ATOM     16  C7  ZIN A   1      18.740   1.410  11.211  0.00  0.00     0.025 C 
ATOM     17  C8  ZIN A   1      19.290   1.037  12.589  0.00  0.00     0.007 C 
ENDBRANCH   1  16
TORSDOF 3
ENDMDL
MODEL 3
REMARK VINA RESULT:      -5.6      2.093      4.255
REMARK  3 active torsions:
REMARK  status: ('A' for Active; 'I' for Inactive)
REMARK    1  A    between atoms: C2_2  and  C3_3 
REMARK    2  A    between atoms: C3_3  and  C6_5 
REMARK    3  A    between atoms: C6_5  and  C7_6 
ROOT
ATOM      1  C6  ZIN A   1      18.326   2.257  11.086  0.00  0.00     0.125 A 
ATOM      2  C9  ZIN A   1      19.649   2.585  11.751  0.00  0.00     0.244 A 
ATOM      3  O10 ZIN A   1      20.292   3.560  11.426  0.00  0.00    -0.272 OA
ATOM      4  N11 ZIN A   1      20.085   1.751  12.720  0.00  0.00    -0.278 N 
ATOM      5  C12 ZIN A   1      19.387   0.671  13.090  0.00  0.00     0.329 A 
ATOM      6  O13 ZIN A   1      19.852  -0.024  13.971  0.00  0.00    -0.247 OA
ATOM      7  N14 ZIN A   1      18.214   0.302  12.563  0.00  0.00    -0.278 N 
ATOM      8  C15 ZIN A   1      17.618   1.011  11.582  0.00  0.00     0.244 A 
ATOM      9  O16 ZIN A   1      16.555   0.664  11.112  0.00  0.00    -0.272 OA
ATOM     10  H30 ZIN A   1      20.928   1.940  13.160  0.00  0.00     0.173 HD
ATOM     11  H31 ZIN A   1      17.780  -0.498  12.896  0.00  0.00     0.173 HD
ENDROOT
BRANCH   1  12
ATOM     12  C3  ZIN A   1      17.386   3.449  11.281  0.00  0.00     0.008 C 
ATOM     13  C5  ZIN A   1      17.691   4.515  10.226  0.00  0.00     0.011 C 
BRANCH  12  14
ATOM     14  C2  ZIN A   1      17.592   4.037  12.677  0.00  0.00     0.001 C 
ATOM     15  C1  ZIN A   1      16.857   5.376  12.780  0.00  0.00     0.005 C 
ENDBRANCH  12  14
ENDBRANCH   1  12
BRANCH   1  16
ATOM     16  C7  ZIN A   1      18.580   2.095   9.586  0.00  0.00     0.025 C 
ATOM     17  C8  ZIN A   1      19.453   0.863   9.345  0.00  0.00     0.007 C 
ENDBRANCH   1  16
TORSDOF 3
ENDMDL
MODEL 4
REMARK VINA RESULT:      -5.6      1.884      3.971
REMARK  3 active torsions:
REMARK  status: ('A' for Active; 'I' for Inactive)
REMARK    1  A    between atoms: C2_2  and  C3_3 
REMARK    2  A    between atoms: C3_3  and  C6_5 
REMARK    3  A    between atoms: C6_5  and  C7_6 
ROOT
ATOM      1  C6  ZIN A   1      18.348   0.626  11.942  0.00  0.00     0.125 A 
ATOM      2  C9  ZIN A   1      17.185  -0.309  11.668  0.00  0.00     0.244 A 
ATOM      3  O10 ZIN A   1      16.079   0.121  11.413  0.00  0.00    -0.272 OA
ATOM      4  N11 ZIN A   1      17.425  -1.636  11.719  0.00  0.00    -0.278 N 
ATOM      5  C12 ZIN A   1      18.638  -2.125  11.999  0.00  0.00     0.329 A 
ATOM      6  O13 ZIN A   1      18.766  -3.333  12.023  0.00  0.00    -0.247 OA
ATOM      7  N14 ZIN A   1      19.722  -1.382  12.253  0.00  0.00    -0.278 N 
ATOM      8  C15 ZIN A   1      19.679  -0.033  12.248  0.00  0.00     0.244 A 
ATOM      9  O16 ZIN A   1      20.669   0.628  12.481  0.00  0.00    -0.272 OA
ATOM     10  H30 ZIN A   1      16.697  -2.253  11.547  0.00  0.00     0.173 HD
ATOM     11  H31 ZIN A   1      20.561  -1.826  12.446  0.00  0.00     0.173 HD
ENDROOT
BRANCH   1  12
ATOM     12  C3  ZIN A   1      18.533   1.527  10.719  0.00  0.00     0.008 C 
ATOM     13  C5  ZIN A   1      17.626   2.753  10.848  0.00  0.00     0.011 C 
BRANCH  12  14
ATOM     14  C2  ZIN A   1      18.166   0.752   9.453  0.00  0.00     0.001 C 
ATOM     15  C1  ZIN A   1      18.938   1.325   8.262  0.00  0.00     0.005 C 
ENDBRANCH  12  14
ENDBRANCH   1  12
BRANCH   1  16
ATOM     16  C7  ZIN A   1      17.971   1.513  13.130  0.00  0.00     0.025 C 
ATOM     17  C8  ZIN A   1      17.698   0.638  14.354  0.00  0.00     0.007 C 
ENDBRANCH   1  16
TORSDOF 3
ENDMDL
MODEL 5
REMARK VINA RESULT:      -5.6      1.863      2.683
REMARK  3 active torsions:
REMARK  status: ('A' for Active; 'I' for Inactive)
REMARK    1  A    between atoms: C2_2  and  C3_3 
REMARK    2  A    between atoms: C3_3  and  C6_5 
REMARK    3  A    between atoms: C6_5  and  C7_6 
ROOT
ATOM      1  C6  ZIN A   1      18.280  -0.442  10.728  0.00  0.00     0.125 A 
ATOM      2  C9  ZIN A   1      17.209   0.502  11.242  0.00  0.00     0.244 A 
ATOM      3  O10 ZIN A   1      16.090   0.106  11.492  0.00  0.00    -0.272 OA
ATOM      4  N11 ZIN A   1      17.548   1.797  11.413  0.00  0.00    -0.278 N 
ATOM      5  C12 ZIN A   1      18.778   2.249  11.141  0.00  0.00     0.329 A 
ATOM      6  O13 ZIN A   1      18.996   3.429  11.325  0.00  0.00    -0.247 OA
ATOM      7  N14 ZIN A   1      19.785   1.495  10.686  0.00  0.00    -0.278 N 
ATOM      8  C15 ZIN A   1      19.639   0.173  10.453  0.00  0.00     0.244 A 
ATOM      9  O16 ZIN A   1      20.560  -0.497  10.038  0.00  0.00    -0.272 OA
ATOM     10  H30 ZIN A   1      16.880   2.419  11.741  0.00  0.00     0.173 HD
ATOM     11  H31 ZIN A   1      20.644   1.911  10.517  0.00  0.00     0.173 HD
ENDROOT
BRANCH   1  12
ATOM     12  C3  ZIN A   1      18.463  -1.561  11.755  0.00  0.00     0.008 C 
ATOM     13  C5  ZIN A   1      17.494  -2.704  11.441  0.00  0.00     0.011 C 
BRANCH  12  14
ATOM     14  C2  ZIN A   1      18.177  -1.020  13.156  0.00  0.00     0.001 C 
ATOM     15  C1  ZIN A   1      19.352  -1.350  14.080  0.00  0.00     0.005 C 
ENDBRANCH  12  14
ENDBRANCH   1  12
BRANCH   1  16
ATOM     16  C7  ZIN A   1      17.771  -1.070   9.429  0.00  0.00     0.025 C 
ATOM     17  C8  ZIN A   1      17.501   0.030   8.401  0.00  0.00     0.007 C 
ENDBRANCH   1  16
TORSDOF 3
ENDMDL
MODEL 6
REMARK VINA RESULT:      -5.6      2.348      4.517
REMARK  3 active torsions:
REMARK  status: ('A' for Active; 'I' for Inactive)
REMARK    1  A    between atoms: C2_2  and  C3_3 
REMARK    2  A    between atoms: C3_3  and  C6_5 
REMARK    3  A    between atoms: C6_5  and  C7_6 
ROOT
ATOM      1  C6  ZIN A   1      18.629   2.568  11.051  0.00  0.00     0.125 A 
ATOM      2  C9  ZIN A   1      17.603   1.552  11.515  0.00  0.00     0.244 A 
ATOM      3  O10 ZIN A   1      16.850   1.015  10.730  0.00  0.00    -0.272 OA
ATOM      4  N11 ZIN A   1      17.561   1.264  12.833  0.00  0.00    -0.278 N 
ATOM      5  C12 ZIN A   1      18.385   1.848  13.711  0.00  0.00     0.329 A 
ATOM      6  O13 ZIN A   1      18.279   1.530  14.879  0.00  0.00    -0.247 OA
ATOM      7  N14 ZIN A   1      19.319   2.753  13.397  0.00  0.00    -0.278 N 
ATOM      8  C15 ZIN A   1      19.513   3.168  12.128  0.00  0.00     0.244 A 
ATOM      9  O16 ZIN A   1      20.362   3.990  11.858  0.00  0.00    -0.272 OA
ATOM     10  H30 ZIN A   1      16.914   0.617  13.153  0.00  0.00     0.173 HD
ATOM     11  H31 ZIN A   1      19.871   3.122  14.103  0.00  0.00     0.173 HD
ENDROOT
BRANCH   1  12
ATOM     12  C3  ZIN A   1      19.531   1.897  10.013  0.00  0.00     0.008 C 
ATOM     13  C5  ZIN A   1      18.940   2.101   8.616  0.00  0.00     0.011 C 
BRANCH  12  14
ATOM     14  C2  ZIN A   1      19.628   0.400  10.314  0.00  0.00     0.001 C 
ATOM     15  C1  ZIN A   1      19.627  -0.385   9.000  0.00  0.00     0.005 C 
ENDBRANCH  12  14
ENDBRANCH   1  12
BRANCH   1  16
ATOM     16  C7  ZIN A   1      17.881   3.710  10.359  0.00  0.00     0.025 C 
ATOM     17  C8  ZIN A   1      17.003   4.437  11.378  0.00  0.00     0.007 C 
ENDBRANCH   1  16
TORSDOF 3
ENDMDL
MODEL 7
REMARK VINA RESULT:      -5.5      2.057      4.283
REMARK  3 active torsions:
REMARK  status: ('A' for Active; 'I' for Inactive)
REMARK    1  A    between atoms: C2_2  and  C3_3 
REMARK    2  A    between atoms: C3_3  and  C6_5 
REMARK    3  A    between atoms: C6_5  and  C7_6 
ROOT
ATOM      1  C6  ZIN A   1      18.228  -0.217  10.523  0.00  0.00     0.125 A 
ATOM      2  C9  ZIN A   1      19.736  -0.260  10.679  0.00  0.00     0.244 A 
ATOM      3  O10 ZIN A   1      20.460  -0.484   9.731  0.00  0.00    -0.272 OA
ATOM      4  N11 ZIN A   1      20.243  -0.040  11.910  0.00  0.00    -0.278 N 
ATOM      5  C12 ZIN A   1      19.458   0.208  12.965  0.00  0.00     0.329 A 
ATOM      6  O13 ZIN A   1      19.998   0.396  14.036  0.00  0.00    -0.247 OA
ATOM      7  N14 ZIN A   1      18.122   0.267  12.925  0.00  0.00    -0.278 N 
ATOM      8  C15 ZIN A   1      17.432   0.073  11.781  0.00  0.00     0.244 A 
ATOM      9  O16 ZIN A   1      16.221   0.128  11.760  0.00  0.00    -0.272 OA
ATOM     10  H30 ZIN A   1      21.205  -0.062  12.034  0.00  0.00     0.173 HD
ATOM     11  H31 ZIN A   1      17.635   0.453  13.742  0.00  0.00     0.173 HD
ENDROOT
BRANCH   1  12
ATOM     12  C3  ZIN A   1      17.886   0.855   9.486  0.00  0.00     0.008 C 
ATOM     13  C5  ZIN A   1      17.854   0.224   8.092  0.00  0.00     0.011 C 
BRANCH  12  14
ATOM     14  C2  ZIN A   1      18.947   1.957   9.523  0.00  0.00     0.001 C 
ATOM     15  C1  ZIN A   1      18.324   3.247  10.060  0.00  0.00     0.005 C 
ENDBRANCH  12  14
ENDBRANCH   1  12
BRANCH   1  16
ATOM     16  C7  ZIN A   1      17.771  -1.569   9.972  0.00  0.00     0.025 C 
ATOM     17  C8  ZIN A   1      17.981  -2.650  11.034  0.00  0.00     0.007 C 
ENDBRANCH   1  16
TORSDOF 3
ENDMDL
MODEL 8
REMARK VINA RESULT:      -5.5      1.918      4.535
REMARK  3 active torsions:
REMARK  status: ('A' for Active; 'I' for Inactive)
REMARK    1  A    between atoms: C2_2  and  C3_3 
REMARK    2  A    between atoms: C3_3  and  C6_5 
REMARK    3  A    between atoms: C6_5  and  C7_6 
ROOT
ATOM      1  C6  ZIN A   1      18.261   1.705  11.204  0.00  0.00     0.125 A 
ATOM      2  C9  ZIN A   1      17.376   0.775  12.012  0.00  0.00     0.244 A 
ATOM      3  O10 ZIN A   1      16.313   0.384  11.579  0.00  0.00    -0.272 OA
ATOM      4  N11 ZIN A   1      17.817   0.396  13.231  0.00  0.00    -0.278 N 
ATOM      5  C12 ZIN A   1      18.988   0.818  13.723  0.00  0.00     0.329 A 
ATOM      6  O13 ZIN A   1      19.307   0.428  14.827  0.00  0.00    -0.247 OA
ATOM      7  N14 ZIN A   1      19.833   1.636  13.085  0.00  0.00    -0.278 N 
ATOM      8  C15 ZIN A   1      19.566   2.121  11.854  0.00  0.00     0.244 A 
ATOM      9  O16 ZIN A   1      20.341   2.863  11.289  0.00  0.00    -0.272 OA
ATOM     10  H30 ZIN A   1      17.269  -0.198  13.766  0.00  0.00     0.173 HD
ATOM     11  H31 ZIN A   1      20.661   1.889  13.522  0.00  0.00     0.173 HD
ENDROOT
BRANCH   1  12
ATOM     12  C3  ZIN A   1      18.588   1.017   9.876  0.00  0.00     0.008 C 
ATOM     13  C5  ZIN A   1      19.792   0.092  10.065  0.00  0.00     0.011 C 
BRANCH  12  14
ATOM     14  C2  ZIN A   1      18.918   2.075   8.822  0.00  0.00     0.001 C 
ATOM     15  C1  ZIN A   1      19.252   1.388   7.497  0.00  0.00     0.005 C 
ENDBRANCH  12  14
ENDBRANCH   1  12
BRANCH   1  16
ATOM     16  C7  ZIN A   1      17.458   2.970  10.896  0.00  0.00     0.025 C 
ATOM     17  C8  ZIN A   1      17.377   3.842  12.150  0.00  0.00     0.007 C 
ENDBRANCH   1  16
TORSDOF 3
ENDMDL
MODEL 9
REMARK VINA RESULT:      -5.5      2.498      4.114
REMARK  3 active torsions:
REMARK  status: ('A' for Active; 'I' for Inactive)
REMARK    1  A    between atoms: C2_2  and  C3_3 
REMARK    2  A    between atoms: C3_3  and  C6_5 
REMARK    3  A    between atoms: C6_5  and  C7_6 
ROOT
ATOM      1  C6  ZIN A   1      18.364   0.109  10.405  0.00  0.00     0.125 A 
ATOM      2  C9  ZIN A   1      19.551  -0.738   9.989  0.00  0.00     0.244 A 
ATOM      3  O10 ZIN A   1      20.489  -0.255   9.390  0.00  0.00    -0.272 OA
ATOM      4  N11 ZIN A   1      19.526  -2.049  10.310  0.00  0.00    -0.278 N 
ATOM      5  C12 ZIN A   1      18.499  -2.597  10.969  0.00  0.00     0.329 A 
ATOM      6  O13 ZIN A   1      18.560  -3.784  11.218  0.00  0.00    -0.247 OA
ATOM      7  N14 ZIN A   1      17.412  -1.932  11.377  0.00  0.00    -0.278 N 
ATOM      8  C15 ZIN A   1      17.255  -0.611  11.148  0.00  0.00     0.244 A 
ATOM      9  O16 ZIN A   1      16.263  -0.022  11.522  0.00  0.00    -0.272 OA
ATOM     10  H30 ZIN A   1      20.274  -2.610  10.054  0.00  0.00     0.173 HD
ATOM     11  H31 ZIN A   1      16.716  -2.414  11.850  0.00  0.00     0.173 HD
ENDROOT
BRANCH   1  12
ATOM     12  C3  ZIN A   1      18.876   1.243  11.296  0.00  0.00     0.008 C 
ATOM     13  C5  ZIN A   1      19.214   2.458  10.429  0.00  0.00     0.011 C 
BRANCH  12  14
ATOM     14  C2  ZIN A   1      20.130   0.781  12.040  0.00  0.00     0.001 C 
ATOM     15  C1  ZIN A   1      19.784   0.518  13.507  0.00  0.00     0.005 C 
ENDBRANCH  12  14
ENDBRANCH   1  12
BRANCH   1  16
ATOM     16  C7  ZIN A   1      17.764   0.733   9.143  0.00  0.00     0.025 C 
ATOM     17  C8  ZIN A   1      17.307  -0.375   8.193  0.00  0.00     0.007 C 
ENDBRANCH   1  16
TORSDOF 3
ENDMDL
