MODEL 1
REMARK VINA RESULT:      -5.3      0.000      0.000
REMARK  0 active torsions:
REMARK  status: ('A' for Active; 'I' for Inactive)
ROOT
ATOM      1  C1  ZIN A   1      17.367   4.901  10.600  0.00  0.00     0.051 C 
ATOM      2  C2  ZIN A   1      17.492   3.542  11.291  0.00  0.00     0.179 C 
ATOM      3  O4  ZIN A   1      17.407   2.472  10.332  0.00  0.00    -0.362 OA
ATOM      4  C5  ZIN A   1      18.232   1.339  10.563  0.00  0.00     0.101 C 
ATOM      5  C6  ZIN A   1      19.127   1.484  11.821  0.00  0.00     0.116 C 
ATOM      6  S7  ZIN A   1      19.177   3.321  12.000  0.00  0.00    -0.135 SA
ATOM      7  C8  ZIN A   1      17.354   0.093  10.743  0.00  0.00     0.311 C 
ATOM      8  N9  ZIN A   1      17.675  -0.885   9.695  0.00  0.00     0.091 N 
ATOM      9  C10 ZIN A   1      17.391  -0.341   8.360  0.00  0.00     0.273 C 
ATOM     10  C11 ZIN A   1      18.276   0.885   8.113  0.00  0.00     0.038 C 
ATOM     11  C12 ZIN A   1      19.151   1.121   9.350  0.00  0.00     0.026 C 
ATOM     12  C13 ZIN A   1      20.001  -0.131   9.597  0.00  0.00     0.038 C 
ATOM     13  C14 ZIN A   1      19.071  -1.331   9.797  0.00  0.00     0.273 C 
ENDROOT
TORSDOF 0
ENDMDL
MODEL 2
REMARK VINA RESULT:      -5.3      2.540      4.255
REMARK  0 active torsions:
REMARK  status: ('A' for Active; 'I' for Inactive)
ROOT
ATOM      1  C1  ZIN A   1      18.871   1.349   7.153  0.00  0.00     0.051 C 
ATOM      2  C2  ZIN A   1      19.655   1.356   8.467  0.00  0.00     0.179 C 
ATOM      3  O4  ZIN A   1      19.199   2.416   9.327  0.00  0.00    -0.362 OA
ATOM      4  C5  ZIN A   1      19.165   2.141  10.720  0.00  0.00     0.101 C 
ATOM      5  C6  ZIN A   1      19.602   0.694  11.065  0.00  0.00     0.116 C 
ATOM      6  S7  ZIN A   1      19.289  -0.154   9.455  0.00  0.00    -0.135 SA
ATOM      7  C8  ZIN A   1      20.100   3.109  11.458  0.00  0.00     0.311 C 
ATOM      8  N9  ZIN A   1      19.320   3.911  12.409  0.00  0.00     0.091 N 
ATOM      9  C10 ZIN A   1      18.311   4.723  11.713  0.00  0.00     0.273 C 
ATOM     10  C11 ZIN A   1      17.325   3.799  10.992  0.00  0.00     0.038 C 
ATOM     11  C12 ZIN A   1      17.735   2.344  11.245  0.00  0.00     0.026 C 
ATOM     12  C13 ZIN A   1      17.727   2.086  12.757  0.00  0.00     0.038 C 
ATOM     13  C14 ZIN A   1      18.697   3.060  13.432  0.00  0.00     0.273 C 
ENDROOT
TORSDOF 0
ENDMDL
MODEL 3
REMARK VINA RESULT:      -5.3      2.436      4.044
REMARK  0 active torsions:
REMARK  status: ('A' for Active; 'I' for Inactive)
ROOT
ATOM      1  C1  ZIN A   1      17.396  -3.804  11.482  0.00  0.00     0.051 C 
ATOM      2  C2  ZIN A   1      18.486  -2.730  11.500  0.00  0.00     0.179 C 
ATOM      3  O4  ZIN A   1      18.465  -1.962  10.283  0.00  0.00    -0.362 OA
ATOM      4  C5  ZIN A   1      18.751  -0.574  10.397  0.00  0.00     0.101 C 
ATOM      5  C6  ZIN A   1      19.001  -0.123  11.859  0.00  0.00     0.116 C 
ATOM      6  S7  ZIN A   1      18.133  -1.462  12.788  0.00  0.00    -0.135 SA
ATOM      7  C8  ZIN A   1      20.001  -0.239   9.573  0.00  0.00     0.311 C 
ATOM      8  N9  ZIN A   1      19.652   0.734   8.530  0.00  0.00     0.091 N 
ATOM      9  C10 ZIN A   1      18.655   0.180   7.604  0.00  0.00     0.273 C 
ATOM     10  C11 ZIN A   1      17.367  -0.135   8.371  0.00  0.00     0.038 C 
ATOM     11  C12 ZIN A   1      17.567   0.236   9.846  0.00  0.00     0.026 C 
ATOM     12  C13 ZIN A   1      17.911   1.728   9.935  0.00  0.00     0.038 C 
ATOM     13  C14 ZIN A   1      19.180   1.994   9.120  0.00  0.00     0.273 C 
ENDROOT
TORSDOF 0
ENDMDL
MODEL 4
REMARK VINA RESULT:      -5.3      4.906      6.410
REMARK  0 active torsions:
REMARK  status: ('A' for Active; 'I' for Inactive)
ROOT
ATOM      1  C1  ZIN A   1      16.670   0.009  11.945  0.00  0.00     0.051 C 
ATOM      2  C2  ZIN A   1      17.863   0.495  12.770  0.00  0.00     0.179 C 
ATOM      3  O4  ZIN A   1      17.543   0.502  14.173  0.00  0.00    -0.362 OA
ATOM      4  C5  ZIN A   1      18.584   0.136  15.069  0.00  0.00     0.101 C 
ATOM      5  C6  ZIN A   1      19.900  -0.253  14.346  0.00  0.00     0.116 C 
ATOM      6  S7  ZIN A   1      19.255  -0.706  12.676  0.00  0.00    -0.135 SA
ATOM      7  C8  ZIN A   1      18.887   1.309  16.011  0.00  0.00     0.311 C 
ATOM      8  N9  ZIN A   1      18.635   0.898  17.398  0.00  0.00     0.091 N 
ATOM      9  C10 ZIN A   1      17.225   0.534  17.594  0.00  0.00     0.273 C 
ATOM     10  C11 ZIN A   1      16.881  -0.664  16.703  0.00  0.00     0.038 C 
ATOM     11  C12 ZIN A   1      18.131  -1.067  15.911  0.00  0.00     0.026 C 
ATOM     12  C13 ZIN A   1      19.248  -1.419  16.902  0.00  0.00     0.038 C 
ATOM     13  C14 ZIN A   1      19.524  -0.204  17.792  0.00  0.00     0.273 C 
ENDROOT
TORSDOF 0
ENDMDL
MODEL 5
REMARK VINA RESULT:      -5.1      3.341      5.152
REMARK  0 active torsions:
REMARK  status: ('A' for Active; 'I' for Inactive)
ROOT
ATOM      1  C1  ZIN A   1      19.170  -3.816   5.819  0.00  0.00     0.051 C 
ATOM      2  C2  ZIN A   1      19.481  -3.354   7.244  0.00  0.00     0.179 C 
ATOM      3  O4  ZIN A   1      19.443  -1.918   7.334  0.00  0.00    -0.362 OA
ATOM      4  C5  ZIN A   1      18.920  -1.366   8.534  0.00  0.00     0.101 C 
ATOM      5  C6  ZIN A   1      18.436  -2.443   9.539  0.00  0.00     0.116 C 
ATOM      6  S7  ZIN A   1      18.148  -3.870   8.404  0.00  0.00    -0.135 SA
ATOM      7  C8  ZIN A   1      20.000  -0.521   9.224  0.00  0.00     0.311 C 
ATOM      8  N9  ZIN A   1      19.540   0.870   9.325  0.00  0.00     0.091 N 
ATOM      9  C10 ZIN A   1      19.315   1.451   7.994  0.00  0.00     0.273 C 
ATOM     10  C11 ZIN A   1      18.212   0.666   7.277  0.00  0.00     0.038 C 
ATOM     11  C12 ZIN A   1      17.726  -0.458   8.199  0.00  0.00     0.026 C 
ATOM     12  C13 ZIN A   1      17.203   0.163   9.500  0.00  0.00     0.038 C 
ATOM     13  C14 ZIN A   1      18.330   0.967  10.154  0.00  0.00     0.273 C 
ENDROOT
TORSDOF 0
ENDMDL
MODEL 6
REMARK VINA RESULT:      -5.1      3.015      4.297
REMARK  0 active torsions:
REMARK  status: ('A' for Active; 'I' for Inactive)
ROOT
ATOM      1  C1  ZIN A   1      18.488  -1.607  16.263  0.00  0.00     0.051 C 
ATOM      2  C2  ZIN A   1      18.986  -0.638  15.188  0.00  0.00     0.179 C 
ATOM      3  O4  ZIN A   1      18.896  -1.236  13.882  0.00  0.00    -0.362 OA
ATOM      4  C5  ZIN A   1      18.533  -0.378  12.810  0.00  0.00     0.101 C 
ATOM      5  C6  ZIN A   1      18.253   1.078  13.263  0.00  0.00     0.116 C 
ATOM      6  S7  ZIN A   1      17.864   0.815  15.049  0.00  0.00    -0.135 SA
ATOM      7  C8  ZIN A   1      19.664  -0.346  11.772  0.00  0.00     0.311 C 
ATOM      8  N9  ZIN A   1      19.161  -0.848  10.487  0.00  0.00     0.091 N 
ATOM      9  C10 ZIN A   1      18.715  -2.243  10.603  0.00  0.00     0.273 C 
ATOM     10  C11 ZIN A   1      17.555  -2.325  11.599  0.00  0.00     0.038 C 
ATOM     11  C12 ZIN A   1      17.262  -0.918  12.134  0.00  0.00     0.026 C 
ATOM     12  C13 ZIN A   1      16.911  -0.006  10.952  0.00  0.00     0.038 C 
ATOM     13  C14 ZIN A   1      18.085   0.008   9.970  0.00  0.00     0.273 C 
ENDROOT
TORSDOF 0
ENDMDL
MODEL 7
REMARK VINA RESULT:      -5.1      2.660      3.872
REMARK  0 active torsions:
REMARK  status: ('A' for Active; 'I' for Inactive)
ROOT
ATOM      1  C1  ZIN A   1      18.295   2.544   9.861  0.00  0.00     0.051 C 
ATOM      2  C2  ZIN A   1      18.907   1.172   9.569  0.00  0.00     0.179 C 
ATOM      3  O4  ZIN A   1      18.994   0.387  10.772  0.00  0.00    -0.362 OA
ATOM      4  C5  ZIN A   1      18.755  -1.008  10.645  0.00  0.00     0.101 C 
ATOM      5  C6  ZIN A   1      18.394  -1.433   9.198  0.00  0.00     0.116 C 
ATOM      6  S7  ZIN A   1      17.787   0.168   8.508  0.00  0.00    -0.135 SA
ATOM      7  C8  ZIN A   1      20.008  -1.785  11.072  0.00  0.00     0.311 C 
ATOM      8  N9  ZIN A   1      19.681  -2.644  12.217  0.00  0.00     0.091 N 
ATOM      9  C10 ZIN A   1      19.249  -1.844  13.372  0.00  0.00     0.273 C 
ATOM     10  C11 ZIN A   1      17.973  -1.078  13.010  0.00  0.00     0.038 C 
ATOM     11  C12 ZIN A   1      17.590  -1.410  11.563  0.00  0.00     0.026 C 
ATOM     12  C13 ZIN A   1      17.375  -2.924  11.447  0.00  0.00     0.038 C 
ATOM     13  C14 ZIN A   1      18.664  -3.642  11.857  0.00  0.00     0.273 C 
ENDROOT
TORSDOF 0
ENDMDL
MODEL 8
REMARK VINA RESULT:      -5.0      3.921      4.767
REMARK  0 active torsions:
REMARK  status: ('A' for Active; 'I' for Inactive)
ROOT
ATOM      1  C1  ZIN A   1      18.358  -0.757  14.872  0.00  0.00     0.051 C 
ATOM      2  C2  ZIN A   1      19.363  -1.197  13.806  0.00  0.00     0.179 C 
ATOM      3  O4  ZIN A   1      18.902  -2.380  13.128  0.00  0.00    -0.362 OA
ATOM      4  C5  ZIN A   1      19.182  -2.471  11.738  0.00  0.00     0.101 C 
ATOM      5  C6  ZIN A   1      19.920  -1.225  11.183  0.00  0.00     0.116 C 
ATOM      6  S7  ZIN A   1      19.459   0.040  12.447  0.00  0.00    -0.135 SA
ATOM      7  C8  ZIN A   1      20.058  -3.702  11.470  0.00  0.00     0.311 C 
ATOM      8  N9  ZIN A   1      19.346  -4.621  10.573  0.00  0.00     0.091 N 
ATOM      9  C10 ZIN A   1      18.099  -5.098  11.187  0.00  0.00     0.273 C 
ATOM     10  C11 ZIN A   1      17.168  -3.908  11.438  0.00  0.00     0.038 C 
ATOM     11  C12 ZIN A   1      17.865  -2.627  10.962  0.00  0.00     0.026 C 
ATOM     12  C13 ZIN A   1      18.188  -2.769   9.470  0.00  0.00     0.038 C 
ATOM     13  C14 ZIN A   1      19.086  -3.994   9.271  0.00  0.00     0.273 C 
ENDROOT
TORSDOF 0
ENDMDL
MODEL 9
REMARK VINA RESULT:      -5.0      2.292      3.432
REMARK  0 active torsions:
REMARK  status: ('A' for Active; 'I' for Inactive)
ROOT
ATOM      1  C1  ZIN A   1      19.556   4.365  12.246  0.00  0.00     0.051 C 
ATOM      2  C2  ZIN A   1      19.779   3.056  11.485  0.00  0.00     0.179 C 
ATOM      3  O4  ZIN A   1      19.540   1.923  12.338  0.00  0.00    -0.362 OA
ATOM      4  C5  ZIN A   1      18.929   0.788  11.739  0.00  0.00     0.101 C 
ATOM      5  C6  ZIN A   1      18.587   1.002  10.242  0.00  0.00     0.116 C 
ATOM      6  S7  ZIN A   1      18.516   2.845  10.163  0.00  0.00    -0.135 SA
ATOM      7  C8  ZIN A   1      19.871  -0.419  11.846  0.00  0.00     0.311 C 
ATOM      8  N9  ZIN A   1      19.219  -1.478  12.627  0.00  0.00     0.091 N 
ATOM      9  C10 ZIN A   1      18.934  -1.025  13.996  0.00  0.00     0.273 C 
ATOM     10  C11 ZIN A   1      17.961   0.158  13.947  0.00  0.00     0.038 C 
ATOM     11  C12 ZIN A   1      17.624   0.461  12.483  0.00  0.00     0.026 C 
ATOM     12  C13 ZIN A   1      17.002  -0.791  11.852  0.00  0.00     0.038 C 
ATOM     13  C14 ZIN A   1      17.997  -1.950  11.963  0.00  0.00     0.273 C 
ENDROOT
TORSDOF 0
ENDMDL
