MODEL 1
REMARK VINA RESULT:      -7.8      0.000      0.000
REMARK  3 active torsions:
REMARK  status: ('A' for Active; 'I' for Inactive)
REMARK    1  A    between atoms: N2_2  and  C5_5 
REMARK    2  A    between atoms: C5_5  and  C6_6 
REMARK    3  A    between atoms: C6_6  and  C7_7 
ROOT
ATOM      1  C7  ZIN A   1      19.084   3.201  10.716  0.00  0.00    -0.012 C 
ATOM      2  C8  ZIN A   1      18.847   1.886  10.629  0.00  0.00    -0.016 C 
ATOM      3  C9  ZIN A   1      18.505   1.291   9.316  0.00  0.00    -0.017 A 
ATOM      4  C10 ZIN A   1      19.251   1.738   8.215  0.00  0.00     0.013 A 
ATOM      5  C11 ZIN A   1      19.006   1.246   6.953  0.00  0.00     0.001 A 
ATOM      6  C12 ZIN A   1      18.012   0.301   6.773  0.00  0.00     0.001 A 
ATOM      7  C13 ZIN A   1      17.278  -0.141   7.851  0.00  0.00     0.010 A 
ATOM      8  C14 ZIN A   1      17.512   0.345   9.137  0.00  0.00    -0.023 A 
ATOM      9  C15 ZIN A   1      16.631  -0.239  10.211  0.00  0.00     0.215 C 
ATOM     10  O16 ZIN A   1      16.683   0.427  11.447  0.00  0.00    -0.346 OA
ATOM     11  C17 ZIN A   1      17.785   0.360  12.221  0.00  0.00     0.080 A 
ATOM     12  C18 ZIN A   1      17.792  -0.393  13.387  0.00  0.00     0.037 A 
ATOM     13  C19 ZIN A   1      18.944  -0.462  14.148  0.00  0.00     0.003 A 
ATOM     14  C20 ZIN A   1      20.089   0.209  13.760  0.00  0.00     0.001 A 
ATOM     15  C21 ZIN A   1      20.090   0.970  12.605  0.00  0.00     0.015 A 
ATOM     16  C22 ZIN A   1      18.935   1.046  11.845  0.00  0.00     0.008 A 
ENDROOT
BRANCH   1  17
ATOM     17  C6  ZIN A   1      19.437   3.816  12.046  0.00  0.00     0.055 C 
BRANCH  17  18
ATOM     18  C5  ZIN A   1      18.310   4.748  12.493  0.00  0.00     0.237 C 
BRANCH  18  19
ATOM     19  N2  ZIN A   1      17.582   4.136  13.612  0.00  0.00    -0.079 N 
ATOM     20  C1  ZIN A   1      18.542   3.556  14.561  0.00  0.00     0.269 C 
ATOM     21  H3  ZIN A   1      16.975   3.411  13.261  0.00  0.00     0.278 HD
ATOM     22  C4  ZIN A   1      16.778   5.161  14.293  0.00  0.00     0.269 C 
ENDBRANCH  18  19
ENDBRANCH  17  18
ENDBRANCH   1  17
TORSDOF 3
ENDMDL
MODEL 2
REMARK VINA RESULT:      -7.6      2.346      5.382
REMARK  3 active torsions:
REMARK  status: ('A' for Active; 'I' for Inactive)
REMARK    1  A    between atoms: N2_2  and  C5_5 
REMARK    2  A    between atoms: C5_5  and  C6_6 
REMARK    3  A    between atoms: C6_6  and  C7_7 
ROOT
ATOM      1  C7  ZIN A   1      18.894   2.403   9.403  0.00  0.00    -0.012 C 
ATOM      2  C8  ZIN A   1      18.273   2.206  10.572  0.00  0.00    -0.016 C 
ATOM      3  C9  ZIN A   1      17.780   3.372  11.342  0.00  0.00    -0.017 A 
ATOM      4  C10 ZIN A   1      17.146   4.383  10.604  0.00  0.00     0.013 A 
ATOM      5  C11 ZIN A   1      16.656   5.508  11.228  0.00  0.00     0.001 A 
ATOM      6  C12 ZIN A   1      16.791   5.637  12.599  0.00  0.00     0.001 A 
ATOM      7  C13 ZIN A   1      17.411   4.646  13.327  0.00  0.00     0.010 A 
ATOM      8  C14 ZIN A   1      17.914   3.500  12.712  0.00  0.00    -0.023 A 
ATOM      9  C15 ZIN A   1      18.559   2.506  13.643  0.00  0.00     0.215 C 
ATOM     10  O16 ZIN A   1      19.288   1.486  13.008  0.00  0.00    -0.346 OA
ATOM     11  C17 ZIN A   1      18.659   0.522  12.306  0.00  0.00     0.080 A 
ATOM     12  C18 ZIN A   1      18.568  -0.772  12.798  0.00  0.00     0.037 A 
ATOM     13  C19 ZIN A   1      17.896  -1.735  12.068  0.00  0.00     0.003 A 
ATOM     14  C20 ZIN A   1      17.313  -1.421  10.853  0.00  0.00     0.001 A 
ATOM     15  C21 ZIN A   1      17.407  -0.136  10.350  0.00  0.00     0.015 A 
ATOM     16  C22 ZIN A   1      18.085   0.827  11.077  0.00  0.00     0.008 A 
ENDROOT
BRANCH   1  17
ATOM     17  C6  ZIN A   1      19.396   1.223   8.609  0.00  0.00     0.055 C 
BRANCH  17  18
ATOM     18  C5  ZIN A   1      19.064   1.426   7.130  0.00  0.00     0.237 C 
BRANCH  18  19
ATOM     19  N2  ZIN A   1      18.784   0.125   6.508  0.00  0.00    -0.079 N 
ATOM     20  C1  ZIN A   1      17.340  -0.140   6.555  0.00  0.00     0.269 C 
ATOM     21  H3  ZIN A   1      19.277  -0.600   7.008  0.00  0.00     0.278 HD
ATOM     22  C4  ZIN A   1      19.233   0.144   5.109  0.00  0.00     0.269 C 
ENDBRANCH  18  19
ENDBRANCH  17  18
ENDBRANCH   1  17
TORSDOF 3
ENDMDL
MODEL 3
REMARK VINA RESULT:      -7.6      3.194      6.169
REMARK  3 active torsions:
REMARK  status: ('A' for Active; 'I' for Inactive)
REMARK    1  A    between atoms: N2_2  and  C5_5 
REMARK    2  A    between atoms: C5_5  and  C6_6 
REMARK    3  A    between atoms: C6_6  and  C7_7 
ROOT
ATOM      1  C7  ZIN A   1      17.704  -1.226   7.757  0.00  0.00    -0.012 C 
ATOM      2  C8  ZIN A   1      18.067  -0.891   9.001  0.00  0.00    -0.016 C 
ATOM      3  C9  ZIN A   1      18.268  -1.953  10.014  0.00  0.00    -0.017 A 
ATOM      4  C10 ZIN A   1      18.951  -3.101   9.587  0.00  0.00     0.013 A 
ATOM      5  C11 ZIN A   1      19.184  -4.145  10.454  0.00  0.00     0.001 A 
ATOM      6  C12 ZIN A   1      18.738  -4.054  11.761  0.00  0.00     0.001 A 
ATOM      7  C13 ZIN A   1      18.068  -2.928  12.184  0.00  0.00     0.010 A 
ATOM      8  C14 ZIN A   1      17.823  -1.861  11.320  0.00  0.00    -0.023 A 
ATOM      9  C15 ZIN A   1      17.083  -0.700  11.932  0.00  0.00     0.215 C 
ATOM     10  O16 ZIN A   1      16.611   0.252  11.014  0.00  0.00    -0.346 OA
ATOM     11  C17 ZIN A   1      17.466   1.058  10.354  0.00  0.00     0.080 A 
ATOM     12  C18 ZIN A   1      17.567   2.405  10.674  0.00  0.00     0.037 A 
ATOM     13  C19 ZIN A   1      18.471   3.203   9.996  0.00  0.00     0.003 A 
ATOM     14  C20 ZIN A   1      19.276   2.673   9.004  0.00  0.00     0.001 A 
ATOM     15  C21 ZIN A   1      19.176   1.334   8.671  0.00  0.00     0.015 A 
ATOM     16  C22 ZIN A   1      18.267   0.536   9.344  0.00  0.00     0.008 A 
ENDROOT
BRANCH   1  17
ATOM     17  C6  ZIN A   1      17.502  -0.154   6.716  0.00  0.00     0.055 C 
BRANCH  17  18
ATOM     18  C5  ZIN A   1      17.213  -0.805   5.363  0.00  0.00     0.237 C 
BRANCH  18  19
ATOM     19  N2  ZIN A   1      18.410  -0.725   4.515  0.00  0.00    -0.079 N 
ATOM     20  C1  ZIN A   1      19.316   0.304   5.042  0.00  0.00     0.269 C 
ATOM     21  H3  ZIN A   1      18.138  -0.485   3.573  0.00  0.00     0.278 HD
ATOM     22  C4  ZIN A   1      19.094  -2.025   4.510  0.00  0.00     0.269 C 
ENDBRANCH  18  19
ENDBRANCH  17  18
ENDBRANCH   1  17
TORSDOF 3
ENDMDL
MODEL 4
REMARK VINA RESULT:      -7.5      2.862      3.946
REMARK  3 active torsions:
REMARK  status: ('A' for Active; 'I' for Inactive)
REMARK    1  A    between atoms: N2_2  and  C5_5 
REMARK    2  A    between atoms: C5_5  and  C6_6 
REMARK    3  A    between atoms: C6_6  and  C7_7 
ROOT
ATOM      1  C7  ZIN A   1      17.404  -0.053   9.449  0.00  0.00    -0.012 C 
ATOM      2  C8  ZIN A   1      18.276  -0.896   8.881  0.00  0.00    -0.016 C 
ATOM      3  C9  ZIN A   1      18.647  -0.713   7.458  0.00  0.00    -0.017 A 
ATOM      4  C10 ZIN A   1      18.880   0.605   7.038  0.00  0.00     0.013 A 
ATOM      5  C11 ZIN A   1      19.228   0.877   5.734  0.00  0.00     0.001 A 
ATOM      6  C12 ZIN A   1      19.347  -0.165   4.832  0.00  0.00     0.001 A 
ATOM      7  C13 ZIN A   1      19.120  -1.460   5.240  0.00  0.00     0.010 A 
ATOM      8  C14 ZIN A   1      18.767  -1.755   6.557  0.00  0.00    -0.023 A 
ATOM      9  C15 ZIN A   1      18.558  -3.218   6.850  0.00  0.00     0.215 C 
ATOM     10  O16 ZIN A   1      17.958  -3.494   8.089  0.00  0.00    -0.346 OA
ATOM     11  C17 ZIN A   1      18.628  -3.291   9.241  0.00  0.00     0.080 A 
ATOM     12  C18 ZIN A   1      19.098  -4.361   9.990  0.00  0.00     0.037 A 
ATOM     13  C19 ZIN A   1      19.803  -4.121  11.155  0.00  0.00     0.003 A 
ATOM     14  C20 ZIN A   1      20.046  -2.828  11.581  0.00  0.00     0.001 A 
ATOM     15  C21 ZIN A   1      19.573  -1.755  10.847  0.00  0.00     0.015 A 
ATOM     16  C22 ZIN A   1      18.861  -1.993   9.684  0.00  0.00     0.008 A 
ENDROOT
BRANCH   1  17
ATOM     17  C6  ZIN A   1      17.024  -0.227  10.897  0.00  0.00     0.055 C 
BRANCH  17  18
ATOM     18  C5  ZIN A   1      17.351   1.054  11.667  0.00  0.00     0.237 C 
BRANCH  18  19
ATOM     19  N2  ZIN A   1      18.221   1.909  10.849  0.00  0.00    -0.079 N 
ATOM     20  C1  ZIN A   1      17.623   3.246  10.733  0.00  0.00     0.269 C 
ATOM     21  H3  ZIN A   1      18.321   1.505   9.930  0.00  0.00     0.278 HD
ATOM     22  C4  ZIN A   1      19.542   2.016  11.483  0.00  0.00     0.269 C 
ENDBRANCH  18  19
ENDBRANCH  17  18
ENDBRANCH   1  17
TORSDOF 3
ENDMDL
MODEL 5
REMARK VINA RESULT:      -7.4      2.420      5.076
REMARK  3 active torsions:
REMARK  status: ('A' for Active; 'I' for Inactive)
REMARK    1  A    between atoms: N2_2  and  C5_5 
REMARK    2  A    between atoms: C5_5  and  C6_6 
REMARK    3  A    between atoms: C6_6  and  C7_7 
ROOT
ATOM      1  C7  ZIN A   1      18.727   3.493  14.840  0.00  0.00    -0.012 C 
ATOM      2  C8  ZIN A   1      18.611   2.475  13.979  0.00  0.00    -0.016 C 
ATOM      3  C9  ZIN A   1      18.617   1.084  14.488  0.00  0.00    -0.017 A 
ATOM      4  C10 ZIN A   1      17.870   0.841  15.651  0.00  0.00     0.013 A 
ATOM      5  C11 ZIN A   1      17.817  -0.419  16.202  0.00  0.00     0.001 A 
ATOM      6  C12 ZIN A   1      18.508  -1.454  15.599  0.00  0.00     0.001 A 
ATOM      7  C13 ZIN A   1      19.241  -1.221  14.457  0.00  0.00     0.010 A 
ATOM      8  C14 ZIN A   1      19.307   0.049  13.884  0.00  0.00    -0.023 A 
ATOM      9  C15 ZIN A   1      20.145   0.143  12.635  0.00  0.00     0.215 C 
ATOM     10  O16 ZIN A   1      20.424   1.451  12.206  0.00  0.00    -0.346 OA
ATOM     11  C17 ZIN A   1      19.452   2.232  11.693  0.00  0.00     0.080 A 
ATOM     12  C18 ZIN A   1      19.408   2.515  10.335  0.00  0.00     0.037 A 
ATOM     13  C19 ZIN A   1      18.385   3.299   9.834  0.00  0.00     0.003 A 
ATOM     14  C20 ZIN A   1      17.405   3.803  10.671  0.00  0.00     0.001 A 
ATOM     15  C21 ZIN A   1      17.446   3.534  12.027  0.00  0.00     0.015 A 
ATOM     16  C22 ZIN A   1      18.473   2.754  12.531  0.00  0.00     0.008 A 
ENDROOT
BRANCH   1  17
ATOM     17  C6  ZIN A   1      18.716   4.913  14.333  0.00  0.00     0.055 C 
BRANCH  17  18
ATOM     18  C5  ZIN A   1      18.052   5.820  15.371  0.00  0.00     0.237 C 
BRANCH  18  19
ATOM     19  N2  ZIN A   1      16.658   5.403  15.566  0.00  0.00    -0.079 N 
ATOM     20  C1  ZIN A   1      16.137   5.999  16.804  0.00  0.00     0.269 C 
ATOM     21  H3  ZIN A   1      16.614   4.397  15.632  0.00  0.00     0.278 HD
ATOM     22  C4  ZIN A   1      15.847   5.854  14.427  0.00  0.00     0.269 C 
ENDBRANCH  18  19
ENDBRANCH  17  18
ENDBRANCH   1  17
TORSDOF 3
ENDMDL
MODEL 6
REMARK VINA RESULT:      -7.4      3.301      6.737
REMARK  3 active torsions:
REMARK  status: ('A' for Active; 'I' for Inactive)
REMARK    1  A    between atoms: N2_2  and  C5_5 
REMARK    2  A    between atoms: C5_5  and  C6_6 
REMARK    3  A    between atoms: C6_6  and  C7_7 
ROOT
ATOM      1  C7  ZIN A   1      17.965  -2.645  11.942  0.00  0.00    -0.012 C 
ATOM      2  C8  ZIN A   1      18.305  -1.367  12.156  0.00  0.00    -0.016 C 
ATOM      3  C9  ZIN A   1      18.321  -0.838  13.539  0.00  0.00    -0.017 A 
ATOM      4  C10 ZIN A   1      18.877  -1.672  14.520  0.00  0.00     0.013 A 
ATOM      5  C11 ZIN A   1      18.935  -1.270  15.836  0.00  0.00     0.001 A 
ATOM      6  C12 ZIN A   1      18.439  -0.027  16.188  0.00  0.00     0.001 A 
ATOM      7  C13 ZIN A   1      17.894   0.795  15.229  0.00  0.00     0.010 A 
ATOM      8  C14 ZIN A   1      17.827   0.405  13.891  0.00  0.00    -0.023 A 
ATOM      9  C15 ZIN A   1      17.208   1.416  12.961  0.00  0.00     0.215 C 
ATOM     10  O16 ZIN A   1      16.904   0.933  11.677  0.00  0.00    -0.346 OA
ATOM     11  C17 ZIN A   1      17.885   0.629  10.804  0.00  0.00     0.080 A 
ATOM     12  C18 ZIN A   1      18.136   1.440   9.705  0.00  0.00     0.037 A 
ATOM     13  C19 ZIN A   1      19.164   1.117   8.840  0.00  0.00     0.003 A 
ATOM     14  C20 ZIN A   1      19.946  -0.004   9.056  0.00  0.00     0.001 A 
ATOM     15  C21 ZIN A   1      19.697  -0.823  10.143  0.00  0.00     0.015 A 
ATOM     16  C22 ZIN A   1      18.663  -0.505  11.007  0.00  0.00     0.008 A 
ENDROOT
BRANCH   1  17
ATOM     17  C6  ZIN A   1      17.950  -3.196  10.539  0.00  0.00     0.055 C 
BRANCH  17  18
ATOM     18  C5  ZIN A   1      18.855  -4.426  10.465  0.00  0.00     0.237 C 
BRANCH  18  19
ATOM     19  N2  ZIN A   1      19.677  -4.358   9.251  0.00  0.00    -0.079 N 
ATOM     20  C1  ZIN A   1      20.140  -5.707   8.896  0.00  0.00     0.269 C 
ATOM     21  H3  ZIN A   1      20.474  -3.762   9.418  0.00  0.00     0.278 HD
ATOM     22  C4  ZIN A   1      18.878  -3.808   8.147  0.00  0.00     0.269 C 
ENDBRANCH  18  19
ENDBRANCH  17  18
ENDBRANCH   1  17
TORSDOF 3
ENDMDL
MODEL 7
REMARK VINA RESULT:      -7.3      2.790      6.470
REMARK  3 active torsions:
REMARK  status: ('A' for Active; 'I' for Inactive)
REMARK    1  A    between atoms: N2_2  and  C5_5 
REMARK    2  A    between atoms: C5_5  and  C6_6 
REMARK    3  A    between atoms: C6_6  and  C7_7 
ROOT
ATOM      1  C7  ZIN A   1      17.437   0.047  13.254  0.00  0.00    -0.012 C 
ATOM      2  C8  ZIN A   1      18.310   0.795  13.940  0.00  0.00    -0.016 C 
ATOM      3  C9  ZIN A   1      18.676   0.406  15.322  0.00  0.00    -0.017 A 
ATOM      4  C10 ZIN A   1      18.905  -0.959  15.546  0.00  0.00     0.013 A 
ATOM      5  C11 ZIN A   1      19.247  -1.419  16.798  0.00  0.00     0.001 A 
ATOM      6  C12 ZIN A   1      19.366  -0.520  17.843  0.00  0.00     0.001 A 
ATOM      7  C13 ZIN A   1      19.144   0.821  17.627  0.00  0.00     0.010 A 
ATOM      8  C14 ZIN A   1      18.796   1.306  16.366  0.00  0.00    -0.023 A 
ATOM      9  C15 ZIN A   1      18.591   2.796  16.289  0.00  0.00     0.215 C 
ATOM     10  O16 ZIN A   1      17.995   3.252  15.101  0.00  0.00    -0.346 OA
ATOM     11  C17 ZIN A   1      18.668   3.216  13.933  0.00  0.00     0.080 A 
ATOM     12  C18 ZIN A   1      19.144   4.382  13.350  0.00  0.00     0.037 A 
ATOM     13  C19 ZIN A   1      19.852   4.313  12.164  0.00  0.00     0.003 A 
ATOM     14  C20 ZIN A   1      20.092   3.095  11.554  0.00  0.00     0.001 A 
ATOM     15  C21 ZIN A   1      19.614   1.928  12.123  0.00  0.00     0.015 A 
ATOM     16  C22 ZIN A   1      18.899   1.996  13.307  0.00  0.00     0.008 A 
ENDROOT
BRANCH   1  17
ATOM     17  C6  ZIN A   1      17.062   0.430  11.845  0.00  0.00     0.055 C 
BRANCH  17  18
ATOM     18  C5  ZIN A   1      17.345  -0.742  10.905  0.00  0.00     0.237 C 
BRANCH  18  19
ATOM     19  N2  ZIN A   1      18.128  -1.762  11.615  0.00  0.00    -0.079 N 
ATOM     20  C1  ZIN A   1      17.499  -3.077  11.431  0.00  0.00     0.269 C 
ATOM     21  H3  ZIN A   1      18.158  -1.538  12.598  0.00  0.00     0.278 HD
ATOM     22  C4  ZIN A   1      19.495  -1.793  11.078  0.00  0.00     0.269 C 
ENDBRANCH  18  19
ENDBRANCH  17  18
ENDBRANCH   1  17
TORSDOF 3
ENDMDL
MODEL 8
REMARK VINA RESULT:      -7.3      2.777      5.651
REMARK  3 active torsions:
REMARK  status: ('A' for Active; 'I' for Inactive)
REMARK    1  A    between atoms: N2_2  and  C5_5 
REMARK    2  A    between atoms: C5_5  and  C6_6 
REMARK    3  A    between atoms: C6_6  and  C7_7 
ROOT
ATOM      1  C7  ZIN A   1      17.923   0.625   8.747  0.00  0.00    -0.012 C 
ATOM      2  C8  ZIN A   1      18.274   0.620  10.039  0.00  0.00    -0.016 C 
ATOM      3  C9  ZIN A   1      18.559   1.903  10.723  0.00  0.00    -0.017 A 
ATOM      4  C10 ZIN A   1      17.685   2.965  10.447  0.00  0.00     0.013 A 
ATOM      5  C11 ZIN A   1      17.869   4.197  11.032  0.00  0.00     0.001 A 
ATOM      6  C12 ZIN A   1      18.929   4.385  11.901  0.00  0.00     0.001 A 
ATOM      7  C13 ZIN A   1      19.788   3.345  12.175  0.00  0.00     0.010 A 
ATOM      8  C14 ZIN A   1      19.618   2.089  11.592  0.00  0.00    -0.023 A 
ATOM      9  C15 ZIN A   1      20.636   1.055  11.995  0.00  0.00     0.215 C 
ATOM     10  O16 ZIN A   1      20.625  -0.119  11.224  0.00  0.00    -0.346 OA
ATOM     11  C17 ZIN A   1      19.603  -0.994  11.312  0.00  0.00     0.080 A 
ATOM     12  C18 ZIN A   1      19.764  -2.216  11.949  0.00  0.00     0.037 A 
ATOM     13  C19 ZIN A   1      18.691  -3.082  12.045  0.00  0.00     0.003 A 
ATOM     14  C20 ZIN A   1      17.459  -2.744  11.514  0.00  0.00     0.001 A 
ATOM     15  C21 ZIN A   1      17.291  -1.532  10.868  0.00  0.00     0.015 A 
ATOM     16  C22 ZIN A   1      18.366  -0.667  10.766  0.00  0.00     0.008 A 
ENDROOT
BRANCH   1  17
ATOM     17  C6  ZIN A   1      17.625  -0.674   8.042  0.00  0.00     0.055 C 
BRANCH  17  18
ATOM     18  C5  ZIN A   1      17.728  -0.469   6.530  0.00  0.00     0.237 C 
BRANCH  18  19
ATOM     19  N2  ZIN A   1      19.096  -0.767   6.086  0.00  0.00    -0.079 N 
ATOM     20  C1  ZIN A   1      19.285  -2.223   6.026  0.00  0.00     0.269 C 
ATOM     21  H3  ZIN A   1      19.755  -0.369   6.739  0.00  0.00     0.278 HD
ATOM     22  C4  ZIN A   1      19.317  -0.189   4.754  0.00  0.00     0.269 C 
ENDBRANCH  18  19
ENDBRANCH  17  18
ENDBRANCH   1  17
TORSDOF 3
ENDMDL
MODEL 9
REMARK VINA RESULT:      -7.3      2.463      4.248
REMARK  3 active torsions:
REMARK  status: ('A' for Active; 'I' for Inactive)
REMARK    1  A    between atoms: N2_2  and  C5_5 
REMARK    2  A    between atoms: C5_5  and  C6_6 
REMARK    3  A    between atoms: C6_6  and  C7_7 
ROOT
ATOM      1  C7  ZIN A   1      19.309  -0.637  12.809  0.00  0.00    -0.012 C 
ATOM      2  C8  ZIN A   1      18.769  -0.651  11.584  0.00  0.00    -0.016 C 
ATOM      3  C9  ZIN A   1      18.325  -1.936  10.996  0.00  0.00    -0.017 A 
ATOM      4  C10 ZIN A   1      17.641  -2.811  11.853  0.00  0.00     0.013 A 
ATOM      5  C11 ZIN A   1      17.191  -4.031  11.401  0.00  0.00     0.001 A 
ATOM      6  C12 ZIN A   1      17.418  -4.393  10.085  0.00  0.00     0.001 A 
ATOM      7  C13 ZIN A   1      18.088  -3.537   9.240  0.00  0.00     0.010 A 
ATOM      8  C14 ZIN A   1      18.551  -2.296   9.681  0.00  0.00    -0.023 A 
ATOM      9  C15 ZIN A   1      19.260  -1.472   8.638  0.00  0.00     0.215 C 
ATOM     10  O16 ZIN A   1      19.947  -0.352   9.134  0.00  0.00    -0.346 OA
ATOM     11  C17 ZIN A   1      19.275   0.713   9.616  0.00  0.00     0.080 A 
ATOM     12  C18 ZIN A   1      19.220   1.902   8.902  0.00  0.00     0.037 A 
ATOM     13  C19 ZIN A   1      18.503   2.970   9.410  0.00  0.00     0.003 A 
ATOM     14  C20 ZIN A   1      17.839   2.865  10.618  0.00  0.00     0.001 A 
ATOM     15  C21 ZIN A   1      17.895   1.687  11.341  0.00  0.00     0.015 A 
ATOM     16  C22 ZIN A   1      18.618   0.619  10.838  0.00  0.00     0.008 A 
ENDROOT
BRANCH   1  17
ATOM     17  C6  ZIN A   1      19.760   0.666  13.419  0.00  0.00     0.055 C 
BRANCH  17  18
ATOM     18  C5  ZIN A   1      19.247   0.760  14.857  0.00  0.00     0.237 C 
BRANCH  18  19
ATOM     19  N2  ZIN A   1      19.499   2.109  15.380  0.00  0.00    -0.079 N 
ATOM     20  C1  ZIN A   1      18.613   3.068  14.708  0.00  0.00     0.269 C 
ATOM     21  H3  ZIN A   1      20.461   2.361  15.209  0.00  0.00     0.278 HD
ATOM     22  C4  ZIN A   1      19.238   2.130  16.826  0.00  0.00     0.269 C 
ENDBRANCH  18  19
ENDBRANCH  17  18
ENDBRANCH   1  17
TORSDOF 3
ENDMDL
