MODEL 1
REMARK VINA RESULT:      -5.7      0.000      0.000
REMARK  22 active torsions:
REMARK  status: ('A' for Active; 'I' for Inactive)
REMARK    1  A    between atoms: O2_2  and  C3_3 
REMARK    2  A    between atoms: C3_3  and  C4_4 
REMARK    3  A    between atoms: C4_4  and  N5_5 
REMARK       I    between atoms: N5_5  and  C6_6 
REMARK    4  A    between atoms: C6_6  and  C8_8 
REMARK    5  A    between atoms: C8_8  and  N9_9 
REMARK    6  A    between atoms: N9_9  and  C10_10 
REMARK    7  A    between atoms: N9_9  and  C33_33 
REMARK    8  A    between atoms: C10_10  and  C11_11 
REMARK    9  A    between atoms: C11_11  and  N12_12 
REMARK   10  A    between atoms: N12_12  and  C14_14 
REMARK   11  A    between atoms: N12_12  and  C29_29 
REMARK   12  A    between atoms: C14_14  and  C15_15 
REMARK   13  A    between atoms: C15_15  and  N16_16 
REMARK   14  A    between atoms: N16_16  and  C17_17 
REMARK   15  A    between atoms: N16_16  and  C21_21 
REMARK   16  A    between atoms: C17_17  and  C18_18 
REMARK   17  A    between atoms: C21_21  and  C22_22 
REMARK       I    between atoms: C22_22  and  N24_24 
REMARK   18  A    between atoms: N24_24  and  C25_25 
REMARK   19  A    between atoms: C25_25  and  C26_26 
REMARK   20  A    between atoms: C26_26  and  O27_27 
REMARK   21  A    between atoms: C29_29  and  C30_30 
REMARK   22  A    between atoms: C33_33  and  C34_34 
ROOT
ATOM      1  N12 ZIN A   1      19.385  -0.204   7.548  0.00  0.00    -0.058 N 
ATOM      2  H13 ZIN A   1      20.315  -0.300   7.166  0.00  0.00     0.280 HD
ENDROOT
BRANCH   1   3
ATOM      3  C11 ZIN A   1      19.206   1.159   8.065  0.00  0.00     0.265 C 
BRANCH   3   4
ATOM      4  C10 ZIN A   1      18.109   1.160   9.133  0.00  0.00     0.301 C 
BRANCH   4   5
ATOM      5  N9  ZIN A   1      18.471   2.096  10.204  0.00  0.00     0.108 N 
BRANCH   5   6
ATOM      6  C8  ZIN A   1      18.140   3.478   9.830  0.00  0.00     0.375 C 
BRANCH   6   7
ATOM      7  C6  ZIN A   1      17.548   4.193  11.017  0.00  0.00     0.246 C 
ATOM      8  N5  ZIN A   1      18.327   4.499  12.075  0.00  0.00    -0.358 N 
ATOM      9  H44 ZIN A   1      19.266   4.259  12.071  0.00  0.00     0.162 HD
ATOM     10  O7  ZIN A   1      16.374   4.491  11.022  0.00  0.00    -0.272 OA
BRANCH   8  11
ATOM     11  C4  ZIN A   1      17.751   5.193  13.230  0.00  0.00     0.148 C 
BRANCH  11  12
ATOM     12  C3  ZIN A   1      18.876   5.653  14.160  0.00  0.00     0.186 C 
BRANCH  12  13
ATOM     13  O2  ZIN A   1      19.413   4.525  14.854  0.00  0.00    -0.394 OA
ATOM     14  C1  ZIN A   1      18.441   3.776  15.586  0.00  0.00     0.201 C 
ENDBRANCH  12  13
ENDBRANCH  11  12
ENDBRANCH   8  11
ENDBRANCH   6   7
ENDBRANCH   5   6
BRANCH   5  15
ATOM     15  C33 ZIN A   1      19.892   1.973  10.554  0.00  0.00     0.385 C 
BRANCH  15  16
ATOM     16  C34 ZIN A   1      20.021   1.354  11.922  0.00  0.00     0.202 C 
ATOM     17  O35 ZIN A   1      20.826   0.457  12.112  0.00  0.00    -0.647 OA
ATOM     18  O36 ZIN A   1      19.321   1.748  12.838  0.00  0.00    -0.647 OA
ENDBRANCH  15  16
ENDBRANCH   5  15
ENDBRANCH   4   5
ENDBRANCH   3   4
ENDBRANCH   1   3
BRANCH   1  19
ATOM     19  C14 ZIN A   1      19.202  -1.170   8.639  0.00  0.00     0.265 C 
BRANCH  19  20
ATOM     20  C15 ZIN A   1      18.266  -2.289   8.179  0.00  0.00     0.301 C 
BRANCH  20  21
ATOM     21  N16 ZIN A   1      18.074  -3.249   9.274  0.00  0.00     0.108 N 
BRANCH  21  22
ATOM     22  C17 ZIN A   1      18.170  -4.631   8.785  0.00  0.00     0.385 C 
BRANCH  22  23
ATOM     23  C18 ZIN A   1      17.168  -5.491   9.511  0.00  0.00     0.202 C 
ATOM     24  O19 ZIN A   1      16.022  -5.102   9.658  0.00  0.00    -0.647 OA
ATOM     25  O20 ZIN A   1      17.503  -6.577   9.953  0.00  0.00    -0.647 OA
ENDBRANCH  22  23
ENDBRANCH  21  22
BRANCH  21  26
ATOM     26  C21 ZIN A   1      19.034  -3.007  10.359  0.00  0.00     0.375 C 
BRANCH  26  27
ATOM     27  C22 ZIN A   1      18.307  -2.455  11.558  0.00  0.00     0.246 C 
ATOM     28  O23 ZIN A   1      17.095  -2.438  11.578  0.00  0.00    -0.272 OA
ATOM     29  N24 ZIN A   1      19.005  -1.979  12.609  0.00  0.00    -0.358 N 
ATOM     30  H59 ZIN A   1      19.974  -1.991  12.594  0.00  0.00     0.162 HD
BRANCH  29  31
ATOM     31  C25 ZIN A   1      18.298  -1.441  13.774  0.00  0.00     0.148 C 
BRANCH  31  32
ATOM     32  C26 ZIN A   1      19.287  -1.242  14.924  0.00  0.00     0.186 C 
BRANCH  32  33
ATOM     33  O27 ZIN A   1      18.718  -0.364  15.896  0.00  0.00    -0.394 OA
ATOM     34  C28 ZIN A   1      17.556  -0.886  16.544  0.00  0.00     0.201 C 
ENDBRANCH  32  33
ENDBRANCH  31  32
ENDBRANCH  29  31
ENDBRANCH  26  27
ENDBRANCH  21  26
ENDBRANCH  20  21
ENDBRANCH  19  20
ENDBRANCH   1  19
BRANCH   1  35
ATOM     35  C29 ZIN A   1      18.394  -0.462   6.494  0.00  0.00     0.347 C 
BRANCH  35  36
ATOM     36  C30 ZIN A   1      19.090  -0.550   5.161  0.00  0.00     0.199 C 
ATOM     37  O31 ZIN A   1      19.892  -1.445   4.949  0.00  0.00    -0.647 OA
ATOM     38  O32 ZIN A   1      18.851   0.273   4.293  0.00  0.00    -0.647 OA
ENDBRANCH  35  36
ENDBRANCH   1  35
TORSDOF 22
ENDMDL
MODEL 2
REMARK VINA RESULT:      -5.7      1.926      5.403
REMARK  22 active torsions:
REMARK  status: ('A' for Active; 'I' for Inactive)
REMARK    1  A    between atoms: O2_2  and  C3_3 
REMARK    2  A    between atoms: C3_3  and  C4_4 
REMARK    3  A    between atoms: C4_4  and  N5_5 
REMARK       I    between atoms: N5_5  and  C6_6 
REMARK    4  A    between atoms: C6_6  and  C8_8 
REMARK    5  A    between atoms: C8_8  and  N9_9 
REMARK    6  A    between atoms: N9_9  and  C10_10 
REMARK    7  A    between atoms: N9_9  and  C33_33 
REMARK    8  A    between atoms: C10_10  and  C11_11 
REMARK    9  A    between atoms: C11_11  and  N12_12 
REMARK   10  A    between atoms: N12_12  and  C14_14 
REMARK   11  A    between atoms: N12_12  and  C29_29 
REMARK   12  A    between atoms: C14_14  and  C15_15 
REMARK   13  A    between atoms: C15_15  and  N16_16 
REMARK   14  A    between atoms: N16_16  and  C17_17 
REMARK   15  A    between atoms: N16_16  and  C21_21 
REMARK   16  A    between atoms: C17_17  and  C18_18 
REMARK   17  A    between atoms: C21_21  and  C22_22 
REMARK       I    between atoms: C22_22  and  N24_24 
REMARK   18  A    between atoms: N24_24  and  C25_25 
REMARK   19  A    between atoms: C25_25  and  C26_26 
REMARK   20  A    between atoms: C26_26  and  O27_27 
REMARK   21  A    between atoms: C29_29  and  C30_30 
REMARK   22  A    between atoms: C33_33  and  C34_34 
ROOT
ATOM      1  N12 ZIN A   1      17.625  -2.787  11.421  0.00  0.00    -0.058 N 
ATOM      2  H13 ZIN A   1      16.700  -3.041  11.738  0.00  0.00     0.280 HD
ENDROOT
BRANCH   1   3
ATOM      3  C11 ZIN A   1      18.084  -1.597  12.151  0.00  0.00     0.265 C 
BRANCH   3   4
ATOM      4  C10 ZIN A   1      18.846  -2.031  13.405  0.00  0.00     0.301 C 
BRANCH   4   5
ATOM      5  N9  ZIN A   1      18.780  -0.963  14.411  0.00  0.00     0.108 N 
BRANCH   5   6
ATOM      6  C8  ZIN A   1      19.513   0.229  13.962  0.00  0.00     0.375 C 
BRANCH   6   7
ATOM      7  C6  ZIN A   1      18.826   1.466  14.481  0.00  0.00     0.246 C 
ATOM      8  N5  ZIN A   1      19.549   2.442  15.067  0.00  0.00    -0.358 N 
ATOM      9  H44 ZIN A   1      20.510   2.347  15.155  0.00  0.00     0.162 HD
ATOM     10  O7  ZIN A   1      17.625   1.584  14.372  0.00  0.00    -0.272 OA
BRANCH   8  11
ATOM     11  C4  ZIN A   1      18.881   3.644  15.573  0.00  0.00     0.148 C 
BRANCH  11  12
ATOM     12  C3  ZIN A   1      19.814   4.375  16.542  0.00  0.00     0.186 C 
BRANCH  12  13
ATOM     13  O2  ZIN A   1      19.987   5.726  16.109  0.00  0.00    -0.394 OA
ATOM     14  C1  ZIN A   1      21.148   5.933  15.303  0.00  0.00     0.201 C 
ENDBRANCH  12  13
ENDBRANCH  11  12
ENDBRANCH   8  11
ENDBRANCH   6   7
ENDBRANCH   5   6
BRANCH   5  15
ATOM     15  C33 ZIN A   1      19.282  -1.431  15.709  0.00  0.00     0.385 C 
BRANCH  15  16
ATOM     16  C34 ZIN A   1      18.377  -0.934  16.807  0.00  0.00     0.202 C 
ATOM     17  O35 ZIN A   1      17.173  -1.112  16.731  0.00  0.00    -0.647 OA
ATOM     18  O36 ZIN A   1      18.847  -0.354  17.770  0.00  0.00    -0.647 OA
ENDBRANCH  15  16
ENDBRANCH   5  15
ENDBRANCH   4   5
ENDBRANCH   3   4
ENDBRANCH   1   3
BRANCH   1  19
ATOM     19  C14 ZIN A   1      17.586  -2.495   9.982  0.00  0.00     0.265 C 
BRANCH  19  20
ATOM     20  C15 ZIN A   1      18.871  -1.772   9.573  0.00  0.00     0.301 C 
BRANCH  20  21
ATOM     21  N16 ZIN A   1      18.798  -1.410   8.152  0.00  0.00     0.108 N 
BRANCH  21  22
ATOM     22  C17 ZIN A   1      18.480  -2.582   7.325  0.00  0.00     0.385 C 
BRANCH  22  23
ATOM     23  C18 ZIN A   1      19.579  -2.799   6.317  0.00  0.00     0.202 C 
ATOM     24  O19 ZIN A   1      20.374  -3.710   6.468  0.00  0.00    -0.647 OA
ATOM     25  O20 ZIN A   1      19.674  -2.061   5.351  0.00  0.00    -0.647 OA
ENDBRANCH  22  23
ENDBRANCH  21  22
BRANCH  21  26
ATOM     26  C21 ZIN A   1      17.825  -0.331   7.933  0.00  0.00     0.375 C 
BRANCH  26  27
ATOM     27  C22 ZIN A   1      18.384   0.964   8.464  0.00  0.00     0.246 C 
ATOM     28  O23 ZIN A   1      19.271   1.532   7.865  0.00  0.00    -0.272 OA
ATOM     29  N24 ZIN A   1      17.896   1.491   9.605  0.00  0.00    -0.358 N 
ATOM     30  H59 ZIN A   1      17.185   1.037  10.084  0.00  0.00     0.162 HD
BRANCH  29  31
ATOM     31  C25 ZIN A   1      18.438   2.750  10.121  0.00  0.00     0.148 C 
BRANCH  31  32
ATOM     32  C26 ZIN A   1      17.635   3.187  11.347  0.00  0.00     0.186 C 
BRANCH  32  33
ATOM     33  O27 ZIN A   1      16.707   4.206  10.970  0.00  0.00    -0.394 OA
ATOM     34  C28 ZIN A   1      16.682   5.328  11.855  0.00  0.00     0.201 C 
ENDBRANCH  32  33
ENDBRANCH  31  32
ENDBRANCH  29  31
ENDBRANCH  26  27
ENDBRANCH  21  26
ENDBRANCH  20  21
ENDBRANCH  19  20
ENDBRANCH   1  19
BRANCH   1  35
ATOM     35  C29 ZIN A   1      18.550  -3.901  11.670  0.00  0.00     0.347 C 
BRANCH  35  36
ATOM     36  C30 ZIN A   1      17.782  -5.197  11.693  0.00  0.00     0.199 C 
ATOM     37  O31 ZIN A   1      17.675  -5.862  10.677  0.00  0.00    -0.647 OA
ATOM     38  O32 ZIN A   1      17.267  -5.581  12.730  0.00  0.00    -0.647 OA
ENDBRANCH  35  36
ENDBRANCH   1  35
TORSDOF 22
ENDMDL
MODEL 3
REMARK VINA RESULT:      -5.6      2.403      4.979
REMARK  22 active torsions:
REMARK  status: ('A' for Active; 'I' for Inactive)
REMARK    1  A    between atoms: O2_2  and  C3_3 
REMARK    2  A    between atoms: C3_3  and  C4_4 
REMARK    3  A    between atoms: C4_4  and  N5_5 
REMARK       I    between atoms: N5_5  and  C6_6 
REMARK    4  A    between atoms: C6_6  and  C8_8 
REMARK    5  A    between atoms: C8_8  and  N9_9 
REMARK    6  A    between atoms: N9_9  and  C10_10 
REMARK    7  A    between atoms: N9_9  and  C33_33 
REMARK    8  A    between atoms: C10_10  and  C11_11 
REMARK    9  A    between atoms: C11_11  and  N12_12 
REMARK   10  A    between atoms: N12_12  and  C14_14 
REMARK   11  A    between atoms: N12_12  and  C29_29 
REMARK   12  A    between atoms: C14_14  and  C15_15 
REMARK   13  A    between atoms: C15_15  and  N16_16 
REMARK   14  A    between atoms: N16_16  and  C17_17 
REMARK   15  A    between atoms: N16_16  and  C21_21 
REMARK   16  A    between atoms: C17_17  and  C18_18 
REMARK   17  A    between atoms: C21_21  and  C22_22 
REMARK       I    between atoms: C22_22  and  N24_24 
REMARK   18  A    between atoms: N24_24  and  C25_25 
REMARK   19  A    between atoms: C25_25  and  C26_26 
REMARK   20  A    between atoms: C26_26  and  O27_27 
REMARK   21  A    between atoms: C29_29  and  C30_30 
REMARK   22  A    between atoms: C33_33  and  C34_34 
ROOT
ATOM      1  N12 ZIN A   1      19.306  -1.139   7.339  0.00  0.00    -0.058 N 
ATOM      2  H13 ZIN A   1      20.269  -1.286   7.076  0.00  0.00     0.280 HD
ENDROOT
BRANCH   1   3
ATOM      3  C11 ZIN A   1      19.247  -0.613   8.710  0.00  0.00     0.265 C 
BRANCH   3   4
ATOM      4  C10 ZIN A   1      18.569   0.759   8.701  0.00  0.00     0.301 C 
BRANCH   4   5
ATOM      5  N9  ZIN A   1      18.236   1.148  10.077  0.00  0.00     0.108 N 
BRANCH   5   6
ATOM      6  C8  ZIN A   1      19.018   2.319  10.497  0.00  0.00     0.375 C 
BRANCH   6   7
ATOM      7  C6  ZIN A   1      18.126   3.276  11.246  0.00  0.00     0.246 C 
ATOM      8  N5  ZIN A   1      18.654   4.108  12.167  0.00  0.00    -0.358 N 
ATOM      9  H44 ZIN A   1      19.607   4.090  12.347  0.00  0.00     0.162 HD
ATOM     10  O7  ZIN A   1      16.936   3.297  11.022  0.00  0.00    -0.272 OA
BRANCH   8  11
ATOM     11  C4  ZIN A   1      17.787   5.037  12.896  0.00  0.00     0.148 C 
BRANCH  11  12
ATOM     12  C3  ZIN A   1      17.739   4.636  14.372  0.00  0.00     0.186 C 
BRANCH  12  13
ATOM     13  O2  ZIN A   1      17.730   5.811  15.186  0.00  0.00    -0.394 OA
ATOM     14  C1  ZIN A   1      18.995   6.120  15.774  0.00  0.00     0.201 C 
ENDBRANCH  12  13
ENDBRANCH  11  12
ENDBRANCH   8  11
ENDBRANCH   6   7
ENDBRANCH   5   6
BRANCH   5  15
ATOM     15  C33 ZIN A   1      18.431   0.025  11.004  0.00  0.00     0.385 C 
BRANCH  15  16
ATOM     16  C34 ZIN A   1      17.090  -0.499  11.448  0.00  0.00     0.202 C 
ATOM     17  O35 ZIN A   1      16.989  -1.642  11.861  0.00  0.00    -0.647 OA
ATOM     18  O36 ZIN A   1      16.106   0.218  11.393  0.00  0.00    -0.647 OA
ENDBRANCH  15  16
ENDBRANCH   5  15
ENDBRANCH   4   5
ENDBRANCH   3   4
ENDBRANCH   1   3
BRANCH   1  19
ATOM     19  C14 ZIN A   1      18.581  -2.415   7.273  0.00  0.00     0.265 C 
BRANCH  19  20
ATOM     20  C15 ZIN A   1      18.163  -2.839   8.682  0.00  0.00     0.301 C 
BRANCH  20  21
ATOM     21  N16 ZIN A   1      18.079  -4.304   8.748  0.00  0.00     0.108 N 
BRANCH  21  22
ATOM     22  C17 ZIN A   1      19.287  -4.873   9.362  0.00  0.00     0.385 C 
BRANCH  22  23
ATOM     23  C18 ZIN A   1      19.881  -5.905   8.438  0.00  0.00     0.202 C 
ATOM     24  O19 ZIN A   1      21.065  -5.856   8.150  0.00  0.00    -0.647 OA
ATOM     25  O20 ZIN A   1      19.178  -6.788   7.977  0.00  0.00    -0.647 OA
ENDBRANCH  22  23
ENDBRANCH  21  22
BRANCH  21  26
ATOM     26  C21 ZIN A   1      16.872  -4.730   9.468  0.00  0.00     0.375 C 
BRANCH  26  27
ATOM     27  C22 ZIN A   1      15.929  -5.409   8.509  0.00  0.00     0.246 C 
ATOM     28  O23 ZIN A   1      14.808  -5.701   8.866  0.00  0.00    -0.272 OA
ATOM     29  N24 ZIN A   1      16.331  -5.692   7.254  0.00  0.00    -0.358 N 
ATOM     30  H59 ZIN A   1      17.228  -5.459   6.968  0.00  0.00     0.162 HD
BRANCH  29  31
ATOM     31  C25 ZIN A   1      15.415  -6.352   6.322  0.00  0.00     0.148 C 
BRANCH  31  32
ATOM     32  C26 ZIN A   1      16.203  -7.298   5.414  0.00  0.00     0.186 C 
BRANCH  32  33
ATOM     33  O27 ZIN A   1      16.458  -6.656   4.163  0.00  0.00    -0.394 OA
ATOM     34  C28 ZIN A   1      15.712  -7.195   3.069  0.00  0.00     0.201 C 
ENDBRANCH  32  33
ENDBRANCH  31  32
ENDBRANCH  29  31
ENDBRANCH  26  27
ENDBRANCH  21  26
ENDBRANCH  20  21
ENDBRANCH  19  20
ENDBRANCH   1  19
BRANCH   1  35
ATOM     35  C29 ZIN A   1      18.687  -0.176   6.418  0.00  0.00     0.347 C 
BRANCH  35  36
ATOM     36  C30 ZIN A   1      18.915  -0.622   4.997  0.00  0.00     0.199 C 
ATOM     37  O31 ZIN A   1      20.051  -0.785   4.584  0.00  0.00    -0.647 OA
ATOM     38  O32 ZIN A   1      17.964  -0.819   4.260  0.00  0.00    -0.647 OA
ENDBRANCH  35  36
ENDBRANCH   1  35
TORSDOF 22
ENDMDL
MODEL 4
REMARK VINA RESULT:      -5.6      2.500      5.354
REMARK  22 active torsions:
REMARK  status: ('A' for Active; 'I' for Inactive)
REMARK    1  A    between atoms: O2_2  and  C3_3 
REMARK    2  A    between atoms: C3_3  and  C4_4 
REMARK    3  A    between atoms: C4_4  and  N5_5 
REMARK       I    between atoms: N5_5  and  C6_6 
REMARK    4  A    between atoms: C6_6  and  C8_8 
REMARK    5  A    between atoms: C8_8  and  N9_9 
REMARK    6  A    between atoms: N9_9  and  C10_10 
REMARK    7  A    between atoms: N9_9  and  C33_33 
REMARK    8  A    between atoms: C10_10  and  C11_11 
REMARK    9  A    between atoms: C11_11  and  N12_12 
REMARK   10  A    between atoms: N12_12  and  C14_14 
REMARK   11  A    between atoms: N12_12  and  C29_29 
REMARK   12  A    between atoms: C14_14  and  C15_15 
REMARK   13  A    between atoms: C15_15  and  N16_16 
REMARK   14  A    between atoms: N16_16  and  C17_17 
REMARK   15  A    between atoms: N16_16  and  C21_21 
REMARK   16  A    between atoms: C17_17  and  C18_18 
REMARK   17  A    between atoms: C21_21  and  C22_22 
REMARK       I    between atoms: C22_22  and  N24_24 
REMARK   18  A    between atoms: N24_24  and  C25_25 
REMARK   19  A    between atoms: C25_25  and  C26_26 
REMARK   20  A    between atoms: C26_26  and  O27_27 
REMARK   21  A    between atoms: C29_29  and  C30_30 
REMARK   22  A    between atoms: C33_33  and  C34_34 
ROOT
ATOM      1  N12 ZIN A   1      18.943  -0.803   7.928  0.00  0.00    -0.058 N 
ATOM      2  H13 ZIN A   1      19.629  -0.551   7.231  0.00  0.00     0.280 HD
ENDROOT
BRANCH   1   3
ATOM      3  C11 ZIN A   1      19.068   0.093   9.085  0.00  0.00     0.265 C 
BRANCH   3   4
ATOM      4  C10 ZIN A   1      20.100  -0.476  10.062  0.00  0.00     0.301 C 
BRANCH   4   5
ATOM      5  N9  ZIN A   1      19.545  -0.463  11.422  0.00  0.00     0.108 N 
BRANCH   5   6
ATOM      6  C8  ZIN A   1      20.307   0.440  12.293  0.00  0.00     0.375 C 
BRANCH   6   7
ATOM      7  C6  ZIN A   1      19.354   1.293  13.089  0.00  0.00     0.246 C 
ATOM      8  N5  ZIN A   1      19.552   1.470  14.411  0.00  0.00    -0.358 N 
ATOM      9  H44 ZIN A   1      20.307   1.048  14.849  0.00  0.00     0.162 HD
ATOM     10  O7  ZIN A   1      18.410   1.820  12.542  0.00  0.00    -0.272 OA
BRANCH   8  11
ATOM     11  C4  ZIN A   1      18.624   2.299  15.186  0.00  0.00     0.148 C 
BRANCH  11  12
ATOM     12  C3  ZIN A   1      18.889   2.100  16.680  0.00  0.00     0.186 C 
BRANCH  12  13
ATOM     13  O2  ZIN A   1      19.365   0.772  16.907  0.00  0.00    -0.394 OA
ATOM     14  C1  ZIN A   1      18.753   0.118  18.020  0.00  0.00     0.201 C 
ENDBRANCH  12  13
ENDBRANCH  11  12
ENDBRANCH   8  11
ENDBRANCH   6   7
ENDBRANCH   5   6
BRANCH   5  15
ATOM     15  C33 ZIN A   1      19.498  -1.820  11.983  0.00  0.00     0.385 C 
BRANCH  15  16
ATOM     16  C34 ZIN A   1      18.067  -2.290  12.043  0.00  0.00     0.202 C 
ATOM     17  O35 ZIN A   1      17.820  -3.482  12.123  0.00  0.00    -0.647 OA
ATOM     18  O36 ZIN A   1      17.158  -1.480  12.012  0.00  0.00    -0.647 OA
ENDBRANCH  15  16
ENDBRANCH   5  15
ENDBRANCH   4   5
ENDBRANCH   3   4
ENDBRANCH   1   3
BRANCH   1  19
ATOM     19  C14 ZIN A   1      19.169  -2.190   8.356  0.00  0.00     0.265 C 
BRANCH  19  20
ATOM     20  C15 ZIN A   1      17.822  -2.883   8.570  0.00  0.00     0.301 C 
BRANCH  20  21
ATOM     21  N16 ZIN A   1      17.994  -4.337   8.449  0.00  0.00     0.108 N 
BRANCH  21  22
ATOM     22  C17 ZIN A   1      19.333  -4.748   8.894  0.00  0.00     0.385 C 
BRANCH  22  23
ATOM     23  C18 ZIN A   1      19.972  -5.608   7.834  0.00  0.00     0.202 C 
ATOM     24  O19 ZIN A   1      19.288  -6.100   6.953  0.00  0.00    -0.647 OA
ATOM     25  O20 ZIN A   1      21.173  -5.814   7.859  0.00  0.00    -0.647 OA
ENDBRANCH  22  23
ENDBRANCH  21  22
BRANCH  21  26
ATOM     26  C21 ZIN A   1      16.949  -5.054   9.192  0.00  0.00     0.375 C 
BRANCH  26  27
ATOM     27  C22 ZIN A   1      15.882  -5.519   8.234  0.00  0.00     0.246 C 
ATOM     28  O23 ZIN A   1      14.764  -5.756   8.641  0.00  0.00    -0.272 OA
ATOM     29  N24 ZIN A   1      16.169  -5.671   6.926  0.00  0.00    -0.358 N 
ATOM     30  H59 ZIN A   1      17.063  -5.482   6.600  0.00  0.00     0.162 HD
BRANCH  29  31
ATOM     31  C25 ZIN A   1      15.132  -6.123   5.996  0.00  0.00     0.148 C 
BRANCH  31  32
ATOM     32  C26 ZIN A   1      15.634  -5.970   4.559  0.00  0.00     0.186 C 
BRANCH  32  33
ATOM     33  O27 ZIN A   1      15.228  -4.700   4.045  0.00  0.00    -0.394 OA
ATOM     34  C28 ZIN A   1      16.258  -4.000   3.341  0.00  0.00     0.201 C 
ENDBRANCH  32  33
ENDBRANCH  31  32
ENDBRANCH  29  31
ENDBRANCH  26  27
ENDBRANCH  21  26
ENDBRANCH  20  21
ENDBRANCH  19  20
ENDBRANCH   1  19
BRANCH   1  35
ATOM     35  C29 ZIN A   1      17.596  -0.680   7.356  0.00  0.00     0.347 C 
BRANCH  35  36
ATOM     36  C30 ZIN A   1      17.701  -0.321   5.896  0.00  0.00     0.199 C 
ATOM     37  O31 ZIN A   1      17.291  -1.094   5.046  0.00  0.00    -0.647 OA
ATOM     38  O32 ZIN A   1      18.195   0.744   5.565  0.00  0.00    -0.647 OA
ENDBRANCH  35  36
ENDBRANCH   1  35
TORSDOF 22
ENDMDL
MODEL 5
REMARK VINA RESULT:      -5.5      2.426      7.716
REMARK  22 active torsions:
REMARK  status: ('A' for Active; 'I' for Inactive)
REMARK    1  A    between atoms: O2_2  and  C3_3 
REMARK    2  A    between atoms: C3_3  and  C4_4 
REMARK    3  A    between atoms: C4_4  and  N5_5 
REMARK       I    between atoms: N5_5  and  C6_6 
REMARK    4  A    between atoms: C6_6  and  C8_8 
REMARK    5  A    between atoms: C8_8  and  N9_9 
REMARK    6  A    between atoms: N9_9  and  C10_10 
REMARK    7  A    between atoms: N9_9  and  C33_33 
REMARK    8  A    between atoms: C10_10  and  C11_11 
REMARK    9  A    between atoms: C11_11  and  N12_12 
REMARK   10  A    between atoms: N12_12  and  C14_14 
REMARK   11  A    between atoms: N12_12  and  C29_29 
REMARK   12  A    between atoms: C14_14  and  C15_15 
REMARK   13  A    between atoms: C15_15  and  N16_16 
REMARK   14  A    between atoms: N16_16  and  C17_17 
REMARK   15  A    between atoms: N16_16  and  C21_21 
REMARK   16  A    between atoms: C17_17  and  C18_18 
REMARK   17  A    between atoms: C21_21  and  C22_22 
REMARK       I    between atoms: C22_22  and  N24_24 
REMARK   18  A    between atoms: N24_24  and  C25_25 
REMARK   19  A    between atoms: C25_25  and  C26_26 
REMARK   20  A    between atoms: C26_26  and  O27_27 
REMARK   21  A    between atoms: C29_29  and  C30_30 
REMARK   22  A    between atoms: C33_33  and  C34_34 
ROOT
ATOM      1  N12 ZIN A   1      18.150  -0.841   7.354  0.00  0.00    -0.058 N 
ATOM      2  H13 ZIN A   1      17.372  -1.333   6.938  0.00  0.00     0.280 HD
ENDROOT
BRANCH   1   3
ATOM      3  C11 ZIN A   1      19.114  -1.812   7.889  0.00  0.00     0.265 C 
BRANCH   3   4
ATOM      4  C10 ZIN A   1      18.474  -2.580   9.048  0.00  0.00     0.301 C 
BRANCH   4   5
ATOM      5  N9  ZIN A   1      18.333  -3.994   8.679  0.00  0.00     0.108 N 
BRANCH   5   6
ATOM      6  C8  ZIN A   1      17.108  -4.568   9.252  0.00  0.00     0.375 C 
BRANCH   6   7
ATOM      7  C6  ZIN A   1      16.485  -5.515   8.258  0.00  0.00     0.246 C 
ATOM      8  N5  ZIN A   1      16.640  -5.301   6.936  0.00  0.00    -0.358 N 
ATOM      9  H44 ZIN A   1      17.151  -4.538   6.625  0.00  0.00     0.162 HD
ATOM     10  O7  ZIN A   1      15.845  -6.467   8.648  0.00  0.00    -0.272 OA
BRANCH   8  11
ATOM     11  C4  ZIN A   1      16.033  -6.221   5.970  0.00  0.00     0.148 C 
BRANCH  11  12
ATOM     12  C3  ZIN A   1      15.915  -5.527   4.611  0.00  0.00     0.186 C 
BRANCH  12  13
ATOM     13  O2  ZIN A   1      14.536  -5.301   4.309  0.00  0.00    -0.394 OA
ATOM     14  C1  ZIN A   1      13.790  -6.497   4.072  0.00  0.00     0.201 C 
ENDBRANCH  12  13
ENDBRANCH  11  12
ENDBRANCH   8  11
ENDBRANCH   6   7
ENDBRANCH   5   6
BRANCH   5  15
ATOM     15  C33 ZIN A   1      19.516  -4.765   9.087  0.00  0.00     0.385 C 
BRANCH  15  16
ATOM     16  C34 ZIN A   1      20.195  -5.327   7.864  0.00  0.00     0.202 C 
ATOM     17  O35 ZIN A   1      19.729  -5.117   6.757  0.00  0.00    -0.647 OA
ATOM     18  O36 ZIN A   1      21.209  -5.992   7.982  0.00  0.00    -0.647 OA
ENDBRANCH  15  16
ENDBRANCH   5  15
ENDBRANCH   4   5
ENDBRANCH   3   4
ENDBRANCH   1   3
BRANCH   1  19
ATOM     19  C14 ZIN A   1      17.661   0.015   8.443  0.00  0.00     0.265 C 
BRANCH  19  20
ATOM     20  C15 ZIN A   1      18.631   1.178   8.653  0.00  0.00     0.301 C 
BRANCH  20  21
ATOM     21  N16 ZIN A   1      18.606   1.589  10.063  0.00  0.00     0.108 N 
BRANCH  21  22
ATOM     22  C17 ZIN A   1      17.937   2.888  10.222  0.00  0.00     0.385 C 
BRANCH  22  23
ATOM     23  C18 ZIN A   1      18.337   3.501  11.539  0.00  0.00     0.202 C 
ATOM     24  O19 ZIN A   1      19.511   3.726  11.776  0.00  0.00    -0.647 OA
ATOM     25  O20 ZIN A   1      17.485   3.770  12.369  0.00  0.00    -0.647 OA
ENDBRANCH  22  23
ENDBRANCH  21  22
BRANCH  21  26
ATOM     26  C21 ZIN A   1      17.969   0.563  10.899  0.00  0.00     0.375 C 
BRANCH  26  27
ATOM     27  C22 ZIN A   1      18.975   0.019  11.880  0.00  0.00     0.246 C 
ATOM     28  O23 ZIN A   1      20.149  -0.028  11.582  0.00  0.00    -0.272 OA
ATOM     29  N24 ZIN A   1      18.569  -0.415  13.091  0.00  0.00    -0.358 N 
ATOM     30  H59 ZIN A   1      17.630  -0.378  13.330  0.00  0.00     0.162 HD
BRANCH  29  31
ATOM     31  C25 ZIN A   1      19.547  -0.944  14.045  0.00  0.00     0.148 C 
BRANCH  31  32
ATOM     32  C26 ZIN A   1      18.839  -1.308  15.351  0.00  0.00     0.186 C 
BRANCH  32  33
ATOM     33  O27 ZIN A   1      19.069  -0.284  16.320  0.00  0.00    -0.394 OA
ATOM     34  C28 ZIN A   1      17.897   0.453  16.677  0.00  0.00     0.201 C 
ENDBRANCH  32  33
ENDBRANCH  31  32
ENDBRANCH  29  31
ENDBRANCH  26  27
ENDBRANCH  21  26
ENDBRANCH  20  21
ENDBRANCH  19  20
ENDBRANCH   1  19
BRANCH   1  35
ATOM     35  C29 ZIN A   1      18.806  -0.010   6.335  0.00  0.00     0.347 C 
BRANCH  35  36
ATOM     36  C30 ZIN A   1      18.876  -0.770   5.036  0.00  0.00     0.199 C 
ATOM     37  O31 ZIN A   1      19.959  -1.044   4.547  0.00  0.00    -0.647 OA
ATOM     38  O32 ZIN A   1      17.849  -1.111   4.474  0.00  0.00    -0.647 OA
ENDBRANCH  35  36
ENDBRANCH   1  35
TORSDOF 22
ENDMDL
MODEL 6
REMARK VINA RESULT:      -5.5      2.793      9.181
REMARK  22 active torsions:
REMARK  status: ('A' for Active; 'I' for Inactive)
REMARK    1  A    between atoms: O2_2  and  C3_3 
REMARK    2  A    between atoms: C3_3  and  C4_4 
REMARK    3  A    between atoms: C4_4  and  N5_5 
REMARK       I    between atoms: N5_5  and  C6_6 
REMARK    4  A    between atoms: C6_6  and  C8_8 
REMARK    5  A    between atoms: C8_8  and  N9_9 
REMARK    6  A    between atoms: N9_9  and  C10_10 
REMARK    7  A    between atoms: N9_9  and  C33_33 
REMARK    8  A    between atoms: C10_10  and  C11_11 
REMARK    9  A    between atoms: C11_11  and  N12_12 
REMARK   10  A    between atoms: N12_12  and  C14_14 
REMARK   11  A    between atoms: N12_12  and  C29_29 
REMARK   12  A    between atoms: C14_14  and  C15_15 
REMARK   13  A    between atoms: C15_15  and  N16_16 
REMARK   14  A    between atoms: N16_16  and  C17_17 
REMARK   15  A    between atoms: N16_16  and  C21_21 
REMARK   16  A    between atoms: C17_17  and  C18_18 
REMARK   17  A    between atoms: C21_21  and  C22_22 
REMARK       I    between atoms: C22_22  and  N24_24 
REMARK   18  A    between atoms: N24_24  and  C25_25 
REMARK   19  A    between atoms: C25_25  and  C26_26 
REMARK   20  A    between atoms: C26_26  and  O27_27 
REMARK   21  A    between atoms: C29_29  and  C30_30 
REMARK   22  A    between atoms: C33_33  and  C34_34 
ROOT
ATOM      1  N12 ZIN A   1      19.453   2.359  15.943  0.00  0.00    -0.058 N 
ATOM      2  H13 ZIN A   1      20.369   1.940  16.004  0.00  0.00     0.280 HD
ENDROOT
BRANCH   1   3
ATOM      3  C11 ZIN A   1      18.985   2.315  14.551  0.00  0.00     0.265 C 
BRANCH   3   4
ATOM      4  C10 ZIN A   1      18.050   1.118  14.366  0.00  0.00     0.301 C 
BRANCH   4   5
ATOM      5  N9  ZIN A   1      18.445   0.370  13.166  0.00  0.00     0.108 N 
BRANCH   5   6
ATOM      6  C8  ZIN A   1      17.424  -0.622  12.803  0.00  0.00     0.375 C 
BRANCH   6   7
ATOM      7  C6  ZIN A   1      16.891  -0.315  11.428  0.00  0.00     0.246 C 
ATOM      8  N5  ZIN A   1      17.668  -0.515  10.344  0.00  0.00    -0.358 N 
ATOM      9  H44 ZIN A   1      18.570  -0.856  10.450  0.00  0.00     0.162 HD
ATOM     10  O7  ZIN A   1      15.764   0.111  11.295  0.00  0.00    -0.272 OA
BRANCH   8  11
ATOM     11  C4  ZIN A   1      17.150  -0.216   9.007  0.00  0.00     0.148 C 
BRANCH  11  12
ATOM     12  C3  ZIN A   1      18.320  -0.011   8.041  0.00  0.00     0.186 C 
BRANCH  12  13
ATOM     13  O2  ZIN A   1      18.277  -1.011   7.021  0.00  0.00    -0.394 OA
ATOM     14  C1  ZIN A   1      19.295  -2.007   7.140  0.00  0.00     0.201 C 
ENDBRANCH  12  13
ENDBRANCH  11  12
ENDBRANCH   8  11
ENDBRANCH   6   7
ENDBRANCH   5   6
BRANCH   5  15
ATOM     15  C33 ZIN A   1      19.756  -0.267  13.351  0.00  0.00     0.385 C 
BRANCH  15  16
ATOM     16  C34 ZIN A   1      20.613  -0.016  12.136  0.00  0.00     0.202 C 
ATOM     17  O35 ZIN A   1      21.444   0.876  12.151  0.00  0.00    -0.647 OA
ATOM     18  O36 ZIN A   1      20.474  -0.704  11.140  0.00  0.00    -0.647 OA
ENDBRANCH  15  16
ENDBRANCH   5  15
ENDBRANCH   4   5
ENDBRANCH   3   4
ENDBRANCH   1   3
BRANCH   1  19
ATOM     19  C14 ZIN A   1      19.524   3.756  16.392  0.00  0.00     0.265 C 
BRANCH  19  20
ATOM     20  C15 ZIN A   1      18.441   4.011  17.442  0.00  0.00     0.301 C 
BRANCH  20  21
ATOM     21  N16 ZIN A   1      17.554   5.088  16.980  0.00  0.00     0.108 N 
BRANCH  21  22
ATOM     22  C17 ZIN A   1      17.326   6.074  18.044  0.00  0.00     0.385 C 
BRANCH  22  23
ATOM     23  C18 ZIN A   1      15.864   6.086  18.412  0.00  0.00     0.202 C 
ATOM     24  O19 ZIN A   1      15.250   7.139  18.438  0.00  0.00    -0.647 OA
ATOM     25  O20 ZIN A   1      15.297   5.043  18.686  0.00  0.00    -0.647 OA
ENDBRANCH  22  23
ENDBRANCH  21  22
BRANCH  21  26
ATOM     26  C21 ZIN A   1      18.091   5.730  15.773  0.00  0.00     0.375 C 
BRANCH  26  27
ATOM     27  C22 ZIN A   1      17.041   5.724  14.692  0.00  0.00     0.246 C 
ATOM     28  O23 ZIN A   1      15.918   6.110  14.936  0.00  0.00    -0.272 OA
ATOM     29  N24 ZIN A   1      17.351   5.290  13.453  0.00  0.00    -0.358 N 
ATOM     30  H59 ZIN A   1      18.249   4.981  13.258  0.00  0.00     0.162 HD
BRANCH  29  31
ATOM     31  C25 ZIN A   1      16.330   5.285  12.403  0.00  0.00     0.148 C 
BRANCH  31  32
ATOM     32  C26 ZIN A   1      16.962   4.852  11.079  0.00  0.00     0.186 C 
BRANCH  32  33
ATOM     33  O27 ZIN A   1      17.137   3.434  11.076  0.00  0.00    -0.394 OA
ATOM     34  C28 ZIN A   1      18.424   3.007  10.623  0.00  0.00     0.201 C 
ENDBRANCH  32  33
ENDBRANCH  31  32
ENDBRANCH  29  31
ENDBRANCH  26  27
ENDBRANCH  21  26
ENDBRANCH  20  21
ENDBRANCH  19  20
ENDBRANCH   1  19
BRANCH   1  35
ATOM     35  C29 ZIN A   1      18.517   1.617  16.798  0.00  0.00     0.347 C 
BRANCH  35  36
ATOM     36  C30 ZIN A   1      19.279   0.614  17.625  0.00  0.00     0.199 C 
ATOM     37  O31 ZIN A   1      19.188  -0.577  17.376  0.00  0.00    -0.647 OA
ATOM     38  O32 ZIN A   1      19.987   0.993  18.543  0.00  0.00    -0.647 OA
ENDBRANCH  35  36
ENDBRANCH   1  35
TORSDOF 22
ENDMDL
MODEL 7
REMARK VINA RESULT:      -5.5      2.390      6.685
REMARK  22 active torsions:
REMARK  status: ('A' for Active; 'I' for Inactive)
REMARK    1  A    between atoms: O2_2  and  C3_3 
REMARK    2  A    between atoms: C3_3  and  C4_4 
REMARK    3  A    between atoms: C4_4  and  N5_5 
REMARK       I    between atoms: N5_5  and  C6_6 
REMARK    4  A    between atoms: C6_6  and  C8_8 
REMARK    5  A    between atoms: C8_8  and  N9_9 
REMARK    6  A    between atoms: N9_9  and  C10_10 
REMARK    7  A    between atoms: N9_9  and  C33_33 
REMARK    8  A    between atoms: C10_10  and  C11_11 
REMARK    9  A    between atoms: C11_11  and  N12_12 
REMARK   10  A    between atoms: N12_12  and  C14_14 
REMARK   11  A    between atoms: N12_12  and  C29_29 
REMARK   12  A    between atoms: C14_14  and  C15_15 
REMARK   13  A    between atoms: C15_15  and  N16_16 
REMARK   14  A    between atoms: N16_16  and  C17_17 
REMARK   15  A    between atoms: N16_16  and  C21_21 
REMARK   16  A    between atoms: C17_17  and  C18_18 
REMARK   17  A    between atoms: C21_21  and  C22_22 
REMARK       I    between atoms: C22_22  and  N24_24 
REMARK   18  A    between atoms: N24_24  and  C25_25 
REMARK   19  A    between atoms: C25_25  and  C26_26 
REMARK   20  A    between atoms: C26_26  and  O27_27 
REMARK   21  A    between atoms: C29_29  and  C30_30 
REMARK   22  A    between atoms: C33_33  and  C34_34 
ROOT
ATOM      1  N12 ZIN A   1      17.878   0.017  14.558  0.00  0.00    -0.058 N 
ATOM      2  H13 ZIN A   1      17.060  -0.344  15.026  0.00  0.00     0.280 HD
ENDROOT
BRANCH   1   3
ATOM      3  C11 ZIN A   1      17.838   1.486  14.561  0.00  0.00     0.265 C 
BRANCH   3   4
ATOM      4  C10 ZIN A   1      19.054   2.027  15.316  0.00  0.00     0.301 C 
BRANCH   4   5
ATOM      5  N9  ZIN A   1      18.665   3.221  16.078  0.00  0.00     0.108 N 
BRANCH   5   6
ATOM      6  C8  ZIN A   1      18.989   4.447  15.336  0.00  0.00     0.375 C 
BRANCH   6   7
ATOM      7  C6  ZIN A   1      17.759   4.942  14.621  0.00  0.00     0.246 C 
ATOM      8  N5  ZIN A   1      17.700   4.899  13.275  0.00  0.00    -0.358 N 
ATOM      9  H44 ZIN A   1      18.449   4.552  12.767  0.00  0.00     0.162 HD
ATOM     10  O7  ZIN A   1      16.822   5.377  15.255  0.00  0.00    -0.272 OA
BRANCH   8  11
ATOM     11  C4  ZIN A   1      16.504   5.381  12.579  0.00  0.00     0.148 C 
BRANCH  11  12
ATOM     12  C3  ZIN A   1      16.600   5.025  11.094  0.00  0.00     0.186 C 
BRANCH  12  13
ATOM     13  O2  ZIN A   1      17.965   4.777  10.750  0.00  0.00    -0.394 OA
ATOM     14  C1  ZIN A   1      18.167   3.576  10.003  0.00  0.00     0.201 C 
ENDBRANCH  12  13
ENDBRANCH  11  12
ENDBRANCH   8  11
ENDBRANCH   6   7
ENDBRANCH   5   6
BRANCH   5  15
ATOM     15  C33 ZIN A   1      19.296   3.227  17.405  0.00  0.00     0.385 C 
BRANCH  15  16
ATOM     16  C34 ZIN A   1      18.946   1.954  18.132  0.00  0.00     0.202 C 
ATOM     17  O35 ZIN A   1      17.779   1.684  18.362  0.00  0.00    -0.647 OA
ATOM     18  O36 ZIN A   1      19.829   1.195  18.492  0.00  0.00    -0.647 OA
ENDBRANCH  15  16
ENDBRANCH   5  15
ENDBRANCH   4   5
ENDBRANCH   3   4
ENDBRANCH   1   3
BRANCH   1  19
ATOM     19  C14 ZIN A   1      17.904  -0.469  13.173  0.00  0.00     0.265 C 
BRANCH  19  20
ATOM     20  C15 ZIN A   1      19.338  -0.426  12.642  0.00  0.00     0.301 C 
BRANCH  20  21
ATOM     21  N16 ZIN A   1      19.406  -1.129  11.354  0.00  0.00     0.108 N 
BRANCH  21  22
ATOM     22  C17 ZIN A   1      20.260  -0.404  10.403  0.00  0.00     0.385 C 
BRANCH  22  23
ATOM     23  C18 ZIN A   1      19.441   0.006   9.206  0.00  0.00     0.202 C 
ATOM     24  O19 ZIN A   1      19.778   0.968   8.537  0.00  0.00    -0.647 OA
ATOM     25  O20 ZIN A   1      18.441  -0.624   8.907  0.00  0.00    -0.647 OA
ENDBRANCH  22  23
ENDBRANCH  21  22
BRANCH  21  26
ATOM     26  C21 ZIN A   1      19.872  -2.510  11.534  0.00  0.00     0.375 C 
BRANCH  26  27
ATOM     27  C22 ZIN A   1      19.064  -3.430  10.655  0.00  0.00     0.246 C 
ATOM     28  O23 ZIN A   1      18.087  -3.992  11.102  0.00  0.00    -0.272 OA
ATOM     29  N24 ZIN A   1      19.427  -3.629   9.372  0.00  0.00    -0.358 N 
ATOM     30  H59 ZIN A   1      20.209  -3.180   9.014  0.00  0.00     0.162 HD
BRANCH  29  31
ATOM     31  C25 ZIN A   1      18.642  -4.524   8.519  0.00  0.00     0.148 C 
BRANCH  31  32
ATOM     32  C26 ZIN A   1      19.372  -5.860   8.372  0.00  0.00     0.186 C 
BRANCH  32  33
ATOM     33  O27 ZIN A   1      19.594  -6.132   6.987  0.00  0.00    -0.394 OA
ATOM     34  C28 ZIN A   1      18.506  -5.762   6.138  0.00  0.00     0.201 C 
ENDBRANCH  32  33
ENDBRANCH  31  32
ENDBRANCH  29  31
ENDBRANCH  26  27
ENDBRANCH  21  26
ENDBRANCH  20  21
ENDBRANCH  19  20
ENDBRANCH   1  19
BRANCH   1  35
ATOM     35  C29 ZIN A   1      19.085  -0.441  15.260  0.00  0.00     0.347 C 
BRANCH  35  36
ATOM     36  C30 ZIN A   1      18.690  -1.328  16.412  0.00  0.00     0.199 C 
ATOM     37  O31 ZIN A   1      19.547  -1.895  17.068  0.00  0.00    -0.647 OA
ATOM     38  O32 ZIN A   1      17.512  -1.479  16.689  0.00  0.00    -0.647 OA
ENDBRANCH  35  36
ENDBRANCH   1  35
TORSDOF 22
ENDMDL
MODEL 8
REMARK VINA RESULT:      -5.5      2.105      7.498
REMARK  22 active torsions:
REMARK  status: ('A' for Active; 'I' for Inactive)
REMARK    1  A    between atoms: O2_2  and  C3_3 
REMARK    2  A    between atoms: C3_3  and  C4_4 
REMARK    3  A    between atoms: C4_4  and  N5_5 
REMARK       I    between atoms: N5_5  and  C6_6 
REMARK    4  A    between atoms: C6_6  and  C8_8 
REMARK    5  A    between atoms: C8_8  and  N9_9 
REMARK    6  A    between atoms: N9_9  and  C10_10 
REMARK    7  A    between atoms: N9_9  and  C33_33 
REMARK    8  A    between atoms: C10_10  and  C11_11 
REMARK    9  A    between atoms: C11_11  and  N12_12 
REMARK   10  A    between atoms: N12_12  and  C14_14 
REMARK   11  A    between atoms: N12_12  and  C29_29 
REMARK   12  A    between atoms: C14_14  and  C15_15 
REMARK   13  A    between atoms: C15_15  and  N16_16 
REMARK   14  A    between atoms: N16_16  and  C17_17 
REMARK   15  A    between atoms: N16_16  and  C21_21 
REMARK   16  A    between atoms: C17_17  and  C18_18 
REMARK   17  A    between atoms: C21_21  and  C22_22 
REMARK       I    between atoms: C22_22  and  N24_24 
REMARK   18  A    between atoms: N24_24  and  C25_25 
REMARK   19  A    between atoms: C25_25  and  C26_26 
REMARK   20  A    between atoms: C26_26  and  O27_27 
REMARK   21  A    between atoms: C29_29  and  C30_30 
REMARK   22  A    between atoms: C33_33  and  C34_34 
ROOT
ATOM      1  N12 ZIN A   1      18.303  -0.343  12.544  0.00  0.00    -0.058 N 
ATOM      2  H13 ZIN A   1      19.025  -0.897  12.982  0.00  0.00     0.280 HD
ENDROOT
BRANCH   1   3
ATOM      3  C11 ZIN A   1      18.886   0.446  11.450  0.00  0.00     0.265 C 
BRANCH   3   4
ATOM      4  C10 ZIN A   1      17.773   0.907  10.505  0.00  0.00     0.301 C 
BRANCH   4   5
ATOM      5  N9  ZIN A   1      18.283   1.972   9.633  0.00  0.00     0.108 N 
BRANCH   5   6
ATOM      6  C8  ZIN A   1      19.323   1.462   8.730  0.00  0.00     0.375 C 
BRANCH   6   7
ATOM      7  C6  ZIN A   1      18.715   0.467   7.775  0.00  0.00     0.246 C 
ATOM      8  N5  ZIN A   1      19.012  -0.843   7.887  0.00  0.00    -0.358 N 
ATOM      9  H44 ZIN A   1      19.617  -1.145   8.582  0.00  0.00     0.162 HD
ATOM     10  O7  ZIN A   1      17.959   0.845   6.906  0.00  0.00    -0.272 OA
BRANCH   8  11
ATOM     11  C4  ZIN A   1      18.421  -1.810   6.958  0.00  0.00     0.148 C 
BRANCH  11  12
ATOM     12  C3  ZIN A   1      19.385  -2.051   5.794  0.00  0.00     0.186 C 
BRANCH  12  13
ATOM     13  O2  ZIN A   1      18.875  -1.427   4.614  0.00  0.00    -0.394 OA
ATOM     14  C1  ZIN A   1      17.486  -1.669   4.383  0.00  0.00     0.201 C 
ENDBRANCH  12  13
ENDBRANCH  11  12
ENDBRANCH   8  11
ENDBRANCH   6   7
ENDBRANCH   5   6
BRANCH   5  15
ATOM     15  C33 ZIN A   1      18.784   3.105  10.424  0.00  0.00     0.385 C 
BRANCH  15  16
ATOM     16  C34 ZIN A   1      17.645   4.039  10.742  0.00  0.00     0.202 C 
ATOM     17  O35 ZIN A   1      16.997   3.885  11.764  0.00  0.00    -0.647 OA
ATOM     18  O36 ZIN A   1      17.370   4.947   9.978  0.00  0.00    -0.647 OA
ENDBRANCH  15  16
ENDBRANCH   5  15
ENDBRANCH   4   5
ENDBRANCH   3   4
ENDBRANCH   1   3
BRANCH   1  19
ATOM     19  C14 ZIN A   1      17.710   0.561  13.538  0.00  0.00     0.265 C 
BRANCH  19  20
ATOM     20  C15 ZIN A   1      17.883  -0.033  14.937  0.00  0.00     0.301 C 
BRANCH  20  21
ATOM     21  N16 ZIN A   1      17.885   1.047  15.932  0.00  0.00     0.108 N 
BRANCH  21  22
ATOM     22  C17 ZIN A   1      17.786   0.508  17.295  0.00  0.00     0.385 C 
BRANCH  22  23
ATOM     23  C18 ZIN A   1      19.156   0.107  17.777  0.00  0.00     0.202 C 
ATOM     24  O19 ZIN A   1      19.586  -1.008  17.535  0.00  0.00    -0.647 OA
ATOM     25  O20 ZIN A   1      19.835   0.897  18.411  0.00  0.00    -0.647 OA
ENDBRANCH  22  23
ENDBRANCH  21  22
BRANCH  21  26
ATOM     26  C21 ZIN A   1      19.076   1.894  15.786  0.00  0.00     0.375 C 
BRANCH  26  27
ATOM     27  C22 ZIN A   1      18.687   3.341  15.948  0.00  0.00     0.246 C 
ATOM     28  O23 ZIN A   1      19.124   3.986  16.877  0.00  0.00    -0.272 OA
ATOM     29  N24 ZIN A   1      17.851   3.918  15.061  0.00  0.00    -0.358 N 
ATOM     30  H59 ZIN A   1      17.501   3.402  14.318  0.00  0.00     0.162 HD
BRANCH  29  31
ATOM     31  C25 ZIN A   1      17.473   5.324  15.219  0.00  0.00     0.148 C 
BRANCH  31  32
ATOM     32  C26 ZIN A   1      18.385   6.198  14.357  0.00  0.00     0.186 C 
BRANCH  32  33
ATOM     33  O27 ZIN A   1      18.706   7.397  15.065  0.00  0.00    -0.394 OA
ATOM     34  C28 ZIN A   1      17.720   8.426  14.946  0.00  0.00     0.201 C 
ENDBRANCH  32  33
ENDBRANCH  31  32
ENDBRANCH  29  31
ENDBRANCH  26  27
ENDBRANCH  21  26
ENDBRANCH  20  21
ENDBRANCH  19  20
ENDBRANCH   1  19
BRANCH   1  35
ATOM     35  C29 ZIN A   1      17.262  -1.230  12.007  0.00  0.00     0.347 C 
BRANCH  35  36
ATOM     36  C30 ZIN A   1      17.900  -2.489  11.477  0.00  0.00     0.199 C 
ATOM     37  O31 ZIN A   1      17.976  -2.674  10.274  0.00  0.00    -0.647 OA
ATOM     38  O32 ZIN A   1      18.340  -3.321  12.252  0.00  0.00    -0.647 OA
ENDBRANCH  35  36
ENDBRANCH   1  35
TORSDOF 22
ENDMDL
MODEL 9
REMARK VINA RESULT:      -5.4      2.672      9.406
REMARK  22 active torsions:
REMARK  status: ('A' for Active; 'I' for Inactive)
REMARK    1  A    between atoms: O2_2  and  C3_3 
REMARK    2  A    between atoms: C3_3  and  C4_4 
REMARK    3  A    between atoms: C4_4  and  N5_5 
REMARK       I    between atoms: N5_5  and  C6_6 
REMARK    4  A    between atoms: C6_6  and  C8_8 
REMARK    5  A    between atoms: C8_8  and  N9_9 
REMARK    6  A    between atoms: N9_9  and  C10_10 
REMARK    7  A    between atoms: N9_9  and  C33_33 
REMARK    8  A    between atoms: C10_10  and  C11_11 
REMARK    9  A    between atoms: C11_11  and  N12_12 
REMARK   10  A    between atoms: N12_12  and  C14_14 
REMARK   11  A    between atoms: N12_12  and  C29_29 
REMARK   12  A    between atoms: C14_14  and  C15_15 
REMARK   13  A    between atoms: C15_15  and  N16_16 
REMARK   14  A    between atoms: N16_16  and  C17_17 
REMARK   15  A    between atoms: N16_16  and  C21_21 
REMARK   16  A    between atoms: C17_17  and  C18_18 
REMARK   17  A    between atoms: C21_21  and  C22_22 
REMARK       I    between atoms: C22_22  and  N24_24 
REMARK   18  A    between atoms: N24_24  and  C25_25 
REMARK   19  A    between atoms: C25_25  and  C26_26 
REMARK   20  A    between atoms: C26_26  and  O27_27 
REMARK   21  A    between atoms: C29_29  and  C30_30 
REMARK   22  A    between atoms: C33_33  and  C34_34 
ROOT
ATOM      1  N12 ZIN A   1      19.434   1.977  16.173  0.00  0.00    -0.058 N 
ATOM      2  H13 ZIN A   1      20.281   1.529  16.490  0.00  0.00     0.280 HD
ENDROOT
BRANCH   1   3
ATOM      3  C11 ZIN A   1      19.220   1.673  14.751  0.00  0.00     0.265 C 
BRANCH   3   4
ATOM      4  C10 ZIN A   1      19.199   0.156  14.552  0.00  0.00     0.301 C 
BRANCH   4   5
ATOM      5  N9  ZIN A   1      18.917  -0.148  13.144  0.00  0.00     0.108 N 
BRANCH   5   6
ATOM      6  C8  ZIN A   1      20.113   0.045  12.313  0.00  0.00     0.375 C 
BRANCH   6   7
ATOM      7  C6  ZIN A   1      20.085  -0.924  11.159  0.00  0.00     0.246 C 
ATOM      8  N5  ZIN A   1      19.722  -2.206  11.365  0.00  0.00    -0.358 N 
ATOM      9  H44 ZIN A   1      19.479  -2.504  12.254  0.00  0.00     0.162 HD
ATOM     10  O7  ZIN A   1      20.389  -0.551  10.047  0.00  0.00    -0.272 OA
BRANCH   8  11
ATOM     11  C4  ZIN A   1      19.696  -3.148  10.243  0.00  0.00     0.148 C 
BRANCH  11  12
ATOM     12  C3  ZIN A   1      19.058  -4.463  10.697  0.00  0.00     0.186 C 
BRANCH  12  13
ATOM     13  O2  ZIN A   1      18.424  -4.273  11.963  0.00  0.00    -0.394 OA
ATOM     14  C1  ZIN A   1      17.227  -5.035  12.134  0.00  0.00     0.201 C 
ENDBRANCH  12  13
ENDBRANCH  11  12
ENDBRANCH   8  11
ENDBRANCH   6   7
ENDBRANCH   5   6
BRANCH   5  15
ATOM     15  C33 ZIN A   1      17.795   0.660  12.646  0.00  0.00     0.385 C 
BRANCH  15  16
ATOM     16  C34 ZIN A   1      16.918  -0.189  11.761  0.00  0.00     0.202 C 
ATOM     17  O35 ZIN A   1      16.810  -1.385  11.978  0.00  0.00    -0.647 OA
ATOM     18  O36 ZIN A   1      16.319   0.318  10.830  0.00  0.00    -0.647 OA
ENDBRANCH  15  16
ENDBRANCH   5  15
ENDBRANCH   4   5
ENDBRANCH   3   4
ENDBRANCH   1   3
BRANCH   1  19
ATOM     19  C14 ZIN A   1      19.553   3.430  16.351  0.00  0.00     0.265 C 
BRANCH  19  20
ATOM     20  C15 ZIN A   1      18.160   4.041  16.508  0.00  0.00     0.301 C 
BRANCH  20  21
ATOM     21  N16 ZIN A   1      18.100   5.319  15.785  0.00  0.00     0.108 N 
BRANCH  21  22
ATOM     22  C17 ZIN A   1      18.554   6.427  16.636  0.00  0.00     0.385 C 
BRANCH  22  23
ATOM     23  C18 ZIN A   1      17.627   7.603  16.464  0.00  0.00     0.202 C 
ATOM     24  O19 ZIN A   1      18.040   8.736  16.642  0.00  0.00    -0.647 OA
ATOM     25  O20 ZIN A   1      16.464   7.422  16.148  0.00  0.00    -0.647 OA
ENDBRANCH  22  23
ENDBRANCH  21  22
BRANCH  21  26
ATOM     26  C21 ZIN A   1      18.881   5.256  14.542  0.00  0.00     0.375 C 
BRANCH  26  27
ATOM     27  C22 ZIN A   1      17.946   5.099  13.370  0.00  0.00     0.246 C 
ATOM     28  O23 ZIN A   1      16.917   5.739  13.326  0.00  0.00    -0.272 OA
ATOM     29  N24 ZIN A   1      18.254   4.248  12.371  0.00  0.00    -0.358 N 
ATOM     30  H59 ZIN A   1      19.077   3.737  12.406  0.00  0.00     0.162 HD
BRANCH  29  31
ATOM     31  C25 ZIN A   1      17.346   4.096  11.232  0.00  0.00     0.148 C 
BRANCH  31  32
ATOM     32  C26 ZIN A   1      18.160   3.917   9.950  0.00  0.00     0.186 C 
BRANCH  32  33
ATOM     33  O27 ZIN A   1      18.659   2.580   9.885  0.00  0.00    -0.394 OA
ATOM     34  C28 ZIN A   1      18.965   2.136   8.561  0.00  0.00     0.201 C 
ENDBRANCH  32  33
ENDBRANCH  31  32
ENDBRANCH  29  31
ENDBRANCH  26  27
ENDBRANCH  21  26
ENDBRANCH  20  21
ENDBRANCH  19  20
ENDBRANCH   1  19
BRANCH   1  35
ATOM     35  C29 ZIN A   1      18.294   1.480  16.956  0.00  0.00     0.347 C 
BRANCH  35  36
ATOM     36  C30 ZIN A   1      18.791   0.909  18.259  0.00  0.00     0.199 C 
ATOM     37  O31 ZIN A   1      19.987   0.759  18.443  0.00  0.00    -0.647 OA
ATOM     38  O32 ZIN A   1      17.997   0.598  19.130  0.00  0.00    -0.647 OA
ENDBRANCH  35  36
ENDBRANCH   1  35
TORSDOF 22
ENDMDL
