MODEL 1
REMARK VINA RESULT:      -7.6      0.000      0.000
REMARK  9 active torsions:
REMARK  status: ('A' for Active; 'I' for Inactive)
REMARK    1  A    between atoms: C2_2  and  C3_3 
REMARK    2  A    between atoms: C3_3  and  O5_5 
REMARK    3  A    between atoms: O5_5  and  C6_6 
REMARK    4  A    between atoms: C6_6  and  C7_7 
REMARK    5  A    between atoms: C6_6  and  C14_14 
REMARK    6  A    between atoms: C6_6  and  C20_20 
REMARK    7  A    between atoms: C7_7  and  C8_8 
REMARK    8  A    between atoms: C20_20  and  C23_22 
REMARK    9  A    between atoms: C23_22  and  N24_23 
ROOT
ATOM      1  C6  ZIN A   1      18.637   1.069  10.686  0.00  0.00     0.106 C 
ENDROOT
BRANCH   1   2
ATOM      2  O5  ZIN A   1      17.343   1.134  11.344  0.00  0.00    -0.304 OA
BRANCH   2   3
ATOM      3  C3  ZIN A   1      17.101   0.225  12.302  0.00  0.00     0.259 C 
ATOM      4  O4  ZIN A   1      16.653  -0.858  12.007  0.00  0.00    -0.265 OA
BRANCH   3   5
ATOM      5  C2  ZIN A   1      17.388   0.556  13.744  0.00  0.00     0.106 C 
ATOM      6  C1  ZIN A   1      18.015  -0.659  14.430  0.00  0.00     0.015 C 
ENDBRANCH   3   5
ENDBRANCH   2   3
ENDBRANCH   1   2
BRANCH   1   7
ATOM      7  C7  ZIN A   1      19.394   2.378  10.919  0.00  0.00     0.082 C 
BRANCH   7   8
ATOM      8  C8  ZIN A   1      18.421   3.455  11.325  0.00  0.00    -0.055 A 
ATOM      9  C13 ZIN A   1      17.672   4.109  10.362  0.00  0.00     0.007 A 
ATOM     10  C12 ZIN A   1      16.777   5.093  10.735  0.00  0.00     0.001 A 
ATOM     11  C11 ZIN A   1      16.635   5.431  12.067  0.00  0.00     0.000 A 
ATOM     12  C10 ZIN A   1      17.387   4.782  13.029  0.00  0.00     0.001 A 
ATOM     13  C9  ZIN A   1      18.280   3.794  12.658  0.00  0.00     0.007 A 
ENDBRANCH   7   8
ENDBRANCH   1   7
BRANCH   1  14
ATOM     14  C14 ZIN A   1      18.437   0.860   9.207  0.00  0.00    -0.022 A 
ATOM     15  C19 ZIN A   1      19.311   1.435   8.304  0.00  0.00     0.010 A 
ATOM     16  C18 ZIN A   1      19.131   1.239   6.947  0.00  0.00     0.001 A 
ATOM     17  C17 ZIN A   1      18.071   0.475   6.494  0.00  0.00     0.000 A 
ATOM     18  C16 ZIN A   1      17.195  -0.095   7.397  0.00  0.00     0.001 A 
ATOM     19  C15 ZIN A   1      17.377   0.097   8.754  0.00  0.00     0.010 A 
ENDBRANCH   1  14
BRANCH   1  20
ATOM     20  C20 ZIN A   1      19.444  -0.096  11.263  0.00  0.00     0.048 C 
ATOM     21  C22 ZIN A   1      20.787   0.422  11.782  0.00  0.00     0.015 C 
BRANCH  20  22
ATOM     22  C23 ZIN A   1      19.688  -1.139  10.171  0.00  0.00     0.241 C 
BRANCH  22  23
ATOM     23  N24 ZIN A   1      19.042  -2.404  10.548  0.00  0.00    -0.078 N 
ATOM     24  H25 ZIN A   1      18.140  -2.212  10.957  0.00  0.00     0.278 HD
ATOM     25  C26 ZIN A   1      18.870  -3.240   9.353  0.00  0.00     0.269 C 
ATOM     26  C27 ZIN A   1      19.883  -3.110  11.524  0.00  0.00     0.269 C 
ENDBRANCH  22  23
ENDBRANCH  20  22
ENDBRANCH   1  20
TORSDOF 9
ENDMDL
MODEL 2
REMARK VINA RESULT:      -7.1      1.694      4.955
REMARK  9 active torsions:
REMARK  status: ('A' for Active; 'I' for Inactive)
REMARK    1  A    between atoms: C2_2  and  C3_3 
REMARK    2  A    between atoms: C3_3  and  O5_5 
REMARK    3  A    between atoms: O5_5  and  C6_6 
REMARK    4  A    between atoms: C6_6  and  C7_7 
REMARK    5  A    between atoms: C6_6  and  C14_14 
REMARK    6  A    between atoms: C6_6  and  C20_20 
REMARK    7  A    between atoms: C7_7  and  C8_8 
REMARK    8  A    between atoms: C20_20  and  C23_22 
REMARK    9  A    between atoms: C23_22  and  N24_23 
ROOT
ATOM      1  C6  ZIN A   1      19.060  -0.590  10.944  0.00  0.00     0.106 C 
ENDROOT
BRANCH   1   2
ATOM      2  O5  ZIN A   1      17.832   0.012  10.455  0.00  0.00    -0.304 OA
BRANCH   2   3
ATOM      3  C3  ZIN A   1      17.336   1.041  11.160  0.00  0.00     0.259 C 
ATOM      4  O4  ZIN A   1      16.595   0.834  12.092  0.00  0.00    -0.265 OA
BRANCH   3   5
ATOM      5  C2  ZIN A   1      17.702   2.455  10.788  0.00  0.00     0.106 C 
ATOM      6  C1  ZIN A   1      17.633   3.343  12.032  0.00  0.00     0.015 C 
ENDBRANCH   3   5
ENDBRANCH   2   3
ENDBRANCH   1   2
BRANCH   1   7
ATOM      7  C7  ZIN A   1      20.169  -0.397   9.908  0.00  0.00     0.082 C 
BRANCH   7   8
ATOM      8  C8  ZIN A   1      19.555  -0.183   8.548  0.00  0.00    -0.055 A 
ATOM      9  C13 ZIN A   1      19.121  -1.267   7.807  0.00  0.00     0.007 A 
ATOM     10  C12 ZIN A   1      18.553  -1.070   6.563  0.00  0.00     0.001 A 
ATOM     11  C11 ZIN A   1      18.428   0.209   6.054  0.00  0.00     0.000 A 
ATOM     12  C10 ZIN A   1      18.867   1.292   6.792  0.00  0.00     0.001 A 
ATOM     13  C9  ZIN A   1      19.430   1.097   8.039  0.00  0.00     0.007 A 
ENDBRANCH   7   8
ENDBRANCH   1   7
BRANCH   1  14
ATOM     14  C14 ZIN A   1      18.840  -2.062  11.176  0.00  0.00    -0.022 A 
ATOM     15  C19 ZIN A   1      19.920  -2.923  11.229  0.00  0.00     0.010 A 
ATOM     16  C18 ZIN A   1      19.717  -4.273  11.447  0.00  0.00     0.001 A 
ATOM     17  C17 ZIN A   1      18.434  -4.763  11.603  0.00  0.00     0.000 A 
ATOM     18  C16 ZIN A   1      17.354  -3.903  11.544  0.00  0.00     0.001 A 
ATOM     19  C15 ZIN A   1      17.557  -2.553  11.331  0.00  0.00     0.010 A 
ENDBRANCH   1  14
BRANCH   1  20
ATOM     20  C20 ZIN A   1      19.468   0.080  12.258  0.00  0.00     0.048 C 
ATOM     21  C22 ZIN A   1      20.916   0.563  12.155  0.00  0.00     0.015 C 
BRANCH  20  22
ATOM     22  C23 ZIN A   1      19.347  -0.927  13.403  0.00  0.00     0.241 C 
BRANCH  22  23
ATOM     23  N24 ZIN A   1      18.368  -0.438  14.384  0.00  0.00    -0.078 N 
ATOM     24  H25 ZIN A   1      17.456  -0.390  13.954  0.00  0.00     0.278 HD
ATOM     25  C26 ZIN A   1      18.321  -1.356  15.529  0.00  0.00     0.269 C 
ATOM     26  C27 ZIN A   1      18.763   0.901  14.844  0.00  0.00     0.269 C 
ENDBRANCH  22  23
ENDBRANCH  20  22
ENDBRANCH   1  20
TORSDOF 9
ENDMDL
MODEL 3
REMARK VINA RESULT:      -6.7      1.943      6.684
REMARK  9 active torsions:
REMARK  status: ('A' for Active; 'I' for Inactive)
REMARK    1  A    between atoms: C2_2  and  C3_3 
REMARK    2  A    between atoms: C3_3  and  O5_5 
REMARK    3  A    between atoms: O5_5  and  C6_6 
REMARK    4  A    between atoms: C6_6  and  C7_7 
REMARK    5  A    between atoms: C6_6  and  C14_14 
REMARK    6  A    between atoms: C6_6  and  C20_20 
REMARK    7  A    between atoms: C7_7  and  C8_8 
REMARK    8  A    between atoms: C20_20  and  C23_22 
REMARK    9  A    between atoms: C23_22  and  N24_23 
ROOT
ATOM      1  C6  ZIN A   1      18.897  -1.301  12.076  0.00  0.00     0.106 C 
ENDROOT
BRANCH   1   2
ATOM      2  O5  ZIN A   1      17.628  -1.528  11.406  0.00  0.00    -0.304 OA
BRANCH   2   3
ATOM      3  C3  ZIN A   1      17.318  -0.705  10.392  0.00  0.00     0.259 C 
ATOM      4  O4  ZIN A   1      16.727   0.327  10.611  0.00  0.00    -0.265 OA
BRANCH   3   5
ATOM      5  C2  ZIN A   1      17.708  -1.067   8.983  0.00  0.00     0.106 C 
ATOM      6  C1  ZIN A   1      17.468   0.133   8.063  0.00  0.00     0.015 C 
ENDBRANCH   3   5
ENDBRANCH   2   3
ENDBRANCH   1   2
BRANCH   1   7
ATOM      7  C7  ZIN A   1      19.778  -2.543  11.932  0.00  0.00     0.082 C 
BRANCH   7   8
ATOM      8  C8  ZIN A   1      18.951  -3.688  11.405  0.00  0.00    -0.055 A 
ATOM      9  C13 ZIN A   1      19.194  -4.190  10.139  0.00  0.00     0.007 A 
ATOM     10  C12 ZIN A   1      18.438  -5.242   9.658  0.00  0.00     0.001 A 
ATOM     11  C11 ZIN A   1      17.435  -5.787  10.437  0.00  0.00     0.000 A 
ATOM     12  C10 ZIN A   1      17.189  -5.281  11.700  0.00  0.00     0.001 A 
ATOM     13  C9  ZIN A   1      17.947  -4.232  12.184  0.00  0.00     0.007 A 
ENDBRANCH   7   8
ENDBRANCH   1   7
BRANCH   1  14
ATOM     14  C14 ZIN A   1      18.652  -1.025  13.537  0.00  0.00    -0.022 A 
ATOM     15  C19 ZIN A   1      17.568  -0.260  13.924  0.00  0.00     0.010 A 
ATOM     16  C18 ZIN A   1      17.340  -0.011  15.265  0.00  0.00     0.001 A 
ATOM     17  C17 ZIN A   1      18.204  -0.519  16.217  0.00  0.00     0.000 A 
ATOM     18  C16 ZIN A   1      19.290  -1.280  15.830  0.00  0.00     0.001 A 
ATOM     19  C15 ZIN A   1      19.515  -1.532  14.490  0.00  0.00     0.010 A 
ENDBRANCH   1  14
BRANCH   1  20
ATOM     20  C20 ZIN A   1      19.600  -0.100  11.440  0.00  0.00     0.048 C 
ATOM     21  C22 ZIN A   1      20.995  -0.518  10.969  0.00  0.00     0.015 C 
BRANCH  20  22
ATOM     22  C23 ZIN A   1      19.726   1.023  12.470  0.00  0.00     0.241 C 
BRANCH  22  23
ATOM     23  N24 ZIN A   1      18.900   2.165  12.054  0.00  0.00    -0.078 N 
ATOM     24  H25 ZIN A   1      17.958   1.850  11.872  0.00  0.00     0.278 HD
ATOM     25  C26 ZIN A   1      18.881   3.171  13.124  0.00  0.00     0.269 C 
ATOM     26  C27 ZIN A   1      19.463   2.757  10.833  0.00  0.00     0.269 C 
ENDBRANCH  22  23
ENDBRANCH  20  22
ENDBRANCH   1  20
TORSDOF 9
ENDMDL
MODEL 4
REMARK VINA RESULT:      -6.7      1.677      4.516
REMARK  9 active torsions:
REMARK  status: ('A' for Active; 'I' for Inactive)
REMARK    1  A    between atoms: C2_2  and  C3_3 
REMARK    2  A    between atoms: C3_3  and  O5_5 
REMARK    3  A    between atoms: O5_5  and  C6_6 
REMARK    4  A    between atoms: C6_6  and  C7_7 
REMARK    5  A    between atoms: C6_6  and  C14_14 
REMARK    6  A    between atoms: C6_6  and  C20_20 
REMARK    7  A    between atoms: C7_7  and  C8_8 
REMARK    8  A    between atoms: C20_20  and  C23_22 
REMARK    9  A    between atoms: C23_22  and  N24_23 
ROOT
ATOM      1  C6  ZIN A   1      18.990   0.544  12.105  0.00  0.00     0.106 C 
ENDROOT
BRANCH   1   2
ATOM      2  O5  ZIN A   1      17.735  -0.111  12.429  0.00  0.00    -0.304 OA
BRANCH   2   3
ATOM      3  C3  ZIN A   1      17.335  -1.099  11.613  0.00  0.00     0.259 C 
ATOM      4  O4  ZIN A   1      16.685  -0.842  10.627  0.00  0.00    -0.265 OA
BRANCH   3   5
ATOM      5  C2  ZIN A   1      17.698  -2.527  11.927  0.00  0.00     0.106 C 
ATOM      6  C1  ZIN A   1      17.653  -3.358  10.643  0.00  0.00     0.015 C 
ENDBRANCH   3   5
ENDBRANCH   2   3
ENDBRANCH   1   2
BRANCH   1   7
ATOM      7  C7  ZIN A   1      19.967   0.380  13.272  0.00  0.00     0.082 C 
BRANCH   7   8
ATOM      8  C8  ZIN A   1      19.203   0.007  14.517  0.00  0.00    -0.055 A 
ATOM      9  C13 ZIN A   1      18.504   0.975  15.215  0.00  0.00     0.007 A 
ATOM     10  C12 ZIN A   1      17.800   0.631  16.353  0.00  0.00     0.001 A 
ATOM     11  C11 ZIN A   1      17.802  -0.677  16.800  0.00  0.00     0.000 A 
ATOM     12  C10 ZIN A   1      18.506  -1.643  16.105  0.00  0.00     0.001 A 
ATOM     13  C9  ZIN A   1      19.206  -1.302  14.964  0.00  0.00     0.007 A 
ENDBRANCH   7   8
ENDBRANCH   1   7
BRANCH   1  14
ATOM     14  C14 ZIN A   1      18.743   2.010  11.859  0.00  0.00    -0.022 A 
ATOM     15  C19 ZIN A   1      19.704   2.941  12.205  0.00  0.00     0.010 A 
ATOM     16  C18 ZIN A   1      19.479   4.286  11.975  0.00  0.00     0.001 A 
ATOM     17  C17 ZIN A   1      18.289   4.699  11.407  0.00  0.00     0.000 A 
ATOM     18  C16 ZIN A   1      17.326   3.769  11.065  0.00  0.00     0.001 A 
ATOM     19  C15 ZIN A   1      17.553   2.424  11.292  0.00  0.00     0.010 A 
ENDBRANCH   1  14
BRANCH   1  20
ATOM     20  C20 ZIN A   1      19.587  -0.092  10.848  0.00  0.00     0.048 C 
ATOM     21  C22 ZIN A   1      21.023  -0.536  11.134  0.00  0.00     0.015 C 
BRANCH  20  22
ATOM     22  C23 ZIN A   1      19.588   0.930   9.710  0.00  0.00     0.241 C 
BRANCH  22  23
ATOM     23  N24 ZIN A   1      18.800   0.410   8.584  0.00  0.00    -0.078 N 
ATOM     24  H25 ZIN A   1      17.827   0.361   8.848  0.00  0.00     0.278 HD
ATOM     25  C26 ZIN A   1      18.949   1.303   7.428  0.00  0.00     0.269 C 
ATOM     26  C27 ZIN A   1      19.279  -0.934   8.231  0.00  0.00     0.269 C 
ENDBRANCH  22  23
ENDBRANCH  20  22
ENDBRANCH   1  20
TORSDOF 9
ENDMDL
MODEL 5
REMARK VINA RESULT:      -6.6      2.200      5.177
REMARK  9 active torsions:
REMARK  status: ('A' for Active; 'I' for Inactive)
REMARK    1  A    between atoms: C2_2  and  C3_3 
REMARK    2  A    between atoms: C3_3  and  O5_5 
REMARK    3  A    between atoms: O5_5  and  C6_6 
REMARK    4  A    between atoms: C6_6  and  C7_7 
REMARK    5  A    between atoms: C6_6  and  C14_14 
REMARK    6  A    between atoms: C6_6  and  C20_20 
REMARK    7  A    between atoms: C7_7  and  C8_8 
REMARK    8  A    between atoms: C20_20  and  C23_22 
REMARK    9  A    between atoms: C23_22  and  N24_23 
ROOT
ATOM      1  C6  ZIN A   1      18.432  -0.874  12.309  0.00  0.00     0.106 C 
ENDROOT
BRANCH   1   2
ATOM      2  O5  ZIN A   1      19.675  -0.374  12.871  0.00  0.00    -0.304 OA
BRANCH   2   3
ATOM      3  C3  ZIN A   1      20.202   0.723  12.304  0.00  0.00     0.259 C 
ATOM      4  O4  ZIN A   1      21.107   0.617  11.511  0.00  0.00    -0.265 OA
BRANCH   3   5
ATOM      5  C2  ZIN A   1      19.664   2.085  12.658  0.00  0.00     0.106 C 
ATOM      6  C1  ZIN A   1      19.973   3.065  11.524  0.00  0.00     0.015 C 
ENDBRANCH   3   5
ENDBRANCH   2   3
ENDBRANCH   1   2
BRANCH   1   7
ATOM      7  C7  ZIN A   1      17.308  -0.716  13.335  0.00  0.00     0.082 C 
BRANCH   7   8
ATOM      8  C8  ZIN A   1      17.903  -0.546  14.709  0.00  0.00    -0.055 A 
ATOM      9  C13 ZIN A   1      18.542  -1.609  15.322  0.00  0.00     0.007 A 
ATOM     10  C12 ZIN A   1      19.092  -1.451  16.580  0.00  0.00     0.001 A 
ATOM     11  C11 ZIN A   1      18.995  -0.235  17.230  0.00  0.00     0.000 A 
ATOM     12  C10 ZIN A   1      18.351   0.825  16.620  0.00  0.00     0.001 A 
ATOM     13  C9  ZIN A   1      17.806   0.670  15.359  0.00  0.00     0.007 A 
ENDBRANCH   7   8
ENDBRANCH   1   7
BRANCH   1  14
ATOM     14  C14 ZIN A   1      18.591  -2.331  11.957  0.00  0.00    -0.022 A 
ATOM     15  C19 ZIN A   1      17.475  -3.137  11.830  0.00  0.00     0.010 A 
ATOM     16  C18 ZIN A   1      17.620  -4.472  11.503  0.00  0.00     0.001 A 
ATOM     17  C17 ZIN A   1      18.882  -5.003  11.313  0.00  0.00     0.000 A 
ATOM     18  C16 ZIN A   1      19.998  -4.199  11.445  0.00  0.00     0.001 A 
ATOM     19  C15 ZIN A   1      19.852  -2.863  11.768  0.00  0.00     0.010 A 
ENDBRANCH   1  14
BRANCH   1  20
ATOM     20  C20 ZIN A   1      18.087  -0.079  11.048  0.00  0.00     0.048 C 
ATOM     21  C22 ZIN A   1      16.655   0.449  11.155  0.00  0.00     0.015 C 
BRANCH  20  22
ATOM     22  C23 ZIN A   1      18.206  -0.987   9.823  0.00  0.00     0.241 C 
BRANCH  22  23
ATOM     23  N24 ZIN A   1      19.341  -0.552   8.998  0.00  0.00    -0.078 N 
ATOM     24  H25 ZIN A   1      20.193  -0.622   9.534  0.00  0.00     0.278 HD
ATOM     25  C26 ZIN A   1      19.439  -1.408   7.809  0.00  0.00     0.269 C 
ATOM     26  C27 ZIN A   1      19.138   0.843   8.583  0.00  0.00     0.269 C 
ENDBRANCH  22  23
ENDBRANCH  20  22
ENDBRANCH   1  20
TORSDOF 9
ENDMDL
MODEL 6
REMARK VINA RESULT:      -6.3      1.911      5.429
REMARK  9 active torsions:
REMARK  status: ('A' for Active; 'I' for Inactive)
REMARK    1  A    between atoms: C2_2  and  C3_3 
REMARK    2  A    between atoms: C3_3  and  O5_5 
REMARK    3  A    between atoms: O5_5  and  C6_6 
REMARK    4  A    between atoms: C6_6  and  C7_7 
REMARK    5  A    between atoms: C6_6  and  C14_14 
REMARK    6  A    between atoms: C6_6  and  C20_20 
REMARK    7  A    between atoms: C7_7  and  C8_8 
REMARK    8  A    between atoms: C20_20  and  C23_22 
REMARK    9  A    between atoms: C23_22  and  N24_23 
ROOT
ATOM      1  C6  ZIN A   1      18.404  -0.366  10.534  0.00  0.00     0.106 C 
ENDROOT
BRANCH   1   2
ATOM      2  O5  ZIN A   1      19.775  -0.650  10.921  0.00  0.00    -0.304 OA
BRANCH   2   3
ATOM      3  C3  ZIN A   1      20.213  -0.095  12.062  0.00  0.00     0.259 C 
ATOM      4  O4  ZIN A   1      20.999   0.823  12.025  0.00  0.00    -0.265 OA
BRANCH   3   5
ATOM      5  C2  ZIN A   1      19.723  -0.616  13.389  0.00  0.00     0.106 C 
ATOM      6  C1  ZIN A   1      19.607   0.544  14.380  0.00  0.00     0.015 C 
ENDBRANCH   3   5
ENDBRANCH   2   3
ENDBRANCH   1   2
BRANCH   1   7
ATOM      7  C7  ZIN A   1      17.546  -1.615  10.746  0.00  0.00     0.082 C 
BRANCH   7   8
ATOM      8  C8  ZIN A   1      18.371  -2.845  10.468  0.00  0.00    -0.055 A 
ATOM      9  C13 ZIN A   1      18.498  -3.313   9.172  0.00  0.00     0.007 A 
ATOM     10  C12 ZIN A   1      19.258  -4.438   8.916  0.00  0.00     0.001 A 
ATOM     11  C11 ZIN A   1      19.885  -5.101   9.955  0.00  0.00     0.000 A 
ATOM     12  C10 ZIN A   1      19.753  -4.636  11.250  0.00  0.00     0.001 A 
ATOM     13  C9  ZIN A   1      18.997  -3.508  11.507  0.00  0.00     0.007 A 
ENDBRANCH   7   8
ENDBRANCH   1   7
BRANCH   1  14
ATOM     14  C14 ZIN A   1      18.365   0.029   9.080  0.00  0.00    -0.022 A 
ATOM     15  C19 ZIN A   1      19.430   0.707   8.519  0.00  0.00     0.010 A 
ATOM     16  C18 ZIN A   1      19.395   1.066   7.184  0.00  0.00     0.001 A 
ATOM     17  C17 ZIN A   1      18.290   0.754   6.413  0.00  0.00     0.000 A 
ATOM     18  C16 ZIN A   1      17.223   0.080   6.976  0.00  0.00     0.001 A 
ATOM     19  C15 ZIN A   1      17.260  -0.282   8.310  0.00  0.00     0.010 A 
ENDBRANCH   1  14
BRANCH   1  20
ATOM     20  C20 ZIN A   1      17.860   0.779  11.390  0.00  0.00     0.048 C 
ATOM     21  C22 ZIN A   1      16.510   0.372  11.985  0.00  0.00     0.015 C 
BRANCH  20  22
ATOM     22  C23 ZIN A   1      17.678   2.025  10.521  0.00  0.00     0.241 C 
BRANCH  22  23
ATOM     23  N24 ZIN A   1      17.778   3.226  11.361  0.00  0.00    -0.078 N 
ATOM     24  H25 ZIN A   1      17.326   3.056  12.246  0.00  0.00     0.278 HD
ATOM     25  C26 ZIN A   1      19.193   3.549  11.587  0.00  0.00     0.269 C 
ATOM     26  C27 ZIN A   1      17.121   4.352  10.683  0.00  0.00     0.269 C 
ENDBRANCH  22  23
ENDBRANCH  20  22
ENDBRANCH   1  20
TORSDOF 9
ENDMDL
MODEL 7
REMARK VINA RESULT:      -5.8      1.542      2.435
REMARK  9 active torsions:
REMARK  status: ('A' for Active; 'I' for Inactive)
REMARK    1  A    between atoms: C2_2  and  C3_3 
REMARK    2  A    between atoms: C3_3  and  O5_5 
REMARK    3  A    between atoms: O5_5  and  C6_6 
REMARK    4  A    between atoms: C6_6  and  C7_7 
REMARK    5  A    between atoms: C6_6  and  C14_14 
REMARK    6  A    between atoms: C6_6  and  C20_20 
REMARK    7  A    between atoms: C7_7  and  C8_8 
REMARK    8  A    between atoms: C20_20  and  C23_22 
REMARK    9  A    between atoms: C23_22  and  N24_23 
ROOT
ATOM      1  C6  ZIN A   1      18.694  -0.922   9.904  0.00  0.00     0.106 C 
ENDROOT
BRANCH   1   2
ATOM      2  O5  ZIN A   1      17.576  -0.503  10.730  0.00  0.00    -0.304 OA
BRANCH   2   3
ATOM      3  C3  ZIN A   1      17.379  -1.174  11.875  0.00  0.00     0.259 C 
ATOM      4  O4  ZIN A   1      17.000  -2.322  11.846  0.00  0.00    -0.265 OA
BRANCH   3   5
ATOM      5  C2  ZIN A   1      17.631  -0.497  13.198  0.00  0.00     0.106 C 
ATOM      6  C1  ZIN A   1      18.776  -1.207  13.923  0.00  0.00     0.015 C 
ENDBRANCH   3   5
ENDBRANCH   2   3
ENDBRANCH   1   2
BRANCH   1   7
ATOM      7  C7  ZIN A   1      19.935  -0.106  10.273  0.00  0.00     0.082 C 
BRANCH   7   8
ATOM      8  C8  ZIN A   1      19.525   1.304  10.613  0.00  0.00    -0.055 A 
ATOM      9  C13 ZIN A   1      18.880   2.082   9.669  0.00  0.00     0.007 A 
ATOM     10  C12 ZIN A   1      18.500   3.374   9.983  0.00  0.00     0.001 A 
ATOM     11  C11 ZIN A   1      18.773   3.890  11.235  0.00  0.00     0.000 A 
ATOM     12  C10 ZIN A   1      19.423   3.114  12.176  0.00  0.00     0.001 A 
ATOM     13  C9  ZIN A   1      19.799   1.821  11.866  0.00  0.00     0.007 A 
ENDBRANCH   7   8
ENDBRANCH   1   7
BRANCH   1  14
ATOM     14  C14 ZIN A   1      18.359  -0.697   8.452  0.00  0.00    -0.022 A 
ATOM     15  C19 ZIN A   1      17.074  -0.345   8.085  0.00  0.00     0.010 A 
ATOM     16  C18 ZIN A   1      16.768  -0.134   6.754  0.00  0.00     0.001 A 
ATOM     17  C17 ZIN A   1      17.746  -0.285   5.788  0.00  0.00     0.000 A 
ATOM     18  C16 ZIN A   1      19.029  -0.643   6.154  0.00  0.00     0.001 A 
ATOM     19  C15 ZIN A   1      19.336  -0.850   7.486  0.00  0.00     0.010 A 
ENDBRANCH   1  14
BRANCH   1  20
ATOM     20  C20 ZIN A   1      18.973  -2.408  10.140  0.00  0.00     0.048 C 
ATOM     21  C22 ZIN A   1      20.373  -2.576  10.736  0.00  0.00     0.015 C 
BRANCH  20  22
ATOM     22  C23 ZIN A   1      18.893  -3.161   8.810  0.00  0.00     0.241 C 
BRANCH  22  23
ATOM     23  N24 ZIN A   1      19.571  -4.457   8.939  0.00  0.00    -0.078 N 
ATOM     24  H25 ZIN A   1      20.355  -4.366   9.568  0.00  0.00     0.278 HD
ATOM     25  C26 ZIN A   1      18.630  -5.451   9.472  0.00  0.00     0.269 C 
ATOM     26  C27 ZIN A   1      20.050  -4.892   7.620  0.00  0.00     0.269 C 
ENDBRANCH  22  23
ENDBRANCH  20  22
ENDBRANCH   1  20
TORSDOF 9
ENDMDL
MODEL 8
REMARK VINA RESULT:      -5.8      2.022      4.683
REMARK  9 active torsions:
REMARK  status: ('A' for Active; 'I' for Inactive)
REMARK    1  A    between atoms: C2_2  and  C3_3 
REMARK    2  A    between atoms: C3_3  and  O5_5 
REMARK    3  A    between atoms: O5_5  and  C6_6 
REMARK    4  A    between atoms: C6_6  and  C7_7 
REMARK    5  A    between atoms: C6_6  and  C14_14 
REMARK    6  A    between atoms: C6_6  and  C20_20 
REMARK    7  A    between atoms: C7_7  and  C8_8 
REMARK    8  A    between atoms: C20_20  and  C23_22 
REMARK    9  A    between atoms: C23_22  and  N24_23 
ROOT
ATOM      1  C6  ZIN A   1      18.379   0.492  12.336  0.00  0.00     0.106 C 
ENDROOT
BRANCH   1   2
ATOM      2  O5  ZIN A   1      19.702   0.867  11.867  0.00  0.00    -0.304 OA
BRANCH   2   3
ATOM      3  C3  ZIN A   1      20.162   0.235  10.776  0.00  0.00     0.259 C 
ATOM      4  O4  ZIN A   1      21.081  -0.545  10.872  0.00  0.00    -0.265 OA
BRANCH   3   5
ATOM      5  C2  ZIN A   1      19.534   0.498   9.432  0.00  0.00     0.106 C 
ATOM      6  C1  ZIN A   1      19.457   2.008   9.192  0.00  0.00     0.015 C 
ENDBRANCH   3   5
ENDBRANCH   2   3
ENDBRANCH   1   2
BRANCH   1   7
ATOM      7  C7  ZIN A   1      17.489   1.735  12.396  0.00  0.00     0.082 C 
BRANCH   7   8
ATOM      8  C8  ZIN A   1      18.293   2.904  12.905  0.00  0.00    -0.055 A 
ATOM      9  C13 ZIN A   1      19.010   3.688  12.019  0.00  0.00     0.007 A 
ATOM     10  C12 ZIN A   1      19.744   4.762  12.485  0.00  0.00     0.001 A 
ATOM     11  C11 ZIN A   1      19.768   5.049  13.836  0.00  0.00     0.000 A 
ATOM     12  C10 ZIN A   1      19.056   4.263  14.723  0.00  0.00     0.001 A 
ATOM     13  C9  ZIN A   1      18.318   3.191  14.257  0.00  0.00     0.007 A 
ENDBRANCH   7   8
ENDBRANCH   1   7
BRANCH   1  14
ATOM     14  C14 ZIN A   1      18.486  -0.116  13.710  0.00  0.00    -0.022 A 
ATOM     15  C19 ZIN A   1      17.441   0.009  14.606  0.00  0.00     0.010 A 
ATOM     16  C18 ZIN A   1      17.538  -0.553  15.865  0.00  0.00     0.001 A 
ATOM     17  C17 ZIN A   1      18.685  -1.233  16.231  0.00  0.00     0.000 A 
ATOM     18  C16 ZIN A   1      19.732  -1.354  15.338  0.00  0.00     0.001 A 
ATOM     19  C15 ZIN A   1      19.633  -0.795  14.078  0.00  0.00     0.010 A 
ENDBRANCH   1  14
BRANCH   1  20
ATOM     20  C20 ZIN A   1      17.766  -0.526  11.372  0.00  0.00     0.048 C 
ATOM     21  C22 ZIN A   1      16.356  -0.076  10.984  0.00  0.00     0.015 C 
BRANCH  20  22
ATOM     22  C23 ZIN A   1      17.694  -1.894  12.053  0.00  0.00     0.241 C 
BRANCH  22  23
ATOM     23  N24 ZIN A   1      17.427  -2.930  11.045  0.00  0.00    -0.078 N 
ATOM     24  H25 ZIN A   1      16.600  -2.683  10.521  0.00  0.00     0.278 HD
ATOM     25  C26 ZIN A   1      18.572  -3.032  10.133  0.00  0.00     0.269 C 
ATOM     26  C27 ZIN A   1      17.215  -4.221  11.715  0.00  0.00     0.269 C 
ENDBRANCH  22  23
ENDBRANCH  20  22
ENDBRANCH   1  20
TORSDOF 9
ENDMDL
MODEL 9
REMARK VINA RESULT:      -5.7      2.111      5.190
REMARK  9 active torsions:
REMARK  status: ('A' for Active; 'I' for Inactive)
REMARK    1  A    between atoms: C2_2  and  C3_3 
REMARK    2  A    between atoms: C3_3  and  O5_5 
REMARK    3  A    between atoms: O5_5  and  C6_6 
REMARK    4  A    between atoms: C6_6  and  C7_7 
REMARK    5  A    between atoms: C6_6  and  C14_14 
REMARK    6  A    between atoms: C6_6  and  C20_20 
REMARK    7  A    between atoms: C7_7  and  C8_8 
REMARK    8  A    between atoms: C20_20  and  C23_22 
REMARK    9  A    between atoms: C23_22  and  N24_23 
ROOT
ATOM      1  C6  ZIN A   1      18.426  -0.997  11.998  0.00  0.00     0.106 C 
ENDROOT
BRANCH   1   2
ATOM      2  O5  ZIN A   1      19.584  -0.263  11.518  0.00  0.00    -0.304 OA
BRANCH   2   3
ATOM      3  C3  ZIN A   1      20.124   0.637  12.355  0.00  0.00     0.259 C 
ATOM      4  O4  ZIN A   1      21.080   0.337  13.030  0.00  0.00    -0.265 OA
BRANCH   3   5
ATOM      5  C2  ZIN A   1      19.537   2.022  12.452  0.00  0.00     0.106 C 
ATOM      6  C1  ZIN A   1      20.304   2.967  11.525  0.00  0.00     0.015 C 
ENDBRANCH   3   5
ENDBRANCH   2   3
ENDBRANCH   1   2
BRANCH   1   7
ATOM      7  C7  ZIN A   1      17.191  -0.580  11.196  0.00  0.00     0.082 C 
BRANCH   7   8
ATOM      8  C8  ZIN A   1      17.616  -0.106   9.830  0.00  0.00    -0.055 A 
ATOM      9  C13 ZIN A   1      17.633  -0.989   8.765  0.00  0.00     0.007 A 
ATOM     10  C12 ZIN A   1      18.018  -0.552   7.512  0.00  0.00     0.001 A 
ATOM     11  C11 ZIN A   1      18.395   0.764   7.324  0.00  0.00     0.000 A 
ATOM     12  C10 ZIN A   1      18.384   1.646   8.389  0.00  0.00     0.001 A 
ATOM     13  C9  ZIN A   1      17.994   1.211   9.642  0.00  0.00     0.007 A 
ENDBRANCH   7   8
ENDBRANCH   1   7
BRANCH   1  14
ATOM     14  C14 ZIN A   1      18.205  -0.690  13.456  0.00  0.00    -0.022 A 
ATOM     15  C19 ZIN A   1      18.785  -1.485  14.426  0.00  0.00     0.010 A 
ATOM     16  C18 ZIN A   1      18.586  -1.200  15.764  0.00  0.00     0.001 A 
ATOM     17  C17 ZIN A   1      17.798  -0.125  16.132  0.00  0.00     0.000 A 
ATOM     18  C16 ZIN A   1      17.214   0.667  15.162  0.00  0.00     0.001 A 
ATOM     19  C15 ZIN A   1      17.417   0.385  13.824  0.00  0.00     0.010 A 
ENDBRANCH   1  14
BRANCH   1  20
ATOM     20  C20 ZIN A   1      18.665  -2.498  11.822  0.00  0.00     0.048 C 
ATOM     21  C22 ZIN A   1      19.773  -2.719  10.790  0.00  0.00     0.015 C 
BRANCH  20  22
ATOM     22  C23 ZIN A   1      17.378  -3.167  11.339  0.00  0.00     0.241 C 
BRANCH  22  23
ATOM     23  N24 ZIN A   1      17.675  -4.535  10.891  0.00  0.00    -0.078 N 
ATOM     24  H25 ZIN A   1      18.629  -4.582  10.564  0.00  0.00     0.278 HD
ATOM     25  C26 ZIN A   1      17.495  -5.467  12.011  0.00  0.00     0.269 C 
ATOM     26  C27 ZIN A   1      16.764  -4.900   9.798  0.00  0.00     0.269 C 
ENDBRANCH  22  23
ENDBRANCH  20  22
ENDBRANCH   1  20
TORSDOF 9
ENDMDL
