MODEL 1
REMARK VINA RESULT:      -7.6      0.000      0.000
REMARK  2 active torsions:
REMARK  status: ('A' for Active; 'I' for Inactive)
REMARK    1  A    between atoms: O2_2  and  C3_3 
REMARK    2  A    between atoms: C25_23  and  O26_24 
ROOT
ATOM      1  C3  ZIN A   1      19.443   3.540  11.702  0.00  0.00     0.102 A 
ATOM      2  C4  ZIN A   1      18.438   3.831  10.782  0.00  0.00     0.040 A 
ATOM      3  C5  ZIN A   1      17.703   2.858  10.126  0.00  0.00     0.011 A 
ATOM      4  C6  ZIN A   1      17.958   1.519  10.357  0.00  0.00    -0.046 A 
ATOM      5  C7  ZIN A   1      17.153   0.387   9.803  0.00  0.00     0.075 C 
ATOM      6  C8  ZIN A   1      17.671  -0.980  10.212  0.00  0.00     0.227 C 
ATOM      7  N10 ZIN A   1      18.646  -1.477   9.235  0.00  0.00    -0.067 N 
ATOM      8  H11 ZIN A   1      18.222  -1.490   8.320  0.00  0.00     0.280 HD
ATOM      9  C12 ZIN A   1      19.044  -2.842   9.601  0.00  0.00     0.270 C 
ATOM     10  C13 ZIN A   1      19.838  -0.623   9.202  0.00  0.00     0.236 C 
ATOM     11  C14 ZIN A   1      20.518  -0.616  10.575  0.00  0.00     0.048 C 
ATOM     12  C15 ZIN A   1      19.508  -0.120  11.608  0.00  0.00     0.058 C 
ATOM     13  C16 ZIN A   1      19.006   1.245  11.207  0.00  0.00    -0.001 A 
ATOM     14  C17 ZIN A   1      19.725   2.187  11.926  0.00  0.00     0.111 A 
ATOM     15  O18 ZIN A   1      20.578   1.575  12.777  0.00  0.00    -0.334 OA
ATOM     16  C19 ZIN A   1      20.158   0.185  12.949  0.00  0.00     0.214 C 
ATOM     17  C21 ZIN A   1      19.196   0.152  14.098  0.00  0.00     0.157 C 
ATOM     18  O22 ZIN A   1      19.458   0.791  15.088  0.00  0.00    -0.295 OA
ATOM     19  C23 ZIN A   1      17.921  -0.638  14.077  0.00  0.00     0.084 C 
ATOM     20  C24 ZIN A   1      17.263  -0.529  12.700  0.00  0.00     0.048 C 
ATOM     21  C25 ZIN A   1      18.307  -1.022  11.603  0.00  0.00     0.102 C 
ENDROOT
BRANCH   1  22
ATOM     22  O2  ZIN A   1      20.124   4.524  12.346  0.00  0.00    -0.353 OA
ATOM     23  C1  ZIN A   1      19.546   5.032  13.551  0.00  0.00     0.210 C 
ENDBRANCH   1  22
BRANCH  21  24
ATOM     24  O26 ZIN A   1      18.711  -2.362  11.896  0.00  0.00    -0.386 OA
ATOM     25  H45 ZIN A   1      18.783  -2.553  12.841  0.00  0.00     0.210 HD
ENDBRANCH  21  24
TORSDOF 2
ENDMDL
MODEL 2
REMARK VINA RESULT:      -7.0      2.522      4.856
REMARK  2 active torsions:
REMARK  status: ('A' for Active; 'I' for Inactive)
REMARK    1  A    between atoms: O2_2  and  C3_3 
REMARK    2  A    between atoms: C25_23  and  O26_24 
ROOT
ATOM      1  C3  ZIN A   1      18.274   0.025   7.237  0.00  0.00     0.102 A 
ATOM      2  C4  ZIN A   1      18.976   1.228   7.219  0.00  0.00     0.040 A 
ATOM      3  C5  ZIN A   1      19.442   1.854   8.363  0.00  0.00     0.011 A 
ATOM      4  C6  ZIN A   1      19.205   1.296   9.607  0.00  0.00    -0.046 A 
ATOM      5  C7  ZIN A   1      19.759   1.815  10.895  0.00  0.00     0.075 C 
ATOM      6  C8  ZIN A   1      19.323   1.012  12.108  0.00  0.00     0.227 C 
ATOM      7  N10 ZIN A   1      18.081   1.557  12.669  0.00  0.00    -0.067 N 
ATOM      8  H11 ZIN A   1      18.217   2.532  12.888  0.00  0.00     0.280 HD
ATOM      9  C12 ZIN A   1      17.747   0.827  13.899  0.00  0.00     0.270 C 
ATOM     10  C13 ZIN A   1      16.973   1.426  11.718  0.00  0.00     0.236 C 
ATOM     11  C14 ZIN A   1      16.727  -0.053  11.396  0.00  0.00     0.048 C 
ATOM     12  C15 ZIN A   1      18.018  -0.640  10.829  0.00  0.00     0.058 C 
ATOM     13  C16 ZIN A   1      18.442   0.151   9.616  0.00  0.00    -0.001 A 
ATOM     14  C17 ZIN A   1      18.010  -0.536   8.492  0.00  0.00     0.111 A 
ATOM     15  O18 ZIN A   1      17.417  -1.696   8.852  0.00  0.00    -0.334 OA
ATOM     16  C19 ZIN A   1      17.805  -2.019  10.224  0.00  0.00     0.214 C 
ATOM     17  C21 ZIN A   1      19.060  -2.837  10.149  0.00  0.00     0.157 C 
ATOM     18  O22 ZIN A   1      19.130  -3.711   9.319  0.00  0.00    -0.295 OA
ATOM     19  C23 ZIN A   1      20.235  -2.619  11.055  0.00  0.00     0.084 C 
ATOM     20  C24 ZIN A   1      20.464  -1.120  11.262  0.00  0.00     0.048 C 
ATOM     21  C25 ZIN A   1      19.122  -0.481  11.835  0.00  0.00     0.102 C 
ENDROOT
BRANCH   1  22
ATOM     22  O2  ZIN A   1      17.859  -0.573   6.089  0.00  0.00    -0.353 OA
ATOM     23  C1  ZIN A   1      18.572  -0.250   4.894  0.00  0.00     0.210 C 
ENDBRANCH   1  22
BRANCH  21  24
ATOM     24  O26 ZIN A   1      18.761  -1.138  13.052  0.00  0.00    -0.386 OA
ATOM     25  H45 ZIN A   1      17.882  -0.905  13.380  0.00  0.00     0.210 HD
ENDBRANCH  21  24
TORSDOF 2
ENDMDL
MODEL 3
REMARK VINA RESULT:      -7.0      1.879      4.170
REMARK  2 active torsions:
REMARK  status: ('A' for Active; 'I' for Inactive)
REMARK    1  A    between atoms: O2_2  and  C3_3 
REMARK    2  A    between atoms: C25_23  and  O26_24 
ROOT
ATOM      1  C3  ZIN A   1      18.400   0.099  15.685  0.00  0.00     0.102 A 
ATOM      2  C4  ZIN A   1      19.184  -1.053  15.661  0.00  0.00     0.040 A 
ATOM      3  C5  ZIN A   1      19.661  -1.623  14.492  0.00  0.00     0.011 A 
ATOM      4  C6  ZIN A   1      19.353  -1.061  13.267  0.00  0.00    -0.046 A 
ATOM      5  C7  ZIN A   1      19.907  -1.516  11.955  0.00  0.00     0.075 C 
ATOM      6  C8  ZIN A   1      19.383  -0.723  10.770  0.00  0.00     0.227 C 
ATOM      7  N10 ZIN A   1      18.168  -1.343  10.230  0.00  0.00    -0.067 N 
ATOM      8  H11 ZIN A   1      18.365  -2.302   9.988  0.00  0.00     0.280 HD
ATOM      9  C12 ZIN A   1      17.751  -0.616   9.024  0.00  0.00     0.270 C 
ATOM     10  C13 ZIN A   1      17.079  -1.308  11.212  0.00  0.00     0.236 C 
ATOM     11  C14 ZIN A   1      16.741   0.144  11.569  0.00  0.00     0.048 C 
ATOM     12  C15 ZIN A   1      18.003   0.810  12.115  0.00  0.00     0.058 C 
ATOM     13  C16 ZIN A   1      18.512   0.028  13.301  0.00  0.00    -0.001 A 
ATOM     14  C17 ZIN A   1      18.064   0.663  14.449  0.00  0.00     0.111 A 
ATOM     15  O18 ZIN A   1      17.384   1.785  14.128  0.00  0.00    -0.334 OA
ATOM     16  C19 ZIN A   1      17.711   2.160  12.753  0.00  0.00     0.214 C 
ATOM     17  C21 ZIN A   1      18.908   3.061  12.812  0.00  0.00     0.157 C 
ATOM     18  O22 ZIN A   1      18.940   3.923  13.657  0.00  0.00    -0.295 OA
ATOM     19  C23 ZIN A   1      20.070   2.942  11.872  0.00  0.00     0.084 C 
ATOM     20  C24 ZIN A   1      20.396   1.467  11.629  0.00  0.00     0.048 C 
ATOM     21  C25 ZIN A   1      19.087   0.747  11.078  0.00  0.00     0.102 C 
ENDROOT
BRANCH   1  22
ATOM     22  O2  ZIN A   1      17.976   0.645  16.855  0.00  0.00    -0.353 OA
ATOM     23  C1  ZIN A   1      18.729   0.333  18.029  0.00  0.00     0.210 C 
ENDBRANCH   1  22
BRANCH  21  24
ATOM     24  O26 ZIN A   1      18.649   1.399   9.884  0.00  0.00    -0.386 OA
ATOM     25  H45 ZIN A   1      18.301   0.797   9.212  0.00  0.00     0.210 HD
ENDBRANCH  21  24
TORSDOF 2
ENDMDL
MODEL 4
REMARK VINA RESULT:      -6.9      2.535      6.065
REMARK  2 active torsions:
REMARK  status: ('A' for Active; 'I' for Inactive)
REMARK    1  A    between atoms: O2_2  and  C3_3 
REMARK    2  A    between atoms: C25_23  and  O26_24 
ROOT
ATOM      1  C3  ZIN A   1      18.451  -4.412   9.654  0.00  0.00     0.102 A 
ATOM      2  C4  ZIN A   1      17.646  -4.500  10.788  0.00  0.00     0.040 A 
ATOM      3  C5  ZIN A   1      17.275  -3.400  11.543  0.00  0.00     0.011 A 
ATOM      4  C6  ZIN A   1      17.717  -2.137  11.197  0.00  0.00    -0.046 A 
ATOM      5  C7  ZIN A   1      17.286  -0.868  11.862  0.00  0.00     0.075 C 
ATOM      6  C8  ZIN A   1      17.944   0.372  11.282  0.00  0.00     0.227 C 
ATOM      7  N10 ZIN A   1      19.192   0.674  11.992  0.00  0.00    -0.067 N 
ATOM      8  H11 ZIN A   1      18.997   0.773  12.977  0.00  0.00     0.280 HD
ATOM      9  C12 ZIN A   1      19.744   1.935  11.480  0.00  0.00     0.270 C 
ATOM     10  C13 ZIN A   1      20.178  -0.394  11.800  0.00  0.00     0.236 C 
ATOM     11  C14 ZIN A   1      20.513  -0.538  10.311  0.00  0.00     0.048 C 
ATOM     12  C15 ZIN A   1      19.220  -0.834   9.555  0.00  0.00     0.058 C 
ATOM     13  C16 ZIN A   1      18.575  -2.074  10.123  0.00  0.00    -0.001 A 
ATOM     14  C17 ZIN A   1      18.922  -3.141   9.307  0.00  0.00     0.111 A 
ATOM     15  O18 ZIN A   1      19.658  -2.709   8.260  0.00  0.00    -0.334 OA
ATOM     16  C19 ZIN A   1      19.478  -1.265   8.119  0.00  0.00     0.214 C 
ATOM     17  C21 ZIN A   1      18.303  -1.051   7.213  0.00  0.00     0.157 C 
ATOM     18  O22 ZIN A   1      18.208  -1.733   6.221  0.00  0.00    -0.295 OA
ATOM     19  C23 ZIN A   1      17.238  -0.029   7.479  0.00  0.00     0.084 C 
ATOM     20  C24 ZIN A   1      16.903  -0.003   8.972  0.00  0.00     0.048 C 
ATOM     21  C25 ZIN A   1      18.243   0.284   9.783  0.00  0.00     0.102 C 
ENDROOT
BRANCH   1  22
ATOM     22  O2  ZIN A   1      18.770  -5.513   8.922  0.00  0.00    -0.353 OA
ATOM     23  C1  ZIN A   1      20.113  -5.991   9.020  0.00  0.00     0.210 C 
ENDBRANCH   1  22
BRANCH  21  24
ATOM     24  O26 ZIN A   1      18.813   1.519   9.344  0.00  0.00    -0.386 OA
ATOM     25  H45 ZIN A   1      18.708   1.685   8.397  0.00  0.00     0.210 HD
ENDBRANCH  21  24
TORSDOF 2
ENDMDL
MODEL 5
REMARK VINA RESULT:      -6.8      2.497      4.417
REMARK  2 active torsions:
REMARK  status: ('A' for Active; 'I' for Inactive)
REMARK    1  A    between atoms: O2_2  and  C3_3 
REMARK    2  A    between atoms: C25_23  and  O26_24 
ROOT
ATOM      1  C3  ZIN A   1      18.838   0.183   7.180  0.00  0.00     0.102 A 
ATOM      2  C4  ZIN A   1      18.071  -0.978   7.115  0.00  0.00     0.040 A 
ATOM      3  C5  ZIN A   1      17.643  -1.670   8.235  0.00  0.00     0.011 A 
ATOM      4  C6  ZIN A   1      17.986  -1.227   9.500  0.00  0.00    -0.046 A 
ATOM      5  C7  ZIN A   1      17.484  -1.820  10.778  0.00  0.00     0.075 C 
ATOM      6  C8  ZIN A   1      18.038  -1.140  12.018  0.00  0.00     0.227 C 
ATOM      7  N10 ZIN A   1      19.280  -1.790  12.452  0.00  0.00    -0.067 N 
ATOM      8  H11 ZIN A   1      19.104  -2.772  12.604  0.00  0.00     0.280 HD
ATOM      9  C12 ZIN A   1      19.728  -1.180  13.711  0.00  0.00     0.270 C 
ATOM     10  C13 ZIN A   1      20.333  -1.639  11.444  0.00  0.00     0.236 C 
ATOM     11  C14 ZIN A   1      20.639  -0.153  11.222  0.00  0.00     0.048 C 
ATOM     12  C15 ZIN A   1      19.350   0.542  10.788  0.00  0.00     0.058 C 
ATOM     13  C16 ZIN A   1      18.810  -0.126   9.548  0.00  0.00    -0.001 A 
ATOM     14  C17 ZIN A   1      19.210   0.628   8.454  0.00  0.00     0.111 A 
ATOM     15  O18 ZIN A   1      19.886   1.723   8.863  0.00  0.00    -0.334 OA
ATOM     16  C19 ZIN A   1      19.601   1.954  10.279  0.00  0.00     0.214 C 
ATOM     17  C21 ZIN A   1      18.391   2.836  10.350  0.00  0.00     0.157 C 
ATOM     18  O22 ZIN A   1      18.318   3.777   9.597  0.00  0.00    -0.295 OA
ATOM     19  C23 ZIN A   1      17.264   2.605  11.312  0.00  0.00     0.084 C 
ATOM     20  C24 ZIN A   1      16.966   1.107  11.417  0.00  0.00     0.048 C 
ATOM     21  C25 ZIN A   1      18.304   0.358  11.849  0.00  0.00     0.102 C 
ENDROOT
BRANCH   1  22
ATOM     22  O2  ZIN A   1      19.214   0.850   6.057  0.00  0.00    -0.353 OA
ATOM     23  C1  ZIN A   1      19.244   0.105   4.838  0.00  0.00     0.210 C 
ENDBRANCH   1  22
BRANCH  21  24
ATOM     24  O26 ZIN A   1      18.774   0.896  13.087  0.00  0.00    -0.386 OA
ATOM     25  H45 ZIN A   1      19.012   1.832  13.044  0.00  0.00     0.210 HD
ENDBRANCH  21  24
TORSDOF 2
ENDMDL
MODEL 6
REMARK VINA RESULT:      -6.8      2.676      5.308
REMARK  2 active torsions:
REMARK  status: ('A' for Active; 'I' for Inactive)
REMARK    1  A    between atoms: O2_2  and  C3_3 
REMARK    2  A    between atoms: C25_23  and  O26_24 
ROOT
ATOM      1  C3  ZIN A   1      19.125  -2.321   7.147  0.00  0.00     0.102 A 
ATOM      2  C4  ZIN A   1      18.298  -3.421   7.366  0.00  0.00     0.040 A 
ATOM      3  C5  ZIN A   1      17.743  -3.720   8.600  0.00  0.00     0.011 A 
ATOM      4  C6  ZIN A   1      18.012  -2.921   9.696  0.00  0.00    -0.046 A 
ATOM      5  C7  ZIN A   1      17.377  -3.075  11.041  0.00  0.00     0.075 C 
ATOM      6  C8  ZIN A   1      17.871  -2.065  12.062  0.00  0.00     0.227 C 
ATOM      7  N10 ZIN A   1      19.034  -2.589  12.786  0.00  0.00    -0.067 N 
ATOM      8  H11 ZIN A   1      18.790  -3.470  13.212  0.00  0.00     0.280 HD
ATOM      9  C12 ZIN A   1      19.418  -1.635  13.836  0.00  0.00     0.270 C 
ATOM     10  C13 ZIN A   1      20.170  -2.789  11.882  0.00  0.00     0.236 C 
ATOM     11  C14 ZIN A   1      20.580  -1.454  11.249  0.00  0.00     0.048 C 
ATOM     12  C15 ZIN A   1      19.373  -0.886  10.506  0.00  0.00     0.058 C 
ATOM     13  C16 ZIN A   1      18.893  -1.886   9.483  0.00  0.00    -0.001 A 
ATOM     14  C17 ZIN A   1      19.421  -1.519   8.254  0.00  0.00     0.111 A 
ATOM     15  O18 ZIN A   1      20.126  -0.373   8.372  0.00  0.00    -0.334 OA
ATOM     16  C19 ZIN A   1      19.746   0.291   9.618  0.00  0.00     0.214 C 
ATOM     17  C21 ZIN A   1      18.588   1.191   9.305  0.00  0.00     0.157 C 
ATOM     18  O22 ZIN A   1      18.630   1.856   8.298  0.00  0.00    -0.295 OA
ATOM     19  C23 ZIN A   1      17.377   1.304  10.183  0.00  0.00     0.084 C 
ATOM     20  C24 ZIN A   1      16.984  -0.079  10.710  0.00  0.00     0.048 C 
ATOM     21  C25 ZIN A   1      18.237  -0.701  11.471  0.00  0.00     0.102 C 
ENDROOT
BRANCH   1  22
ATOM     22  O2  ZIN A   1      19.627  -2.045   5.914  0.00  0.00    -0.353 OA
ATOM     23  C1  ZIN A   1      18.865  -2.486   4.788  0.00  0.00     0.210 C 
ENDBRANCH   1  22
BRANCH  21  24
ATOM     24  O26 ZIN A   1      18.639   0.177  12.526  0.00  0.00    -0.386 OA
ATOM     25  H45 ZIN A   1      19.474   0.635  12.359  0.00  0.00     0.210 HD
ENDBRANCH  21  24
TORSDOF 2
ENDMDL
MODEL 7
REMARK VINA RESULT:      -6.8      2.204      3.475
REMARK  2 active torsions:
REMARK  status: ('A' for Active; 'I' for Inactive)
REMARK    1  A    between atoms: O2_2  and  C3_3 
REMARK    2  A    between atoms: C25_23  and  O26_24 
ROOT
ATOM      1  C3  ZIN A   1      19.109   2.379  15.777  0.00  0.00     0.102 A 
ATOM      2  C4  ZIN A   1      18.309   3.512  15.637  0.00  0.00     0.040 A 
ATOM      3  C5  ZIN A   1      17.741   3.897  14.434  0.00  0.00     0.011 A 
ATOM      4  C6  ZIN A   1      17.967   3.156  13.289  0.00  0.00    -0.046 A 
ATOM      5  C7  ZIN A   1      17.312   3.404  11.967  0.00  0.00     0.075 C 
ATOM      6  C8  ZIN A   1      17.759   2.442  10.881  0.00  0.00     0.227 C 
ATOM      7  N10 ZIN A   1      18.923   2.976  10.165  0.00  0.00    -0.067 N 
ATOM      8  H11 ZIN A   1      18.696   3.886   9.795  0.00  0.00     0.280 HD
ATOM      9  C12 ZIN A   1      19.261   2.074   9.055  0.00  0.00     0.270 C 
ATOM     10  C13 ZIN A   1      20.081   3.093  11.057  0.00  0.00     0.236 C 
ATOM     11  C14 ZIN A   1      20.465   1.713  11.604  0.00  0.00     0.048 C 
ATOM     12  C15 ZIN A   1      19.255   1.135  12.336  0.00  0.00     0.058 C 
ATOM     13  C16 ZIN A   1      18.822   2.086  13.424  0.00  0.00    -0.001 A 
ATOM     14  C17 ZIN A   1      19.362   1.634  14.619  0.00  0.00     0.111 A 
ATOM     15  O18 ZIN A   1      20.033   0.479  14.422  0.00  0.00    -0.334 OA
ATOM     16  C19 ZIN A   1      19.611  -0.102  13.148  0.00  0.00     0.214 C 
ATOM     17  C21 ZIN A   1      18.434  -0.987  13.431  0.00  0.00     0.157 C 
ATOM     18  O22 ZIN A   1      18.476  -1.710  14.397  0.00  0.00    -0.295 OA
ATOM     19  C23 ZIN A   1      17.205  -1.016  12.573  0.00  0.00     0.084 C 
ATOM     20  C24 ZIN A   1      16.842   0.405  12.134  0.00  0.00     0.048 C 
ATOM     21  C25 ZIN A   1      18.098   1.036  11.385  0.00  0.00     0.102 C 
ENDROOT
BRANCH   1  22
ATOM     22  O2  ZIN A   1      19.625   2.019  16.981  0.00  0.00    -0.353 OA
ATOM     23  C1  ZIN A   1      18.910   1.030  17.725  0.00  0.00     0.210 C 
ENDBRANCH   1  22
BRANCH  21  24
ATOM     24  O26 ZIN A   1      18.456   0.211  10.274  0.00  0.00    -0.386 OA
ATOM     25  H45 ZIN A   1      17.913   0.354   9.487  0.00  0.00     0.210 HD
ENDBRANCH  21  24
TORSDOF 2
ENDMDL
MODEL 8
REMARK VINA RESULT:      -6.7      2.212      5.107
REMARK  2 active torsions:
REMARK  status: ('A' for Active; 'I' for Inactive)
REMARK    1  A    between atoms: O2_2  and  C3_3 
REMARK    2  A    between atoms: C25_23  and  O26_24 
ROOT
ATOM      1  C3  ZIN A   1      18.989  -2.217   9.422  0.00  0.00     0.102 A 
ATOM      2  C4  ZIN A   1      17.964  -2.875  10.100  0.00  0.00     0.040 A 
ATOM      3  C5  ZIN A   1      17.377  -2.382  11.253  0.00  0.00     0.011 A 
ATOM      4  C6  ZIN A   1      17.812  -1.189  11.800  0.00  0.00    -0.046 A 
ATOM      5  C7  ZIN A   1      17.177  -0.502  12.967  0.00  0.00     0.075 C 
ATOM      6  C8  ZIN A   1      17.874   0.788  13.361  0.00  0.00     0.227 C 
ATOM      7  N10 ZIN A   1      18.920   0.527  14.357  0.00  0.00    -0.067 N 
ATOM      8  H11 ZIN A   1      18.512   0.058  15.151  0.00  0.00     0.280 HD
ATOM      9  C12 ZIN A   1      19.498   1.804  14.795  0.00  0.00     0.270 C 
ATOM     10  C13 ZIN A   1      19.982  -0.312  13.794  0.00  0.00     0.236 C 
ATOM     11  C14 ZIN A   1      20.640   0.398  12.605  0.00  0.00     0.048 C 
ATOM     12  C15 ZIN A   1      19.559   0.694  11.568  0.00  0.00     0.058 C 
ATOM     13  C16 ZIN A   1      18.878  -0.591  11.167  0.00  0.00    -0.001 A 
ATOM     14  C17 ZIN A   1      19.452  -1.020   9.980  0.00  0.00     0.111 A 
ATOM     15  O18 ZIN A   1      20.371  -0.126   9.555  0.00  0.00    -0.334 OA
ATOM     16  C19 ZIN A   1      20.146   1.146  10.239  0.00  0.00     0.214 C 
ATOM     17  C21 ZIN A   1      19.184   1.935   9.401  0.00  0.00     0.157 C 
ATOM     18  O22 ZIN A   1      19.344   1.956   8.205  0.00  0.00    -0.295 OA
ATOM     19  C23 ZIN A   1      18.031   2.701   9.979  0.00  0.00     0.084 C 
ATOM     20  C24 ZIN A   1      17.380   1.892  11.104  0.00  0.00     0.048 C 
ATOM     21  C25 ZIN A   1      18.495   1.553  12.189  0.00  0.00     0.102 C 
ENDROOT
BRANCH   1  22
ATOM     22  O2  ZIN A   1      19.520  -2.720   8.276  0.00  0.00    -0.353 OA
ATOM     23  C1  ZIN A   1      19.045  -2.171   7.045  0.00  0.00     0.210 C 
ENDBRANCH   1  22
BRANCH  21  24
ATOM     24  O26 ZIN A   1      19.076   2.766  12.673  0.00  0.00    -0.386 OA
ATOM     25  H45 ZIN A   1      19.515   2.677  13.530  0.00  0.00     0.210 HD
ENDBRANCH  21  24
TORSDOF 2
ENDMDL
MODEL 9
REMARK VINA RESULT:      -6.6      3.440      5.874
REMARK  2 active torsions:
REMARK  status: ('A' for Active; 'I' for Inactive)
REMARK    1  A    between atoms: O2_2  and  C3_3 
REMARK    2  A    between atoms: C25_23  and  O26_24 
ROOT
ATOM      1  C3  ZIN A   1      19.693  -0.452   9.199  0.00  0.00     0.102 A 
ATOM      2  C4  ZIN A   1      20.324  -0.496  10.440  0.00  0.00     0.040 A 
ATOM      3  C5  ZIN A   1      20.390  -1.640  11.219  0.00  0.00     0.011 A 
ATOM      4  C6  ZIN A   1      19.798  -2.812  10.785  0.00  0.00    -0.046 A 
ATOM      5  C7  ZIN A   1      19.907  -4.132  11.480  0.00  0.00     0.075 C 
ATOM      6  C8  ZIN A   1      19.144  -5.246  10.785  0.00  0.00     0.227 C 
ATOM      7  N10 ZIN A   1      17.772  -5.330  11.297  0.00  0.00    -0.067 N 
ATOM      8  H11 ZIN A   1      17.799  -5.455  12.298  0.00  0.00     0.280 HD
ATOM      9  C12 ZIN A   1      17.098  -6.482  10.684  0.00  0.00     0.270 C 
ATOM     10  C13 ZIN A   1      17.018  -4.111  10.984  0.00  0.00     0.236 C 
ATOM     11  C14 ZIN A   1      16.936  -3.920   9.465  0.00  0.00     0.048 C 
ATOM     12  C15 ZIN A   1      18.359  -3.850   8.914  0.00  0.00     0.058 C 
ATOM     13  C16 ZIN A   1      19.110  -2.734   9.596  0.00  0.00    -0.001 A 
ATOM     14  C17 ZIN A   1      19.072  -1.627   8.760  0.00  0.00     0.111 A 
ATOM     15  O18 ZIN A   1      18.438  -1.934   7.607  0.00  0.00    -0.334 OA
ATOM     16  C19 ZIN A   1      18.392  -3.388   7.465  0.00  0.00     0.214 C 
ATOM     17  C21 ZIN A   1      19.636  -3.802   6.737  0.00  0.00     0.157 C 
ATOM     18  O22 ZIN A   1      19.990  -3.150   5.784  0.00  0.00    -0.295 OA
ATOM     19  C23 ZIN A   1      20.464  -4.987   7.136  0.00  0.00     0.084 C 
ATOM     20  C24 ZIN A   1      20.564  -5.063   8.662  0.00  0.00     0.048 C 
ATOM     21  C25 ZIN A   1      19.090  -5.115   9.261  0.00  0.00     0.102 C 
ENDROOT
BRANCH   1  22
ATOM     22  O2  ZIN A   1      19.676   0.683   8.451  0.00  0.00    -0.353 OA
ATOM     23  C1  ZIN A   1      18.847   1.752   8.912  0.00  0.00     0.210 C 
ENDBRANCH   1  22
BRANCH  21  24
ATOM     24  O26 ZIN A   1      18.393  -6.239   8.717  0.00  0.00    -0.386 OA
ATOM     25  H45 ZIN A   1      18.647  -6.457   7.810  0.00  0.00     0.210 HD
ENDBRANCH  21  24
TORSDOF 2
ENDMDL
