MODEL 1
REMARK VINA RESULT:      -8.2      0.000      0.000
REMARK  9 active torsions:
REMARK  status: ('A' for Active; 'I' for Inactive)
REMARK    1  A    between atoms: C2_2  and  C3_3 
REMARK    2  A    between atoms: C3_3  and  C4_4 
REMARK    3  A    between atoms: C6_6  and  C7_7 
REMARK    4  A    between atoms: C7_7  and  O10_10 
REMARK    5  A    between atoms: C11_11  and  C12_12 
REMARK    6  A    between atoms: N15_15  and  C16_16 
REMARK    7  A    between atoms: C16_16  and  C17_17 
REMARK    8  A    between atoms: C20_20  and  C21_21 
REMARK    9  A    between atoms: C26_26  and  C27_27 
ROOT
ATOM      1  C17 ZIN A   1      19.117  -2.404  12.891  0.00  0.00    -0.040 A 
ATOM      2  C18 ZIN A   1      17.783  -2.449  12.526  0.00  0.00     0.010 A 
ATOM      3  C19 ZIN A   1      17.382  -3.222  11.456  0.00  0.00     0.013 A 
ATOM      4  C20 ZIN A   1      18.326  -3.961  10.741  0.00  0.00    -0.025 A 
ATOM      5  C32 ZIN A   1      19.667  -3.916  11.117  0.00  0.00     0.013 A 
ATOM      6  C33 ZIN A   1      20.056  -3.135  12.186  0.00  0.00     0.010 A 
ENDROOT
BRANCH   1   7
ATOM      7  C16 ZIN A   1      19.547  -1.558  14.061  0.00  0.00     0.169 C 
BRANCH   7   8
ATOM      8  N15 ZIN A   1      18.989  -0.211  13.920  0.00  0.00    -0.324 N 
ATOM      9  C4  ZIN A   1      18.044   0.348  14.696  0.00  0.00     0.107 A 
ATOM     10  N5  ZIN A   1      17.798   1.563  14.276  0.00  0.00    -0.234 NA
ATOM     11  C6  ZIN A   1      18.557   1.836  13.216  0.00  0.00     0.103 A 
ATOM     12  C11 ZIN A   1      19.332   0.725  12.960  0.00  0.00     0.141 A 
BRANCH   9  13
ATOM     13  C3  ZIN A   1      17.376  -0.320  15.870  0.00  0.00     0.078 C 
BRANCH  13  14
ATOM     14  C2  ZIN A   1      17.846   0.341  17.167  0.00  0.00     0.003 C 
ATOM     15  C1  ZIN A   1      19.114  -0.355  17.664  0.00  0.00     0.005 C 
ENDBRANCH  13  14
ENDBRANCH   9  13
BRANCH  11  16
ATOM     16  C7  ZIN A   1      18.567   3.127  12.437  0.00  0.00     0.097 C 
ATOM     17  C8  ZIN A   1      17.771   2.948  11.143  0.00  0.00     0.052 C 
ATOM     18  C9  ZIN A   1      17.929   4.235  13.278  0.00  0.00     0.052 C 
BRANCH  16  19
ATOM     19  O10 ZIN A   1      19.914   3.483  12.122  0.00  0.00    -0.384 OA
ATOM     20  H47 ZIN A   1      20.429   3.784  12.883  0.00  0.00     0.211 HD
ENDBRANCH  16  19
ENDBRANCH  11  16
BRANCH  12  21
ATOM     21  C12 ZIN A   1      20.316   0.566  11.890  0.00  0.00     0.229 C 
ATOM     22  O13 ZIN A   1      21.503   0.760  12.116  0.00  0.00    -0.643 OA
ATOM     23  O14 ZIN A   1      19.953   0.237  10.768  0.00  0.00    -0.643 OA
ENDBRANCH  12  21
ENDBRANCH   7   8
ENDBRANCH   1   7
BRANCH   4  24
ATOM     24  C21 ZIN A   1      17.903  -4.795   9.592  0.00  0.00    -0.012 A 
ATOM     25  C26 ZIN A   1      17.895  -4.257   8.293  0.00  0.00     0.026 A 
ATOM     26  C25 ZIN A   1      17.491  -5.050   7.222  0.00  0.00     0.016 A 
ATOM     27  C24 ZIN A   1      17.099  -6.356   7.440  0.00  0.00     0.001 A 
ATOM     28  C23 ZIN A   1      17.104  -6.884   8.719  0.00  0.00     0.001 A 
ATOM     29  C22 ZIN A   1      17.503  -6.113   9.792  0.00  0.00     0.013 A 
BRANCH  25  30
ATOM     30  C27 ZIN A   1      18.318  -2.859   8.066  0.00  0.00     0.207 A 
ATOM     31  N31 ZIN A   1      19.488  -2.448   7.575  0.00  0.00    -0.106 NA
ATOM     32  N30 ZIN A   1      19.461  -1.159   7.532  0.00  0.00    -0.021 NA
ATOM     33  N29 ZIN A   1      18.325  -0.745   7.973  0.00  0.00    -0.021 NA
ATOM     34  N28 ZIN A   1      17.600  -1.758   8.304  0.00  0.00    -0.106 NA
ENDBRANCH  25  30
ENDBRANCH   4  24
TORSDOF 9
ENDMDL
MODEL 2
REMARK VINA RESULT:      -8.1      2.146      8.443
REMARK  9 active torsions:
REMARK  status: ('A' for Active; 'I' for Inactive)
REMARK    1  A    between atoms: C2_2  and  C3_3 
REMARK    2  A    between atoms: C3_3  and  C4_4 
REMARK    3  A    between atoms: C6_6  and  C7_7 
REMARK    4  A    between atoms: C7_7  and  O10_10 
REMARK    5  A    between atoms: C11_11  and  C12_12 
REMARK    6  A    between atoms: N15_15  and  C16_16 
REMARK    7  A    between atoms: C16_16  and  C17_17 
REMARK    8  A    between atoms: C20_20  and  C21_21 
REMARK    9  A    between atoms: C26_26  and  C27_27 
ROOT
ATOM      1  C17 ZIN A   1      19.084   2.317   9.907  0.00  0.00    -0.040 A 
ATOM      2  C18 ZIN A   1      17.723   2.503  10.080  0.00  0.00     0.010 A 
ATOM      3  C19 ZIN A   1      17.256   3.261  11.135  0.00  0.00     0.013 A 
ATOM      4  C20 ZIN A   1      18.158   3.840  12.027  0.00  0.00    -0.025 A 
ATOM      5  C32 ZIN A   1      19.527   3.653  11.844  0.00  0.00     0.013 A 
ATOM      6  C33 ZIN A   1      19.982   2.890  10.789  0.00  0.00     0.010 A 
ENDROOT
BRANCH   1   7
ATOM      7  C16 ZIN A   1      19.587   1.489   8.753  0.00  0.00     0.169 C 
BRANCH   7   8
ATOM      8  N15 ZIN A   1      19.037   0.135   8.848  0.00  0.00    -0.324 N 
ATOM      9  C4  ZIN A   1      18.148  -0.426   8.010  0.00  0.00     0.107 A 
ATOM     10  N5  ZIN A   1      17.890  -1.647   8.403  0.00  0.00    -0.234 NA
ATOM     11  C6  ZIN A   1      18.584  -1.923   9.505  0.00  0.00     0.103 A 
ATOM     12  C11 ZIN A   1      19.330  -0.806   9.818  0.00  0.00     0.141 A 
BRANCH   9  13
ATOM     13  C3  ZIN A   1      17.546   0.246   6.803  0.00  0.00     0.078 C 
BRANCH  13  14
ATOM     14  C2  ZIN A   1      17.946  -0.520   5.540  0.00  0.00     0.003 C 
ATOM     15  C1  ZIN A   1      19.268   0.035   5.006  0.00  0.00     0.005 C 
ENDBRANCH  13  14
ENDBRANCH   9  13
BRANCH  11  16
ATOM     16  C7  ZIN A   1      18.561  -3.221  10.271  0.00  0.00     0.097 C 
ATOM     17  C8  ZIN A   1      17.561  -3.114  11.424  0.00  0.00     0.052 C 
ATOM     18  C9  ZIN A   1      18.142  -4.358   9.337  0.00  0.00     0.052 C 
BRANCH  16  19
ATOM     19  O10 ZIN A   1      19.863  -3.490  10.794  0.00  0.00    -0.384 OA
ATOM     20  H47 ZIN A   1      20.569  -2.983  10.371  0.00  0.00     0.211 HD
ENDBRANCH  16  19
ENDBRANCH  11  16
BRANCH  12  21
ATOM     21  C12 ZIN A   1      20.245  -0.647  10.948  0.00  0.00     0.229 C 
ATOM     22  O13 ZIN A   1      21.454  -0.694  10.769  0.00  0.00    -0.643 OA
ATOM     23  O14 ZIN A   1      19.800  -0.465  12.075  0.00  0.00    -0.643 OA
ENDBRANCH  12  21
ENDBRANCH   7   8
ENDBRANCH   1   7
BRANCH   4  24
ATOM     24  C21 ZIN A   1      17.663   4.656  13.161  0.00  0.00    -0.012 A 
ATOM     25  C26 ZIN A   1      17.663   4.128  14.464  0.00  0.00     0.026 A 
ATOM     26  C25 ZIN A   1      17.190   4.904  15.520  0.00  0.00     0.016 A 
ATOM     27  C24 ZIN A   1      16.724   6.182  15.283  0.00  0.00     0.001 A 
ATOM     28  C23 ZIN A   1      16.723   6.700  14.000  0.00  0.00     0.001 A 
ATOM     29  C22 ZIN A   1      17.188   5.945  12.941  0.00  0.00     0.013 A 
BRANCH  25  30
ATOM     30  C27 ZIN A   1      18.164   2.760  14.712  0.00  0.00     0.207 A 
ATOM     31  N31 ZIN A   1      19.311   2.425  15.307  0.00  0.00    -0.106 NA
ATOM     32  N30 ZIN A   1      19.375   1.137  15.330  0.00  0.00    -0.021 NA
ATOM     33  N29 ZIN A   1      18.320   0.651  14.777  0.00  0.00    -0.021 NA
ATOM     34  N28 ZIN A   1      17.556   1.616  14.392  0.00  0.00    -0.106 NA
ENDBRANCH  25  30
ENDBRANCH   4  24
TORSDOF 9
ENDMDL
MODEL 3
REMARK VINA RESULT:      -8.0      3.111      8.219
REMARK  9 active torsions:
REMARK  status: ('A' for Active; 'I' for Inactive)
REMARK    1  A    between atoms: C2_2  and  C3_3 
REMARK    2  A    between atoms: C3_3  and  C4_4 
REMARK    3  A    between atoms: C6_6  and  C7_7 
REMARK    4  A    between atoms: C7_7  and  O10_10 
REMARK    5  A    between atoms: C11_11  and  C12_12 
REMARK    6  A    between atoms: N15_15  and  C16_16 
REMARK    7  A    between atoms: C16_16  and  C17_17 
REMARK    8  A    between atoms: C20_20  and  C21_21 
REMARK    9  A    between atoms: C26_26  and  C27_27 
ROOT
ATOM      1  C17 ZIN A   1      19.034  -2.106  10.629  0.00  0.00    -0.040 A 
ATOM      2  C18 ZIN A   1      20.048  -1.168  10.715  0.00  0.00     0.010 A 
ATOM      3  C19 ZIN A   1      19.748   0.162  10.924  0.00  0.00     0.013 A 
ATOM      4  C20 ZIN A   1      18.417   0.561  11.049  0.00  0.00    -0.025 A 
ATOM      5  C32 ZIN A   1      17.400  -0.388  10.966  0.00  0.00     0.013 A 
ATOM      6  C33 ZIN A   1      17.713  -1.715  10.752  0.00  0.00     0.010 A 
ENDROOT
BRANCH   1   7
ATOM      7  C16 ZIN A   1      19.369  -3.557  10.401  0.00  0.00     0.169 C 
BRANCH   7   8
ATOM      8  N15 ZIN A   1      18.503  -4.099   9.351  0.00  0.00    -0.324 N 
ATOM      9  C4  ZIN A   1      18.620  -3.883   8.029  0.00  0.00     0.107 A 
ATOM     10  N5  ZIN A   1      17.674  -4.531   7.397  0.00  0.00    -0.234 NA
ATOM     11  C6  ZIN A   1      16.906  -5.177   8.273  0.00  0.00     0.103 A 
ATOM     12  C11 ZIN A   1      17.408  -4.924   9.533  0.00  0.00     0.141 A 
BRANCH   9  13
ATOM     13  C3  ZIN A   1      19.679  -3.033   7.376  0.00  0.00     0.078 C 
BRANCH  13  14
ATOM     14  C2  ZIN A   1      19.011  -1.961   6.512  0.00  0.00     0.003 C 
ATOM     15  C1  ZIN A   1      19.052  -0.618   7.243  0.00  0.00     0.005 C 
ENDBRANCH  13  14
ENDBRANCH   9  13
BRANCH  11  16
ATOM     16  C7  ZIN A   1      15.708  -6.031   7.947  0.00  0.00     0.097 C 
ATOM     17  C8  ZIN A   1      15.377  -5.898   6.459  0.00  0.00     0.052 C 
ATOM     18  C9  ZIN A   1      16.020  -7.493   8.270  0.00  0.00     0.052 C 
BRANCH  16  19
ATOM     19  O10 ZIN A   1      14.590  -5.600   8.724  0.00  0.00    -0.384 OA
ATOM     20  H47 ZIN A   1      14.829  -5.212   9.577  0.00  0.00     0.211 HD
ENDBRANCH  16  19
ENDBRANCH  11  16
BRANCH  12  21
ATOM     21  C12 ZIN A   1      16.887  -5.424  10.804  0.00  0.00     0.229 C 
ATOM     22  O13 ZIN A   1      17.296  -6.484  11.259  0.00  0.00    -0.643 OA
ATOM     23  O14 ZIN A   1      16.040  -4.783  11.414  0.00  0.00    -0.643 OA
ENDBRANCH  12  21
ENDBRANCH   7   8
ENDBRANCH   1   7
BRANCH   4  24
ATOM     24  C21 ZIN A   1      18.087   1.988  11.275  0.00  0.00    -0.012 A 
ATOM     25  C26 ZIN A   1      17.986   2.492  12.583  0.00  0.00     0.026 A 
ATOM     26  C25 ZIN A   1      17.670   3.834  12.782  0.00  0.00     0.016 A 
ATOM     27  C24 ZIN A   1      17.457   4.660  11.696  0.00  0.00     0.001 A 
ATOM     28  C23 ZIN A   1      17.553   4.163  10.408  0.00  0.00     0.001 A 
ATOM     29  C22 ZIN A   1      17.866   2.836  10.193  0.00  0.00     0.013 A 
BRANCH  25  30
ATOM     30  C27 ZIN A   1      18.218   1.603  13.742  0.00  0.00     0.207 A 
ATOM     31  N31 ZIN A   1      19.377   1.393  14.367  0.00  0.00    -0.106 NA
ATOM     32  N30 ZIN A   1      19.156   0.555  15.323  0.00  0.00    -0.021 NA
ATOM     33  N29 ZIN A   1      17.911   0.233  15.324  0.00  0.00    -0.021 NA
ATOM     34  N28 ZIN A   1      17.307   0.859  14.373  0.00  0.00    -0.106 NA
ENDBRANCH  25  30
ENDBRANCH   4  24
TORSDOF 9
ENDMDL
MODEL 4
REMARK VINA RESULT:      -7.8      2.311      8.140
REMARK  9 active torsions:
REMARK  status: ('A' for Active; 'I' for Inactive)
REMARK    1  A    between atoms: C2_2  and  C3_3 
REMARK    2  A    between atoms: C3_3  and  C4_4 
REMARK    3  A    between atoms: C6_6  and  C7_7 
REMARK    4  A    between atoms: C7_7  and  O10_10 
REMARK    5  A    between atoms: C11_11  and  C12_12 
REMARK    6  A    between atoms: N15_15  and  C16_16 
REMARK    7  A    between atoms: C16_16  and  C17_17 
REMARK    8  A    between atoms: C20_20  and  C21_21 
REMARK    9  A    between atoms: C26_26  and  C27_27 
ROOT
ATOM      1  C17 ZIN A   1      19.524   0.292  10.147  0.00  0.00    -0.040 A 
ATOM      2  C18 ZIN A   1      20.266   1.030  11.052  0.00  0.00     0.010 A 
ATOM      3  C19 ZIN A   1      19.688   2.089  11.722  0.00  0.00     0.013 A 
ATOM      4  C20 ZIN A   1      18.353   2.414  11.486  0.00  0.00    -0.025 A 
ATOM      5  C32 ZIN A   1      17.609   1.664  10.576  0.00  0.00     0.013 A 
ATOM      6  C33 ZIN A   1      18.200   0.610   9.909  0.00  0.00     0.010 A 
ENDROOT
BRANCH   1   7
ATOM      7  C16 ZIN A   1      20.161  -0.864   9.419  0.00  0.00     0.169 C 
BRANCH   7   8
ATOM      8  N15 ZIN A   1      19.175  -1.933   9.243  0.00  0.00    -0.324 N 
ATOM      9  C4  ZIN A   1      18.557  -2.268   8.098  0.00  0.00     0.107 A 
ATOM     10  N5  ZIN A   1      17.746  -3.272   8.318  0.00  0.00    -0.234 NA
ATOM     11  C6  ZIN A   1      17.797  -3.619   9.603  0.00  0.00     0.103 A 
ATOM     12  C11 ZIN A   1      18.701  -2.785  10.225  0.00  0.00     0.141 A 
BRANCH   9  13
ATOM     13  C3  ZIN A   1      18.767  -1.594   6.766  0.00  0.00     0.078 C 
BRANCH  13  14
ATOM     14  C2  ZIN A   1      17.758  -0.456   6.606  0.00  0.00     0.003 C 
ATOM     15  C1  ZIN A   1      18.497   0.831   6.234  0.00  0.00     0.005 C 
ENDBRANCH  13  14
ENDBRANCH   9  13
BRANCH  11  16
ATOM     16  C7  ZIN A   1      17.010  -4.725  10.258  0.00  0.00     0.097 C 
ATOM     17  C8  ZIN A   1      15.950  -5.242   9.284  0.00  0.00     0.052 C 
ATOM     18  C9  ZIN A   1      17.954  -5.868  10.638  0.00  0.00     0.052 C 
BRANCH  16  19
ATOM     19  O10 ZIN A   1      16.371  -4.224  11.433  0.00  0.00    -0.384 OA
ATOM     20  H47 ZIN A   1      15.439  -3.998  11.309  0.00  0.00     0.211 HD
ENDBRANCH  16  19
ENDBRANCH  11  16
BRANCH  12  21
ATOM     21  C12 ZIN A   1      19.082  -2.796  11.637  0.00  0.00     0.229 C 
ATOM     22  O13 ZIN A   1      18.388  -2.220  12.464  0.00  0.00    -0.643 OA
ATOM     23  O14 ZIN A   1      20.098  -3.382  11.992  0.00  0.00    -0.643 OA
ENDBRANCH  12  21
ENDBRANCH   7   8
ENDBRANCH   1   7
BRANCH   4  24
ATOM     24  C21 ZIN A   1      17.725   3.549  12.202  0.00  0.00    -0.012 A 
ATOM     25  C26 ZIN A   1      17.591   3.514  13.601  0.00  0.00     0.026 A 
ATOM     26  C25 ZIN A   1      16.995   4.586  14.262  0.00  0.00     0.016 A 
ATOM     27  C24 ZIN A   1      16.539   5.673  13.543  0.00  0.00     0.001 A 
ATOM     28  C23 ZIN A   1      16.670   5.706  12.165  0.00  0.00     0.001 A 
ATOM     29  C22 ZIN A   1      17.259   4.653  11.494  0.00  0.00     0.013 A 
BRANCH  25  30
ATOM     30  C27 ZIN A   1      18.081   2.349  14.366  0.00  0.00     0.207 A 
ATOM     31  N31 ZIN A   1      19.161   2.304  15.148  0.00  0.00    -0.106 NA
ATOM     32  N30 ZIN A   1      19.240   1.112  15.633  0.00  0.00    -0.021 NA
ATOM     33  N29 ZIN A   1      18.258   0.408  15.190  0.00  0.00    -0.021 NA
ATOM     34  N28 ZIN A   1      17.527   1.135  14.417  0.00  0.00    -0.106 NA
ENDBRANCH  25  30
ENDBRANCH   4  24
TORSDOF 9
ENDMDL
MODEL 5
REMARK VINA RESULT:      -7.7      4.128      6.938
REMARK  9 active torsions:
REMARK  status: ('A' for Active; 'I' for Inactive)
REMARK    1  A    between atoms: C2_2  and  C3_3 
REMARK    2  A    between atoms: C3_3  and  C4_4 
REMARK    3  A    between atoms: C6_6  and  C7_7 
REMARK    4  A    between atoms: C7_7  and  O10_10 
REMARK    5  A    between atoms: C11_11  and  C12_12 
REMARK    6  A    between atoms: N15_15  and  C16_16 
REMARK    7  A    between atoms: C16_16  and  C17_17 
REMARK    8  A    between atoms: C20_20  and  C21_21 
REMARK    9  A    between atoms: C26_26  and  C27_27 
ROOT
ATOM      1  C17 ZIN A   1      18.564   5.255  13.678  0.00  0.00    -0.040 A 
ATOM      2  C18 ZIN A   1      17.411   4.627  13.242  0.00  0.00     0.010 A 
ATOM      3  C19 ZIN A   1      17.475   3.675  12.245  0.00  0.00     0.013 A 
ATOM      4  C20 ZIN A   1      18.706   3.347  11.676  0.00  0.00    -0.025 A 
ATOM      5  C32 ZIN A   1      19.864   3.980  12.123  0.00  0.00     0.013 A 
ATOM      6  C33 ZIN A   1      19.787   4.933  13.118  0.00  0.00     0.010 A 
ENDROOT
BRANCH   1   7
ATOM      7  C16 ZIN A   1      18.487   6.293  14.768  0.00  0.00     0.169 C 
BRANCH   7   8
ATOM      8  N15 ZIN A   1      17.914   5.691  15.975  0.00  0.00    -0.324 N 
ATOM      9  C4  ZIN A   1      16.789   6.076  16.601  0.00  0.00     0.107 A 
ATOM     10  N5  ZIN A   1      16.585   5.306  17.641  0.00  0.00    -0.234 NA
ATOM     11  C6  ZIN A   1      17.563   4.407  17.736  0.00  0.00     0.103 A 
ATOM     12  C11 ZIN A   1      18.431   4.623  16.687  0.00  0.00     0.141 A 
BRANCH   9  13
ATOM     13  C3  ZIN A   1      15.899   7.213  16.171  0.00  0.00     0.078 C 
BRANCH  13  14
ATOM     14  C2  ZIN A   1      14.459   6.712  16.041  0.00  0.00     0.003 C 
ATOM     15  C1  ZIN A   1      14.251   6.116  14.647  0.00  0.00     0.005 C 
ENDBRANCH  13  14
ENDBRANCH   9  13
BRANCH  11  16
ATOM     16  C7  ZIN A   1      17.697   3.346  18.798  0.00  0.00     0.097 C 
ATOM     17  C8  ZIN A   1      16.664   3.594  19.899  0.00  0.00     0.052 C 
ATOM     18  C9  ZIN A   1      17.457   1.969  18.176  0.00  0.00     0.052 C 
BRANCH  16  19
ATOM     19  O10 ZIN A   1      19.010   3.394  19.357  0.00  0.00    -0.384 OA
ATOM     20  H47 ZIN A   1      19.710   3.540  18.706  0.00  0.00     0.211 HD
ENDBRANCH  16  19
ENDBRANCH  11  16
BRANCH  12  21
ATOM     21  C12 ZIN A   1      19.652   3.876  16.387  0.00  0.00     0.229 C 
ATOM     22  O13 ZIN A   1      19.582   2.768  15.873  0.00  0.00    -0.643 OA
ATOM     23  O14 ZIN A   1      20.746   4.361  16.650  0.00  0.00    -0.643 OA
ENDBRANCH  12  21
ENDBRANCH   7   8
ENDBRANCH   1   7
BRANCH   4  24
ATOM     24  C21 ZIN A   1      18.783   2.326  10.605  0.00  0.00    -0.012 A 
ATOM     25  C26 ZIN A   1      18.888   0.964  10.934  0.00  0.00     0.026 A 
ATOM     26  C25 ZIN A   1      18.964   0.014   9.918  0.00  0.00     0.016 A 
ATOM     27  C24 ZIN A   1      18.936   0.414   8.597  0.00  0.00     0.001 A 
ATOM     28  C23 ZIN A   1      18.835   1.756   8.273  0.00  0.00     0.001 A 
ATOM     29  C22 ZIN A   1      18.758   2.710   9.268  0.00  0.00     0.013 A 
BRANCH  25  30
ATOM     30  C27 ZIN A   1      18.915   0.541  12.351  0.00  0.00     0.207 A 
ATOM     31  N31 ZIN A   1      17.863   0.253  13.118  0.00  0.00    -0.106 NA
ATOM     32  N30 ZIN A   1      18.310  -0.073  14.283  0.00  0.00    -0.021 NA
ATOM     33  N29 ZIN A   1      19.594  -0.003  14.279  0.00  0.00    -0.021 NA
ATOM     34  N28 ZIN A   1      19.998   0.365  13.111  0.00  0.00    -0.106 NA
ENDBRANCH  25  30
ENDBRANCH   4  24
TORSDOF 9
ENDMDL
MODEL 6
REMARK VINA RESULT:      -7.6      2.855      8.124
REMARK  9 active torsions:
REMARK  status: ('A' for Active; 'I' for Inactive)
REMARK    1  A    between atoms: C2_2  and  C3_3 
REMARK    2  A    between atoms: C3_3  and  C4_4 
REMARK    3  A    between atoms: C6_6  and  C7_7 
REMARK    4  A    between atoms: C7_7  and  O10_10 
REMARK    5  A    between atoms: C11_11  and  C12_12 
REMARK    6  A    between atoms: N15_15  and  C16_16 
REMARK    7  A    between atoms: C16_16  and  C17_17 
REMARK    8  A    between atoms: C20_20  and  C21_21 
REMARK    9  A    between atoms: C26_26  and  C27_27 
ROOT
ATOM      1  C17 ZIN A   1      17.545  -0.424   9.920  0.00  0.00    -0.040 A 
ATOM      2  C18 ZIN A   1      16.534  -0.145  10.822  0.00  0.00     0.010 A 
ATOM      3  C19 ZIN A   1      16.839   0.163  12.132  0.00  0.00     0.013 A 
ATOM      4  C20 ZIN A   1      18.171   0.194  12.546  0.00  0.00    -0.025 A 
ATOM      5  C32 ZIN A   1      19.185  -0.083  11.631  0.00  0.00     0.013 A 
ATOM      6  C33 ZIN A   1      18.867  -0.395  10.325  0.00  0.00     0.010 A 
ENDROOT
BRANCH   1   7
ATOM      7  C16 ZIN A   1      17.205  -0.759   8.490  0.00  0.00     0.169 C 
BRANCH   7   8
ATOM      8  N15 ZIN A   1      18.199  -1.696   7.959  0.00  0.00    -0.324 N 
ATOM      9  C4  ZIN A   1      19.138  -1.425   7.037  0.00  0.00     0.107 A 
ATOM     10  N5  ZIN A   1      19.849  -2.500   6.811  0.00  0.00    -0.234 NA
ATOM     11  C6  ZIN A   1      19.399  -3.505   7.561  0.00  0.00     0.103 A 
ATOM     12  C11 ZIN A   1      18.344  -3.026   8.309  0.00  0.00     0.141 A 
BRANCH   9  13
ATOM     13  C3  ZIN A   1      19.343  -0.089   6.370  0.00  0.00     0.078 C 
BRANCH  13  14
ATOM     14  C2  ZIN A   1      19.396  -0.280   4.853  0.00  0.00     0.003 C 
ATOM     15  C1  ZIN A   1      18.032  -0.759   4.352  0.00  0.00     0.005 C 
ENDBRANCH  13  14
ENDBRANCH   9  13
BRANCH  11  16
ATOM     16  C7  ZIN A   1      19.945  -4.909   7.588  0.00  0.00     0.097 C 
ATOM     17  C8  ZIN A   1      20.028  -5.396   9.036  0.00  0.00     0.052 C 
ATOM     18  C9  ZIN A   1      19.018  -5.832   6.794  0.00  0.00     0.052 C 
BRANCH  16  19
ATOM     19  O10 ZIN A   1      21.248  -4.927   7.005  0.00  0.00    -0.384 OA
ATOM     20  H47 ZIN A   1      21.463  -4.131   6.499  0.00  0.00     0.211 HD
ENDBRANCH  16  19
ENDBRANCH  11  16
BRANCH  12  21
ATOM     21  C12 ZIN A   1      17.540  -3.773   9.276  0.00  0.00     0.229 C 
ATOM     22  O13 ZIN A   1      17.748  -3.646  10.475  0.00  0.00    -0.643 OA
ATOM     23  O14 ZIN A   1      16.657  -4.527   8.885  0.00  0.00    -0.643 OA
ENDBRANCH  12  21
ENDBRANCH   7   8
ENDBRANCH   1   7
BRANCH   4  24
ATOM     24  C21 ZIN A   1      18.505   0.525  13.951  0.00  0.00    -0.012 A 
ATOM     25  C26 ZIN A   1      18.717   1.861  14.331  0.00  0.00     0.026 A 
ATOM     26  C25 ZIN A   1      19.036   2.158  15.654  0.00  0.00     0.016 A 
ATOM     27  C24 ZIN A   1      19.144   1.142  16.583  0.00  0.00     0.001 A 
ATOM     28  C23 ZIN A   1      18.938  -0.174  16.207  0.00  0.00     0.001 A 
ATOM     29  C22 ZIN A   1      18.620  -0.486  14.900  0.00  0.00     0.013 A 
BRANCH  25  30
ATOM     30  C27 ZIN A   1      18.599   2.945  13.333  0.00  0.00     0.207 A 
ATOM     31  N31 ZIN A   1      17.546   3.741  13.140  0.00  0.00    -0.106 NA
ATOM     32  N30 ZIN A   1      17.842   4.552  12.181  0.00  0.00    -0.021 NA
ATOM     33  N29 ZIN A   1      19.034   4.300  11.767  0.00  0.00    -0.021 NA
ATOM     34  N28 ZIN A   1      19.528   3.326  12.453  0.00  0.00    -0.106 NA
ENDBRANCH  25  30
ENDBRANCH   4  24
TORSDOF 9
ENDMDL
MODEL 7
REMARK VINA RESULT:      -7.6      2.851      4.630
REMARK  9 active torsions:
REMARK  status: ('A' for Active; 'I' for Inactive)
REMARK    1  A    between atoms: C2_2  and  C3_3 
REMARK    2  A    between atoms: C3_3  and  C4_4 
REMARK    3  A    between atoms: C6_6  and  C7_7 
REMARK    4  A    between atoms: C7_7  and  O10_10 
REMARK    5  A    between atoms: C11_11  and  C12_12 
REMARK    6  A    between atoms: N15_15  and  C16_16 
REMARK    7  A    between atoms: C16_16  and  C17_17 
REMARK    8  A    between atoms: C20_20  and  C21_21 
REMARK    9  A    between atoms: C26_26  and  C27_27 
ROOT
ATOM      1  C17 ZIN A   1      17.672   0.578  12.704  0.00  0.00    -0.040 A 
ATOM      2  C18 ZIN A   1      16.663   0.232  11.823  0.00  0.00     0.010 A 
ATOM      3  C19 ZIN A   1      16.970  -0.347  10.609  0.00  0.00     0.013 A 
ATOM      4  C20 ZIN A   1      18.303  -0.584  10.271  0.00  0.00    -0.025 A 
ATOM      5  C32 ZIN A   1      19.314  -0.238  11.164  0.00  0.00     0.013 A 
ATOM      6  C33 ZIN A   1      18.995   0.345  12.374  0.00  0.00     0.010 A 
ENDROOT
BRANCH   1   7
ATOM      7  C16 ZIN A   1      17.329   1.210  14.029  0.00  0.00     0.169 C 
BRANCH   7   8
ATOM      8  N15 ZIN A   1      18.011   2.502  14.143  0.00  0.00    -0.324 N 
ATOM      9  C4  ZIN A   1      18.097   3.447  13.191  0.00  0.00     0.107 A 
ATOM     10  N5  ZIN A   1      18.776   4.467  13.650  0.00  0.00    -0.234 NA
ATOM     11  C6  ZIN A   1      19.163   4.226  14.902  0.00  0.00     0.103 A 
ATOM     12  C11 ZIN A   1      18.690   2.978  15.251  0.00  0.00     0.141 A 
BRANCH   9  13
ATOM     13  C3  ZIN A   1      17.501   3.347  11.811  0.00  0.00     0.078 C 
BRANCH  13  14
ATOM     14  C2  ZIN A   1      18.521   3.834  10.779  0.00  0.00     0.003 C 
ATOM     15  C1  ZIN A   1      18.423   2.970   9.520  0.00  0.00     0.005 C 
ENDBRANCH  13  14
ENDBRANCH   9  13
BRANCH  11  16
ATOM     16  C7  ZIN A   1      19.969   5.149  15.778  0.00  0.00     0.097 C 
ATOM     17  C8  ZIN A   1      20.699   6.172  14.905  0.00  0.00     0.052 C 
ATOM     18  C9  ZIN A   1      19.036   5.879  16.746  0.00  0.00     0.052 C 
BRANCH  16  19
ATOM     19  O10 ZIN A   1      20.925   4.389  16.520  0.00  0.00    -0.384 OA
ATOM     20  H47 ZIN A   1      21.716   4.154  16.017  0.00  0.00     0.211 HD
ENDBRANCH  16  19
ENDBRANCH  11  16
BRANCH  12  21
ATOM     21  C12 ZIN A   1      18.871   2.295  16.531  0.00  0.00     0.229 C 
ATOM     22  O13 ZIN A   1      18.017   2.388  17.402  0.00  0.00    -0.643 OA
ATOM     23  O14 ZIN A   1      19.879   1.628  16.732  0.00  0.00    -0.643 OA
ENDBRANCH  12  21
ENDBRANCH   7   8
ENDBRANCH   1   7
BRANCH   4  24
ATOM     24  C21 ZIN A   1      18.640  -1.207   8.969  0.00  0.00    -0.012 A 
ATOM     25  C26 ZIN A   1      18.719  -2.605   8.854  0.00  0.00     0.026 A 
ATOM     26  C25 ZIN A   1      19.041  -3.178   7.626  0.00  0.00     0.016 A 
ATOM     27  C24 ZIN A   1      19.284  -2.372   6.532  0.00  0.00     0.001 A 
ATOM     28  C23 ZIN A   1      19.209  -0.995   6.646  0.00  0.00     0.001 A 
ATOM     29  C22 ZIN A   1      18.889  -0.411   7.856  0.00  0.00     0.013 A 
BRANCH  25  30
ATOM     30  C27 ZIN A   1      18.457  -3.464  10.029  0.00  0.00     0.207 A 
ATOM     31  N31 ZIN A   1      17.278  -3.962  10.407  0.00  0.00    -0.106 NA
ATOM     32  N30 ZIN A   1      17.475  -4.657  11.476  0.00  0.00    -0.021 NA
ATOM     33  N29 ZIN A   1      18.724  -4.617  11.783  0.00  0.00    -0.021 NA
ATOM     34  N28 ZIN A   1      19.354  -3.900  10.916  0.00  0.00    -0.106 NA
ENDBRANCH  25  30
ENDBRANCH   4  24
TORSDOF 9
ENDMDL
MODEL 8
REMARK VINA RESULT:      -7.5      2.815      7.652
REMARK  9 active torsions:
REMARK  status: ('A' for Active; 'I' for Inactive)
REMARK    1  A    between atoms: C2_2  and  C3_3 
REMARK    2  A    between atoms: C3_3  and  C4_4 
REMARK    3  A    between atoms: C6_6  and  C7_7 
REMARK    4  A    between atoms: C7_7  and  O10_10 
REMARK    5  A    between atoms: C11_11  and  C12_12 
REMARK    6  A    between atoms: N15_15  and  C16_16 
REMARK    7  A    between atoms: C16_16  and  C17_17 
REMARK    8  A    between atoms: C20_20  and  C21_21 
REMARK    9  A    between atoms: C26_26  and  C27_27 
ROOT
ATOM      1  C17 ZIN A   1      18.577  -4.910   9.537  0.00  0.00    -0.040 A 
ATOM      2  C18 ZIN A   1      19.748  -4.499  10.149  0.00  0.00     0.010 A 
ATOM      3  C19 ZIN A   1      19.720  -3.501  11.101  0.00  0.00     0.013 A 
ATOM      4  C20 ZIN A   1      18.507  -2.905  11.446  0.00  0.00    -0.025 A 
ATOM      5  C32 ZIN A   1      17.330  -3.326  10.830  0.00  0.00     0.013 A 
ATOM      6  C33 ZIN A   1      17.372  -4.323   9.876  0.00  0.00     0.010 A 
ENDROOT
BRANCH   1   7
ATOM      7  C16 ZIN A   1      18.615  -6.002   8.499  0.00  0.00     0.169 C 
BRANCH   7   8
ATOM      8  N15 ZIN A   1      18.013  -5.513   7.256  0.00  0.00    -0.324 N 
ATOM      9  C4  ZIN A   1      16.909  -5.995   6.660  0.00  0.00     0.107 A 
ATOM     10  N5  ZIN A   1      16.667  -5.310   5.572  0.00  0.00    -0.234 NA
ATOM     11  C6  ZIN A   1      17.600  -4.373   5.412  0.00  0.00     0.103 A 
ATOM     12  C11 ZIN A   1      18.477  -4.473   6.471  0.00  0.00     0.141 A 
BRANCH   9  13
ATOM     13  C3  ZIN A   1      16.076  -7.143   7.170  0.00  0.00     0.078 C 
BRANCH  13  14
ATOM     14  C2  ZIN A   1      14.593  -6.782   7.066  0.00  0.00     0.003 C 
ATOM     15  C1  ZIN A   1      14.161  -6.033   8.328  0.00  0.00     0.005 C 
ENDBRANCH  13  14
ENDBRANCH   9  13
BRANCH  11  16
ATOM     16  C7  ZIN A   1      17.681  -3.382   4.279  0.00  0.00     0.097 C 
ATOM     17  C8  ZIN A   1      16.677  -3.767   3.191  0.00  0.00     0.052 C 
ATOM     18  C9  ZIN A   1      17.354  -1.981   4.802  0.00  0.00     0.052 C 
BRANCH  16  19
ATOM     19  O10 ZIN A   1      19.001  -3.389   3.733  0.00  0.00    -0.384 OA
ATOM     20  H47 ZIN A   1      19.030  -3.270   2.774  0.00  0.00     0.211 HD
ENDBRANCH  16  19
ENDBRANCH  11  16
BRANCH  12  21
ATOM     21  C12 ZIN A   1      19.660  -3.647   6.715  0.00  0.00     0.229 C 
ATOM     22  O13 ZIN A   1      19.538  -2.533   7.206  0.00  0.00    -0.643 OA
ATOM     23  O14 ZIN A   1      20.772  -4.072   6.430  0.00  0.00    -0.643 OA
ENDBRANCH  12  21
ENDBRANCH   7   8
ENDBRANCH   1   7
BRANCH   4  24
ATOM     24  C21 ZIN A   1      18.469  -1.833  12.469  0.00  0.00    -0.012 A 
ATOM     25  C26 ZIN A   1      18.370  -0.487  12.077  0.00  0.00     0.026 A 
ATOM     26  C25 ZIN A   1      18.341   0.512  13.048  0.00  0.00     0.016 A 
ATOM     27  C24 ZIN A   1      18.409   0.176  14.386  0.00  0.00     0.001 A 
ATOM     28  C23 ZIN A   1      18.509  -1.150  14.770  0.00  0.00     0.001 A 
ATOM     29  C22 ZIN A   1      18.539  -2.152  13.821  0.00  0.00     0.013 A 
BRANCH  25  30
ATOM     30  C27 ZIN A   1      18.296  -0.133  10.644  0.00  0.00     0.207 A 
ATOM     31  N31 ZIN A   1      19.323   0.080   9.820  0.00  0.00    -0.106 NA
ATOM     32  N30 ZIN A   1      18.837   0.361   8.658  0.00  0.00    -0.021 NA
ATOM     33  N29 ZIN A   1      17.552   0.333   8.719  0.00  0.00    -0.021 NA
ATOM     34  N28 ZIN A   1      17.188   0.029   9.917  0.00  0.00    -0.106 NA
ENDBRANCH  25  30
ENDBRANCH   4  24
TORSDOF 9
ENDMDL
MODEL 9
REMARK VINA RESULT:      -7.4      3.763      8.245
REMARK  9 active torsions:
REMARK  status: ('A' for Active; 'I' for Inactive)
REMARK    1  A    between atoms: C2_2  and  C3_3 
REMARK    2  A    between atoms: C3_3  and  C4_4 
REMARK    3  A    between atoms: C6_6  and  C7_7 
REMARK    4  A    between atoms: C7_7  and  O10_10 
REMARK    5  A    between atoms: C11_11  and  C12_12 
REMARK    6  A    between atoms: N15_15  and  C16_16 
REMARK    7  A    between atoms: C16_16  and  C17_17 
REMARK    8  A    between atoms: C20_20  and  C21_21 
REMARK    9  A    between atoms: C26_26  and  C27_27 
ROOT
ATOM      1  C17 ZIN A   1      18.822  -4.855   9.840  0.00  0.00    -0.040 A 
ATOM      2  C18 ZIN A   1      19.926  -4.286  10.450  0.00  0.00     0.010 A 
ATOM      3  C19 ZIN A   1      19.768  -3.233  11.328  0.00  0.00     0.013 A 
ATOM      4  C20 ZIN A   1      18.491  -2.743  11.600  0.00  0.00    -0.025 A 
ATOM      5  C32 ZIN A   1      17.382  -3.323  10.987  0.00  0.00     0.013 A 
ATOM      6  C33 ZIN A   1      17.553  -4.372  10.107  0.00  0.00     0.010 A 
ENDROOT
BRANCH   1   7
ATOM      7  C16 ZIN A   1      19.002  -6.004   8.883  0.00  0.00     0.169 C 
BRANCH   7   8
ATOM      8  N15 ZIN A   1      18.309  -5.706   7.627  0.00  0.00    -0.324 N 
ATOM      9  C4  ZIN A   1      18.707  -4.834   6.684  0.00  0.00     0.107 A 
ATOM     10  N5  ZIN A   1      17.844  -4.834   5.700  0.00  0.00    -0.234 NA
ATOM     11  C6  ZIN A   1      16.856  -5.687   5.965  0.00  0.00     0.103 A 
ATOM     12  C11 ZIN A   1      17.121  -6.264   7.189  0.00  0.00     0.141 A 
BRANCH   9  13
ATOM     13  C3  ZIN A   1      19.955  -3.992   6.748  0.00  0.00     0.078 C 
BRANCH  13  14
ATOM     14  C2  ZIN A   1      19.575  -2.540   7.045  0.00  0.00     0.003 C 
ATOM     15  C1  ZIN A   1      19.330  -1.798   5.730  0.00  0.00     0.005 C 
ENDBRANCH  13  14
ENDBRANCH   9  13
BRANCH  11  16
ATOM     16  C7  ZIN A   1      15.666  -5.972   5.086  0.00  0.00     0.097 C 
ATOM     17  C8  ZIN A   1      15.650  -4.989   3.914  0.00  0.00     0.052 C 
ATOM     18  C9  ZIN A   1      15.757  -7.403   4.550  0.00  0.00     0.052 C 
BRANCH  16  19
ATOM     19  O10 ZIN A   1      14.465  -5.825   5.846  0.00  0.00    -0.384 OA
ATOM     20  H47 ZIN A   1      14.035  -4.965   5.740  0.00  0.00     0.211 HD
ENDBRANCH  16  19
ENDBRANCH  11  16
BRANCH  12  21
ATOM     21  C12 ZIN A   1      16.311  -7.262   7.886  0.00  0.00     0.229 C 
ATOM     22  O13 ZIN A   1      15.268  -6.932   8.433  0.00  0.00    -0.643 OA
ATOM     23  O14 ZIN A   1      16.677  -8.431   7.921  0.00  0.00    -0.643 OA
ENDBRANCH  12  21
ENDBRANCH   7   8
ENDBRANCH   1   7
BRANCH   4  24
ATOM     24  C21 ZIN A   1      18.313  -1.613  12.543  0.00  0.00    -0.012 A 
ATOM     25  C26 ZIN A   1      18.154  -0.304  12.056  0.00  0.00     0.026 A 
ATOM     26  C25 ZIN A   1      17.993   0.749  12.953  0.00  0.00     0.016 A 
ATOM     27  C24 ZIN A   1      17.993   0.504  14.312  0.00  0.00     0.001 A 
ATOM     28  C23 ZIN A   1      18.152  -0.784  14.791  0.00  0.00     0.001 A 
ATOM     29  C22 ZIN A   1      18.312  -1.840  13.916  0.00  0.00     0.013 A 
BRANCH  25  30
ATOM     30  C27 ZIN A   1      18.153  -0.048  10.600  0.00  0.00     0.207 A 
ATOM     31  N31 ZIN A   1      17.089  -0.014   9.796  0.00  0.00    -0.106 NA
ATOM     32  N30 ZIN A   1      17.512   0.241   8.604  0.00  0.00    -0.021 NA
ATOM     33  N29 ZIN A   1      18.792   0.368   8.627  0.00  0.00    -0.021 NA
ATOM     34  N28 ZIN A   1      19.216   0.202   9.832  0.00  0.00    -0.106 NA
ENDBRANCH  25  30
ENDBRANCH   4  24
TORSDOF 9
ENDMDL
