MODEL 1
REMARK VINA RESULT:      -7.0      0.000      0.000
REMARK  6 active torsions:
REMARK  status: ('A' for Active; 'I' for Inactive)
REMARK    1  A    between atoms: C2_2  and  O4_4 
REMARK    2  A    between atoms: O4_4  and  C5_5 
REMARK    3  A    between atoms: C7_6  and  N9_7 
REMARK    4  A    between atoms: C26_21  and  O28_22 
REMARK    5  A    between atoms: O28_22  and  C29_23 
REMARK    6  A    between atoms: C32_26  and  N34_27 
ROOT
ATOM      1  C5  ZIN A   1      19.615   4.697  14.584  0.00  0.00     0.171 C 
ATOM      2  C7  ZIN A   1      18.419   4.424  15.531  0.00  0.00     0.220 C 
ATOM      3  C16 ZIN A   1      17.608   3.265  14.890  0.00  0.00     0.042 C 
ATOM      4  C17 ZIN A   1      18.653   2.557  14.020  0.00  0.00     0.003 C 
ATOM      5  C19 ZIN A   1      18.106   1.718  12.880  0.00  0.00    -0.005 C 
ATOM      6  C21 ZIN A   1      17.264   0.564  13.425  0.00  0.00     0.006 C 
ATOM      7  C22 ZIN A   1      16.768  -0.299  12.263  0.00  0.00     0.006 C 
ATOM      8  C23 ZIN A   1      17.966  -0.863  11.497  0.00  0.00    -0.004 C 
ATOM      9  C25 ZIN A   1      17.469  -1.723  10.334  0.00  0.00     0.040 C 
ATOM     10  C26 ZIN A   1      18.668  -2.288   9.569  0.00  0.00     0.163 C 
ATOM     11  C32 ZIN A   1      19.514  -1.135   9.024  0.00  0.00     0.218 C 
ATOM     12  C41 ZIN A   1      20.011  -0.275  10.188  0.00  0.00     0.046 C 
ATOM     13  C42 ZIN A   1      18.813   0.290  10.953  0.00  0.00    -0.034 C 
ATOM     14  C43 ZIN A   1      17.966   1.150  10.013  0.00  0.00     0.016 C 
ATOM     15  C44 ZIN A   1      19.311   1.167  12.102  0.00  0.00    -0.002 C 
ATOM     16  C46 ZIN A   1      20.197   2.285  11.561  0.00  0.00     0.007 C 
ATOM     17  C47 ZIN A   1      20.642   3.239  12.682  0.00  0.00     0.012 C 
ATOM     18  C48 ZIN A   1      19.413   3.761  13.398  0.00  0.00    -0.011 C 
ATOM     19  C49 ZIN A   1      18.460   4.402  12.388  0.00  0.00     0.018 C 
ENDROOT
BRANCH   2  20
ATOM     20  N9  ZIN A   1      17.581   5.625  15.644  0.00  0.00    -0.064 N 
ATOM     21  C15 ZIN A   1      16.945   5.900  14.350  0.00  0.00     0.237 C 
ATOM     22  C14 ZIN A   1      16.009   7.102  14.483  0.00  0.00     0.028 C 
ATOM     23  C13 ZIN A   1      16.815   8.325  14.928  0.00  0.00     0.003 C 
ATOM     24  C12 ZIN A   1      17.533   8.001  16.242  0.00  0.00     0.028 C 
ATOM     25  C11 ZIN A   1      18.414   6.765  16.043  0.00  0.00     0.237 C 
ATOM     26  C10 ZIN A   1      16.543   5.402  16.660  0.00  0.00     0.273 C 
ENDBRANCH   2  20
BRANCH   1  27
ATOM     27  O4  ZIN A   1      19.601   6.080  14.143  0.00  0.00    -0.313 OA
BRANCH  27  28
ATOM     28  C2  ZIN A   1      20.736   6.780  14.292  0.00  0.00     0.255 C 
ATOM     29  C1  ZIN A   1      21.897   6.182  15.043  0.00  0.00     0.126 C 
ATOM     30  O3  ZIN A   1      20.827   7.890  13.824  0.00  0.00    -0.266 OA
ENDBRANCH  27  28
ENDBRANCH   1  27
BRANCH  11  31
ATOM     31  N34 ZIN A   1      18.698  -0.313   8.121  0.00  0.00    -0.064 N 
ATOM     32  H35 ZIN A   1      18.053   0.243   8.664  0.00  0.00     0.280 HD
ATOM     33  C40 ZIN A   1      19.573   0.573   7.344  0.00  0.00     0.235 C 
ATOM     34  C39 ZIN A   1      18.722   1.490   6.462  0.00  0.00     0.028 C 
ATOM     35  C38 ZIN A   1      17.884   0.634   5.507  0.00  0.00     0.003 C 
ATOM     36  C37 ZIN A   1      17.030  -0.339   6.326  0.00  0.00     0.028 C 
ATOM     37  C36 ZIN A   1      17.944  -1.187   7.215  0.00  0.00     0.235 C 
ENDBRANCH  11  31
BRANCH  10  38
ATOM     38  O28 ZIN A   1      19.474  -3.100  10.463  0.00  0.00    -0.314 OA
BRANCH  38  39
ATOM     39  C29 ZIN A   1      19.161  -4.402  10.552  0.00  0.00     0.255 C 
ATOM     40  C30 ZIN A   1      19.463  -5.330   9.404  0.00  0.00     0.126 C 
ATOM     41  O31 ZIN A   1      18.637  -4.830  11.554  0.00  0.00    -0.266 OA
ENDBRANCH  38  39
ENDBRANCH  10  38
TORSDOF 6
ENDMDL
MODEL 2
REMARK VINA RESULT:      -6.7      4.832     11.946
REMARK  6 active torsions:
REMARK  status: ('A' for Active; 'I' for Inactive)
REMARK    1  A    between atoms: C2_2  and  O4_4 
REMARK    2  A    between atoms: O4_4  and  C5_5 
REMARK    3  A    between atoms: C7_6  and  N9_7 
REMARK    4  A    between atoms: C26_21  and  O28_22 
REMARK    5  A    between atoms: O28_22  and  C29_23 
REMARK    6  A    between atoms: C32_26  and  N34_27 
ROOT
ATOM      1  C5  ZIN A   1      15.365  -8.035   7.575  0.00  0.00     0.171 C 
ATOM      2  C7  ZIN A   1      16.550  -9.025   7.457  0.00  0.00     0.220 C 
ATOM      3  C16 ZIN A   1      17.821  -8.243   7.885  0.00  0.00     0.042 C 
ATOM      4  C17 ZIN A   1      17.254  -7.129   8.774  0.00  0.00     0.003 C 
ATOM      5  C19 ZIN A   1      18.131  -5.902   8.938  0.00  0.00    -0.005 C 
ATOM      6  C21 ZIN A   1      19.441  -6.274   9.635  0.00  0.00     0.006 C 
ATOM      7  C22 ZIN A   1      20.286  -5.015   9.839  0.00  0.00     0.006 C 
ATOM      8  C23 ZIN A   1      19.515  -4.017  10.706  0.00  0.00    -0.004 C 
ATOM      9  C25 ZIN A   1      20.359  -2.757  10.908  0.00  0.00     0.040 C 
ATOM     10  C26 ZIN A   1      19.589  -1.761  11.776  0.00  0.00     0.163 C 
ATOM     11  C32 ZIN A   1      18.276  -1.389  11.083  0.00  0.00     0.218 C 
ATOM     12  C41 ZIN A   1      17.432  -2.650  10.882  0.00  0.00     0.046 C 
ATOM     13  C42 ZIN A   1      18.202  -3.646  10.014  0.00  0.00    -0.034 C 
ATOM     14  C43 ZIN A   1      18.500  -3.014   8.653  0.00  0.00     0.016 C 
ATOM     15  C44 ZIN A   1      17.348  -4.896   9.795  0.00  0.00    -0.002 C 
ATOM     16  C46 ZIN A   1      16.019  -4.515   9.152  0.00  0.00     0.007 C 
ATOM     17  C47 ZIN A   1      15.173  -5.760   8.836  0.00  0.00     0.012 C 
ATOM     18  C48 ZIN A   1      15.990  -6.703   7.977  0.00  0.00    -0.011 C 
ATOM     19  C49 ZIN A   1      16.489  -5.967   6.732  0.00  0.00     0.018 C 
ENDROOT
BRANCH   2  20
ATOM     20  N9  ZIN A   1      16.685  -9.488   6.070  0.00  0.00    -0.064 N 
ATOM     21  C15 ZIN A   1      17.034  -8.352   5.208  0.00  0.00     0.237 C 
ATOM     22  C14 ZIN A   1      17.254  -8.842   3.776  0.00  0.00     0.028 C 
ATOM     23  C13 ZIN A   1      15.970  -9.498   3.262  0.00  0.00     0.003 C 
ATOM     24  C12 ZIN A   1      15.574 -10.634   4.210  0.00  0.00     0.028 C 
ATOM     25  C11 ZIN A   1      15.416 -10.078   5.627  0.00  0.00     0.237 C 
ATOM     26  C10 ZIN A   1      17.745 -10.502   5.993  0.00  0.00     0.273 C 
ENDBRANCH   2  20
BRANCH   1  27
ATOM     27  O4  ZIN A   1      14.687  -7.907   6.298  0.00  0.00    -0.313 OA
BRANCH  27  28
ATOM     28  C2  ZIN A   1      13.458  -7.368   6.311  0.00  0.00     0.255 C 
ATOM     29  C1  ZIN A   1      12.429  -7.858   7.296  0.00  0.00     0.126 C 
ATOM     30  O3  ZIN A   1      13.176  -6.490   5.530  0.00  0.00    -0.266 OA
ENDBRANCH  27  28
ENDBRANCH   1  27
BRANCH  11  31
ATOM     31  N34 ZIN A   1      18.567  -0.781   9.778  0.00  0.00    -0.064 N 
ATOM     32  H35 ZIN A   1      18.868  -1.498   9.133  0.00  0.00     0.280 HD
ATOM     33  C40 ZIN A   1      17.355  -0.136   9.260  0.00  0.00     0.235 C 
ATOM     34  C39 ZIN A   1      17.630   0.427   7.864  0.00  0.00     0.028 C 
ATOM     35  C38 ZIN A   1      18.760   1.457   7.949  0.00  0.00     0.003 C 
ATOM     36  C37 ZIN A   1      19.997   0.794   8.561  0.00  0.00     0.028 C 
ATOM     37  C36 ZIN A   1      19.634   0.215   9.931  0.00  0.00     0.235 C 
ENDBRANCH  11  31
BRANCH  10  38
ATOM     38  O28 ZIN A   1      19.301  -2.364  13.065  0.00  0.00    -0.314 OA
BRANCH  38  39
ATOM     39  C29 ZIN A   1      19.187  -1.534  14.114  0.00  0.00     0.255 C 
ATOM     40  C30 ZIN A   1      19.920  -0.217  14.117  0.00  0.00     0.126 C 
ATOM     41  O31 ZIN A   1      18.497  -1.843  15.058  0.00  0.00    -0.266 OA
ENDBRANCH  38  39
ENDBRANCH  10  38
TORSDOF 6
ENDMDL
MODEL 3
REMARK VINA RESULT:      -6.6      5.396      9.398
REMARK  6 active torsions:
REMARK  status: ('A' for Active; 'I' for Inactive)
REMARK    1  A    between atoms: C2_2  and  O4_4 
REMARK    2  A    between atoms: O4_4  and  C5_5 
REMARK    3  A    between atoms: C7_6  and  N9_7 
REMARK    4  A    between atoms: C26_21  and  O28_22 
REMARK    5  A    between atoms: O28_22  and  C29_23 
REMARK    6  A    between atoms: C32_26  and  N34_27 
ROOT
ATOM      1  C5  ZIN A   1      19.525  -3.015   9.173  0.00  0.00     0.171 C 
ATOM      2  C7  ZIN A   1      19.321  -3.860  10.454  0.00  0.00     0.220 C 
ATOM      3  C16 ZIN A   1      18.517  -5.118  10.027  0.00  0.00     0.042 C 
ATOM      4  C17 ZIN A   1      18.838  -5.238   8.533  0.00  0.00     0.003 C 
ATOM      5  C19 ZIN A   1      17.841  -6.025   7.703  0.00  0.00    -0.005 C 
ATOM      6  C21 ZIN A   1      17.792  -7.480   8.169  0.00  0.00     0.006 C 
ATOM      7  C22 ZIN A   1      16.821  -8.267   7.285  0.00  0.00     0.006 C 
ATOM      8  C23 ZIN A   1      17.297  -8.215   5.831  0.00  0.00    -0.004 C 
ATOM      9  C25 ZIN A   1      16.326  -8.999   4.947  0.00  0.00     0.040 C 
ATOM     10  C26 ZIN A   1      16.803  -8.948   3.495  0.00  0.00     0.163 C 
ATOM     11  C32 ZIN A   1      16.856  -7.492   3.027  0.00  0.00     0.218 C 
ATOM     12  C41 ZIN A   1      17.828  -6.708   3.911  0.00  0.00     0.046 C 
ATOM     13  C42 ZIN A   1      17.351  -6.759   5.363  0.00  0.00    -0.034 C 
ATOM     14  C43 ZIN A   1      15.958  -6.135   5.466  0.00  0.00     0.016 C 
ATOM     15  C44 ZIN A   1      18.312  -5.957   6.242  0.00  0.00    -0.002 C 
ATOM     16  C46 ZIN A   1      18.402  -4.519   5.741  0.00  0.00     0.007 C 
ATOM     17  C47 ZIN A   1      19.291  -3.661   6.657  0.00  0.00     0.012 C 
ATOM     18  C48 ZIN A   1      18.768  -3.754   8.075  0.00  0.00    -0.011 C 
ATOM     19  C49 ZIN A   1      17.290  -3.360   8.108  0.00  0.00     0.018 C 
ENDROOT
BRANCH   2  20
ATOM     20  N9  ZIN A   1      18.565  -3.091  11.451  0.00  0.00    -0.064 N 
ATOM     21  C15 ZIN A   1      17.778  -2.055  10.772  0.00  0.00     0.237 C 
ATOM     22  C14 ZIN A   1      16.926  -1.302  11.797  0.00  0.00     0.028 C 
ATOM     23  C13 ZIN A   1      17.843  -0.652  12.836  0.00  0.00     0.003 C 
ATOM     24  C12 ZIN A   1      18.712  -1.733  13.485  0.00  0.00     0.028 C 
ATOM     25  C11 ZIN A   1      19.498  -2.469  12.398  0.00  0.00     0.237 C 
ATOM     26  C10 ZIN A   1      17.661  -3.991  12.180  0.00  0.00     0.273 C 
ENDBRANCH   2  20
BRANCH   1  27
ATOM     27  O4  ZIN A   1      18.974  -1.684   9.355  0.00  0.00    -0.313 OA
BRANCH  27  28
ATOM     28  C2  ZIN A   1      19.674  -0.659   8.844  0.00  0.00     0.255 C 
ATOM     29  C1  ZIN A   1      19.239  -0.018   7.552  0.00  0.00     0.126 C 
ATOM     30  O3  ZIN A   1      20.654  -0.250   9.420  0.00  0.00    -0.266 OA
ENDBRANCH  27  28
ENDBRANCH   1  27
BRANCH  11  31
ATOM     31  N34 ZIN A   1      15.516  -6.897   3.125  0.00  0.00    -0.064 N 
ATOM     32  H35 ZIN A   1      15.352  -6.596   4.074  0.00  0.00     0.280 HD
ATOM     33  C40 ZIN A   1      15.428  -5.742   2.223  0.00  0.00     0.235 C 
ATOM     34  C39 ZIN A   1      14.063  -5.069   2.384  0.00  0.00     0.028 C 
ATOM     35  C38 ZIN A   1      12.962  -6.074   2.034  0.00  0.00     0.003 C 
ATOM     36  C37 ZIN A   1      13.108  -7.308   2.929  0.00  0.00     0.028 C 
ATOM     37  C36 ZIN A   1      14.510  -7.898   2.750  0.00  0.00     0.235 C 
ENDBRANCH  11  31
BRANCH  10  38
ATOM     38  O28 ZIN A   1      18.127  -9.535   3.400  0.00  0.00    -0.314 OA
BRANCH  38  39
ATOM     39  C29 ZIN A   1      18.584  -9.811   2.168  0.00  0.00     0.255 C 
ATOM     40  C30 ZIN A   1      17.749 -10.635   1.221  0.00  0.00     0.126 C 
ATOM     41  O31 ZIN A   1      19.666  -9.400   1.818  0.00  0.00    -0.266 OA
ENDBRANCH  38  39
ENDBRANCH  10  38
TORSDOF 6
ENDMDL
MODEL 4
REMARK VINA RESULT:      -6.5      2.758     10.251
REMARK  6 active torsions:
REMARK  status: ('A' for Active; 'I' for Inactive)
REMARK    1  A    between atoms: C2_2  and  O4_4 
REMARK    2  A    between atoms: O4_4  and  C5_5 
REMARK    3  A    between atoms: C7_6  and  N9_7 
REMARK    4  A    between atoms: C26_21  and  O28_22 
REMARK    5  A    between atoms: O28_22  and  C29_23 
REMARK    6  A    between atoms: C32_26  and  N34_27 
ROOT
ATOM      1  C5  ZIN A   1      19.606  -4.239   8.168  0.00  0.00     0.171 C 
ATOM      2  C7  ZIN A   1      18.464  -3.858   7.194  0.00  0.00     0.220 C 
ATOM      3  C16 ZIN A   1      17.645  -2.739   7.893  0.00  0.00     0.042 C 
ATOM      4  C17 ZIN A   1      18.659  -2.133   8.870  0.00  0.00     0.003 C 
ATOM      5  C19 ZIN A   1      18.074  -1.381  10.051  0.00  0.00    -0.005 C 
ATOM      6  C21 ZIN A   1      17.281  -0.166   9.568  0.00  0.00     0.006 C 
ATOM      7  C22 ZIN A   1      16.746   0.607  10.776  0.00  0.00     0.006 C 
ATOM      8  C23 ZIN A   1      17.916   1.075  11.643  0.00  0.00    -0.004 C 
ATOM      9  C25 ZIN A   1      17.380   1.845  12.851  0.00  0.00     0.040 C 
ATOM     10  C26 ZIN A   1      18.550   2.315  13.717  0.00  0.00     0.163 C 
ATOM     11  C32 ZIN A   1      19.347   1.101  14.199  0.00  0.00     0.218 C 
ATOM     12  C41 ZIN A   1      19.883   0.331  12.990  0.00  0.00     0.046 C 
ATOM     13  C42 ZIN A   1      18.713  -0.139  12.124  0.00  0.00    -0.034 C 
ATOM     14  C43 ZIN A   1      17.805  -1.056  12.946  0.00  0.00     0.016 C 
ATOM     15  C44 ZIN A   1      19.250  -0.927  10.928  0.00  0.00    -0.002 C 
ATOM     16  C46 ZIN A   1      20.087  -2.106  11.412  0.00  0.00     0.007 C 
ATOM     17  C47 ZIN A   1      20.568  -2.972  10.236  0.00  0.00     0.012 C 
ATOM     18  C48 ZIN A   1      19.365  -3.403   9.420  0.00  0.00    -0.011 C 
ATOM     19  C49 ZIN A   1      18.352  -4.105  10.326  0.00  0.00     0.018 C 
ENDROOT
BRANCH   2  20
ATOM     20  N9  ZIN A   1      17.609  -5.025   6.939  0.00  0.00    -0.064 N 
ATOM     21  C15 ZIN A   1      16.793  -5.302   8.127  0.00  0.00     0.237 C 
ATOM     22  C14 ZIN A   1      15.843  -6.466   7.839  0.00  0.00     0.028 C 
ATOM     23  C13 ZIN A   1      16.662  -7.709   7.479  0.00  0.00     0.003 C 
ATOM     24  C12 ZIN A   1      17.564  -7.386   6.284  0.00  0.00     0.028 C 
ATOM     25  C11 ZIN A   1      18.450  -6.188   6.630  0.00  0.00     0.237 C 
ATOM     26  C10 ZIN A   1      16.728  -4.746   5.796  0.00  0.00     0.273 C 
ENDBRANCH   2  20
BRANCH   1  27
ATOM     27  O4  ZIN A   1      19.544  -5.653   8.488  0.00  0.00    -0.313 OA
BRANCH  27  28
ATOM     28  C2  ZIN A   1      20.712  -6.288   8.675  0.00  0.00     0.255 C 
ATOM     29  C1  ZIN A   1      21.944  -5.836   7.935  0.00  0.00     0.126 C 
ATOM     30  O3  ZIN A   1      20.775  -7.225   9.436  0.00  0.00    -0.266 OA
ENDBRANCH  27  28
ENDBRANCH   1  27
BRANCH  11  31
ATOM     31  N34 ZIN A   1      18.472   0.224  14.989  0.00  0.00    -0.064 N 
ATOM     32  H35 ZIN A   1      17.774  -0.186  14.386  0.00  0.00     0.280 HD
ATOM     33  C40 ZIN A   1      19.275  -0.843  15.601  0.00  0.00     0.235 C 
ATOM     34  C39 ZIN A   1      18.357  -1.806  16.356  0.00  0.00     0.028 C 
ATOM     35  C38 ZIN A   1      17.611  -1.037  17.450  0.00  0.00     0.003 C 
ATOM     36  C37 ZIN A   1      16.837   0.119  16.811  0.00  0.00     0.028 C 
ATOM     37  C36 ZIN A   1      17.811   1.011  16.036  0.00  0.00     0.235 C 
ENDBRANCH  11  31
BRANCH  10  38
ATOM     38  O28 ZIN A   1      19.414   3.180  12.934  0.00  0.00    -0.314 OA
BRANCH  38  39
ATOM     39  C29 ZIN A   1      19.005   4.446  12.751  0.00  0.00     0.255 C 
ATOM     40  C30 ZIN A   1      18.982   5.406  13.912  0.00  0.00     0.126 C 
ATOM     41  O31 ZIN A   1      18.654   4.815  11.655  0.00  0.00    -0.266 OA
ENDBRANCH  38  39
ENDBRANCH  10  38
TORSDOF 6
ENDMDL
MODEL 5
REMARK VINA RESULT:      -6.5      4.277      7.556
REMARK  6 active torsions:
REMARK  status: ('A' for Active; 'I' for Inactive)
REMARK    1  A    between atoms: C2_2  and  O4_4 
REMARK    2  A    between atoms: O4_4  and  C5_5 
REMARK    3  A    between atoms: C7_6  and  N9_7 
REMARK    4  A    between atoms: C26_21  and  O28_22 
REMARK    5  A    between atoms: O28_22  and  C29_23 
REMARK    6  A    between atoms: C32_26  and  N34_27 
ROOT
ATOM      1  C5  ZIN A   1      18.956  -0.430  10.448  0.00  0.00     0.171 C 
ATOM      2  C7  ZIN A   1      19.977  -1.060  11.428  0.00  0.00     0.220 C 
ATOM      3  C16 ZIN A   1      19.886  -2.598  11.227  0.00  0.00     0.042 C 
ATOM      4  C17 ZIN A   1      19.333  -2.725   9.803  0.00  0.00     0.003 C 
ATOM      5  C19 ZIN A   1      18.647  -4.037   9.474  0.00  0.00    -0.005 C 
ATOM      6  C21 ZIN A   1      19.640  -5.196   9.569  0.00  0.00     0.006 C 
ATOM      7  C22 ZIN A   1      18.941  -6.501   9.182  0.00  0.00     0.006 C 
ATOM      8  C23 ZIN A   1      18.421  -6.395   7.747  0.00  0.00    -0.004 C 
ATOM      9  C25 ZIN A   1      17.720  -7.699   7.361  0.00  0.00     0.040 C 
ATOM     10  C26 ZIN A   1      17.201  -7.593   5.926  0.00  0.00     0.163 C 
ATOM     11  C32 ZIN A   1      16.209  -6.433   5.826  0.00  0.00     0.218 C 
ATOM     12  C41 ZIN A   1      16.911  -5.129   6.212  0.00  0.00     0.046 C 
ATOM     13  C42 ZIN A   1      17.429  -5.234   7.647  0.00  0.00    -0.034 C 
ATOM     14  C43 ZIN A   1      16.256  -5.478   8.598  0.00  0.00     0.016 C 
ATOM     15  C44 ZIN A   1      18.111  -3.922   8.039  0.00  0.00    -0.002 C 
ATOM     16  C46 ZIN A   1      17.134  -2.760   7.889  0.00  0.00     0.007 C 
ATOM     17  C47 ZIN A   1      17.760  -1.437   8.360  0.00  0.00     0.012 C 
ATOM     18  C48 ZIN A   1      18.253  -1.608   9.783  0.00  0.00    -0.011 C 
ATOM     19  C49 ZIN A   1      17.107  -2.097  10.671  0.00  0.00     0.018 C 
ENDROOT
BRANCH   2  20
ATOM     20  N9  ZIN A   1      19.631  -0.710  12.811  0.00  0.00    -0.064 N 
ATOM     21  C15 ZIN A   1      20.013  -1.810  13.704  0.00  0.00     0.237 C 
ATOM     22  C14 ZIN A   1      19.729  -1.418  15.155  0.00  0.00     0.028 C 
ATOM     23  C13 ZIN A   1      18.235  -1.123  15.316  0.00  0.00     0.003 C 
ATOM     24  C12 ZIN A   1      17.832  -0.025  14.328  0.00  0.00     0.028 C 
ATOM     25  C11 ZIN A   1      18.186  -0.469  12.907  0.00  0.00     0.237 C 
ATOM     26  C10 ZIN A   1      20.353   0.509  13.202  0.00  0.00     0.273 C 
ENDBRANCH   2  20
BRANCH   1  27
ATOM     27  O4  ZIN A   1      17.998   0.384  11.174  0.00  0.00    -0.313 OA
BRANCH  27  28
ATOM     28  C2  ZIN A   1      17.809   1.639  10.739  0.00  0.00     0.255 C 
ATOM     29  C1  ZIN A   1      18.567   2.143   9.539  0.00  0.00     0.126 C 
ATOM     30  O3  ZIN A   1      17.031   2.365  11.310  0.00  0.00    -0.266 OA
ENDBRANCH  27  28
ENDBRANCH   1  27
BRANCH  11  31
ATOM     31  N34 ZIN A   1      15.083  -6.672   6.739  0.00  0.00    -0.064 N 
ATOM     32  H35 ZIN A   1      15.300  -6.288   7.647  0.00  0.00     0.280 HD
ATOM     33  C40 ZIN A   1      13.878  -6.022   6.209  0.00  0.00     0.235 C 
ATOM     34  C39 ZIN A   1      12.723  -6.197   7.197  0.00  0.00     0.028 C 
ATOM     35  C38 ZIN A   1      12.452  -7.692   7.394  0.00  0.00     0.003 C 
ATOM     36  C37 ZIN A   1      13.736  -8.374   7.876  0.00  0.00     0.028 C 
ATOM     37  C36 ZIN A   1      14.855  -8.116   6.863  0.00  0.00     0.235 C 
ENDBRANCH  11  31
BRANCH  10  38
ATOM     38  O28 ZIN A   1      18.315  -7.356   5.025  0.00  0.00    -0.314 OA
BRANCH  38  39
ATOM     39  C29 ZIN A   1      18.090  -7.545   3.715  0.00  0.00     0.255 C 
ATOM     40  C30 ZIN A   1      17.796  -6.367   2.823  0.00  0.00     0.126 C 
ATOM     41  O31 ZIN A   1      18.123  -8.661   3.251  0.00  0.00    -0.266 OA
ENDBRANCH  38  39
ENDBRANCH  10  38
TORSDOF 6
ENDMDL
MODEL 6
REMARK VINA RESULT:      -6.1      5.370      9.074
REMARK  6 active torsions:
REMARK  status: ('A' for Active; 'I' for Inactive)
REMARK    1  A    between atoms: C2_2  and  O4_4 
REMARK    2  A    between atoms: O4_4  and  C5_5 
REMARK    3  A    between atoms: C7_6  and  N9_7 
REMARK    4  A    between atoms: C26_21  and  O28_22 
REMARK    5  A    between atoms: O28_22  and  C29_23 
REMARK    6  A    between atoms: C32_26  and  N34_27 
ROOT
ATOM      1  C5  ZIN A   1      19.465  -1.023   7.703  0.00  0.00     0.171 C 
ATOM      2  C7  ZIN A   1      19.699  -1.754   9.049  0.00  0.00     0.220 C 
ATOM      3  C16 ZIN A   1      19.160  -3.199   8.863  0.00  0.00     0.042 C 
ATOM      4  C17 ZIN A   1      19.235  -3.399   7.345  0.00  0.00     0.003 C 
ATOM      5  C19 ZIN A   1      18.328  -4.473   6.773  0.00  0.00    -0.005 C 
ATOM      6  C21 ZIN A   1      18.714  -5.845   7.327  0.00  0.00     0.006 C 
ATOM      7  C22 ZIN A   1      17.824  -6.918   6.697  0.00  0.00     0.006 C 
ATOM      8  C23 ZIN A   1      18.012  -6.913   5.179  0.00  0.00    -0.004 C 
ATOM      9  C25 ZIN A   1      17.120  -7.984   4.549  0.00  0.00     0.040 C 
ATOM     10  C26 ZIN A   1      17.310  -7.979   3.032  0.00  0.00     0.163 C 
ATOM     11  C32 ZIN A   1      16.927  -6.606   2.475  0.00  0.00     0.218 C 
ATOM     12  C41 ZIN A   1      17.820  -5.534   3.104  0.00  0.00     0.046 C 
ATOM     13  C42 ZIN A   1      17.630  -5.540   4.622  0.00  0.00    -0.034 C 
ATOM     14  C43 ZIN A   1      16.168  -5.239   4.955  0.00  0.00     0.016 C 
ATOM     15  C44 ZIN A   1      18.507  -4.453   5.247  0.00  0.00    -0.002 C 
ATOM     16  C46 ZIN A   1      18.158  -3.093   4.652  0.00  0.00     0.007 C 
ATOM     17  C47 ZIN A   1      18.960  -1.965   5.324  0.00  0.00     0.012 C 
ATOM     18  C48 ZIN A   1      18.730  -2.025   6.820  0.00  0.00    -0.011 C 
ATOM     19  C49 ZIN A   1      17.230  -1.974   7.115  0.00  0.00     0.018 C 
ENDROOT
BRANCH   2  20
ATOM     20  N9  ZIN A   1      18.964  -1.076  10.125  0.00  0.00    -0.064 N 
ATOM     21  C15 ZIN A   1      18.852  -1.974  11.280  0.00  0.00     0.237 C 
ATOM     22  C14 ZIN A   1      18.158  -1.245  12.433  0.00  0.00     0.028 C 
ATOM     23  C13 ZIN A   1      16.761  -0.806  11.986  0.00  0.00     0.003 C 
ATOM     24  C12 ZIN A   1      16.887   0.070  10.736  0.00  0.00     0.028 C 
ATOM     25  C11 ZIN A   1      17.627  -0.708   9.646  0.00  0.00     0.237 C 
ATOM     26  C10 ZIN A   1      19.689   0.140  10.521  0.00  0.00     0.273 C 
ENDBRANCH   2  20
BRANCH   1  27
ATOM     27  O4  ZIN A   1      18.650   0.160   7.908  0.00  0.00    -0.313 OA
BRANCH  27  28
ATOM     28  C2  ZIN A   1      19.032   1.282   7.277  0.00  0.00     0.255 C 
ATOM     29  C1  ZIN A   1      19.225   1.279   5.783  0.00  0.00     0.126 C 
ATOM     30  O3  ZIN A   1      19.224   2.294   7.909  0.00  0.00    -0.266 OA
ENDBRANCH  27  28
ENDBRANCH   1  27
BRANCH  11  31
ATOM     31  N34 ZIN A   1      15.522  -6.322   2.795  0.00  0.00    -0.064 N 
ATOM     32  H35 ZIN A   1      15.467  -5.877   3.700  0.00  0.00     0.280 HD
ATOM     33  C40 ZIN A   1      14.960  -5.427   1.776  0.00  0.00     0.235 C 
ATOM     34  C39 ZIN A   1      13.522  -5.062   2.150  0.00  0.00     0.028 C 
ATOM     35  C38 ZIN A   1      12.682  -6.340   2.226  0.00  0.00     0.003 C 
ATOM     36  C37 ZIN A   1      13.318  -7.298   3.237  0.00  0.00     0.028 C 
ATOM     37  C36 ZIN A   1      14.765  -7.579   2.824  0.00  0.00     0.235 C 
ENDBRANCH  11  31
BRANCH  10  38
ATOM     38  O28 ZIN A   1      18.699  -8.258   2.717  0.00  0.00    -0.314 OA
BRANCH  38  39
ATOM     39  C29 ZIN A   1      18.936  -9.155   1.746  0.00  0.00     0.255 C 
ATOM     40  C30 ZIN A   1      20.348  -9.417   1.290  0.00  0.00     0.126 C 
ATOM     41  O31 ZIN A   1      18.016  -9.752   1.237  0.00  0.00    -0.266 OA
ENDBRANCH  38  39
ENDBRANCH  10  38
TORSDOF 6
ENDMDL
MODEL 7
REMARK VINA RESULT:      -5.7      2.369      9.273
REMARK  6 active torsions:
REMARK  status: ('A' for Active; 'I' for Inactive)
REMARK    1  A    between atoms: C2_2  and  O4_4 
REMARK    2  A    between atoms: O4_4  and  C5_5 
REMARK    3  A    between atoms: C7_6  and  N9_7 
REMARK    4  A    between atoms: C26_21  and  O28_22 
REMARK    5  A    between atoms: O28_22  and  C29_23 
REMARK    6  A    between atoms: C32_26  and  N34_27 
ROOT
ATOM      1  C5  ZIN A   1      17.306  -1.388  10.347  0.00  0.00     0.171 C 
ATOM      2  C7  ZIN A   1      17.717  -2.696  11.069  0.00  0.00     0.220 C 
ATOM      3  C16 ZIN A   1      18.322  -2.273  12.435  0.00  0.00     0.042 C 
ATOM      4  C17 ZIN A   1      17.684  -0.901  12.681  0.00  0.00     0.003 C 
ATOM      5  C19 ZIN A   1      18.425   0.011  13.641  0.00  0.00    -0.005 C 
ATOM      6  C21 ZIN A   1      18.469  -0.611  15.038  0.00  0.00     0.006 C 
ATOM      7  C22 ZIN A   1      19.172   0.348  16.001  0.00  0.00     0.006 C 
ATOM      8  C23 ZIN A   1      18.403   1.670  16.058  0.00  0.00    -0.004 C 
ATOM      9  C25 ZIN A   1      19.108   2.629  17.019  0.00  0.00     0.040 C 
ATOM     10  C26 ZIN A   1      18.339   3.950  17.077  0.00  0.00     0.163 C 
ATOM     11  C32 ZIN A   1      18.290   4.573  15.680  0.00  0.00     0.218 C 
ATOM     12  C41 ZIN A   1      17.585   3.614  14.719  0.00  0.00     0.046 C 
ATOM     13  C42 ZIN A   1      18.354   2.293  14.661  0.00  0.00    -0.034 C 
ATOM     14  C43 ZIN A   1      19.778   2.552  14.164  0.00  0.00     0.016 C 
ATOM     15  C44 ZIN A   1      17.660   1.343  13.683  0.00  0.00    -0.002 C 
ATOM     16  C46 ZIN A   1      17.567   1.988  12.305  0.00  0.00     0.007 C 
ATOM     17  C47 ZIN A   1      16.955   1.024  11.275  0.00  0.00     0.012 C 
ATOM     18  C48 ZIN A   1      17.760  -0.260  11.267  0.00  0.00    -0.011 C 
ATOM     19  C49 ZIN A   1      19.234   0.056  11.012  0.00  0.00     0.018 C 
ENDROOT
BRANCH   2  20
ATOM     20  N9  ZIN A   1      18.720  -3.417  10.273  0.00  0.00    -0.064 N 
ATOM     21  C15 ZIN A   1      18.162  -3.729   8.952  0.00  0.00     0.237 C 
ATOM     22  C14 ZIN A   1      19.229  -4.409   8.091  0.00  0.00     0.028 C 
ATOM     23  C13 ZIN A   1      19.683  -5.701   8.775  0.00  0.00     0.003 C 
ATOM     24  C12 ZIN A   1      20.194  -5.372  10.180  0.00  0.00     0.028 C 
ATOM     25  C11 ZIN A   1      19.090  -4.658  10.964  0.00  0.00     0.237 C 
ATOM     26  C10 ZIN A   1      19.913  -2.575  10.113  0.00  0.00     0.273 C 
ENDBRANCH   2  20
BRANCH   1  27
ATOM     27  O4  ZIN A   1      17.975  -1.291   9.063  0.00  0.00    -0.313 OA
BRANCH  27  28
ATOM     28  C2  ZIN A   1      17.546  -0.336   8.223  0.00  0.00     0.255 C 
ATOM     29  C1  ZIN A   1      18.518   0.671   7.666  0.00  0.00     0.126 C 
ATOM     30  O3  ZIN A   1      16.379  -0.284   7.913  0.00  0.00    -0.266 OA
ENDBRANCH  27  28
ENDBRANCH   1  27
BRANCH  11  31
ATOM     31  N34 ZIN A   1      19.659   4.822  15.207  0.00  0.00    -0.064 N 
ATOM     32  H35 ZIN A   1      20.106   3.942  14.997  0.00  0.00     0.280 HD
ATOM     33  C40 ZIN A   1      19.613   5.648  13.995  0.00  0.00     0.235 C 
ATOM     34  C39 ZIN A   1      21.031   5.841  13.452  0.00  0.00     0.028 C 
ATOM     35  C38 ZIN A   1      21.887   6.538  14.513  0.00  0.00     0.003 C 
ATOM     36  C37 ZIN A   1      21.866   5.706  15.799  0.00  0.00     0.028 C 
ATOM     37  C36 ZIN A   1      20.417   5.516  16.254  0.00  0.00     0.235 C 
ENDBRANCH  11  31
BRANCH  10  38
ATOM     38  O28 ZIN A   1      16.986   3.702  17.543  0.00  0.00    -0.314 OA
BRANCH  38  39
ATOM     39  C29 ZIN A   1      16.676   4.142  18.773  0.00  0.00     0.255 C 
ATOM     40  C30 ZIN A   1      17.178   5.482  19.243  0.00  0.00     0.126 C 
ATOM     41  O31 ZIN A   1      15.993   3.462  19.504  0.00  0.00    -0.266 OA
ENDBRANCH  38  39
ENDBRANCH  10  38
TORSDOF 6
ENDMDL
MODEL 8
REMARK VINA RESULT:      -5.6      2.864      5.424
REMARK  6 active torsions:
REMARK  status: ('A' for Active; 'I' for Inactive)
REMARK    1  A    between atoms: C2_2  and  O4_4 
REMARK    2  A    between atoms: O4_4  and  C5_5 
REMARK    3  A    between atoms: C7_6  and  N9_7 
REMARK    4  A    between atoms: C26_21  and  O28_22 
REMARK    5  A    between atoms: O28_22  and  C29_23 
REMARK    6  A    between atoms: C32_26  and  N34_27 
ROOT
ATOM      1  C5  ZIN A   1      17.295   1.351  12.903  0.00  0.00     0.171 C 
ATOM      2  C7  ZIN A   1      17.662   2.679  12.193  0.00  0.00     0.220 C 
ATOM      3  C16 ZIN A   1      18.256   2.289  10.812  0.00  0.00     0.042 C 
ATOM      4  C17 ZIN A   1      17.648   0.905  10.557  0.00  0.00     0.003 C 
ATOM      5  C19 ZIN A   1      18.395   0.025   9.573  0.00  0.00    -0.005 C 
ATOM      6  C21 ZIN A   1      18.402   0.666   8.185  0.00  0.00     0.006 C 
ATOM      7  C22 ZIN A   1      19.113  -0.262   7.197  0.00  0.00     0.006 C 
ATOM      8  C23 ZIN A   1      18.377  -1.602   7.133  0.00  0.00    -0.004 C 
ATOM      9  C25 ZIN A   1      19.089  -2.530   6.149  0.00  0.00     0.040 C 
ATOM     10  C26 ZIN A   1      18.352  -3.868   6.084  0.00  0.00     0.163 C 
ATOM     11  C32 ZIN A   1      18.341  -4.511   7.472  0.00  0.00     0.218 C 
ATOM     12  C41 ZIN A   1      17.627  -3.583   8.458  0.00  0.00     0.046 C 
ATOM     13  C42 ZIN A   1      18.365  -2.244   8.522  0.00  0.00    -0.034 C 
ATOM     14  C43 ZIN A   1      19.802  -2.474   8.994  0.00  0.00     0.016 C 
ATOM     15  C44 ZIN A   1      17.663  -1.325   9.524  0.00  0.00    -0.002 C 
ATOM     16  C46 ZIN A   1      17.608  -1.991  10.894  0.00  0.00     0.007 C 
ATOM     17  C47 ZIN A   1      16.988  -1.056  11.947  0.00  0.00     0.012 C 
ATOM     18  C48 ZIN A   1      17.761   0.247  11.960  0.00  0.00    -0.011 C 
ATOM     19  C49 ZIN A   1      19.247  -0.036  12.188  0.00  0.00     0.018 C 
ENDROOT
BRANCH   2  20
ATOM     20  N9  ZIN A   1      18.659   3.413  12.983  0.00  0.00    -0.064 N 
ATOM     21  C15 ZIN A   1      18.127   3.665  14.328  0.00  0.00     0.237 C 
ATOM     22  C14 ZIN A   1      19.192   4.359  15.180  0.00  0.00     0.028 C 
ATOM     23  C13 ZIN A   1      19.579   5.687  14.524  0.00  0.00     0.003 C 
ATOM     24  C12 ZIN A   1      20.062   5.419  13.096  0.00  0.00     0.028 C 
ATOM     25  C11 ZIN A   1      18.965   4.686  12.321  0.00  0.00     0.237 C 
ATOM     26  C10 ZIN A   1      19.887   2.612  13.087  0.00  0.00     0.273 C 
ENDBRANCH   2  20
BRANCH   1  27
ATOM     27  O4  ZIN A   1      17.986   1.253  14.175  0.00  0.00    -0.313 OA
BRANCH  27  28
ATOM     28  C2  ZIN A   1      17.581   0.289  15.017  0.00  0.00     0.255 C 
ATOM     29  C1  ZIN A   1      18.536  -0.797  15.437  0.00  0.00     0.126 C 
ATOM     30  O3  ZIN A   1      16.448   0.292  15.437  0.00  0.00    -0.266 OA
ENDBRANCH  27  28
ENDBRANCH   1  27
BRANCH  11  31
ATOM     31  N34 ZIN A   1      19.722  -4.732   7.921  0.00  0.00    -0.064 N 
ATOM     32  H35 ZIN A   1      20.118  -3.857   8.231  0.00  0.00     0.280 HD
ATOM     33  C40 ZIN A   1      19.727  -5.692   9.032  0.00  0.00     0.235 C 
ATOM     34  C39 ZIN A   1      21.154  -5.862   9.557  0.00  0.00     0.028 C 
ATOM     35  C38 ZIN A   1      22.047  -6.385   8.427  0.00  0.00     0.003 C 
ATOM     36  C37 ZIN A   1      21.976  -5.415   7.244  0.00  0.00     0.028 C 
ATOM     37  C36 ZIN A   1      20.518  -5.260   6.806  0.00  0.00     0.235 C 
ENDBRANCH  11  31
BRANCH  10  38
ATOM     38  O28 ZIN A   1      16.987  -3.648   5.642  0.00  0.00    -0.314 OA
BRANCH  38  39
ATOM     39  C29 ZIN A   1      16.651  -4.131   4.435  0.00  0.00     0.255 C 
ATOM     40  C30 ZIN A   1      17.303  -5.388   3.919  0.00  0.00     0.126 C 
ATOM     41  O31 ZIN A   1      15.827  -3.557   3.762  0.00  0.00    -0.266 OA
ENDBRANCH  38  39
ENDBRANCH  10  38
TORSDOF 6
ENDMDL
MODEL 9
REMARK VINA RESULT:      -5.2      3.160     10.421
REMARK  6 active torsions:
REMARK  status: ('A' for Active; 'I' for Inactive)
REMARK    1  A    between atoms: C2_2  and  O4_4 
REMARK    2  A    between atoms: O4_4  and  C5_5 
REMARK    3  A    between atoms: C7_6  and  N9_7 
REMARK    4  A    between atoms: C26_21  and  O28_22 
REMARK    5  A    between atoms: O28_22  and  C29_23 
REMARK    6  A    between atoms: C32_26  and  N34_27 
ROOT
ATOM      1  C5  ZIN A   1      19.336   2.115  14.256  0.00  0.00     0.171 C 
ATOM      2  C7  ZIN A   1      19.873   2.840  12.997  0.00  0.00     0.220 C 
ATOM      3  C16 ZIN A   1      19.361   4.304  13.081  0.00  0.00     0.042 C 
ATOM      4  C17 ZIN A   1      19.123   4.497  14.583  0.00  0.00     0.003 C 
ATOM      5  C19 ZIN A   1      18.157   5.603  14.964  0.00  0.00    -0.005 C 
ATOM      6  C21 ZIN A   1      18.701   6.961  14.518  0.00  0.00     0.006 C 
ATOM      7  C22 ZIN A   1      17.739   8.066  14.959  0.00  0.00     0.006 C 
ATOM      8  C23 ZIN A   1      17.605   8.049  16.483  0.00  0.00    -0.004 C 
ATOM      9  C25 ZIN A   1      16.641   9.152  16.923  0.00  0.00     0.040 C 
ATOM     10  C26 ZIN A   1      16.508   9.135  18.447  0.00  0.00     0.163 C 
ATOM     11  C32 ZIN A   1      15.966   7.777  18.896  0.00  0.00     0.218 C 
ATOM     12  C41 ZIN A   1      16.931   6.673  18.456  0.00  0.00     0.046 C 
ATOM     13  C42 ZIN A   1      17.064   6.690  16.933  0.00  0.00    -0.034 C 
ATOM     14  C43 ZIN A   1      15.694   6.447  16.297  0.00  0.00     0.016 C 
ATOM     15  C44 ZIN A   1      18.011   5.572  16.493  0.00  0.00    -0.002 C 
ATOM     16  C46 ZIN A   1      17.496   4.225  16.987  0.00  0.00     0.007 C 
ATOM     17  C47 ZIN A   1      18.378   3.070  16.486  0.00  0.00     0.012 C 
ATOM     18  C48 ZIN A   1      18.469   3.142  14.975  0.00  0.00    -0.011 C 
ATOM     19  C49 ZIN A   1      17.063   3.149  14.373  0.00  0.00     0.018 C 
ENDROOT
BRANCH   2  20
ATOM     20  N9  ZIN A   1      19.356   2.193  11.783  0.00  0.00    -0.064 N 
ATOM     21  C15 ZIN A   1      20.010   0.891  11.608  0.00  0.00     0.237 C 
ATOM     22  C14 ZIN A   1      19.418   0.178  10.391  0.00  0.00     0.028 C 
ATOM     23  C13 ZIN A   1      19.642   1.036   9.143  0.00  0.00     0.003 C 
ATOM     24  C12 ZIN A   1      19.019   2.417   9.367  0.00  0.00     0.028 C 
ATOM     25  C11 ZIN A   1      19.627   3.048  10.621  0.00  0.00     0.237 C 
ATOM     26  C10 ZIN A   1      17.906   1.997  11.914  0.00  0.00     0.273 C 
ENDBRANCH   2  20
BRANCH   1  27
ATOM     27  O4  ZIN A   1      18.538   0.965  13.872  0.00  0.00    -0.313 OA
BRANCH  27  28
ATOM     28  C2  ZIN A   1      18.636  -0.130  14.642  0.00  0.00     0.255 C 
ATOM     29  C1  ZIN A   1      17.644  -0.363  15.752  0.00  0.00     0.126 C 
ATOM     30  O3  ZIN A   1      19.522  -0.929  14.447  0.00  0.00    -0.266 OA
ENDBRANCH  27  28
ENDBRANCH   1  27
BRANCH  11  31
ATOM     31  N34 ZIN A   1      14.650   7.548  18.286  0.00  0.00    -0.064 N 
ATOM     32  H35 ZIN A   1      14.772   7.183  17.353  0.00  0.00     0.280 HD
ATOM     33  C40 ZIN A   1      13.898   6.581  19.095  0.00  0.00     0.235 C 
ATOM     34  C39 ZIN A   1      12.560   6.276  18.419  0.00  0.00     0.028 C 
ATOM     35  C38 ZIN A   1      11.753   7.572  18.292  0.00  0.00     0.003 C 
ATOM     36  C37 ZIN A   1      12.577   8.600  17.511  0.00  0.00     0.028 C 
ATOM     37  C36 ZIN A   1      13.916   8.817  18.220  0.00  0.00     0.235 C 
ENDBRANCH  11  31
BRANCH  10  38
ATOM     38  O28 ZIN A   1      17.810   9.360  19.048  0.00  0.00    -0.314 OA
BRANCH  38  39
ATOM     39  C29 ZIN A   1      17.854   9.457  20.387  0.00  0.00     0.255 C 
ATOM     40  C30 ZIN A   1      16.578   9.601  21.175  0.00  0.00     0.126 C 
ATOM     41  O31 ZIN A   1      18.918   9.430  20.960  0.00  0.00    -0.266 OA
ENDBRANCH  38  39
ENDBRANCH  10  38
TORSDOF 6
ENDMDL
