MODEL 1
REMARK VINA RESULT:      -7.4      0.000      0.000
REMARK  4 active torsions:
REMARK  status: ('A' for Active; 'I' for Inactive)
REMARK    1  A    between atoms: C2_2  and  C3_3 
REMARK    2  A    between atoms: C3_3  and  N4_4 
REMARK    3  A    between atoms: C10_10  and  C12_11 
REMARK       I    between atoms: C12_11  and  N14_13 
REMARK    4  A    between atoms: N14_13  and  C15_14 
ROOT
ATOM      1  C12 ZIN A   1      17.613   0.862  11.713  0.00  0.00     0.253 C 
ATOM      2  O13 ZIN A   1      16.516   0.701  12.207  0.00  0.00    -0.271 OA
ATOM      3  N14 ZIN A   1      18.719   0.725  12.471  0.00  0.00    -0.324 N 
ATOM      4  H38 ZIN A   1      19.591   0.931  12.097  0.00  0.00     0.169 HD
ENDROOT
BRANCH   1   5
ATOM      5  C10 ZIN A   1      17.739   1.215  10.254  0.00  0.00     0.279 C 
ATOM      6  N4  ZIN A   1      18.878   2.124  10.070  0.00  0.00    -0.058 N 
ATOM      7  H5  ZIN A   1      19.730   1.651  10.332  0.00  0.00     0.280 HD
ATOM      8  C6  ZIN A   1      18.962   2.536   8.663  0.00  0.00     0.236 C 
ATOM      9  C7  ZIN A   1      19.231   1.311   7.784  0.00  0.00     0.028 C 
ATOM     10  C8  ZIN A   1      18.089   0.306   7.956  0.00  0.00     0.004 C 
ATOM     11  C9  ZIN A   1      17.962  -0.060   9.437  0.00  0.00     0.043 C 
BRANCH   6  12
ATOM     12  C3  ZIN A   1      18.698   3.311  10.916  0.00  0.00     0.235 C 
BRANCH  12  13
ATOM     13  C2  ZIN A   1      17.788   4.313  10.203  0.00  0.00     0.023 C 
ATOM     14  C1  ZIN A   1      16.734   4.832  11.183  0.00  0.00     0.007 C 
ENDBRANCH  12  13
ENDBRANCH   6  12
ENDBRANCH   1   5
BRANCH   3  15
ATOM     15  C15 ZIN A   1      18.610   0.288  13.795  0.00  0.00     0.046 A 
ATOM     16  C21 ZIN A   1      18.653  -1.068  14.086  0.00  0.00    -0.035 A 
ATOM     17  C20 ZIN A   1      18.553  -1.496  15.396  0.00  0.00     0.009 A 
ATOM     18  C22 ZIN A   1      18.823  -2.073  12.976  0.00  0.00     0.050 C 
ATOM     19  C19 ZIN A   1      18.397  -0.576  16.415  0.00  0.00     0.001 A 
ATOM     20  C18 ZIN A   1      18.347   0.776  16.128  0.00  0.00     0.009 A 
ATOM     21  C16 ZIN A   1      18.454   1.211  14.822  0.00  0.00    -0.035 A 
ATOM     22  C17 ZIN A   1      18.400   2.685  14.510  0.00  0.00     0.050 C 
ENDBRANCH   3  15
TORSDOF 4
ENDMDL
MODEL 2
REMARK VINA RESULT:      -7.4      0.122      1.917
REMARK  4 active torsions:
REMARK  status: ('A' for Active; 'I' for Inactive)
REMARK    1  A    between atoms: C2_2  and  C3_3 
REMARK    2  A    between atoms: C3_3  and  N4_4 
REMARK    3  A    between atoms: C10_10  and  C12_11 
REMARK       I    between atoms: C12_11  and  N14_13 
REMARK    4  A    between atoms: N14_13  and  C15_14 
ROOT
ATOM      1  C12 ZIN A   1      17.671   0.856  11.703  0.00  0.00     0.253 C 
ATOM      2  O13 ZIN A   1      16.586   0.738  12.233  0.00  0.00    -0.271 OA
ATOM      3  N14 ZIN A   1      18.795   0.680  12.424  0.00  0.00    -0.324 N 
ATOM      4  H38 ZIN A   1      19.661   0.851  12.020  0.00  0.00     0.169 HD
ENDROOT
BRANCH   1   5
ATOM      5  C10 ZIN A   1      17.760   1.201  10.238  0.00  0.00     0.279 C 
ATOM      6  N4  ZIN A   1      18.883   2.123  10.024  0.00  0.00    -0.058 N 
ATOM      7  H5  ZIN A   1      19.747   1.662  10.272  0.00  0.00     0.280 HD
ATOM      8  C6  ZIN A   1      18.932   2.526   8.614  0.00  0.00     0.236 C 
ATOM      9  C7  ZIN A   1      19.198   1.299   7.737  0.00  0.00     0.028 C 
ATOM     10  C8  ZIN A   1      18.073   0.281   7.939  0.00  0.00     0.004 C 
ATOM     11  C9  ZIN A   1      17.982  -0.076   9.426  0.00  0.00     0.043 C 
BRANCH   6  12
ATOM     12  C3  ZIN A   1      18.706   3.313  10.866  0.00  0.00     0.235 C 
BRANCH  12  13
ATOM     13  C2  ZIN A   1      17.795   4.313  10.152  0.00  0.00     0.023 C 
ATOM     14  C1  ZIN A   1      16.778   4.877  11.146  0.00  0.00     0.007 C 
ENDBRANCH  12  13
ENDBRANCH   6  12
ENDBRANCH   1   5
BRANCH   3  15
ATOM     15  C15 ZIN A   1      18.714   0.250  13.752  0.00  0.00     0.046 A 
ATOM     16  C21 ZIN A   1      18.668   1.179  14.783  0.00  0.00    -0.035 A 
ATOM     17  C20 ZIN A   1      18.580   0.752  16.093  0.00  0.00     0.009 A 
ATOM     18  C22 ZIN A   1      18.698   2.653  14.471  0.00  0.00     0.050 C 
ATOM     19  C19 ZIN A   1      18.552  -0.600  16.380  0.00  0.00     0.001 A 
ATOM     20  C18 ZIN A   1      18.605  -1.528  15.356  0.00  0.00     0.009 A 
ATOM     21  C16 ZIN A   1      18.685  -1.108  14.044  0.00  0.00    -0.035 A 
ATOM     22  C17 ZIN A   1      18.742  -2.120  12.929  0.00  0.00     0.050 C 
ENDBRANCH   3  15
TORSDOF 4
ENDMDL
MODEL 3
REMARK VINA RESULT:      -7.2      1.684      6.035
REMARK  4 active torsions:
REMARK  status: ('A' for Active; 'I' for Inactive)
REMARK    1  A    between atoms: C2_2  and  C3_3 
REMARK    2  A    between atoms: C3_3  and  N4_4 
REMARK    3  A    between atoms: C10_10  and  C12_11 
REMARK       I    between atoms: C12_11  and  N14_13 
REMARK    4  A    between atoms: N14_13  and  C15_14 
ROOT
ATOM      1  C12 ZIN A   1      19.549   0.539  13.119  0.00  0.00     0.253 C 
ATOM      2  O13 ZIN A   1      20.681   0.800  12.768  0.00  0.00    -0.271 OA
ATOM      3  N14 ZIN A   1      18.538   0.603  12.231  0.00  0.00    -0.324 N 
ATOM      4  H38 ZIN A   1      17.623   0.471  12.528  0.00  0.00     0.169 HD
ENDROOT
BRANCH   1   5
ATOM      5  C10 ZIN A   1      19.274   0.145  14.547  0.00  0.00     0.279 C 
ATOM      6  N4  ZIN A   1      18.341   1.108  15.146  0.00  0.00    -0.058 N 
ATOM      7  H5  ZIN A   1      17.460   1.070  14.655  0.00  0.00     0.280 HD
ATOM      8  C6  ZIN A   1      18.126   0.779  16.560  0.00  0.00     0.236 C 
ATOM      9  C7  ZIN A   1      17.468  -0.599  16.673  0.00  0.00     0.028 C 
ATOM     10  C8  ZIN A   1      18.381  -1.649  16.035  0.00  0.00     0.004 C 
ATOM     11  C9  ZIN A   1      18.658  -1.255  14.581  0.00  0.00     0.043 C 
BRANCH   6  12
ATOM     12  C3  ZIN A   1      18.901   2.462  15.039  0.00  0.00     0.235 C 
BRANCH  12  13
ATOM     13  C2  ZIN A   1      19.424   2.907  16.406  0.00  0.00     0.023 C 
ATOM     14  C1  ZIN A   1      19.891   4.361  16.325  0.00  0.00     0.007 C 
ENDBRANCH  12  13
ENDBRANCH   6  12
ENDBRANCH   1   5
BRANCH   3  15
ATOM     15  C15 ZIN A   1      18.806   0.857  10.882  0.00  0.00     0.046 A 
ATOM     16  C21 ZIN A   1      18.704   2.149  10.384  0.00  0.00    -0.035 A 
ATOM     17  C20 ZIN A   1      18.977   2.399   9.053  0.00  0.00     0.009 A 
ATOM     18  C22 ZIN A   1      18.310   3.281  11.297  0.00  0.00     0.050 C 
ATOM     19  C19 ZIN A   1      19.339   1.362   8.214  0.00  0.00     0.001 A 
ATOM     20  C18 ZIN A   1      19.436   0.073   8.706  0.00  0.00     0.009 A 
ATOM     21  C16 ZIN A   1      19.171  -0.183  10.036  0.00  0.00    -0.035 A 
ATOM     22  C17 ZIN A   1      19.277  -1.588  10.571  0.00  0.00     0.050 C 
ENDBRANCH   3  15
TORSDOF 4
ENDMDL
MODEL 4
REMARK VINA RESULT:      -7.2      1.675      5.729
REMARK  4 active torsions:
REMARK  status: ('A' for Active; 'I' for Inactive)
REMARK    1  A    between atoms: C2_2  and  C3_3 
REMARK    2  A    between atoms: C3_3  and  N4_4 
REMARK    3  A    between atoms: C10_10  and  C12_11 
REMARK       I    between atoms: C12_11  and  N14_13 
REMARK    4  A    between atoms: N14_13  and  C15_14 
ROOT
ATOM      1  C12 ZIN A   1      19.559   0.556  13.106  0.00  0.00     0.253 C 
ATOM      2  O13 ZIN A   1      20.694   0.806  12.757  0.00  0.00    -0.271 OA
ATOM      3  N14 ZIN A   1      18.549   0.636  12.219  0.00  0.00    -0.324 N 
ATOM      4  H38 ZIN A   1      17.633   0.513  12.515  0.00  0.00     0.169 HD
ENDROOT
BRANCH   1   5
ATOM      5  C10 ZIN A   1      19.281   0.157  14.532  0.00  0.00     0.279 C 
ATOM      6  N4  ZIN A   1      18.347   1.118  15.132  0.00  0.00    -0.058 N 
ATOM      7  H5  ZIN A   1      17.467   1.083  14.640  0.00  0.00     0.280 HD
ATOM      8  C6  ZIN A   1      18.129   0.783  16.545  0.00  0.00     0.236 C 
ATOM      9  C7  ZIN A   1      17.468  -0.594  16.650  0.00  0.00     0.028 C 
ATOM     10  C8  ZIN A   1      18.382  -1.643  16.010  0.00  0.00     0.004 C 
ATOM     11  C9  ZIN A   1      18.663  -1.243  14.559  0.00  0.00     0.043 C 
BRANCH   6  12
ATOM     12  C3  ZIN A   1      18.909   2.472  15.033  0.00  0.00     0.235 C 
BRANCH  12  13
ATOM     13  C2  ZIN A   1      19.429   2.911  16.403  0.00  0.00     0.023 C 
ATOM     14  C1  ZIN A   1      19.897   4.365  16.329  0.00  0.00     0.007 C 
ENDBRANCH  12  13
ENDBRANCH   6  12
ENDBRANCH   1   5
BRANCH   3  15
ATOM     15  C15 ZIN A   1      18.819   0.896  10.871  0.00  0.00     0.046 A 
ATOM     16  C21 ZIN A   1      19.163  -0.143  10.017  0.00  0.00    -0.035 A 
ATOM     17  C20 ZIN A   1      19.423   0.116   8.685  0.00  0.00     0.009 A 
ATOM     18  C22 ZIN A   1      19.239  -1.555  10.539  0.00  0.00     0.050 C 
ATOM     19  C19 ZIN A   1      19.353   1.410   8.206  0.00  0.00     0.001 A 
ATOM     20  C18 ZIN A   1      19.017   2.449   9.055  0.00  0.00     0.009 A 
ATOM     21  C16 ZIN A   1      18.750   2.196  10.386  0.00  0.00    -0.035 A 
ATOM     22  C17 ZIN A   1      18.383   3.328  11.311  0.00  0.00     0.050 C 
ENDBRANCH   3  15
TORSDOF 4
ENDMDL
MODEL 5
REMARK VINA RESULT:      -7.2      1.552      5.964
REMARK  4 active torsions:
REMARK  status: ('A' for Active; 'I' for Inactive)
REMARK    1  A    between atoms: C2_2  and  C3_3 
REMARK    2  A    between atoms: C3_3  and  N4_4 
REMARK    3  A    between atoms: C10_10  and  C12_11 
REMARK       I    between atoms: C12_11  and  N14_13 
REMARK    4  A    between atoms: N14_13  and  C15_14 
ROOT
ATOM      1  C12 ZIN A   1      18.193   1.860  12.679  0.00  0.00     0.253 C 
ATOM      2  O13 ZIN A   1      17.208   1.312  12.229  0.00  0.00    -0.271 OA
ATOM      3  N14 ZIN A   1      19.290   2.011  11.912  0.00  0.00    -0.324 N 
ATOM      4  H38 ZIN A   1      20.102   2.377  12.296  0.00  0.00     0.169 HD
ENDROOT
BRANCH   1   5
ATOM      5  C10 ZIN A   1      18.188   2.369  14.098  0.00  0.00     0.279 C 
ATOM      6  N4  ZIN A   1      19.272   1.724  14.849  0.00  0.00    -0.058 N 
ATOM      7  H5  ZIN A   1      20.160   1.983  14.446  0.00  0.00     0.280 HD
ATOM      8  C6  ZIN A   1      19.229   2.155  16.252  0.00  0.00     0.236 C 
ATOM      9  C7  ZIN A   1      19.476   3.663  16.334  0.00  0.00     0.028 C 
ATOM     10  C8  ZIN A   1      18.392   4.397  15.539  0.00  0.00     0.004 C 
ATOM     11  C9  ZIN A   1      18.397   3.885  14.096  0.00  0.00     0.043 C 
BRANCH   6  12
ATOM     12  C3  ZIN A   1      19.113   0.266  14.782  0.00  0.00     0.235 C 
BRANCH  12  13
ATOM     13  C2  ZIN A   1      17.956  -0.164  15.685  0.00  0.00     0.023 C 
ATOM     14  C1  ZIN A   1      18.259  -1.538  16.285  0.00  0.00     0.007 C 
ENDBRANCH  12  13
ENDBRANCH   6  12
ENDBRANCH   1   5
BRANCH   3  15
ATOM     15  C15 ZIN A   1      19.257   1.641  10.563  0.00  0.00     0.046 A 
ATOM     16  C21 ZIN A   1      19.722   0.392  10.173  0.00  0.00    -0.035 A 
ATOM     17  C20 ZIN A   1      19.682   0.027   8.842  0.00  0.00     0.009 A 
ATOM     18  C22 ZIN A   1      20.258  -0.569  11.203  0.00  0.00     0.050 C 
ATOM     19  C19 ZIN A   1      19.190   0.908   7.897  0.00  0.00     0.001 A 
ATOM     20  C18 ZIN A   1      18.732   2.154   8.282  0.00  0.00     0.009 A 
ATOM     21  C16 ZIN A   1      18.763   2.524   9.611  0.00  0.00    -0.035 A 
ATOM     22  C17 ZIN A   1      18.263   3.882  10.030  0.00  0.00     0.050 C 
ENDBRANCH   3  15
TORSDOF 4
ENDMDL
MODEL 6
REMARK VINA RESULT:      -7.2      1.502      6.173
REMARK  4 active torsions:
REMARK  status: ('A' for Active; 'I' for Inactive)
REMARK    1  A    between atoms: C2_2  and  C3_3 
REMARK    2  A    between atoms: C3_3  and  N4_4 
REMARK    3  A    between atoms: C10_10  and  C12_11 
REMARK       I    between atoms: C12_11  and  N14_13 
REMARK    4  A    between atoms: N14_13  and  C15_14 
ROOT
ATOM      1  C12 ZIN A   1      18.155   1.715  12.605  0.00  0.00     0.253 C 
ATOM      2  O13 ZIN A   1      17.170   1.183  12.136  0.00  0.00    -0.271 OA
ATOM      3  N14 ZIN A   1      19.271   1.840  11.860  0.00  0.00    -0.324 N 
ATOM      4  H38 ZIN A   1      20.082   2.193  12.259  0.00  0.00     0.169 HD
ENDROOT
BRANCH   1   5
ATOM      5  C10 ZIN A   1      18.130   2.235  14.019  0.00  0.00     0.279 C 
ATOM      6  N4  ZIN A   1      19.248   1.652  14.771  0.00  0.00    -0.058 N 
ATOM      7  H5  ZIN A   1      20.120   1.953  14.362  0.00  0.00     0.280 HD
ATOM      8  C6  ZIN A   1      19.188   2.091  16.171  0.00  0.00     0.236 C 
ATOM      9  C7  ZIN A   1      19.358   3.611  16.239  0.00  0.00     0.028 C 
ATOM     10  C8  ZIN A   1      18.235   4.282  15.444  0.00  0.00     0.004 C 
ATOM     11  C9  ZIN A   1      18.260   3.760  14.004  0.00  0.00     0.043 C 
BRANCH   6  12
ATOM     12  C3  ZIN A   1      19.163   0.187  14.716  0.00  0.00     0.235 C 
BRANCH  12  13
ATOM     13  C2  ZIN A   1      18.017  -0.292  15.607  0.00  0.00     0.023 C 
ATOM     14  C1  ZIN A   1      18.422  -1.591  16.306  0.00  0.00     0.007 C 
ENDBRANCH  12  13
ENDBRANCH   6  12
ENDBRANCH   1   5
BRANCH   3  15
ATOM     15  C15 ZIN A   1      19.260   1.460  10.514  0.00  0.00     0.046 A 
ATOM     16  C21 ZIN A   1      18.794   2.340   9.547  0.00  0.00    -0.035 A 
ATOM     17  C20 ZIN A   1      18.792   1.965   8.217  0.00  0.00     0.009 A 
ATOM     18  C22 ZIN A   1      18.305   3.708   9.944  0.00  0.00     0.050 C 
ATOM     19  C19 ZIN A   1      19.241   0.709   7.851  0.00  0.00     0.001 A 
ATOM     20  C18 ZIN A   1      19.700  -0.171   8.813  0.00  0.00     0.009 A 
ATOM     21  C16 ZIN A   1      19.711   0.199  10.143  0.00  0.00    -0.035 A 
ATOM     22  C17 ZIN A   1      20.212  -0.761  11.191  0.00  0.00     0.050 C 
ENDBRANCH   3  15
TORSDOF 4
ENDMDL
MODEL 7
REMARK VINA RESULT:      -7.1      1.431      6.240
REMARK  4 active torsions:
REMARK  status: ('A' for Active; 'I' for Inactive)
REMARK    1  A    between atoms: C2_2  and  C3_3 
REMARK    2  A    between atoms: C3_3  and  N4_4 
REMARK    3  A    between atoms: C10_10  and  C12_11 
REMARK       I    between atoms: C12_11  and  N14_13 
REMARK    4  A    between atoms: N14_13  and  C15_14 
ROOT
ATOM      1  C12 ZIN A   1      17.592   0.052  11.360  0.00  0.00     0.253 C 
ATOM      2  O13 ZIN A   1      16.556   0.181  10.743  0.00  0.00    -0.271 OA
ATOM      3  N14 ZIN A   1      18.774   0.147  10.719  0.00  0.00    -0.324 N 
ATOM      4  H38 ZIN A   1      19.599  -0.034  11.195  0.00  0.00     0.169 HD
ENDROOT
BRANCH   1   5
ATOM      5  C10 ZIN A   1      17.559  -0.215  12.843  0.00  0.00     0.279 C 
ATOM      6  N4  ZIN A   1      18.585  -1.210  13.181  0.00  0.00    -0.058 N 
ATOM      7  H5  ZIN A   1      19.498  -0.834  12.970  0.00  0.00     0.280 HD
ATOM      8  C6  ZIN A   1      18.510  -1.535  14.610  0.00  0.00     0.236 C 
ATOM      9  C7  ZIN A   1      18.820  -0.285  15.438  0.00  0.00     0.028 C 
ATOM     10  C8  ZIN A   1      17.799   0.807  15.107  0.00  0.00     0.004 C 
ATOM     11  C9  ZIN A   1      17.834   1.085  13.602  0.00  0.00     0.043 C 
BRANCH   6  12
ATOM     12  C3  ZIN A   1      18.364  -2.428  12.391  0.00  0.00     0.235 C 
BRANCH  12  13
ATOM     13  C2  ZIN A   1      19.710  -3.082  12.073  0.00  0.00     0.023 C 
ATOM     14  C1  ZIN A   1      19.474  -4.446  11.423  0.00  0.00     0.007 C 
ENDBRANCH  12  13
ENDBRANCH   6  12
ENDBRANCH   1   5
BRANCH   3  15
ATOM     15  C15 ZIN A   1      18.809   0.506   9.367  0.00  0.00     0.046 A 
ATOM     16  C21 ZIN A   1      18.789  -0.476   8.386  0.00  0.00    -0.035 A 
ATOM     17  C20 ZIN A   1      18.817  -0.118   7.052  0.00  0.00     0.009 A 
ATOM     18  C22 ZIN A   1      18.723  -1.930   8.775  0.00  0.00     0.050 C 
ATOM     19  C19 ZIN A   1      18.878   1.216   6.694  0.00  0.00     0.001 A 
ATOM     20  C18 ZIN A   1      18.905   2.196   7.670  0.00  0.00     0.009 A 
ATOM     21  C16 ZIN A   1      18.870   1.846   9.004  0.00  0.00    -0.035 A 
ATOM     22  C17 ZIN A   1      18.899   2.915  10.067  0.00  0.00     0.050 C 
ENDBRANCH   3  15
TORSDOF 4
ENDMDL
MODEL 8
REMARK VINA RESULT:      -7.1      1.936      6.779
REMARK  4 active torsions:
REMARK  status: ('A' for Active; 'I' for Inactive)
REMARK    1  A    between atoms: C2_2  and  C3_3 
REMARK    2  A    between atoms: C3_3  and  N4_4 
REMARK    3  A    between atoms: C10_10  and  C12_11 
REMARK       I    between atoms: C12_11  and  N14_13 
REMARK    4  A    between atoms: N14_13  and  C15_14 
ROOT
ATOM      1  C12 ZIN A   1      18.014  -0.178  10.558  0.00  0.00     0.253 C 
ATOM      2  O13 ZIN A   1      16.935  -0.006  10.031  0.00  0.00    -0.271 OA
ATOM      3  N14 ZIN A   1      19.123  -0.295   9.801  0.00  0.00    -0.324 N 
ATOM      4  H38 ZIN A   1      19.973  -0.511  10.216  0.00  0.00     0.169 HD
ENDROOT
BRANCH   1   5
ATOM      5  C10 ZIN A   1      18.115  -0.263  12.059  0.00  0.00     0.279 C 
ATOM      6  N4  ZIN A   1      18.626  -1.587  12.438  0.00  0.00    -0.058 N 
ATOM      7  H5  ZIN A   1      19.560  -1.703  12.073  0.00  0.00     0.280 HD
ATOM      8  C6  ZIN A   1      18.654  -1.709  13.901  0.00  0.00     0.236 C 
ATOM      9  C7  ZIN A   1      19.627  -0.680  14.483  0.00  0.00     0.028 C 
ATOM     10  C8  ZIN A   1      19.165   0.728  14.095  0.00  0.00     0.004 C 
ATOM     11  C9  ZIN A   1      19.068   0.820  12.569  0.00  0.00     0.043 C 
BRANCH   6  12
ATOM     12  C3  ZIN A   1      17.752  -2.627  11.879  0.00  0.00     0.235 C 
BRANCH  12  13
ATOM     13  C2  ZIN A   1      18.547  -3.922  11.702  0.00  0.00     0.023 C 
ATOM     14  C1  ZIN A   1      20.024  -3.588  11.482  0.00  0.00     0.007 C 
ENDBRANCH  12  13
ENDBRANCH   6  12
ENDBRANCH   1   5
BRANCH   3  15
ATOM     15  C15 ZIN A   1      19.048  -0.104   8.417  0.00  0.00     0.046 A 
ATOM     16  C21 ZIN A   1      19.095   1.179   7.888  0.00  0.00    -0.035 A 
ATOM     17  C20 ZIN A   1      19.029   1.363   6.520  0.00  0.00     0.009 A 
ATOM     18  C22 ZIN A   1      19.234   2.368   8.803  0.00  0.00     0.050 C 
ATOM     19  C19 ZIN A   1      18.902   0.273   5.680  0.00  0.00     0.001 A 
ATOM     20  C18 ZIN A   1      18.848  -1.006   6.205  0.00  0.00     0.009 A 
ATOM     21  C16 ZIN A   1      18.920  -1.198   7.570  0.00  0.00    -0.035 A 
ATOM     22  C17 ZIN A   1      18.862  -2.591   8.140  0.00  0.00     0.050 C 
ENDBRANCH   3  15
TORSDOF 4
ENDMDL
MODEL 9
REMARK VINA RESULT:      -7.0      2.415      6.720
REMARK  4 active torsions:
REMARK  status: ('A' for Active; 'I' for Inactive)
REMARK    1  A    between atoms: C2_2  and  C3_3 
REMARK    2  A    between atoms: C3_3  and  N4_4 
REMARK    3  A    between atoms: C10_10  and  C12_11 
REMARK       I    between atoms: C12_11  and  N14_13 
REMARK    4  A    between atoms: N14_13  and  C15_14 
ROOT
ATOM      1  C12 ZIN A   1      18.756  -1.159   9.357  0.00  0.00     0.253 C 
ATOM      2  O13 ZIN A   1      17.576  -1.241   9.087  0.00  0.00    -0.271 OA
ATOM      3  N14 ZIN A   1      19.670  -1.102   8.368  0.00  0.00    -0.324 N 
ATOM      4  H38 ZIN A   1      20.617  -1.115   8.582  0.00  0.00     0.169 HD
ENDROOT
BRANCH   1   5
ATOM      5  C10 ZIN A   1      19.200  -1.122  10.796  0.00  0.00     0.279 C 
ATOM      6  N4  ZIN A   1      18.582   0.030  11.466  0.00  0.00    -0.058 N 
ATOM      7  H5  ZIN A   1      17.579  -0.083  11.469  0.00  0.00     0.280 HD
ATOM      8  C6  ZIN A   1      19.067   0.121  12.848  0.00  0.00     0.236 C 
ATOM      9  C7  ZIN A   1      18.635  -1.124  13.627  0.00  0.00     0.028 C 
ATOM     10  C8  ZIN A   1      19.223  -2.369  12.958  0.00  0.00     0.004 C 
ATOM     11  C9  ZIN A   1      18.770  -2.413  11.496  0.00  0.00     0.043 C 
BRANCH   6  12
ATOM     12  C3  ZIN A   1      18.931   1.260  10.744  0.00  0.00     0.235 C 
BRANCH  12  13
ATOM     13  C2  ZIN A   1      17.741   2.221  10.765  0.00  0.00     0.023 C 
ATOM     14  C1  ZIN A   1      18.186   3.596  10.264  0.00  0.00     0.007 C 
ENDBRANCH  12  13
ENDBRANCH   6  12
ENDBRANCH   1   5
BRANCH   3  15
ATOM     15  C15 ZIN A   1      19.255  -1.022   7.035  0.00  0.00     0.046 A 
ATOM     16  C21 ZIN A   1      18.896   0.203   6.489  0.00  0.00    -0.035 A 
ATOM     17  C20 ZIN A   1      18.493   0.279   5.170  0.00  0.00     0.009 A 
ATOM     18  C22 ZIN A   1      18.959   1.451   7.331  0.00  0.00     0.050 C 
ATOM     19  C19 ZIN A   1      18.435  -0.866   4.397  0.00  0.00     0.001 A 
ATOM     20  C18 ZIN A   1      18.786  -2.088   4.940  0.00  0.00     0.009 A 
ATOM     21  C16 ZIN A   1      19.195  -2.171   6.255  0.00  0.00    -0.035 A 
ATOM     22  C17 ZIN A   1      19.578  -3.504   6.845  0.00  0.00     0.050 C 
ENDBRANCH   3  15
TORSDOF 4
ENDMDL
