MODEL 1
REMARK VINA RESULT:      -3.8      0.000      0.000
REMARK  4 active torsions:
REMARK  status: ('A' for Active; 'I' for Inactive)
REMARK    1  A    between atoms: C2_2  and  S4_4 
REMARK    2  A    between atoms: C2_2  and  C5_5 
REMARK    3  A    between atoms: C5_5  and  N7_6 
REMARK    4  A    between atoms: C5_5  and  C11_10 
ROOT
ATOM      1  C5  ZIN A   1      18.673  -1.610   6.571  0.00  0.00     0.300 C 
ENDROOT
BRANCH   1   2
ATOM      2  C2  ZIN A   1      18.567  -0.352   7.436  0.00  0.00     0.036 C 
ATOM      3  C1  ZIN A   1      17.121  -0.177   7.905  0.00  0.00     0.029 C 
ATOM      4  C3  ZIN A   1      18.989   0.869   6.615  0.00  0.00     0.029 C 
BRANCH   2   5
ATOM      5  S4  ZIN A   1      19.655  -0.516   8.878  0.00  0.00    -0.170 SA
ATOM      6  H20 ZIN A   1      18.803  -0.844   9.865  0.00  0.00     0.102 HD
ENDBRANCH   2   5
ENDBRANCH   1   2
BRANCH   1   7
ATOM      7  N7  ZIN A   1      19.824  -2.410   7.010  0.00  0.00    -0.064 N 
ATOM      8  H8  ZIN A   1      19.868  -3.262   6.471  0.00  0.00     0.275 HD
ATOM      9  H9  ZIN A   1      20.673  -1.882   6.872  0.00  0.00     0.275 HD
ATOM     10  H10 ZIN A   1      19.724  -2.636   7.989  0.00  0.00     0.275 HD
ENDBRANCH   1   7
BRANCH   1  11
ATOM     11  C11 ZIN A   1      18.856  -1.215   5.129  0.00  0.00     0.206 C 
ATOM     12  O12 ZIN A   1      17.883  -0.979   4.433  0.00  0.00    -0.646 OA
ATOM     13  O13 ZIN A   1      19.978  -1.134   4.658  0.00  0.00    -0.646 OA
ENDBRANCH   1  11
TORSDOF 4
ENDMDL
MODEL 2
REMARK VINA RESULT:      -3.8      6.467      7.021
REMARK  4 active torsions:
REMARK  status: ('A' for Active; 'I' for Inactive)
REMARK    1  A    between atoms: C2_2  and  S4_4 
REMARK    2  A    between atoms: C2_2  and  C5_5 
REMARK    3  A    between atoms: C5_5  and  N7_6 
REMARK    4  A    between atoms: C5_5  and  C11_10 
ROOT
ATOM      1  C5  ZIN A   1      19.868   3.037  11.380  0.00  0.00     0.300 C 
ENDROOT
BRANCH   1   2
ATOM      2  C2  ZIN A   1      18.638   2.687  10.540  0.00  0.00     0.036 C 
ATOM      3  C1  ZIN A   1      19.082   2.257   9.141  0.00  0.00     0.029 C 
ATOM      4  C3  ZIN A   1      17.728   3.913  10.433  0.00  0.00     0.029 C 
BRANCH   2   5
ATOM      5  S4  ZIN A   1      17.732   1.329  11.331  0.00  0.00    -0.170 SA
ATOM      6  H20 ZIN A   1      16.832   0.980  10.396  0.00  0.00     0.102 HD
ENDBRANCH   2   5
ENDBRANCH   1   2
BRANCH   1   7
ATOM      7  N7  ZIN A   1      20.514   1.800  11.841  0.00  0.00    -0.064 N 
ATOM      8  H8  ZIN A   1      20.514   1.776  12.849  0.00  0.00     0.275 HD
ATOM      9  H9  ZIN A   1      20.007   1.003  11.486  0.00  0.00     0.275 HD
ATOM     10  H10 ZIN A   1      21.465   1.771  11.504  0.00  0.00     0.275 HD
ENDBRANCH   1   7
BRANCH   1  11
ATOM     11  C11 ZIN A   1      19.447   3.857  12.572  0.00  0.00     0.206 C 
ATOM     12  O12 ZIN A   1      19.689   5.052  12.605  0.00  0.00    -0.646 OA
ATOM     13  O13 ZIN A   1      18.867   3.325  13.503  0.00  0.00    -0.646 OA
ENDBRANCH   1  11
TORSDOF 4
ENDMDL
MODEL 3
REMARK VINA RESULT:      -3.7      4.243      4.696
REMARK  4 active torsions:
REMARK  status: ('A' for Active; 'I' for Inactive)
REMARK    1  A    between atoms: C2_2  and  S4_4 
REMARK    2  A    between atoms: C2_2  and  C5_5 
REMARK    3  A    between atoms: C5_5  and  N7_6 
REMARK    4  A    between atoms: C5_5  and  C11_10 
ROOT
ATOM      1  C5  ZIN A   1      20.197  -1.137  10.741  0.00  0.00     0.300 C 
ENDROOT
BRANCH   1   2
ATOM      2  C2  ZIN A   1      19.228  -0.748  11.858  0.00  0.00     0.036 C 
ATOM      3  C1  ZIN A   1      19.287  -1.794  12.973  0.00  0.00     0.029 C 
ATOM      4  C3  ZIN A   1      17.805  -0.679  11.299  0.00  0.00     0.029 C 
BRANCH   2   5
ATOM      5  S4  ZIN A   1      19.694   0.874  12.526  0.00  0.00    -0.170 SA
ATOM      6  H20 ZIN A   1      19.202   0.839  13.777  0.00  0.00     0.102 HD
ENDBRANCH   2   5
ENDBRANCH   1   2
BRANCH   1   7
ATOM      7  N7  ZIN A   1      21.518  -0.554  11.014  0.00  0.00    -0.064 N 
ATOM      8  H8  ZIN A   1      21.477   0.446  10.889  0.00  0.00     0.275 HD
ATOM      9  H9  ZIN A   1      21.789  -0.763  11.964  0.00  0.00     0.275 HD
ATOM     10  H10 ZIN A   1      22.197  -0.945  10.377  0.00  0.00     0.275 HD
ENDBRANCH   1   7
BRANCH   1  11
ATOM     11  C11 ZIN A   1      19.682  -0.617   9.424  0.00  0.00     0.206 C 
ATOM     12  O12 ZIN A   1      19.175  -1.384   8.622  0.00  0.00    -0.646 OA
ATOM     13  O13 ZIN A   1      19.774   0.569   9.159  0.00  0.00    -0.646 OA
ENDBRANCH   1  11
TORSDOF 4
ENDMDL
MODEL 4
REMARK VINA RESULT:      -3.7      6.192      6.802
REMARK  4 active torsions:
REMARK  status: ('A' for Active; 'I' for Inactive)
REMARK    1  A    between atoms: C2_2  and  S4_4 
REMARK    2  A    between atoms: C2_2  and  C5_5 
REMARK    3  A    between atoms: C5_5  and  N7_6 
REMARK    4  A    between atoms: C5_5  and  C11_10 
ROOT
ATOM      1  C5  ZIN A   1      20.215   1.147  12.375  0.00  0.00     0.300 C 
ENDROOT
BRANCH   1   2
ATOM      2  C2  ZIN A   1      19.246   0.794  11.245  0.00  0.00     0.036 C 
ATOM      3  C1  ZIN A   1      19.214   1.936  10.226  0.00  0.00     0.029 C 
ATOM      4  C3  ZIN A   1      17.844   0.585  11.822  0.00  0.00     0.029 C 
BRANCH   2   5
ATOM      5  S4  ZIN A   1      19.798  -0.729  10.429  0.00  0.00    -0.170 SA
ATOM      6  H20 ZIN A   1      18.843  -1.615  10.765  0.00  0.00     0.102 HD
ENDBRANCH   2   5
ENDBRANCH   1   2
BRANCH   1   7
ATOM      7  N7  ZIN A   1      21.539   0.585  12.078  0.00  0.00    -0.064 N 
ATOM      8  H8  ZIN A   1      21.892   0.988  11.223  0.00  0.00     0.275 HD
ATOM      9  H9  ZIN A   1      22.172   0.795  12.835  0.00  0.00     0.275 HD
ATOM     10  H10 ZIN A   1      21.464  -0.416  11.971  0.00  0.00     0.275 HD
ENDBRANCH   1   7
BRANCH   1  11
ATOM     11  C11 ZIN A   1      19.706   0.573  13.672  0.00  0.00     0.206 C 
ATOM     12  O12 ZIN A   1      19.821  -0.620  13.897  0.00  0.00    -0.646 OA
ATOM     13  O13 ZIN A   1      19.177   1.302  14.495  0.00  0.00    -0.646 OA
ENDBRANCH   1  11
TORSDOF 4
ENDMDL
MODEL 5
REMARK VINA RESULT:      -3.7      5.895      6.426
REMARK  4 active torsions:
REMARK  status: ('A' for Active; 'I' for Inactive)
REMARK    1  A    between atoms: C2_2  and  S4_4 
REMARK    2  A    between atoms: C2_2  and  C5_5 
REMARK    3  A    between atoms: C5_5  and  N7_6 
REMARK    4  A    between atoms: C5_5  and  C11_10 
ROOT
ATOM      1  C5  ZIN A   1      20.113   0.452  11.682  0.00  0.00     0.300 C 
ENDROOT
BRANCH   1   2
ATOM      2  C2  ZIN A   1      19.220  -0.051  12.819  0.00  0.00     0.036 C 
ATOM      3  C1  ZIN A   1      19.670   0.582  14.137  0.00  0.00     0.029 C 
ATOM      4  C3  ZIN A   1      19.331  -1.574  12.919  0.00  0.00     0.029 C 
BRANCH   2   5
ATOM      5  S4  ZIN A   1      17.498   0.410  12.484  0.00  0.00    -0.170 SA
ATOM      6  H20 ZIN A   1      17.598   1.690  12.086  0.00  0.00     0.102 HD
ENDBRANCH   2   5
ENDBRANCH   1   2
BRANCH   1   7
ATOM      7  N7  ZIN A   1      21.497   0.566  12.161  0.00  0.00    -0.064 N 
ATOM      8  H8  ZIN A   1      22.107   0.764  11.382  0.00  0.00     0.275 HD
ATOM      9  H9  ZIN A   1      21.560   1.314  12.835  0.00  0.00     0.275 HD
ATOM     10  H10 ZIN A   1      21.776  -0.302  12.594  0.00  0.00     0.275 HD
ENDBRANCH   1   7
BRANCH   1  11
ATOM     11  C11 ZIN A   1      19.628   1.803  11.222  0.00  0.00     0.206 C 
ATOM     12  O12 ZIN A   1      19.861   2.795  11.893  0.00  0.00    -0.646 OA
ATOM     13  O13 ZIN A   1      19.001   1.903  10.181  0.00  0.00    -0.646 OA
ENDBRANCH   1  11
TORSDOF 4
ENDMDL
MODEL 6
REMARK VINA RESULT:      -3.7      5.364      6.047
REMARK  4 active torsions:
REMARK  status: ('A' for Active; 'I' for Inactive)
REMARK    1  A    between atoms: C2_2  and  S4_4 
REMARK    2  A    between atoms: C2_2  and  C5_5 
REMARK    3  A    between atoms: C5_5  and  N7_6 
REMARK    4  A    between atoms: C5_5  and  C11_10 
ROOT
ATOM      1  C5  ZIN A   1      19.139   2.573  10.779  0.00  0.00     0.300 C 
ENDROOT
BRANCH   1   2
ATOM      2  C2  ZIN A   1      19.019   1.270   9.986  0.00  0.00     0.036 C 
ATOM      3  C1  ZIN A   1      19.514   1.496   8.556  0.00  0.00     0.029 C 
ATOM      4  C3  ZIN A   1      17.555   0.824   9.954  0.00  0.00     0.029 C 
BRANCH   2   5
ATOM      5  S4  ZIN A   1      20.025  -0.015  10.778  0.00  0.00    -0.170 SA
ATOM      6  H20 ZIN A   1      19.114  -0.943  11.123  0.00  0.00     0.102 HD
ENDBRANCH   2   5
ENDBRANCH   1   2
BRANCH   1   7
ATOM      7  N7  ZIN A   1      20.361   2.539  11.593  0.00  0.00    -0.064 N 
ATOM      8  H8  ZIN A   1      20.654   1.582  11.721  0.00  0.00     0.275 HD
ATOM      9  H9  ZIN A   1      21.092   3.054  11.125  0.00  0.00     0.275 HD
ATOM     10  H10 ZIN A   1      20.178   2.957  12.494  0.00  0.00     0.275 HD
ENDBRANCH   1   7
BRANCH   1  11
ATOM     11  C11 ZIN A   1      17.940   2.726  11.679  0.00  0.00     0.206 C 
ATOM     12  O12 ZIN A   1      17.908   2.151  12.754  0.00  0.00    -0.646 OA
ATOM     13  O13 ZIN A   1      17.002   3.422  11.331  0.00  0.00    -0.646 OA
ENDBRANCH   1  11
TORSDOF 4
ENDMDL
MODEL 7
REMARK VINA RESULT:      -3.7      8.792      9.416
REMARK  4 active torsions:
REMARK  status: ('A' for Active; 'I' for Inactive)
REMARK    1  A    between atoms: C2_2  and  S4_4 
REMARK    2  A    between atoms: C2_2  and  C5_5 
REMARK    3  A    between atoms: C5_5  and  N7_6 
REMARK    4  A    between atoms: C5_5  and  C11_10 
ROOT
ATOM      1  C5  ZIN A   1      18.832   0.808  15.559  0.00  0.00     0.300 C 
ENDROOT
BRANCH   1   2
ATOM      2  C2  ZIN A   1      18.492  -0.155  16.698  0.00  0.00     0.036 C 
ATOM      3  C1  ZIN A   1      19.097  -1.529  16.401  0.00  0.00     0.029 C 
ATOM      4  C3  ZIN A   1      16.972  -0.283  16.822  0.00  0.00     0.029 C 
BRANCH   2   5
ATOM      5  S4  ZIN A   1      19.174   0.482  18.254  0.00  0.00    -0.170 SA
ATOM      6  H20 ZIN A   1      20.488   0.585  17.988  0.00  0.00     0.102 HD
ENDBRANCH   2   5
ENDBRANCH   1   2
BRANCH   1   7
ATOM      7  N7  ZIN A   1      17.789   1.837  15.461  0.00  0.00    -0.064 N 
ATOM      8  H8  ZIN A   1      16.924   1.413  15.162  0.00  0.00     0.275 HD
ATOM      9  H9  ZIN A   1      17.656   2.270  16.363  0.00  0.00     0.275 HD
ATOM     10  H10 ZIN A   1      18.069   2.538  14.790  0.00  0.00     0.275 HD
ENDBRANCH   1   7
BRANCH   1  11
ATOM     11  C11 ZIN A   1      18.908   0.045  14.261  0.00  0.00     0.206 C 
ATOM     12  O12 ZIN A   1      17.884  -0.295  13.693  0.00  0.00    -0.646 OA
ATOM     13  O13 ZIN A   1      19.994  -0.233  13.781  0.00  0.00    -0.646 OA
ENDBRANCH   1  11
TORSDOF 4
ENDMDL
MODEL 8
REMARK VINA RESULT:      -3.7      5.120      5.522
REMARK  4 active torsions:
REMARK  status: ('A' for Active; 'I' for Inactive)
REMARK    1  A    between atoms: C2_2  and  S4_4 
REMARK    2  A    between atoms: C2_2  and  C5_5 
REMARK    3  A    between atoms: C5_5  and  N7_6 
REMARK    4  A    between atoms: C5_5  and  C11_10 
ROOT
ATOM      1  C5  ZIN A   1      20.188   0.073  12.090  0.00  0.00     0.300 C 
ENDROOT
BRANCH   1   2
ATOM      2  C2  ZIN A   1      19.167   1.211  12.147  0.00  0.00     0.036 C 
ATOM      3  C1  ZIN A   1      17.861   0.758  11.490  0.00  0.00     0.029 C 
ATOM      4  C3  ZIN A   1      19.718   2.429  11.401  0.00  0.00     0.029 C 
BRANCH   2   5
ATOM      5  S4  ZIN A   1      18.851   1.655  13.877  0.00  0.00    -0.170 SA
ATOM      6  H20 ZIN A   1      19.201   2.952  13.926  0.00  0.00     0.102 HD
ENDBRANCH   2   5
ENDBRANCH   1   2
BRANCH   1   7
ATOM      7  N7  ZIN A   1      21.546   0.631  12.119  0.00  0.00    -0.064 N 
ATOM      8  H8  ZIN A   1      21.818   0.906  11.187  0.00  0.00     0.275 HD
ATOM      9  H9  ZIN A   1      21.566   1.438  12.725  0.00  0.00     0.275 HD
ATOM     10  H10 ZIN A   1      22.190  -0.065  12.465  0.00  0.00     0.275 HD
ENDBRANCH   1   7
BRANCH   1  11
ATOM     11  C11 ZIN A   1      19.995  -0.712  10.818  0.00  0.00     0.206 C 
ATOM     12  O12 ZIN A   1      19.417  -1.785  10.845  0.00  0.00    -0.646 OA
ATOM     13  O13 ZIN A   1      20.421  -0.275   9.762  0.00  0.00    -0.646 OA
ENDBRANCH   1  11
TORSDOF 4
ENDMDL
MODEL 9
REMARK VINA RESULT:      -3.6      5.693      6.231
REMARK  4 active torsions:
REMARK  status: ('A' for Active; 'I' for Inactive)
REMARK    1  A    between atoms: C2_2  and  S4_4 
REMARK    2  A    between atoms: C2_2  and  C5_5 
REMARK    3  A    between atoms: C5_5  and  N7_6 
REMARK    4  A    between atoms: C5_5  and  C11_10 
ROOT
ATOM      1  C5  ZIN A   1      19.538   2.279  11.888  0.00  0.00     0.300 C 
ENDROOT
BRANCH   1   2
ATOM      2  C2  ZIN A   1      18.525   2.316  10.742  0.00  0.00     0.036 C 
ATOM      3  C1  ZIN A   1      17.495   1.201  10.936  0.00  0.00     0.029 C 
ATOM      4  C3  ZIN A   1      19.252   2.113   9.411  0.00  0.00     0.029 C 
BRANCH   2   5
ATOM      5  S4  ZIN A   1      17.682   3.922  10.731  0.00  0.00    -0.170 SA
ATOM      6  H20 ZIN A   1      18.651   4.770  10.344  0.00  0.00     0.102 HD
ENDBRANCH   2   5
ENDBRANCH   1   2
BRANCH   1   7
ATOM      7  N7  ZIN A   1      20.752   3.005  11.491  0.00  0.00    -0.064 N 
ATOM      8  H8  ZIN A   1      21.556   2.581  11.928  0.00  0.00     0.275 HD
ATOM      9  H9  ZIN A   1      20.856   2.966  10.488  0.00  0.00     0.275 HD
ATOM     10  H10 ZIN A   1      20.680   3.969  11.784  0.00  0.00     0.275 HD
ENDBRANCH   1   7
BRANCH   1  11
ATOM     11  C11 ZIN A   1      19.890   0.848  12.202  0.00  0.00     0.206 C 
ATOM     12  O12 ZIN A   1      20.676   0.244  11.493  0.00  0.00    -0.646 OA
ATOM     13  O13 ZIN A   1      19.386   0.295  13.165  0.00  0.00    -0.646 OA
ENDBRANCH   1  11
TORSDOF 4
ENDMDL
