MODEL 1
REMARK VINA RESULT:      -8.2      0.000      0.000
REMARK  11 active torsions:
REMARK  status: ('A' for Active; 'I' for Inactive)
REMARK    1  A    between atoms: C2_2  and  N4_4 
REMARK    2  A    between atoms: C11_11  and  C12_12 
REMARK    3  A    between atoms: C19_19  and  C20_20 
REMARK    4  A    between atoms: C20_20  and  C21_21 
REMARK    5  A    between atoms: C21_21  and  C22_22 
REMARK    6  A    between atoms: C22_22  and  O24_23 
REMARK    7  A    between atoms: C22_22  and  C25_24 
REMARK    8  A    between atoms: C25_24  and  C26_25 
REMARK    9  A    between atoms: C26_25  and  O28_26 
REMARK   10  A    between atoms: C26_25  and  C29_27 
REMARK   11  A    between atoms: C29_27  and  C30_28 
ROOT
ATOM      1  N4  ZIN A   1      18.734   1.266  12.578  0.00  0.00    -0.341 N 
ATOM      2  C5  ZIN A   1      18.646   0.773  13.862  0.00  0.00     0.046 A 
ATOM      3  C6  ZIN A   1      18.612   1.385  15.111  0.00  0.00     0.030 A 
ATOM      4  C7  ZIN A   1      18.518   0.615  16.250  0.00  0.00     0.002 A 
ATOM      5  C8  ZIN A   1      18.457  -0.769  16.165  0.00  0.00     0.001 A 
ATOM      6  C9  ZIN A   1      18.488  -1.391  14.948  0.00  0.00     0.014 A 
ATOM      7  C10 ZIN A   1      18.584  -0.630  13.783  0.00  0.00     0.004 A 
ATOM      8  C11 ZIN A   1      18.640  -0.966  12.353  0.00  0.00     0.013 A 
ATOM      9  C19 ZIN A   1      18.725   0.232  11.671  0.00  0.00     0.047 A 
ENDROOT
BRANCH   9  10
ATOM     10  C20 ZIN A   1      18.803   0.378  10.212  0.00  0.00     0.029 C 
BRANCH  10  11
ATOM     11  C21 ZIN A   1      17.706   0.248   9.469  0.00  0.00     0.007 C 
BRANCH  11  12
ATOM     12  C22 ZIN A   1      17.601  -0.871   8.466  0.00  0.00     0.143 C 
BRANCH  12  13
ATOM     13  O24 ZIN A   1      16.883  -0.415   7.318  0.00  0.00    -0.392 OA
ATOM     14  H50 ZIN A   1      16.113  -0.955   7.095  0.00  0.00     0.210 HD
ENDBRANCH  12  13
BRANCH  12  15
ATOM     15  C25 ZIN A   1      19.005  -1.314   8.048  0.00  0.00     0.068 C 
BRANCH  15  16
ATOM     16  C26 ZIN A   1      18.981  -2.798   7.675  0.00  0.00     0.130 C 
BRANCH  16  17
ATOM     17  O28 ZIN A   1      17.627  -3.237   7.550  0.00  0.00    -0.395 OA
ATOM     18  H53 ZIN A   1      17.309  -3.752   8.305  0.00  0.00     0.210 HD
ENDBRANCH  16  17
BRANCH  16  19
ATOM     19  C29 ZIN A   1      19.707  -3.001   6.344  0.00  0.00     0.144 C 
BRANCH  19  20
ATOM     20  C30 ZIN A   1      19.116  -2.084   5.304  0.00  0.00     0.175 C 
ATOM     21  O31 ZIN A   1      17.924  -2.137   5.052  0.00  0.00    -0.648 OA
ATOM     22  O32 ZIN A   1      19.828  -1.288   4.716  0.00  0.00    -0.648 OA
ENDBRANCH  19  20
ENDBRANCH  16  19
ENDBRANCH  15  16
ENDBRANCH  12  15
ENDBRANCH  11  12
ENDBRANCH  10  11
ENDBRANCH   9  10
BRANCH   1  23
ATOM     23  C2  ZIN A   1      18.820   2.688  12.229  0.00  0.00     0.082 C 
ATOM     24  C1  ZIN A   1      19.986   2.907  11.264  0.00  0.00     0.032 C 
ATOM     25  C3  ZIN A   1      17.516   3.128  11.562  0.00  0.00     0.032 C 
ENDBRANCH   1  23
BRANCH   8  26
ATOM     26  C12 ZIN A   1      18.607  -2.322  11.760  0.00  0.00    -0.023 A 
ATOM     27  C18 ZIN A   1      19.799  -2.992  11.479  0.00  0.00     0.015 A 
ATOM     28  C17 ZIN A   1      19.762  -4.258  10.933  0.00  0.00     0.043 A 
ATOM     29  C15 ZIN A   1      18.546  -4.859  10.650  0.00  0.00     0.116 A 
ATOM     30  C14 ZIN A   1      17.360  -4.195  10.921  0.00  0.00     0.043 A 
ATOM     31  F16 ZIN A   1      18.516  -6.097  10.109  0.00  0.00    -0.206 F 
ATOM     32  C13 ZIN A   1      17.385  -2.931  11.473  0.00  0.00     0.015 A 
ENDBRANCH   8  26
TORSDOF 11
ENDMDL
MODEL 2
REMARK VINA RESULT:      -8.0      2.603      4.810
REMARK  11 active torsions:
REMARK  status: ('A' for Active; 'I' for Inactive)
REMARK    1  A    between atoms: C2_2  and  N4_4 
REMARK    2  A    between atoms: C11_11  and  C12_12 
REMARK    3  A    between atoms: C19_19  and  C20_20 
REMARK    4  A    between atoms: C20_20  and  C21_21 
REMARK    5  A    between atoms: C21_21  and  C22_22 
REMARK    6  A    between atoms: C22_22  and  O24_23 
REMARK    7  A    between atoms: C22_22  and  C25_24 
REMARK    8  A    between atoms: C25_24  and  C26_25 
REMARK    9  A    between atoms: C26_25  and  O28_26 
REMARK   10  A    between atoms: C26_25  and  C29_27 
REMARK   11  A    between atoms: C29_27  and  C30_28 
ROOT
ATOM      1  N4  ZIN A   1      18.390   1.470  12.742  0.00  0.00    -0.341 N 
ATOM      2  C5  ZIN A   1      17.930   2.737  12.454  0.00  0.00     0.046 A 
ATOM      3  C6  ZIN A   1      17.607   3.832  13.250  0.00  0.00     0.030 A 
ATOM      4  C7  ZIN A   1      17.161   4.997  12.665  0.00  0.00     0.002 A 
ATOM      5  C8  ZIN A   1      17.029   5.092  11.287  0.00  0.00     0.001 A 
ATOM      6  C9  ZIN A   1      17.340   4.029  10.486  0.00  0.00     0.014 A 
ATOM      7  C10 ZIN A   1      17.793   2.839  11.057  0.00  0.00     0.004 A 
ATOM      8  C11 ZIN A   1      18.204   1.540  10.505  0.00  0.00     0.013 A 
ATOM      9  C19 ZIN A   1      18.562   0.752  11.582  0.00  0.00     0.047 A 
ENDROOT
BRANCH   9  10
ATOM     10  C20 ZIN A   1      19.040  -0.634  11.500  0.00  0.00     0.029 C 
BRANCH  10  11
ATOM     11  C21 ZIN A   1      18.171  -1.642  11.549  0.00  0.00     0.007 C 
BRANCH  11  12
ATOM     12  C22 ZIN A   1      18.186  -2.704  10.480  0.00  0.00     0.143 C 
BRANCH  12  13
ATOM     13  O24 ZIN A   1      19.539  -3.035  10.158  0.00  0.00    -0.392 OA
ATOM     14  H50 ZIN A   1      19.940  -3.677  10.758  0.00  0.00     0.210 HD
ENDBRANCH  12  13
BRANCH  12  15
ATOM     15  C25 ZIN A   1      17.462  -3.951  10.990  0.00  0.00     0.068 C 
BRANCH  15  16
ATOM     16  C26 ZIN A   1      16.934  -4.755   9.800  0.00  0.00     0.130 C 
BRANCH  16  17
ATOM     17  O28 ZIN A   1      17.308  -4.108   8.582  0.00  0.00    -0.395 OA
ATOM     18  H53 ZIN A   1      18.158  -4.402   8.225  0.00  0.00     0.210 HD
ENDBRANCH  16  17
BRANCH  16  19
ATOM     19  C29 ZIN A   1      17.530  -6.164   9.832  0.00  0.00     0.144 C 
BRANCH  19  20
ATOM     20  C30 ZIN A   1      18.685  -6.243   8.868  0.00  0.00     0.175 C 
ATOM     21  O31 ZIN A   1      19.770  -5.781   9.178  0.00  0.00    -0.648 OA
ATOM     22  O32 ZIN A   1      18.537  -6.771   7.779  0.00  0.00    -0.648 OA
ENDBRANCH  19  20
ENDBRANCH  16  19
ENDBRANCH  15  16
ENDBRANCH  12  15
ENDBRANCH  11  12
ENDBRANCH  10  11
ENDBRANCH   9  10
BRANCH   1  23
ATOM     23  C2  ZIN A   1      18.662   0.964  14.091  0.00  0.00     0.082 C 
ATOM     24  C1  ZIN A   1      19.263   2.083  14.944  0.00  0.00     0.032 C 
ATOM     25  C3  ZIN A   1      17.359   0.480  14.727  0.00  0.00     0.032 C 
ENDBRANCH   1  23
BRANCH   8  26
ATOM     26  C12 ZIN A   1      18.234   1.155   9.077  0.00  0.00    -0.023 A 
ATOM     27  C18 ZIN A   1      19.143   1.759   8.207  0.00  0.00     0.015 A 
ATOM     28  C17 ZIN A   1      19.170   1.391   6.878  0.00  0.00     0.043 A 
ATOM     29  C15 ZIN A   1      18.289   0.434   6.403  0.00  0.00     0.116 A 
ATOM     30  C14 ZIN A   1      17.379  -0.164   7.260  0.00  0.00     0.043 A 
ATOM     31  F16 ZIN A   1      18.316   0.083   5.098  0.00  0.00    -0.206 F 
ATOM     32  C13 ZIN A   1      17.347   0.192   8.593  0.00  0.00     0.015 A 
ENDBRANCH   8  26
TORSDOF 11
ENDMDL
MODEL 3
REMARK VINA RESULT:      -8.0      1.549      2.216
REMARK  11 active torsions:
REMARK  status: ('A' for Active; 'I' for Inactive)
REMARK    1  A    between atoms: C2_2  and  N4_4 
REMARK    2  A    between atoms: C11_11  and  C12_12 
REMARK    3  A    between atoms: C19_19  and  C20_20 
REMARK    4  A    between atoms: C20_20  and  C21_21 
REMARK    5  A    between atoms: C21_21  and  C22_22 
REMARK    6  A    between atoms: C22_22  and  O24_23 
REMARK    7  A    between atoms: C22_22  and  C25_24 
REMARK    8  A    between atoms: C25_24  and  C26_25 
REMARK    9  A    between atoms: C26_25  and  O28_26 
REMARK   10  A    between atoms: C26_25  and  C29_27 
REMARK   11  A    between atoms: C29_27  and  C30_28 
ROOT
ATOM      1  N4  ZIN A   1      18.475   2.564  12.714  0.00  0.00    -0.341 N 
ATOM      2  C5  ZIN A   1      18.663   2.212  14.033  0.00  0.00     0.046 A 
ATOM      3  C6  ZIN A   1      18.792   2.954  15.204  0.00  0.00     0.030 A 
ATOM      4  C7  ZIN A   1      18.974   2.310  16.408  0.00  0.00     0.002 A 
ATOM      5  C8  ZIN A   1      19.031   0.925  16.468  0.00  0.00     0.001 A 
ATOM      6  C9  ZIN A   1      18.907   0.176  15.332  0.00  0.00     0.014 A 
ATOM      7  C10 ZIN A   1      18.722   0.808  14.102  0.00  0.00     0.004 A 
ATOM      8  C11 ZIN A   1      18.556   0.320  12.725  0.00  0.00     0.013 A 
ATOM      9  C19 ZIN A   1      18.404   1.438  11.928  0.00  0.00     0.047 A 
ENDROOT
BRANCH   9  10
ATOM     10  C20 ZIN A   1      18.209   1.426  10.472  0.00  0.00     0.029 C 
BRANCH  10  11
ATOM     11  C21 ZIN A   1      19.260   1.508   9.659  0.00  0.00     0.007 C 
BRANCH  11  12
ATOM     12  C22 ZIN A   1      19.631   0.337   8.786  0.00  0.00     0.143 C 
BRANCH  12  13
ATOM     13  O24 ZIN A   1      20.698  -0.392   9.396  0.00  0.00    -0.392 OA
ATOM     14  H50 ZIN A   1      20.497  -1.323   9.555  0.00  0.00     0.210 HD
ENDBRANCH  12  13
BRANCH  12  15
ATOM     15  C25 ZIN A   1      18.418  -0.578   8.617  0.00  0.00     0.068 C 
BRANCH  15  16
ATOM     16  C26 ZIN A   1      18.104  -0.739   7.127  0.00  0.00     0.130 C 
BRANCH  16  17
ATOM     17  O28 ZIN A   1      16.725  -0.444   6.896  0.00  0.00    -0.395 OA
ATOM     18  H53 ZIN A   1      16.572   0.404   6.456  0.00  0.00     0.210 HD
ENDBRANCH  16  17
BRANCH  16  19
ATOM     19  C29 ZIN A   1      18.974   0.223   6.316  0.00  0.00     0.144 C 
BRANCH  19  20
ATOM     20  C30 ZIN A   1      19.197  -0.342   4.937  0.00  0.00     0.175 C 
ATOM     21  O31 ZIN A   1      18.646   0.164   3.974  0.00  0.00    -0.648 OA
ATOM     22  O32 ZIN A   1      19.928  -1.306   4.783  0.00  0.00    -0.648 OA
ENDBRANCH  19  20
ENDBRANCH  16  19
ENDBRANCH  15  16
ENDBRANCH  12  15
ENDBRANCH  11  12
ENDBRANCH  10  11
ENDBRANCH   9  10
BRANCH   1  23
ATOM     23  C2  ZIN A   1      18.362   3.940  12.222  0.00  0.00     0.082 C 
ATOM     24  C1  ZIN A   1      17.126   4.601  12.836  0.00  0.00     0.032 C 
ATOM     25  C3  ZIN A   1      19.612   4.728  12.616  0.00  0.00     0.032 C 
ENDBRANCH   1  23
BRANCH   8  26
ATOM     26  C12 ZIN A   1      18.549  -1.092  12.281  0.00  0.00    -0.023 A 
ATOM     27  C18 ZIN A   1      17.357  -1.690  11.869  0.00  0.00     0.015 A 
ATOM     28  C17 ZIN A   1      17.357  -3.004  11.450  0.00  0.00     0.043 A 
ATOM     29  C15 ZIN A   1      18.534  -3.735  11.451  0.00  0.00     0.116 A 
ATOM     30  C14 ZIN A   1      19.719  -3.148  11.865  0.00  0.00     0.043 A 
ATOM     31  F16 ZIN A   1      18.526  -5.023  11.046  0.00  0.00    -0.206 F 
ATOM     32  C13 ZIN A   1      19.732  -1.832  12.281  0.00  0.00     0.015 A 
ENDBRANCH   8  26
TORSDOF 11
ENDMDL
MODEL 4
REMARK VINA RESULT:      -7.9      2.605      4.067
REMARK  11 active torsions:
REMARK  status: ('A' for Active; 'I' for Inactive)
REMARK    1  A    between atoms: C2_2  and  N4_4 
REMARK    2  A    between atoms: C11_11  and  C12_12 
REMARK    3  A    between atoms: C19_19  and  C20_20 
REMARK    4  A    between atoms: C20_20  and  C21_21 
REMARK    5  A    between atoms: C21_21  and  C22_22 
REMARK    6  A    between atoms: C22_22  and  O24_23 
REMARK    7  A    between atoms: C22_22  and  C25_24 
REMARK    8  A    between atoms: C25_24  and  C26_25 
REMARK    9  A    between atoms: C26_25  and  O28_26 
REMARK   10  A    between atoms: C26_25  and  C29_27 
REMARK   11  A    between atoms: C29_27  and  C30_28 
ROOT
ATOM      1  N4  ZIN A   1      18.757   3.724  15.317  0.00  0.00    -0.341 N 
ATOM      2  C5  ZIN A   1      18.872   2.972  16.466  0.00  0.00     0.046 A 
ATOM      3  C6  ZIN A   1      19.063   3.307  17.803  0.00  0.00     0.030 A 
ATOM      4  C7  ZIN A   1      19.141   2.314  18.754  0.00  0.00     0.002 A 
ATOM      5  C8  ZIN A   1      19.029   0.978  18.394  0.00  0.00     0.001 A 
ATOM      6  C9  ZIN A   1      18.840   0.626  17.087  0.00  0.00     0.014 A 
ATOM      7  C10 ZIN A   1      18.759   1.616  16.107  0.00  0.00     0.004 A 
ATOM      8  C11 ZIN A   1      18.567   1.588  14.650  0.00  0.00     0.013 A 
ATOM      9  C19 ZIN A   1      18.568   2.904  14.229  0.00  0.00     0.047 A 
ENDROOT
BRANCH   9  10
ATOM     10  C20 ZIN A   1      18.405   3.353  12.841  0.00  0.00     0.029 C 
BRANCH  10  11
ATOM     11  C21 ZIN A   1      19.475   3.556  12.076  0.00  0.00     0.007 C 
BRANCH  11  12
ATOM     12  C22 ZIN A   1      19.698   2.709  10.850  0.00  0.00     0.143 C 
BRANCH  12  13
ATOM     13  O24 ZIN A   1      20.336   1.486  11.226  0.00  0.00    -0.392 OA
ATOM     14  H50 ZIN A   1      20.638   1.467  12.143  0.00  0.00     0.210 HD
ENDBRANCH  12  13
BRANCH  12  15
ATOM     15  C25 ZIN A   1      18.352   2.401  10.192  0.00  0.00     0.068 C 
BRANCH  15  16
ATOM     16  C26 ZIN A   1      18.589   1.767   8.819  0.00  0.00     0.130 C 
BRANCH  16  17
ATOM     17  O28 ZIN A   1      19.988   1.771   8.527  0.00  0.00    -0.395 OA
ATOM     18  H53 ZIN A   1      20.525   1.289   9.171  0.00  0.00     0.210 HD
ENDBRANCH  16  17
BRANCH  16  19
ATOM     19  C29 ZIN A   1      18.074   0.326   8.828  0.00  0.00     0.144 C 
BRANCH  19  20
ATOM     20  C30 ZIN A   1      19.228  -0.622   8.624  0.00  0.00     0.175 C 
ATOM     21  O31 ZIN A   1      19.968  -0.890   9.556  0.00  0.00    -0.648 OA
ATOM     22  O32 ZIN A   1      19.422  -1.122   7.529  0.00  0.00    -0.648 OA
ENDBRANCH  19  20
ENDBRANCH  16  19
ENDBRANCH  15  16
ENDBRANCH  12  15
ENDBRANCH  11  12
ENDBRANCH  10  11
ENDBRANCH   9  10
BRANCH   1  23
ATOM     23  C2  ZIN A   1      18.820   5.188  15.263  0.00  0.00     0.082 C 
ATOM     24  C1  ZIN A   1      17.673   5.779  16.084  0.00  0.00     0.032 C 
ATOM     25  C3  ZIN A   1      20.156   5.662  15.837  0.00  0.00     0.032 C 
ENDBRANCH   1  23
BRANCH   8  26
ATOM     26  C12 ZIN A   1      18.399   0.387  13.802  0.00  0.00    -0.023 A 
ATOM     27  C18 ZIN A   1      19.348  -0.636  13.842  0.00  0.00     0.015 A 
ATOM     28  C17 ZIN A   1      19.182  -1.756  13.054  0.00  0.00     0.043 A 
ATOM     29  C15 ZIN A   1      18.085  -1.861  12.215  0.00  0.00     0.116 A 
ATOM     30  C14 ZIN A   1      17.144  -0.846  12.167  0.00  0.00     0.043 A 
ATOM     31  F16 ZIN A   1      17.932  -2.958  11.441  0.00  0.00    -0.206 F 
ATOM     32  C13 ZIN A   1      17.296   0.277  12.955  0.00  0.00     0.015 A 
ENDBRANCH   8  26
TORSDOF 11
ENDMDL
MODEL 5
REMARK VINA RESULT:      -7.8      3.643      7.638
REMARK  11 active torsions:
REMARK  status: ('A' for Active; 'I' for Inactive)
REMARK    1  A    between atoms: C2_2  and  N4_4 
REMARK    2  A    between atoms: C11_11  and  C12_12 
REMARK    3  A    between atoms: C19_19  and  C20_20 
REMARK    4  A    between atoms: C20_20  and  C21_21 
REMARK    5  A    between atoms: C21_21  and  C22_22 
REMARK    6  A    between atoms: C22_22  and  O24_23 
REMARK    7  A    between atoms: C22_22  and  C25_24 
REMARK    8  A    between atoms: C25_24  and  C26_25 
REMARK    9  A    between atoms: C26_25  and  O28_26 
REMARK   10  A    between atoms: C26_25  and  C29_27 
REMARK   11  A    between atoms: C29_27  and  C30_28 
ROOT
ATOM      1  N4  ZIN A   1      18.678  -2.915   7.570  0.00  0.00    -0.341 N 
ATOM      2  C5  ZIN A   1      18.847  -1.959   6.593  0.00  0.00     0.046 A 
ATOM      3  C6  ZIN A   1      19.073  -2.036   5.222  0.00  0.00     0.030 A 
ATOM      4  C7  ZIN A   1      19.204  -0.880   4.482  0.00  0.00     0.002 A 
ATOM      5  C8  ZIN A   1      19.112   0.363   5.091  0.00  0.00     0.001 A 
ATOM      6  C9  ZIN A   1      18.890   0.462   6.436  0.00  0.00     0.014 A 
ATOM      7  C10 ZIN A   1      18.755  -0.695   7.203  0.00  0.00     0.004 A 
ATOM      8  C11 ZIN A   1      18.516  -0.943   8.633  0.00  0.00     0.013 A 
ATOM      9  C19 ZIN A   1      18.474  -2.315   8.791  0.00  0.00     0.047 A 
ENDROOT
BRANCH   9  10
ATOM     10  C20 ZIN A   1      18.256  -3.019  10.061  0.00  0.00     0.029 C 
BRANCH  10  11
ATOM     11  C21 ZIN A   1      19.283  -3.580  10.696  0.00  0.00     0.007 C 
BRANCH  11  12
ATOM     12  C22 ZIN A   1      19.963  -2.849  11.824  0.00  0.00     0.143 C 
BRANCH  12  13
ATOM     13  O24 ZIN A   1      20.894  -1.908  11.287  0.00  0.00    -0.392 OA
ATOM     14  H50 ZIN A   1      21.797  -2.017  11.614  0.00  0.00     0.210 HD
ENDBRANCH  12  13
BRANCH  12  15
ATOM     15  C25 ZIN A   1      18.916  -2.113  12.660  0.00  0.00     0.068 C 
BRANCH  15  16
ATOM     16  C26 ZIN A   1      19.579  -1.526  13.908  0.00  0.00     0.130 C 
BRANCH  16  17
ATOM     17  O28 ZIN A   1      20.124  -0.241  13.600  0.00  0.00    -0.395 OA
ATOM     18  H53 ZIN A   1      19.502   0.489  13.725  0.00  0.00     0.210 HD
ENDBRANCH  16  17
BRANCH  16  19
ATOM     19  C29 ZIN A   1      18.539  -1.386  15.021  0.00  0.00     0.144 C 
BRANCH  19  20
ATOM     20  C30 ZIN A   1      18.352   0.072  15.353  0.00  0.00     0.175 C 
ATOM     21  O31 ZIN A   1      19.125   0.627  16.117  0.00  0.00    -0.648 OA
ATOM     22  O32 ZIN A   1      17.430   0.699  14.859  0.00  0.00    -0.648 OA
ENDBRANCH  19  20
ENDBRANCH  16  19
ENDBRANCH  15  16
ENDBRANCH  12  15
ENDBRANCH  11  12
ENDBRANCH  10  11
ENDBRANCH   9  10
BRANCH   1  23
ATOM     23  C2  ZIN A   1      18.706  -4.363   7.342  0.00  0.00     0.082 C 
ATOM     24  C1  ZIN A   1      17.827  -4.706   6.138  0.00  0.00     0.032 C 
ATOM     25  C3  ZIN A   1      20.143  -4.809   7.068  0.00  0.00     0.032 C 
ENDBRANCH   1  23
BRANCH   8  26
ATOM     26  C12 ZIN A   1      18.350   0.076   9.692  0.00  0.00    -0.023 A 
ATOM     27  C18 ZIN A   1      19.369   0.996   9.946  0.00  0.00     0.015 A 
ATOM     28  C17 ZIN A   1      19.205   1.948  10.930  0.00  0.00     0.043 A 
ATOM     29  C15 ZIN A   1      18.038   1.984  11.676  0.00  0.00     0.116 A 
ATOM     30  C14 ZIN A   1      17.026   1.070  11.433  0.00  0.00     0.043 A 
ATOM     31  F16 ZIN A   1      17.886   2.915  12.644  0.00  0.00    -0.206 F 
ATOM     32  C13 ZIN A   1      17.176   0.117  10.447  0.00  0.00     0.015 A 
ENDBRANCH   8  26
TORSDOF 11
ENDMDL
MODEL 6
REMARK VINA RESULT:      -7.8      4.437      8.139
REMARK  11 active torsions:
REMARK  status: ('A' for Active; 'I' for Inactive)
REMARK    1  A    between atoms: C2_2  and  N4_4 
REMARK    2  A    between atoms: C11_11  and  C12_12 
REMARK    3  A    between atoms: C19_19  and  C20_20 
REMARK    4  A    between atoms: C20_20  and  C21_21 
REMARK    5  A    between atoms: C21_21  and  C22_22 
REMARK    6  A    between atoms: C22_22  and  O24_23 
REMARK    7  A    between atoms: C22_22  and  C25_24 
REMARK    8  A    between atoms: C25_24  and  C26_25 
REMARK    9  A    between atoms: C26_25  and  O28_26 
REMARK   10  A    between atoms: C26_25  and  C29_27 
REMARK   11  A    between atoms: C29_27  and  C30_28 
ROOT
ATOM      1  N4  ZIN A   1      18.355  -1.789   9.910  0.00  0.00    -0.341 N 
ATOM      2  C5  ZIN A   1      18.544  -1.238   8.661  0.00  0.00     0.046 A 
ATOM      3  C6  ZIN A   1      18.631  -1.788   7.386  0.00  0.00     0.030 A 
ATOM      4  C7  ZIN A   1      18.828  -0.967   6.297  0.00  0.00     0.002 A 
ATOM      5  C8  ZIN A   1      18.942   0.406   6.457  0.00  0.00     0.001 A 
ATOM      6  C9  ZIN A   1      18.859   0.968   7.700  0.00  0.00     0.014 A 
ATOM      7  C10 ZIN A   1      18.660   0.156   8.817  0.00  0.00     0.004 A 
ATOM      8  C11 ZIN A   1      18.528   0.424  10.256  0.00  0.00     0.013 A 
ATOM      9  C19 ZIN A   1      18.337  -0.801  10.867  0.00  0.00     0.047 A 
ENDROOT
BRANCH   9  10
ATOM     10  C20 ZIN A   1      18.157  -1.013  12.309  0.00  0.00     0.029 C 
BRANCH  10  11
ATOM     11  C21 ZIN A   1      19.209  -1.286  13.079  0.00  0.00     0.007 C 
BRANCH  11  12
ATOM     12  C22 ZIN A   1      19.367  -0.598  14.410  0.00  0.00     0.143 C 
BRANCH  12  13
ATOM     13  O24 ZIN A   1      19.993   0.673  14.217  0.00  0.00    -0.392 OA
ATOM     14  H50 ZIN A   1      19.611   1.384  14.747  0.00  0.00     0.210 HD
ENDBRANCH  12  13
BRANCH  12  15
ATOM     15  C25 ZIN A   1      17.992  -0.397  15.047  0.00  0.00     0.068 C 
BRANCH  15  16
ATOM     16  C26 ZIN A   1      18.086  -0.650  16.554  0.00  0.00     0.130 C 
BRANCH  16  17
ATOM     17  O28 ZIN A   1      19.384  -1.156  16.872  0.00  0.00    -0.395 OA
ATOM     18  H53 ZIN A   1      19.627  -1.953  16.380  0.00  0.00     0.210 HD
ENDBRANCH  16  17
BRANCH  16  19
ATOM     19  C29 ZIN A   1      17.852   0.662  17.306  0.00  0.00     0.144 C 
BRANCH  19  20
ATOM     20  C30 ZIN A   1      19.177   1.319  17.595  0.00  0.00     0.175 C 
ATOM     21  O31 ZIN A   1      19.786   1.041  18.615  0.00  0.00    -0.648 OA
ATOM     22  O32 ZIN A   1      19.642   2.127  16.810  0.00  0.00    -0.648 OA
ENDBRANCH  19  20
ENDBRANCH  16  19
ENDBRANCH  15  16
ENDBRANCH  12  15
ENDBRANCH  11  12
ENDBRANCH  10  11
ENDBRANCH   9  10
BRANCH   1  23
ATOM     23  C2  ZIN A   1      18.189  -3.220  10.179  0.00  0.00     0.082 C 
ATOM     24  C1  ZIN A   1      17.451  -3.876   9.010  0.00  0.00     0.032 C 
ATOM     25  C3  ZIN A   1      19.563  -3.870  10.345  0.00  0.00     0.032 C 
ENDBRANCH   1  23
BRANCH   8  26
ATOM     26  C12 ZIN A   1      18.583   1.746  10.919  0.00  0.00    -0.023 A 
ATOM     27  C18 ZIN A   1      19.814   2.307  11.260  0.00  0.00     0.015 A 
ATOM     28  C17 ZIN A   1      19.859   3.542  11.872  0.00  0.00     0.043 A 
ATOM     29  C15 ZIN A   1      18.686   4.219  12.161  0.00  0.00     0.116 A 
ATOM     30  C14 ZIN A   1      17.460   3.663  11.832  0.00  0.00     0.043 A 
ATOM     31  F16 ZIN A   1      18.736   5.426  12.767  0.00  0.00    -0.206 F 
ATOM     32  C13 ZIN A   1      17.403   2.431  11.213  0.00  0.00     0.015 A 
ENDBRANCH   8  26
TORSDOF 11
ENDMDL
MODEL 7
REMARK VINA RESULT:      -7.8      3.394      6.546
REMARK  11 active torsions:
REMARK  status: ('A' for Active; 'I' for Inactive)
REMARK    1  A    between atoms: C2_2  and  N4_4 
REMARK    2  A    between atoms: C11_11  and  C12_12 
REMARK    3  A    between atoms: C19_19  and  C20_20 
REMARK    4  A    between atoms: C20_20  and  C21_21 
REMARK    5  A    between atoms: C21_21  and  C22_22 
REMARK    6  A    between atoms: C22_22  and  O24_23 
REMARK    7  A    between atoms: C22_22  and  C25_24 
REMARK    8  A    between atoms: C25_24  and  C26_25 
REMARK    9  A    between atoms: C26_25  and  O28_26 
REMARK   10  A    between atoms: C26_25  and  C29_27 
REMARK   11  A    between atoms: C29_27  and  C30_28 
ROOT
ATOM      1  N4  ZIN A   1      18.844  -2.330   8.649  0.00  0.00    -0.341 N 
ATOM      2  C5  ZIN A   1      18.041  -3.391   9.007  0.00  0.00     0.046 A 
ATOM      3  C6  ZIN A   1      17.502  -4.456   8.291  0.00  0.00     0.030 A 
ATOM      4  C7  ZIN A   1      16.717  -5.388   8.934  0.00  0.00     0.002 A 
ATOM      5  C8  ZIN A   1      16.456  -5.277  10.292  0.00  0.00     0.001 A 
ATOM      6  C9  ZIN A   1      16.976  -4.240  11.016  0.00  0.00     0.014 A 
ATOM      7  C10 ZIN A   1      17.773  -3.285  10.384  0.00  0.00     0.004 A 
ATOM      8  C11 ZIN A   1      18.471  -2.077  10.849  0.00  0.00     0.013 A 
ATOM      9  C19 ZIN A   1      19.110  -1.544   9.747  0.00  0.00     0.047 A 
ENDROOT
BRANCH   9  10
ATOM     10  C20 ZIN A   1      19.931  -0.327   9.745  0.00  0.00     0.029 C 
BRANCH  10  11
ATOM     11  C21 ZIN A   1      19.397   0.837   9.383  0.00  0.00     0.007 C 
BRANCH  11  12
ATOM     12  C22 ZIN A   1      19.106   1.889  10.422  0.00  0.00     0.143 C 
BRANCH  12  13
ATOM     13  O24 ZIN A   1      20.319   2.252  11.084  0.00  0.00    -0.392 OA
ATOM     14  H50 ZIN A   1      21.015   2.563  10.489  0.00  0.00     0.210 HD
ENDBRANCH  12  13
BRANCH  12  15
ATOM     15  C25 ZIN A   1      18.506   3.122   9.744  0.00  0.00     0.068 C 
BRANCH  15  16
ATOM     16  C26 ZIN A   1      17.386   3.690  10.620  0.00  0.00     0.130 C 
BRANCH  16  17
ATOM     17  O28 ZIN A   1      17.085   2.766  11.668  0.00  0.00    -0.395 OA
ATOM     18  H53 ZIN A   1      17.297   1.847  11.454  0.00  0.00     0.210 HD
ENDBRANCH  16  17
BRANCH  16  19
ATOM     19  C29 ZIN A   1      17.838   5.020  11.227  0.00  0.00     0.144 C 
BRANCH  19  20
ATOM     20  C30 ZIN A   1      18.261   4.802  12.657  0.00  0.00     0.175 C 
ATOM     21  O31 ZIN A   1      19.394   4.427  12.907  0.00  0.00    -0.648 OA
ATOM     22  O32 ZIN A   1      17.471   5.001  13.564  0.00  0.00    -0.648 OA
ENDBRANCH  19  20
ENDBRANCH  16  19
ENDBRANCH  15  16
ENDBRANCH  12  15
ENDBRANCH  11  12
ENDBRANCH  10  11
ENDBRANCH   9  10
BRANCH   1  23
ATOM     23  C2  ZIN A   1      19.347  -2.078   7.295  0.00  0.00     0.082 C 
ATOM     24  C1  ZIN A   1      19.799  -3.397   6.666  0.00  0.00     0.032 C 
ATOM     25  C3  ZIN A   1      18.236  -1.460   6.445  0.00  0.00     0.032 C 
ENDBRANCH   1  23
BRANCH   8  26
ATOM     26  C12 ZIN A   1      18.489  -1.542  12.229  0.00  0.00    -0.023 A 
ATOM     27  C18 ZIN A   1      19.469  -1.962  13.129  0.00  0.00     0.015 A 
ATOM     28  C17 ZIN A   1      19.486  -1.454  14.412  0.00  0.00     0.043 A 
ATOM     29  C15 ZIN A   1      18.524  -0.540  14.811  0.00  0.00     0.116 A 
ATOM     30  C14 ZIN A   1      17.545  -0.125  13.923  0.00  0.00     0.043 A 
ATOM     31  F16 ZIN A   1      18.541  -0.051  16.070  0.00  0.00    -0.206 F 
ATOM     32  C13 ZIN A   1      17.522  -0.622  12.635  0.00  0.00     0.015 A 
ENDBRANCH   8  26
TORSDOF 11
ENDMDL
MODEL 8
REMARK VINA RESULT:      -7.7      4.239      8.112
REMARK  11 active torsions:
REMARK  status: ('A' for Active; 'I' for Inactive)
REMARK    1  A    between atoms: C2_2  and  N4_4 
REMARK    2  A    between atoms: C11_11  and  C12_12 
REMARK    3  A    between atoms: C19_19  and  C20_20 
REMARK    4  A    between atoms: C20_20  and  C21_21 
REMARK    5  A    between atoms: C21_21  and  C22_22 
REMARK    6  A    between atoms: C22_22  and  O24_23 
REMARK    7  A    between atoms: C22_22  and  C25_24 
REMARK    8  A    between atoms: C25_24  and  C26_25 
REMARK    9  A    between atoms: C26_25  and  O28_26 
REMARK   10  A    between atoms: C26_25  and  C29_27 
REMARK   11  A    between atoms: C29_27  and  C30_28 
ROOT
ATOM      1  N4  ZIN A   1      18.382  -2.753   9.827  0.00  0.00    -0.341 N 
ATOM      2  C5  ZIN A   1      18.656  -2.353   8.537  0.00  0.00     0.046 A 
ATOM      3  C6  ZIN A   1      18.801  -3.048   7.340  0.00  0.00     0.030 A 
ATOM      4  C7  ZIN A   1      19.081  -2.362   6.178  0.00  0.00     0.002 A 
ATOM      5  C8  ZIN A   1      19.221  -0.982   6.188  0.00  0.00     0.001 A 
ATOM      6  C9  ZIN A   1      19.082  -0.279   7.352  0.00  0.00     0.014 A 
ATOM      7  C10 ZIN A   1      18.799  -0.953   8.539  0.00  0.00     0.004 A 
ATOM      8  C11 ZIN A   1      18.592  -0.519   9.929  0.00  0.00     0.013 A 
ATOM      9  C19 ZIN A   1      18.336  -1.661  10.662  0.00  0.00     0.047 A 
ENDROOT
BRANCH   9  10
ATOM     10  C20 ZIN A   1      18.068  -1.704  12.106  0.00  0.00     0.029 C 
BRANCH  10  11
ATOM     11  C21 ZIN A   1      19.041  -2.027  12.954  0.00  0.00     0.007 C 
BRANCH  11  12
ATOM     12  C22 ZIN A   1      19.316  -1.158  14.154  0.00  0.00     0.143 C 
BRANCH  12  13
ATOM     13  O24 ZIN A   1      20.371  -0.244  13.847  0.00  0.00    -0.392 OA
ATOM     14  H50 ZIN A   1      20.093   0.681  13.815  0.00  0.00     0.210 HD
ENDBRANCH  12  13
BRANCH  12  15
ATOM     15  C25 ZIN A   1      18.052  -0.377  14.518  0.00  0.00     0.068 C 
BRANCH  15  16
ATOM     16  C26 ZIN A   1      18.441   0.906  15.256  0.00  0.00     0.130 C 
BRANCH  16  17
ATOM     17  O28 ZIN A   1      17.579   1.971  14.848  0.00  0.00    -0.395 OA
ATOM     18  H53 ZIN A   1      16.643   1.810  15.030  0.00  0.00     0.210 HD
ENDBRANCH  16  17
BRANCH  16  19
ATOM     19  C29 ZIN A   1      18.305   0.689  16.764  0.00  0.00     0.144 C 
BRANCH  19  20
ATOM     20  C30 ZIN A   1      19.333   1.520  17.487  0.00  0.00     0.175 C 
ATOM     21  O31 ZIN A   1      19.667   2.603  17.038  0.00  0.00    -0.648 OA
ATOM     22  O32 ZIN A   1      19.831   1.110  18.522  0.00  0.00    -0.648 OA
ENDBRANCH  19  20
ENDBRANCH  16  19
ENDBRANCH  15  16
ENDBRANCH  12  15
ENDBRANCH  11  12
ENDBRANCH  10  11
ENDBRANCH   9  10
BRANCH   1  23
ATOM     23  C2  ZIN A   1      18.164  -4.141  10.246  0.00  0.00     0.082 C 
ATOM     24  C1  ZIN A   1      16.968  -4.721   9.489  0.00  0.00     0.032 C 
ATOM     25  C3  ZIN A   1      19.413  -4.968   9.939  0.00  0.00     0.032 C 
ENDBRANCH   1  23
BRANCH   8  26
ATOM     26  C12 ZIN A   1      18.643   0.869  10.439  0.00  0.00    -0.023 A 
ATOM     27  C18 ZIN A   1      17.554   1.722  10.257  0.00  0.00     0.015 A 
ATOM     28  C17 ZIN A   1      17.605   3.013  10.741  0.00  0.00     0.043 A 
ATOM     29  C15 ZIN A   1      18.738   3.467  11.394  0.00  0.00     0.116 A 
ATOM     30  C14 ZIN A   1      19.825   2.626  11.572  0.00  0.00     0.043 A 
ATOM     31  F16 ZIN A   1      18.785   4.734  11.860  0.00  0.00    -0.206 F 
ATOM     32  C13 ZIN A   1      19.783   1.331  11.098  0.00  0.00     0.015 A 
ENDBRANCH   8  26
TORSDOF 11
ENDMDL
MODEL 9
REMARK VINA RESULT:      -7.7      3.975      7.055
REMARK  11 active torsions:
REMARK  status: ('A' for Active; 'I' for Inactive)
REMARK    1  A    between atoms: C2_2  and  N4_4 
REMARK    2  A    between atoms: C11_11  and  C12_12 
REMARK    3  A    between atoms: C19_19  and  C20_20 
REMARK    4  A    between atoms: C20_20  and  C21_21 
REMARK    5  A    between atoms: C21_21  and  C22_22 
REMARK    6  A    between atoms: C22_22  and  O24_23 
REMARK    7  A    between atoms: C22_22  and  C25_24 
REMARK    8  A    between atoms: C25_24  and  C26_25 
REMARK    9  A    between atoms: C26_25  and  O28_26 
REMARK   10  A    between atoms: C26_25  and  C29_27 
REMARK   11  A    between atoms: C29_27  and  C30_28 
ROOT
ATOM      1  N4  ZIN A   1      18.781   1.553   9.967  0.00  0.00    -0.341 N 
ATOM      2  C5  ZIN A   1      18.895   1.085   8.675  0.00  0.00     0.046 A 
ATOM      3  C6  ZIN A   1      19.056   1.721   7.448  0.00  0.00     0.030 A 
ATOM      4  C7  ZIN A   1      19.142   0.973   6.294  0.00  0.00     0.002 A 
ATOM      5  C8  ZIN A   1      19.070  -0.411   6.341  0.00  0.00     0.001 A 
ATOM      6  C9  ZIN A   1      18.912  -1.057   7.535  0.00  0.00     0.014 A 
ATOM      7  C10 ZIN A   1      18.823  -0.320   8.716  0.00  0.00     0.004 A 
ATOM      8  C11 ZIN A   1      18.655  -0.684  10.130  0.00  0.00     0.013 A 
ATOM      9  C19 ZIN A   1      18.644   0.500  10.842  0.00  0.00     0.047 A 
ENDROOT
BRANCH   9  10
ATOM     10  C20 ZIN A   1      18.498   0.617  12.298  0.00  0.00     0.029 C 
BRANCH  10  11
ATOM     11  C21 ZIN A   1      19.400   0.061  13.105  0.00  0.00     0.007 C 
BRANCH  11  12
ATOM     12  C22 ZIN A   1      19.017  -1.110  13.972  0.00  0.00     0.143 C 
BRANCH  12  13
ATOM     13  O24 ZIN A   1      20.194  -1.682  14.546  0.00  0.00    -0.392 OA
ATOM     14  H50 ZIN A   1      20.441  -2.536  14.167  0.00  0.00     0.210 HD
ENDBRANCH  12  13
BRANCH  12  15
ATOM     15  C25 ZIN A   1      18.083  -0.636  15.086  0.00  0.00     0.068 C 
BRANCH  15  16
ATOM     16  C26 ZIN A   1      18.817   0.376  15.970  0.00  0.00     0.130 C 
BRANCH  16  17
ATOM     17  O28 ZIN A   1      18.059   1.585  16.041  0.00  0.00    -0.395 OA
ATOM     18  H53 ZIN A   1      18.182   2.079  16.863  0.00  0.00     0.210 HD
ENDBRANCH  16  17
BRANCH  16  19
ATOM     19  C29 ZIN A   1      18.986  -0.203  17.376  0.00  0.00     0.144 C 
BRANCH  19  20
ATOM     20  C30 ZIN A   1      18.824   0.895  18.395  0.00  0.00     0.175 C 
ATOM     21  O31 ZIN A   1      19.764   1.626  18.658  0.00  0.00    -0.648 OA
ATOM     22  O32 ZIN A   1      17.753   1.055  18.955  0.00  0.00    -0.648 OA
ENDBRANCH  19  20
ENDBRANCH  16  19
ENDBRANCH  15  16
ENDBRANCH  12  15
ENDBRANCH  11  12
ENDBRANCH  10  11
ENDBRANCH   9  10
BRANCH   1  23
ATOM     23  C2  ZIN A   1      18.809   2.966  10.352  0.00  0.00     0.082 C 
ATOM     24  C1  ZIN A   1      17.453   3.361  10.942  0.00  0.00     0.032 C 
ATOM     25  C3  ZIN A   1      19.904   3.189  11.396  0.00  0.00     0.032 C 
ENDBRANCH   1  23
BRANCH   8  26
ATOM     26  C12 ZIN A   1      18.529  -2.051  10.683  0.00  0.00    -0.023 A 
ATOM     27  C18 ZIN A   1      17.272  -2.556  11.019  0.00  0.00     0.015 A 
ATOM     28  C17 ZIN A   1      17.160  -3.833  11.528  0.00  0.00     0.043 A 
ATOM     29  C15 ZIN A   1      18.292  -4.609  11.719  0.00  0.00     0.116 A 
ATOM     30  C14 ZIN A   1      19.543  -4.109  11.393  0.00  0.00     0.043 A 
ATOM     31  F16 ZIN A   1      18.177  -5.857  12.224  0.00  0.00    -0.206 F 
ATOM     32  C13 ZIN A   1      19.667  -2.835  10.878  0.00  0.00     0.015 A 
ENDBRANCH   8  26
TORSDOF 11
ENDMDL
