MODEL 1
REMARK VINA RESULT:      -7.1      0.000      0.000
REMARK  4 active torsions:
REMARK  status: ('A' for Active; 'I' for Inactive)
REMARK    1  A    between atoms: C2_2  and  C4_4 
REMARK       I    between atoms: C4_4  and  N6_6 
REMARK    2  A    between atoms: N6_6  and  C7_7 
REMARK    3  A    between atoms: C10_10  and  N11_11 
REMARK    4  A    between atoms: C14_14  and  C15_15 
ROOT
ATOM      1  C7  ZIN A   1      18.211   1.864  13.937  0.00  0.00     0.035 A 
ATOM      2  C8  ZIN A   1      18.484   2.888  14.833  0.00  0.00     0.032 A 
ATOM      3  C9  ZIN A   1      18.689   2.599  16.168  0.00  0.00     0.039 A 
ATOM      4  C10 ZIN A   1      18.624   1.291  16.612  0.00  0.00     0.118 A 
ATOM      5  C14 ZIN A   1      18.352   0.269  15.721  0.00  0.00     0.083 A 
ATOM      6  C19 ZIN A   1      18.140   0.551  14.386  0.00  0.00     0.048 A 
ENDROOT
BRANCH   1   7
ATOM      7  N6  ZIN A   1      18.002   2.153  12.584  0.00  0.00    -0.327 N 
ATOM      8  C4  ZIN A   1      19.024   2.067  11.710  0.00  0.00     0.225 C 
ATOM      9  O5  ZIN A   1      20.143   1.822  12.109  0.00  0.00    -0.273 OA
ATOM     10  H27 ZIN A   1      17.120   2.416  12.274  0.00  0.00     0.169 HD
BRANCH   8  11
ATOM     11  C2  ZIN A   1      18.778   2.277  10.238  0.00  0.00     0.070 C 
ATOM     12  C1  ZIN A   1      17.828   1.195   9.721  0.00  0.00     0.019 C 
ATOM     13  C3  ZIN A   1      18.148   3.655  10.018  0.00  0.00     0.019 C 
ENDBRANCH   8  11
ENDBRANCH   1   7
BRANCH   5  14
ATOM     14  C15 ZIN A   1      18.281  -1.156  16.209  0.00  0.00     0.419 C 
ATOM     15  F16 ZIN A   1      19.430  -1.453  16.951  0.00  0.00    -0.166 F 
ATOM     16  F17 ZIN A   1      17.150  -1.316  17.017  0.00  0.00    -0.166 F 
ATOM     17  F18 ZIN A   1      18.197  -2.020  15.113  0.00  0.00    -0.166 F 
ENDBRANCH   5  14
BRANCH   4  18
ATOM     18  N11 ZIN A   1      18.845   0.984  18.042  0.00  0.00    -0.115 N 
ATOM     19  O12 ZIN A   1      19.979   0.857  18.469  0.00  0.00    -0.532 OA
ATOM     20  O13 ZIN A   1      17.895   0.860  18.793  0.00  0.00    -0.532 OA
ENDBRANCH   4  18
TORSDOF 4
ENDMDL
MODEL 2
REMARK VINA RESULT:      -6.8      3.099      3.718
REMARK  4 active torsions:
REMARK  status: ('A' for Active; 'I' for Inactive)
REMARK    1  A    between atoms: C2_2  and  C4_4 
REMARK       I    between atoms: C4_4  and  N6_6 
REMARK    2  A    between atoms: N6_6  and  C7_7 
REMARK    3  A    between atoms: C10_10  and  N11_11 
REMARK    4  A    between atoms: C14_14  and  C15_15 
ROOT
ATOM      1  C7  ZIN A   1      18.876  -1.282  13.667  0.00  0.00     0.035 A 
ATOM      2  C8  ZIN A   1      19.560  -0.109  13.374  0.00  0.00     0.032 A 
ATOM      3  C9  ZIN A   1      19.603   0.913  14.301  0.00  0.00     0.039 A 
ATOM      4  C10 ZIN A   1      18.968   0.769  15.521  0.00  0.00     0.118 A 
ATOM      5  C14 ZIN A   1      18.287  -0.398  15.816  0.00  0.00     0.083 A 
ATOM      6  C19 ZIN A   1      18.235  -1.422  14.891  0.00  0.00     0.048 A 
ENDROOT
BRANCH   1   7
ATOM      7  N6  ZIN A   1      18.830  -2.320  12.729  0.00  0.00    -0.327 N 
ATOM      8  C4  ZIN A   1      17.835  -2.365  11.822  0.00  0.00     0.225 C 
ATOM      9  O5  ZIN A   1      16.933  -1.555  11.871  0.00  0.00    -0.273 OA
ATOM     10  H27 ZIN A   1      19.515  -3.006  12.732  0.00  0.00     0.169 HD
BRANCH   8  11
ATOM     11  C2  ZIN A   1      17.841  -3.422  10.747  0.00  0.00     0.070 C 
ATOM     12  C1  ZIN A   1      19.261  -3.966  10.577  0.00  0.00     0.019 C 
ATOM     13  C3  ZIN A   1      16.903  -4.563  11.148  0.00  0.00     0.019 C 
ENDBRANCH   8  11
ENDBRANCH   1   7
BRANCH   5  14
ATOM     14  C15 ZIN A   1      17.596  -0.550  17.147  0.00  0.00     0.419 C 
ATOM     15  F16 ZIN A   1      18.554  -0.635  18.163  0.00  0.00    -0.166 F 
ATOM     16  F17 ZIN A   1      16.772   0.558  17.374  0.00  0.00    -0.166 F 
ATOM     17  F18 ZIN A   1      16.820  -1.713  17.139  0.00  0.00    -0.166 F 
ENDBRANCH   5  14
BRANCH   4  18
ATOM     18  N11 ZIN A   1      19.017   1.866  16.513  0.00  0.00    -0.115 N 
ATOM     19  O12 ZIN A   1      19.744   1.774  17.486  0.00  0.00    -0.532 OA
ATOM     20  O13 ZIN A   1      18.333   2.861  16.356  0.00  0.00    -0.532 OA
ENDBRANCH   4  18
TORSDOF 4
ENDMDL
MODEL 3
REMARK VINA RESULT:      -6.8      5.393      8.452
REMARK  4 active torsions:
REMARK  status: ('A' for Active; 'I' for Inactive)
REMARK    1  A    between atoms: C2_2  and  C4_4 
REMARK       I    between atoms: C4_4  and  N6_6 
REMARK    2  A    between atoms: N6_6  and  C7_7 
REMARK    3  A    between atoms: C10_10  and  N11_11 
REMARK    4  A    between atoms: C14_14  and  C15_15 
ROOT
ATOM      1  C7  ZIN A   1      19.348   1.018   8.658  0.00  0.00     0.035 A 
ATOM      2  C8  ZIN A   1      19.160   1.681   7.452  0.00  0.00     0.032 A 
ATOM      3  C9  ZIN A   1      18.973   0.958   6.290  0.00  0.00     0.039 A 
ATOM      4  C10 ZIN A   1      18.971  -0.425   6.327  0.00  0.00     0.118 A 
ATOM      5  C14 ZIN A   1      19.156  -1.087   7.527  0.00  0.00     0.083 A 
ATOM      6  C19 ZIN A   1      19.350  -0.371   8.691  0.00  0.00     0.048 A 
ENDROOT
BRANCH   1   7
ATOM      7  N6  ZIN A   1      19.538   1.748   9.837  0.00  0.00    -0.327 N 
ATOM      8  C4  ZIN A   1      18.478   2.103  10.589  0.00  0.00     0.225 C 
ATOM      9  O5  ZIN A   1      17.353   1.864  10.201  0.00  0.00    -0.273 OA
ATOM     10  H27 ZIN A   1      20.434   1.998  10.113  0.00  0.00     0.169 HD
BRANCH   8  11
ATOM     11  C2  ZIN A   1      18.689   2.797  11.910  0.00  0.00     0.070 C 
ATOM     12  C1  ZIN A   1      19.964   3.638  11.845  0.00  0.00     0.019 C 
ATOM     13  C3  ZIN A   1      17.493   3.706  12.205  0.00  0.00     0.019 C 
ENDBRANCH   8  11
ENDBRANCH   1   7
BRANCH   5  14
ATOM     14  C15 ZIN A   1      19.154  -2.594   7.562  0.00  0.00     0.419 C 
ATOM     15  F16 ZIN A   1      19.319  -3.030   8.882  0.00  0.00    -0.166 F 
ATOM     16  F17 ZIN A   1      17.937  -3.071   7.063  0.00  0.00    -0.166 F 
ATOM     17  F18 ZIN A   1      20.203  -3.081   6.776  0.00  0.00    -0.166 F 
ENDBRANCH   5  14
BRANCH   4  18
ATOM     18  N11 ZIN A   1      18.769  -1.196   5.081  0.00  0.00    -0.115 N 
ATOM     19  O12 ZIN A   1      17.642  -1.486   4.720  0.00  0.00    -0.532 OA
ATOM     20  O13 ZIN A   1      19.728  -1.541   4.416  0.00  0.00    -0.532 OA
ENDBRANCH   4  18
TORSDOF 4
ENDMDL
MODEL 4
REMARK VINA RESULT:      -6.8      6.306      8.383
REMARK  4 active torsions:
REMARK  status: ('A' for Active; 'I' for Inactive)
REMARK    1  A    between atoms: C2_2  and  C4_4 
REMARK       I    between atoms: C4_4  and  N6_6 
REMARK    2  A    between atoms: N6_6  and  C7_7 
REMARK    3  A    between atoms: C10_10  and  N11_11 
REMARK    4  A    between atoms: C14_14  and  C15_15 
ROOT
ATOM      1  C7  ZIN A   1      19.305   1.151   8.928  0.00  0.00     0.035 A 
ATOM      2  C8  ZIN A   1      19.611   0.043   9.706  0.00  0.00     0.032 A 
ATOM      3  C9  ZIN A   1      19.581  -1.220   9.148  0.00  0.00     0.039 A 
ATOM      4  C10 ZIN A   1      19.249  -1.381   7.815  0.00  0.00     0.118 A 
ATOM      5  C14 ZIN A   1      18.945  -0.279   7.038  0.00  0.00     0.083 A 
ATOM      6  C19 ZIN A   1      18.967   0.986   7.590  0.00  0.00     0.048 A 
ENDROOT
BRANCH   1   7
ATOM      7  N6  ZIN A   1      19.334   2.432   9.490  0.00  0.00    -0.327 N 
ATOM      8  C4  ZIN A   1      18.298   2.865  10.236  0.00  0.00     0.225 C 
ATOM      9  O5  ZIN A   1      17.305   2.178  10.349  0.00  0.00    -0.273 OA
ATOM     10  H27 ZIN A   1      20.100   3.009   9.344  0.00  0.00     0.169 HD
BRANCH   8  11
ATOM     11  C2  ZIN A   1      18.374   4.202  10.927  0.00  0.00     0.070 C 
ATOM     12  C1  ZIN A   1      17.000   4.874  10.888  0.00  0.00     0.019 C 
ATOM     13  C3  ZIN A   1      18.800   4.000  12.383  0.00  0.00     0.019 C 
ENDBRANCH   8  11
ENDBRANCH   1   7
BRANCH   5  14
ATOM     14  C15 ZIN A   1      18.582  -0.459   5.585  0.00  0.00     0.419 C 
ATOM     15  F16 ZIN A   1      19.715  -0.861   4.869  0.00  0.00    -0.166 F 
ATOM     16  F17 ZIN A   1      17.587  -1.435   5.471  0.00  0.00    -0.166 F 
ATOM     17  F18 ZIN A   1      18.110   0.752   5.069  0.00  0.00    -0.166 F 
ENDBRANCH   5  14
BRANCH   4  18
ATOM     18  N11 ZIN A   1      19.219  -2.735   7.220  0.00  0.00    -0.115 N 
ATOM     19  O12 ZIN A   1      18.250  -3.454   7.391  0.00  0.00    -0.532 OA
ATOM     20  O13 ZIN A   1      20.161  -3.131   6.558  0.00  0.00    -0.532 OA
ENDBRANCH   4  18
TORSDOF 4
ENDMDL
MODEL 5
REMARK VINA RESULT:      -6.7      5.690      8.917
REMARK  4 active torsions:
REMARK  status: ('A' for Active; 'I' for Inactive)
REMARK    1  A    between atoms: C2_2  and  C4_4 
REMARK       I    between atoms: C4_4  and  N6_6 
REMARK    2  A    between atoms: N6_6  and  C7_7 
REMARK    3  A    between atoms: C10_10  and  N11_11 
REMARK    4  A    between atoms: C14_14  and  C15_15 
ROOT
ATOM      1  C7  ZIN A   1      19.026  -0.969   9.614  0.00  0.00     0.035 A 
ATOM      2  C8  ZIN A   1      19.088  -2.262   9.113  0.00  0.00     0.032 A 
ATOM      3  C9  ZIN A   1      19.035  -2.477   7.750  0.00  0.00     0.039 A 
ATOM      4  C10 ZIN A   1      18.921  -1.405   6.883  0.00  0.00     0.118 A 
ATOM      5  C14 ZIN A   1      18.860  -0.116   7.379  0.00  0.00     0.083 A 
ATOM      6  C19 ZIN A   1      18.907   0.106   8.741  0.00  0.00     0.048 A 
ENDROOT
BRANCH   1   7
ATOM      7  N6  ZIN A   1      19.080  -0.748  10.994  0.00  0.00    -0.327 N 
ATOM      8  C4  ZIN A   1      17.977  -0.924  11.748  0.00  0.00     0.225 C 
ATOM      9  O5  ZIN A   1      16.918  -1.189  11.220  0.00  0.00    -0.273 OA
ATOM     10  H27 ZIN A   1      19.912  -0.470  11.409  0.00  0.00     0.169 HD
BRANCH   8  11
ATOM     11  C2  ZIN A   1      18.059  -0.788  13.247  0.00  0.00     0.070 C 
ATOM     12  C1  ZIN A   1      19.338  -1.458  13.750  0.00  0.00     0.019 C 
ATOM     13  C3  ZIN A   1      18.079   0.695  13.625  0.00  0.00     0.019 C 
ENDBRANCH   8  11
ENDBRANCH   1   7
BRANCH   5  14
ATOM     14  C15 ZIN A   1      18.735   1.050   6.432  0.00  0.00     0.419 C 
ATOM     15  F16 ZIN A   1      18.815   2.247   7.152  0.00  0.00    -0.166 F 
ATOM     16  F17 ZIN A   1      19.771   1.001   5.493  0.00  0.00    -0.166 F 
ATOM     17  F18 ZIN A   1      17.504   0.984   5.771  0.00  0.00    -0.166 F 
ENDBRANCH   5  14
BRANCH   4  18
ATOM     18  N11 ZIN A   1      18.865  -1.638   5.423  0.00  0.00    -0.115 N 
ATOM     19  O12 ZIN A   1      19.894  -1.656   4.770  0.00  0.00    -0.532 OA
ATOM     20  O13 ZIN A   1      17.793  -1.812   4.874  0.00  0.00    -0.532 OA
ENDBRANCH   4  18
TORSDOF 4
ENDMDL
MODEL 6
REMARK VINA RESULT:      -6.5      4.636      6.440
REMARK  4 active torsions:
REMARK  status: ('A' for Active; 'I' for Inactive)
REMARK    1  A    between atoms: C2_2  and  C4_4 
REMARK       I    between atoms: C4_4  and  N6_6 
REMARK    2  A    between atoms: N6_6  and  C7_7 
REMARK    3  A    between atoms: C10_10  and  N11_11 
REMARK    4  A    between atoms: C14_14  and  C15_15 
ROOT
ATOM      1  C7  ZIN A   1      17.910  -1.162  11.125  0.00  0.00     0.035 A 
ATOM      2  C8  ZIN A   1      17.157  -0.733  12.209  0.00  0.00     0.032 A 
ATOM      3  C9  ZIN A   1      17.064   0.615  12.494  0.00  0.00     0.039 A 
ATOM      4  C10 ZIN A   1      17.720   1.538  11.699  0.00  0.00     0.118 A 
ATOM      5  C14 ZIN A   1      18.471   1.113  10.618  0.00  0.00     0.083 A 
ATOM      6  C19 ZIN A   1      18.572  -0.234  10.331  0.00  0.00     0.048 A 
ENDROOT
BRANCH   1   7
ATOM      7  N6  ZIN A   1      18.006  -2.527  10.834  0.00  0.00    -0.327 N 
ATOM      8  C4  ZIN A   1      18.902  -3.294  11.486  0.00  0.00     0.225 C 
ATOM      9  O5  ZIN A   1      19.683  -2.786  12.263  0.00  0.00    -0.273 OA
ATOM     10  H27 ZIN A   1      17.427  -2.922  10.164  0.00  0.00     0.169 HD
BRANCH   8  11
ATOM     11  C2  ZIN A   1      18.935  -4.782  11.249  0.00  0.00     0.070 C 
ATOM     12  C1  ZIN A   1      17.519  -5.350  11.375  0.00  0.00     0.019 C 
ATOM     13  C3  ZIN A   1      19.473  -5.064   9.844  0.00  0.00     0.019 C 
ENDBRANCH   8  11
ENDBRANCH   1   7
BRANCH   5  14
ATOM     14  C15 ZIN A   1      19.185   2.122   9.755  0.00  0.00     0.419 C 
ATOM     15  F16 ZIN A   1      18.247   2.976   9.163  0.00  0.00    -0.166 F 
ATOM     16  F17 ZIN A   1      20.065   2.871  10.544  0.00  0.00    -0.166 F 
ATOM     17  F18 ZIN A   1      19.904   1.456   8.758  0.00  0.00    -0.166 F 
ENDBRANCH   5  14
BRANCH   4  18
ATOM     18  N11 ZIN A   1      17.618   2.982  12.006  0.00  0.00    -0.115 N 
ATOM     19  O12 ZIN A   1      16.797   3.670  11.427  0.00  0.00    -0.532 OA
ATOM     20  O13 ZIN A   1      18.355   3.482  12.837  0.00  0.00    -0.532 OA
ENDBRANCH   4  18
TORSDOF 4
ENDMDL
MODEL 7
REMARK VINA RESULT:      -6.4      4.480      5.980
REMARK  4 active torsions:
REMARK  status: ('A' for Active; 'I' for Inactive)
REMARK    1  A    between atoms: C2_2  and  C4_4 
REMARK       I    between atoms: C4_4  and  N6_6 
REMARK    2  A    between atoms: N6_6  and  C7_7 
REMARK    3  A    between atoms: C10_10  and  N11_11 
REMARK    4  A    between atoms: C14_14  and  C15_15 
ROOT
ATOM      1  C7  ZIN A   1      19.247   0.301  10.025  0.00  0.00     0.035 A 
ATOM      2  C8  ZIN A   1      18.964  -0.250   8.782  0.00  0.00     0.032 A 
ATOM      3  C9  ZIN A   1      18.814  -1.617   8.651  0.00  0.00     0.039 A 
ATOM      4  C10 ZIN A   1      18.945  -2.437   9.758  0.00  0.00     0.118 A 
ATOM      5  C14 ZIN A   1      19.227  -1.891  10.996  0.00  0.00     0.083 A 
ATOM      6  C19 ZIN A   1      19.384  -0.526  11.133  0.00  0.00     0.048 A 
ENDROOT
BRANCH   1   7
ATOM      7  N6  ZIN A   1      19.400   1.685  10.160  0.00  0.00    -0.327 N 
ATOM      8  C4  ZIN A   1      18.360   2.442  10.561  0.00  0.00     0.225 C 
ATOM      9  O5  ZIN A   1      17.269   1.936  10.722  0.00  0.00    -0.273 OA
ATOM     10  H27 ZIN A   1      20.255   2.100   9.966  0.00  0.00     0.169 HD
BRANCH   8  11
ATOM     11  C2  ZIN A   1      18.551   3.916  10.807  0.00  0.00     0.070 C 
ATOM     12  C1  ZIN A   1      17.195   4.622  10.753  0.00  0.00     0.019 C 
ATOM     13  C3  ZIN A   1      19.180   4.126  12.186  0.00  0.00     0.019 C 
ENDBRANCH   8  11
ENDBRANCH   1   7
BRANCH   5  14
ATOM     14  C15 ZIN A   1      19.369  -2.789  12.199  0.00  0.00     0.419 C 
ATOM     15  F16 ZIN A   1      19.634  -2.012  13.332  0.00  0.00    -0.166 F 
ATOM     16  F17 ZIN A   1      18.182  -3.503  12.391  0.00  0.00    -0.166 F 
ATOM     17  F18 ZIN A   1      20.423  -3.683  11.991  0.00  0.00    -0.166 F 
ENDBRANCH   5  14
BRANCH   4  18
ATOM     18  N11 ZIN A   1      18.783  -3.900   9.615  0.00  0.00    -0.115 N 
ATOM     19  O12 ZIN A   1      19.755  -4.602   9.397  0.00  0.00    -0.532 OA
ATOM     20  O13 ZIN A   1      17.680  -4.404   9.716  0.00  0.00    -0.532 OA
ENDBRANCH   4  18
TORSDOF 4
ENDMDL
MODEL 8
REMARK VINA RESULT:      -6.2      2.680      3.456
REMARK  4 active torsions:
REMARK  status: ('A' for Active; 'I' for Inactive)
REMARK    1  A    between atoms: C2_2  and  C4_4 
REMARK       I    between atoms: C4_4  and  N6_6 
REMARK    2  A    between atoms: N6_6  and  C7_7 
REMARK    3  A    between atoms: C10_10  and  N11_11 
REMARK    4  A    between atoms: C14_14  and  C15_15 
ROOT
ATOM      1  C7  ZIN A   1      18.975  -0.236  13.949  0.00  0.00     0.035 A 
ATOM      2  C8  ZIN A   1      18.877  -1.188  14.954  0.00  0.00     0.032 A 
ATOM      3  C9  ZIN A   1      18.870  -0.795  16.278  0.00  0.00     0.039 A 
ATOM      4  C10 ZIN A   1      18.959   0.546  16.603  0.00  0.00     0.118 A 
ATOM      5  C14 ZIN A   1      19.055   1.497  15.604  0.00  0.00     0.083 A 
ATOM      6  C19 ZIN A   1      19.069   1.111  14.278  0.00  0.00     0.048 A 
ENDROOT
BRANCH   1   7
ATOM      7  N6  ZIN A   1      18.982  -0.631  12.607  0.00  0.00    -0.327 N 
ATOM      8  C4  ZIN A   1      17.827  -0.697  11.916  0.00  0.00     0.225 C 
ATOM      9  O5  ZIN A   1      16.772  -0.496  12.481  0.00  0.00    -0.273 OA
ATOM     10  H27 ZIN A   1      19.820  -0.857  12.173  0.00  0.00     0.169 HD
BRANCH   8  11
ATOM     11  C2  ZIN A   1      17.845  -1.021  10.445  0.00  0.00     0.070 C 
ATOM     12  C1  ZIN A   1      17.438   0.218   9.645  0.00  0.00     0.019 C 
ATOM     13  C3  ZIN A   1      19.255  -1.452  10.035  0.00  0.00     0.019 C 
ENDBRANCH   8  11
ENDBRANCH   1   7
BRANCH   5  14
ATOM     14  C15 ZIN A   1      19.152   2.958  15.963  0.00  0.00     0.419 C 
ATOM     15  F16 ZIN A   1      19.091   3.730  14.797  0.00  0.00    -0.166 F 
ATOM     16  F17 ZIN A   1      18.091   3.303  16.807  0.00  0.00    -0.166 F 
ATOM     17  F18 ZIN A   1      20.365   3.198  16.616  0.00  0.00    -0.166 F 
ENDBRANCH   5  14
BRANCH   4  18
ATOM     18  N11 ZIN A   1      18.950   0.964  18.022  0.00  0.00    -0.115 N 
ATOM     19  O12 ZIN A   1      17.891   1.107  18.608  0.00  0.00    -0.532 OA
ATOM     20  O13 ZIN A   1      20.000   1.164  18.605  0.00  0.00    -0.532 OA
ENDBRANCH   4  18
TORSDOF 4
ENDMDL
MODEL 9
REMARK VINA RESULT:      -6.2      4.318      6.471
REMARK  4 active torsions:
REMARK  status: ('A' for Active; 'I' for Inactive)
REMARK    1  A    between atoms: C2_2  and  C4_4 
REMARK       I    between atoms: C4_4  and  N6_6 
REMARK    2  A    between atoms: N6_6  and  C7_7 
REMARK    3  A    between atoms: C10_10  and  N11_11 
REMARK    4  A    between atoms: C14_14  and  C15_15 
ROOT
ATOM      1  C7  ZIN A   1      18.848   0.355   7.937  0.00  0.00     0.035 A 
ATOM      2  C8  ZIN A   1      19.116   1.717   7.912  0.00  0.00     0.032 A 
ATOM      3  C9  ZIN A   1      18.862   2.490   9.028  0.00  0.00     0.039 A 
ATOM      4  C10 ZIN A   1      18.343   1.907  10.170  0.00  0.00     0.118 A 
ATOM      5  C14 ZIN A   1      18.077   0.551  10.198  0.00  0.00     0.083 A 
ATOM      6  C19 ZIN A   1      18.322  -0.227   9.084  0.00  0.00     0.048 A 
ENDROOT
BRANCH   1   7
ATOM      7  N6  ZIN A   1      19.104  -0.430   6.807  0.00  0.00    -0.327 N 
ATOM      8  C4  ZIN A   1      18.110  -0.712   5.942  0.00  0.00     0.225 C 
ATOM      9  O5  ZIN A   1      16.976  -0.357   6.186  0.00  0.00    -0.273 OA
ATOM     10  H27 ZIN A   1      19.998  -0.772   6.646  0.00  0.00     0.169 HD
BRANCH   8  11
ATOM     11  C2  ZIN A   1      18.406  -1.469   4.673  0.00  0.00     0.070 C 
ATOM     12  C1  ZIN A   1      19.211  -2.726   5.006  0.00  0.00     0.019 C 
ATOM     13  C3  ZIN A   1      17.091  -1.870   4.000  0.00  0.00     0.019 C 
ENDBRANCH   8  11
ENDBRANCH   1   7
BRANCH   5  14
ATOM     14  C15 ZIN A   1      17.511  -0.080  11.445  0.00  0.00     0.419 C 
ATOM     15  F16 ZIN A   1      16.351   0.603  11.827  0.00  0.00    -0.166 F 
ATOM     16  F17 ZIN A   1      17.201  -1.420  11.190  0.00  0.00    -0.166 F 
ATOM     17  F18 ZIN A   1      18.455  -0.007  12.473  0.00  0.00    -0.166 F 
ENDBRANCH   5  14
BRANCH   4  18
ATOM     18  N11 ZIN A   1      18.074   2.737  11.365  0.00  0.00    -0.115 N 
ATOM     19  O12 ZIN A   1      17.019   3.339  11.463  0.00  0.00    -0.532 OA
ATOM     20  O13 ZIN A   1      18.905   2.819  12.251  0.00  0.00    -0.532 OA
ENDBRANCH   4  18
TORSDOF 4
ENDMDL
