MODEL 1
REMARK VINA RESULT:      -7.1      0.000      0.000
REMARK  5 active torsions:
REMARK  status: ('A' for Active; 'I' for Inactive)
REMARK    1  A    between atoms: O2_2  and  C3_3 
REMARK    2  A    between atoms: C5_5  and  O6_6 
REMARK    3  A    between atoms: C7_7  and  C8_8 
REMARK    4  A    between atoms: C8_8  and  C10_10 
REMARK    5  A    between atoms: C17_17  and  S18_18 
ROOT
ATOM      1  C3  ZIN A   1      18.133  -3.937   4.751  0.00  0.00     0.095 A 
ATOM      2  C4  ZIN A   1      18.049  -5.305   4.973  0.00  0.00     0.076 A 
ATOM      3  C5  ZIN A   1      18.573  -5.849   6.133  0.00  0.00     0.082 A 
ATOM      4  C7  ZIN A   1      19.186  -5.011   7.078  0.00  0.00     0.050 A 
ATOM      5  C16 ZIN A   1      19.262  -3.633   6.838  0.00  0.00     0.047 A 
ATOM      6  C17 ZIN A   1      18.748  -3.110   5.687  0.00  0.00     0.115 A 
ENDROOT
BRANCH   4   7
ATOM      7  C8  ZIN A   1      19.746  -5.578   8.315  0.00  0.00     0.195 C 
ATOM      8  O9  ZIN A   1      20.796  -6.190   8.282  0.00  0.00    -0.287 OA
BRANCH   7   9
ATOM      9  C10 ZIN A   1      19.033  -5.402   9.598  0.00  0.00     0.015 A 
ATOM     10  C15 ZIN A   1      17.831  -6.074   9.831  0.00  0.00     0.015 A 
ATOM     11  C14 ZIN A   1      17.175  -5.910  11.032  0.00  0.00     0.001 A 
ATOM     12  C13 ZIN A   1      17.698  -5.071  12.002  0.00  0.00     0.000 A 
ATOM     13  C12 ZIN A   1      18.885  -4.398  11.775  0.00  0.00     0.001 A 
ATOM     14  C11 ZIN A   1      19.556  -4.557  10.581  0.00  0.00     0.015 A 
ENDBRANCH   7   9
ENDBRANCH   4   7
BRANCH   3  15
ATOM     15  O6  ZIN A   1      18.493  -7.184   6.355  0.00  0.00    -0.360 OA
ATOM     16  H26 ZIN A   1      19.348  -7.638   6.337  0.00  0.00     0.217 HD
ENDBRANCH   3  15
BRANCH   6  17
ATOM     17  S18 ZIN A   1      18.848  -1.376   5.392  0.00  0.00     0.140 S 
ATOM     18  O19 ZIN A   1      19.260  -0.761   6.645  0.00  0.00    -0.591 OA
ATOM     19  O20 ZIN A   1      19.835  -1.185   4.340  0.00  0.00    -0.591 OA
ATOM     20  O21 ZIN A   1      17.522  -0.943   4.981  0.00  0.00    -0.591 OA
ENDBRANCH   6  17
BRANCH   1  21
ATOM     21  O2  ZIN A   1      17.620  -3.405   3.612  0.00  0.00    -0.354 OA
ATOM     22  C1  ZIN A   1      16.293  -3.794   3.255  0.00  0.00     0.210 C 
ENDBRANCH   1  21
TORSDOF 5
ENDMDL
MODEL 2
REMARK VINA RESULT:      -7.0      7.729     10.370
REMARK  5 active torsions:
REMARK  status: ('A' for Active; 'I' for Inactive)
REMARK    1  A    between atoms: O2_2  and  C3_3 
REMARK    2  A    between atoms: C5_5  and  O6_6 
REMARK    3  A    between atoms: C7_7  and  C8_8 
REMARK    4  A    between atoms: C8_8  and  C10_10 
REMARK    5  A    between atoms: C17_17  and  S18_18 
ROOT
ATOM      1  C3  ZIN A   1      18.970   0.790  16.083  0.00  0.00     0.095 A 
ATOM      2  C4  ZIN A   1      18.813  -0.438  15.456  0.00  0.00     0.076 A 
ATOM      3  C5  ZIN A   1      18.243  -0.501  14.195  0.00  0.00     0.082 A 
ATOM      4  C7  ZIN A   1      17.827   0.681  13.562  0.00  0.00     0.050 A 
ATOM      5  C16 ZIN A   1      17.993   1.911  14.210  0.00  0.00     0.047 A 
ATOM      6  C17 ZIN A   1      18.551   1.959  15.455  0.00  0.00     0.115 A 
ENDROOT
BRANCH   4   7
ATOM      7  C8  ZIN A   1      17.220   0.627  12.223  0.00  0.00     0.195 C 
ATOM      8  O9  ZIN A   1      16.137   0.097  12.068  0.00  0.00    -0.287 OA
BRANCH   7   9
ATOM      9  C10 ZIN A   1      17.925   1.219  11.067  0.00  0.00     0.015 A 
ATOM     10  C15 ZIN A   1      18.757   0.428  10.272  0.00  0.00     0.015 A 
ATOM     11  C14 ZIN A   1      19.407   0.985   9.191  0.00  0.00     0.001 A 
ATOM     12  C13 ZIN A   1      19.247   2.329   8.901  0.00  0.00     0.000 A 
ATOM     13  C12 ZIN A   1      18.429   3.120   9.688  0.00  0.00     0.001 A 
ATOM     14  C11 ZIN A   1      17.767   2.575  10.768  0.00  0.00     0.015 A 
ENDBRANCH   7   9
ENDBRANCH   4   7
BRANCH   3  15
ATOM     15  O6  ZIN A   1      18.087  -1.698  13.577  0.00  0.00    -0.360 OA
ATOM     16  H26 ZIN A   1      17.286  -1.761  13.038  0.00  0.00     0.217 HD
ENDBRANCH   3  15
BRANCH   6  17
ATOM     17  S18 ZIN A   1      18.756   3.510  16.264  0.00  0.00     0.140 S 
ATOM     18  O19 ZIN A   1      20.176   3.650  16.550  0.00  0.00    -0.591 OA
ATOM     19  O20 ZIN A   1      18.282   4.531  15.342  0.00  0.00    -0.591 OA
ATOM     20  O21 ZIN A   1      17.957   3.459  17.478  0.00  0.00    -0.591 OA
ENDBRANCH   6  17
BRANCH   1  21
ATOM     21  O2  ZIN A   1      19.529   0.850  17.319  0.00  0.00    -0.354 OA
ATOM     22  C1  ZIN A   1      19.145  -0.160  18.254  0.00  0.00     0.210 C 
ENDBRANCH   1  21
TORSDOF 5
ENDMDL
MODEL 3
REMARK VINA RESULT:      -6.9      4.568      5.670
REMARK  5 active torsions:
REMARK  status: ('A' for Active; 'I' for Inactive)
REMARK    1  A    between atoms: O2_2  and  C3_3 
REMARK    2  A    between atoms: C5_5  and  O6_6 
REMARK    3  A    between atoms: C7_7  and  C8_8 
REMARK    4  A    between atoms: C8_8  and  C10_10 
REMARK    5  A    between atoms: C17_17  and  S18_18 
ROOT
ATOM      1  C3  ZIN A   1      18.573  -2.515   7.434  0.00  0.00     0.095 A 
ATOM      2  C4  ZIN A   1      18.432  -2.958   8.742  0.00  0.00     0.076 A 
ATOM      3  C5  ZIN A   1      17.992  -2.086   9.723  0.00  0.00     0.082 A 
ATOM      4  C7  ZIN A   1      17.692  -0.756   9.385  0.00  0.00     0.050 A 
ATOM      5  C16 ZIN A   1      17.840  -0.326   8.061  0.00  0.00     0.047 A 
ATOM      6  C17 ZIN A   1      18.281  -1.194   7.104  0.00  0.00     0.115 A 
ENDROOT
BRANCH   4   7
ATOM      7  C8  ZIN A   1      17.224   0.181  10.419  0.00  0.00     0.195 C 
ATOM      8  O9  ZIN A   1      16.149   0.003  10.959  0.00  0.00    -0.287 OA
BRANCH   7   9
ATOM      9  C10 ZIN A   1      18.060   1.338  10.801  0.00  0.00     0.015 A 
ATOM     10  C15 ZIN A   1      17.672   2.632  10.446  0.00  0.00     0.015 A 
ATOM     11  C14 ZIN A   1      18.454   3.707  10.811  0.00  0.00     0.001 A 
ATOM     12  C13 ZIN A   1      19.628   3.506  11.516  0.00  0.00     0.000 A 
ATOM     13  C12 ZIN A   1      20.022   2.227  11.865  0.00  0.00     0.001 A 
ATOM     14  C11 ZIN A   1      19.247   1.142  11.512  0.00  0.00     0.015 A 
ENDBRANCH   7   9
ENDBRANCH   4   7
BRANCH   3  15
ATOM     15  O6  ZIN A   1      17.852  -2.513  11.002  0.00  0.00    -0.360 OA
ATOM     16  H26 ZIN A   1      18.627  -2.979  11.348  0.00  0.00     0.217 HD
ENDBRANCH   3  15
BRANCH   6  17
ATOM     17  S18 ZIN A   1      18.465  -0.645   5.441  0.00  0.00     0.140 S 
ATOM     18  O19 ZIN A   1      18.262   0.796   5.450  0.00  0.00    -0.591 OA
ATOM     19  O20 ZIN A   1      19.813  -1.004   5.027  0.00  0.00    -0.591 OA
ATOM     20  O21 ZIN A   1      17.452  -1.334   4.657  0.00  0.00    -0.591 OA
ENDBRANCH   6  17
BRANCH   1  21
ATOM     21  O2  ZIN A   1      19.005  -3.372   6.473  0.00  0.00    -0.354 OA
ATOM     22  C1  ZIN A   1      19.983  -4.339   6.860  0.00  0.00     0.210 C 
ENDBRANCH   1  21
TORSDOF 5
ENDMDL
MODEL 4
REMARK VINA RESULT:      -6.9      6.886      9.497
REMARK  5 active torsions:
REMARK  status: ('A' for Active; 'I' for Inactive)
REMARK    1  A    between atoms: O2_2  and  C3_3 
REMARK    2  A    between atoms: C5_5  and  O6_6 
REMARK    3  A    between atoms: C7_7  and  C8_8 
REMARK    4  A    between atoms: C8_8  and  C10_10 
REMARK    5  A    between atoms: C17_17  and  S18_18 
ROOT
ATOM      1  C3  ZIN A   1      18.959   1.462  15.292  0.00  0.00     0.095 A 
ATOM      2  C4  ZIN A   1      19.164   1.875  13.983  0.00  0.00     0.076 A 
ATOM      3  C5  ZIN A   1      18.699   1.100  12.934  0.00  0.00     0.082 A 
ATOM      4  C7  ZIN A   1      18.022  -0.100  13.204  0.00  0.00     0.050 A 
ATOM      5  C16 ZIN A   1      17.824  -0.502  14.531  0.00  0.00     0.047 A 
ATOM      6  C17 ZIN A   1      18.293   0.268  15.556  0.00  0.00     0.115 A 
ENDROOT
BRANCH   4   7
ATOM      7  C8  ZIN A   1      17.523  -0.933  12.098  0.00  0.00     0.195 C 
ATOM      8  O9  ZIN A   1      16.592  -0.546  11.419  0.00  0.00    -0.287 OA
BRANCH   7   9
ATOM      9  C10 ZIN A   1      18.154  -2.239  11.813  0.00  0.00     0.015 A 
ATOM     10  C15 ZIN A   1      17.363  -3.350  11.514  0.00  0.00     0.015 A 
ATOM     11  C14 ZIN A   1      17.958  -4.564  11.243  0.00  0.00     0.001 A 
ATOM     12  C13 ZIN A   1      19.337  -4.686  11.280  0.00  0.00     0.000 A 
ATOM     13  C12 ZIN A   1      20.126  -3.590  11.582  0.00  0.00     0.001 A 
ATOM     14  C11 ZIN A   1      19.545  -2.369  11.849  0.00  0.00     0.015 A 
ENDBRANCH   7   9
ENDBRANCH   4   7
BRANCH   3  15
ATOM     15  O6  ZIN A   1      18.896   1.498  11.653  0.00  0.00    -0.360 OA
ATOM     16  H26 ZIN A   1      19.075   0.773  11.038  0.00  0.00     0.217 HD
ENDBRANCH   3  15
BRANCH   6  17
ATOM     17  S18 ZIN A   1      18.041  -0.243  17.223  0.00  0.00     0.140 S 
ATOM     18  O19 ZIN A   1      19.353  -0.552  17.770  0.00  0.00    -0.591 OA
ATOM     19  O20 ZIN A   1      17.411   0.871  17.913  0.00  0.00    -0.591 OA
ATOM     20  O21 ZIN A   1      17.179  -1.414  17.176  0.00  0.00    -0.591 OA
ENDBRANCH   6  17
BRANCH   1  21
ATOM     21  O2  ZIN A   1      19.416   2.223  16.319  0.00  0.00    -0.354 OA
ATOM     22  C1  ZIN A   1      19.249   3.637  16.203  0.00  0.00     0.210 C 
ENDBRANCH   1  21
TORSDOF 5
ENDMDL
MODEL 5
REMARK VINA RESULT:      -6.8      8.498     10.948
REMARK  5 active torsions:
REMARK  status: ('A' for Active; 'I' for Inactive)
REMARK    1  A    between atoms: O2_2  and  C3_3 
REMARK    2  A    between atoms: C5_5  and  O6_6 
REMARK    3  A    between atoms: C7_7  and  C8_8 
REMARK    4  A    between atoms: C8_8  and  C10_10 
REMARK    5  A    between atoms: C17_17  and  S18_18 
ROOT
ATOM      1  C3  ZIN A   1      18.282  -0.086  15.937  0.00  0.00     0.095 A 
ATOM      2  C4  ZIN A   1      18.053  -0.648  14.689  0.00  0.00     0.076 A 
ATOM      3  C5  ZIN A   1      18.400   0.049  13.544  0.00  0.00     0.082 A 
ATOM      4  C7  ZIN A   1      18.982   1.321  13.656  0.00  0.00     0.050 A 
ATOM      5  C16 ZIN A   1      19.207   1.874  14.923  0.00  0.00     0.047 A 
ATOM      6  C17 ZIN A   1      18.854   1.179  16.044  0.00  0.00     0.115 A 
ENDROOT
BRANCH   4   7
ATOM      7  C8  ZIN A   1      19.356   2.072  12.447  0.00  0.00     0.195 C 
ATOM      8  O9  ZIN A   1      20.381   1.798  11.853  0.00  0.00    -0.287 OA
BRANCH   7   9
ATOM      9  C10 ZIN A   1      18.485   3.160  11.953  0.00  0.00     0.015 A 
ATOM     10  C15 ZIN A   1      18.465   3.482  10.594  0.00  0.00     0.015 A 
ATOM     11  C14 ZIN A   1      17.646   4.494  10.140  0.00  0.00     0.001 A 
ATOM     12  C13 ZIN A   1      16.854   5.199  11.030  0.00  0.00     0.000 A 
ATOM     13  C12 ZIN A   1      16.873   4.890  12.378  0.00  0.00     0.001 A 
ATOM     14  C11 ZIN A   1      17.683   3.876  12.846  0.00  0.00     0.015 A 
ENDBRANCH   7   9
ENDBRANCH   4   7
BRANCH   3  15
ATOM     15  O6  ZIN A   1      18.179  -0.495  12.322  0.00  0.00    -0.360 OA
ATOM     16  H26 ZIN A   1      18.715  -0.108  11.615  0.00  0.00     0.217 HD
ENDBRANCH   3  15
BRANCH   6  17
ATOM     17  S18 ZIN A   1      19.138   1.880  17.635  0.00  0.00     0.140 S 
ATOM     18  O19 ZIN A   1      19.872   3.119  17.422  0.00  0.00    -0.591 OA
ATOM     19  O20 ZIN A   1      17.831   2.115  18.230  0.00  0.00    -0.591 OA
ATOM     20  O21 ZIN A   1      19.914   0.908  18.389  0.00  0.00    -0.591 OA
ENDBRANCH   6  17
BRANCH   1  21
ATOM     21  O2  ZIN A   1      17.940  -0.770  17.059  0.00  0.00    -0.354 OA
ATOM     22  C1  ZIN A   1      16.613  -1.296  17.118  0.00  0.00     0.210 C 
ENDBRANCH   1  21
TORSDOF 5
ENDMDL
MODEL 6
REMARK VINA RESULT:      -6.8      6.865      9.136
REMARK  5 active torsions:
REMARK  status: ('A' for Active; 'I' for Inactive)
REMARK    1  A    between atoms: O2_2  and  C3_3 
REMARK    2  A    between atoms: C5_5  and  O6_6 
REMARK    3  A    between atoms: C7_7  and  C8_8 
REMARK    4  A    between atoms: C8_8  and  C10_10 
REMARK    5  A    between atoms: C17_17  and  S18_18 
ROOT
ATOM      1  C3  ZIN A   1      19.212   4.134  12.046  0.00  0.00     0.095 A 
ATOM      2  C4  ZIN A   1      20.107   3.073  12.070  0.00  0.00     0.076 A 
ATOM      3  C5  ZIN A   1      19.802   1.897  11.407  0.00  0.00     0.082 A 
ATOM      4  C7  ZIN A   1      18.586   1.786  10.714  0.00  0.00     0.050 A 
ATOM      5  C16 ZIN A   1      17.694   2.866  10.699  0.00  0.00     0.047 A 
ATOM      6  C17 ZIN A   1      18.004   4.018  11.363  0.00  0.00     0.115 A 
ENDROOT
BRANCH   4   7
ATOM      7  C8  ZIN A   1      18.250   0.542  10.005  0.00  0.00     0.195 C 
ATOM      8  O9  ZIN A   1      18.036  -0.477  10.634  0.00  0.00    -0.287 OA
BRANCH   7   9
ATOM      9  C10 ZIN A   1      18.172   0.529   8.529  0.00  0.00     0.015 A 
ATOM     10  C15 ZIN A   1      17.167  -0.196   7.885  0.00  0.00     0.015 A 
ATOM     11  C14 ZIN A   1      17.097  -0.199   6.508  0.00  0.00     0.001 A 
ATOM     12  C13 ZIN A   1      18.028   0.505   5.763  0.00  0.00     0.000 A 
ATOM     13  C12 ZIN A   1      19.029   1.221   6.394  0.00  0.00     0.001 A 
ATOM     14  C11 ZIN A   1      19.108   1.238   7.771  0.00  0.00     0.015 A 
ENDBRANCH   7   9
ENDBRANCH   4   7
BRANCH   3  15
ATOM     15  O6  ZIN A   1      20.673   0.858  11.427  0.00  0.00    -0.360 OA
ATOM     16  H26 ZIN A   1      21.435   0.994  12.007  0.00  0.00     0.217 HD
ENDBRANCH   3  15
BRANCH   6  17
ATOM     17  S18 ZIN A   1      16.878   5.372  11.341  0.00  0.00     0.140 S 
ATOM     18  O19 ZIN A   1      15.586   4.836  10.939  0.00  0.00    -0.591 OA
ATOM     19  O20 ZIN A   1      16.847   5.915  12.691  0.00  0.00    -0.591 OA
ATOM     20  O21 ZIN A   1      17.394   6.332  10.379  0.00  0.00    -0.591 OA
ENDBRANCH   6  17
BRANCH   1  21
ATOM     21  O2  ZIN A   1      19.512   5.286  12.698  0.00  0.00    -0.354 OA
ATOM     22  C1  ZIN A   1      19.847   5.180  14.083  0.00  0.00     0.210 C 
ENDBRANCH   1  21
TORSDOF 5
ENDMDL
MODEL 7
REMARK VINA RESULT:      -6.8      4.168      6.206
REMARK  5 active torsions:
REMARK  status: ('A' for Active; 'I' for Inactive)
REMARK    1  A    between atoms: O2_2  and  C3_3 
REMARK    2  A    between atoms: C5_5  and  O6_6 
REMARK    3  A    between atoms: C7_7  and  C8_8 
REMARK    4  A    between atoms: C8_8  and  C10_10 
REMARK    5  A    between atoms: C17_17  and  S18_18 
ROOT
ATOM      1  C3  ZIN A   1      18.966  -2.286   8.768  0.00  0.00     0.095 A 
ATOM      2  C4  ZIN A   1      19.324  -0.949   8.658  0.00  0.00     0.076 A 
ATOM      3  C5  ZIN A   1      19.686  -0.237   9.789  0.00  0.00     0.082 A 
ATOM      4  C7  ZIN A   1      19.687  -0.874  11.040  0.00  0.00     0.050 A 
ATOM      5  C16 ZIN A   1      19.324  -2.224  11.132  0.00  0.00     0.047 A 
ATOM      6  C17 ZIN A   1      18.963  -2.913  10.010  0.00  0.00     0.115 A 
ENDROOT
BRANCH   4   7
ATOM      7  C8  ZIN A   1      20.070  -0.128  12.249  0.00  0.00     0.195 C 
ATOM      8  O9  ZIN A   1      21.057   0.581  12.239  0.00  0.00    -0.287 OA
BRANCH   7   9
ATOM      9  C10 ZIN A   1      19.253  -0.240  13.476  0.00  0.00     0.015 A 
ATOM     10  C15 ZIN A   1      18.168   0.616  13.678  0.00  0.00     0.015 A 
ATOM     11  C14 ZIN A   1      17.408   0.502  14.823  0.00  0.00     0.001 A 
ATOM     12  C13 ZIN A   1      17.724  -0.450  15.776  0.00  0.00     0.000 A 
ATOM     13  C12 ZIN A   1      18.801  -1.297  15.585  0.00  0.00     0.001 A 
ATOM     14  C11 ZIN A   1      19.567  -1.199  14.443  0.00  0.00     0.015 A 
ENDBRANCH   7   9
ENDBRANCH   4   7
BRANCH   3  15
ATOM     15  O6  ZIN A   1      20.035   1.069   9.688  0.00  0.00    -0.360 OA
ATOM     16  H26 ZIN A   1      20.860   1.220   9.205  0.00  0.00     0.217 HD
ENDBRANCH   3  15
BRANCH   6  17
ATOM     17  S18 ZIN A   1      18.507  -4.610  10.134  0.00  0.00     0.140 S 
ATOM     18  O19 ZIN A   1      18.465  -4.931  11.553  0.00  0.00    -0.591 OA
ATOM     19  O20 ZIN A   1      17.201  -4.741   9.507  0.00  0.00    -0.591 OA
ATOM     20  O21 ZIN A   1      19.528  -5.371   9.432  0.00  0.00    -0.591 OA
ENDBRANCH   6  17
BRANCH   1  21
ATOM     21  O2  ZIN A   1      18.611  -2.983   7.658  0.00  0.00    -0.354 OA
ATOM     22  C1  ZIN A   1      19.619  -3.175   6.663  0.00  0.00     0.210 C 
ENDBRANCH   1  21
TORSDOF 5
ENDMDL
MODEL 8
REMARK VINA RESULT:      -6.7      7.216      9.767
REMARK  5 active torsions:
REMARK  status: ('A' for Active; 'I' for Inactive)
REMARK    1  A    between atoms: O2_2  and  C3_3 
REMARK    2  A    between atoms: C5_5  and  O6_6 
REMARK    3  A    between atoms: C7_7  and  C8_8 
REMARK    4  A    between atoms: C8_8  and  C10_10 
REMARK    5  A    between atoms: C17_17  and  S18_18 
ROOT
ATOM      1  C3  ZIN A   1      18.945   2.111  14.788  0.00  0.00     0.095 A 
ATOM      2  C4  ZIN A   1      18.964   0.747  14.531  0.00  0.00     0.076 A 
ATOM      3  C5  ZIN A   1      18.357   0.251  13.390  0.00  0.00     0.082 A 
ATOM      4  C7  ZIN A   1      17.724   1.133  12.501  0.00  0.00     0.050 A 
ATOM      5  C16 ZIN A   1      17.714   2.507  12.775  0.00  0.00     0.047 A 
ATOM      6  C17 ZIN A   1      18.311   2.983  13.906  0.00  0.00     0.115 A 
ENDROOT
BRANCH   4   7
ATOM      7  C8  ZIN A   1      17.075   0.618  11.285  0.00  0.00     0.195 C 
ATOM      8  O9  ZIN A   1      16.014   0.030  11.365  0.00  0.00    -0.287 OA
BRANCH   7   9
ATOM      9  C10 ZIN A   1      17.711   0.816   9.966  0.00  0.00     0.015 A 
ATOM     10  C15 ZIN A   1      17.379  -0.014   8.894  0.00  0.00     0.015 A 
ATOM     11  C14 ZIN A   1      17.972   0.180   7.665  0.00  0.00     0.001 A 
ATOM     12  C13 ZIN A   1      18.906   1.188   7.495  0.00  0.00     0.000 A 
ATOM     13  C12 ZIN A   1      19.245   2.011   8.554  0.00  0.00     0.001 A 
ATOM     14  C11 ZIN A   1      18.654   1.832   9.788  0.00  0.00     0.015 A 
ENDBRANCH   7   9
ENDBRANCH   4   7
BRANCH   3  15
ATOM     15  O6  ZIN A   1      18.373  -1.081  13.134  0.00  0.00    -0.360 OA
ATOM     16  H26 ZIN A   1      18.972  -1.337  12.419  0.00  0.00     0.217 HD
ENDBRANCH   3  15
BRANCH   6  17
ATOM     17  S18 ZIN A   1      18.293   4.711  14.245  0.00  0.00     0.140 S 
ATOM     18  O19 ZIN A   1      19.682   5.140  14.309  0.00  0.00    -0.591 OA
ATOM     19  O20 ZIN A   1      17.576   5.347  13.150  0.00  0.00    -0.591 OA
ATOM     20  O21 ZIN A   1      17.609   4.882  15.517  0.00  0.00    -0.591 OA
ENDBRANCH   6  17
BRANCH   1  21
ATOM     21  O2  ZIN A   1      19.540   2.596  15.907  0.00  0.00    -0.354 OA
ATOM     22  C1  ZIN A   1      19.118   2.046  17.157  0.00  0.00     0.210 C 
ENDBRANCH   1  21
TORSDOF 5
ENDMDL
MODEL 9
REMARK VINA RESULT:      -6.6      3.164      5.154
REMARK  5 active torsions:
REMARK  status: ('A' for Active; 'I' for Inactive)
REMARK    1  A    between atoms: O2_2  and  C3_3 
REMARK    2  A    between atoms: C5_5  and  O6_6 
REMARK    3  A    between atoms: C7_7  and  C8_8 
REMARK    4  A    between atoms: C8_8  and  C10_10 
REMARK    5  A    between atoms: C17_17  and  S18_18 
ROOT
ATOM      1  C3  ZIN A   1      18.345  -4.417   5.387  0.00  0.00     0.095 A 
ATOM      2  C4  ZIN A   1      17.912  -3.502   4.437  0.00  0.00     0.076 A 
ATOM      3  C5  ZIN A   1      18.118  -2.148   4.639  0.00  0.00     0.082 A 
ATOM      4  C7  ZIN A   1      18.764  -1.710   5.806  0.00  0.00     0.050 A 
ATOM      5  C16 ZIN A   1      19.195  -2.646   6.754  0.00  0.00     0.047 A 
ATOM      6  C17 ZIN A   1      18.980  -3.979   6.546  0.00  0.00     0.115 A 
ENDROOT
BRANCH   4   7
ATOM      7  C8  ZIN A   1      18.989  -0.274   6.032  0.00  0.00     0.195 C 
ATOM      8  O9  ZIN A   1      19.462   0.414   5.148  0.00  0.00    -0.287 OA
BRANCH   7   9
ATOM      9  C10 ZIN A   1      18.638   0.334   7.333  0.00  0.00     0.015 A 
ATOM     10  C15 ZIN A   1      17.624  -0.221   8.116  0.00  0.00     0.015 A 
ATOM     11  C14 ZIN A   1      17.306   0.348   9.331  0.00  0.00     0.001 A 
ATOM     12  C13 ZIN A   1      17.981   1.475   9.769  0.00  0.00     0.000 A 
ATOM     13  C12 ZIN A   1      18.983   2.034   8.995  0.00  0.00     0.001 A 
ATOM     14  C11 ZIN A   1      19.315   1.471   7.781  0.00  0.00     0.015 A 
ENDBRANCH   7   9
ENDBRANCH   4   7
BRANCH   3  15
ATOM     15  O6  ZIN A   1      17.697  -1.250   3.714  0.00  0.00    -0.360 OA
ATOM     16  H26 ZIN A   1      17.051  -1.604   3.087  0.00  0.00     0.217 HD
ENDBRANCH   3  15
BRANCH   6  17
ATOM     17  S18 ZIN A   1      19.524  -5.150   7.744  0.00  0.00     0.140 S 
ATOM     18  O19 ZIN A   1      20.737  -5.756   7.217  0.00  0.00    -0.591 OA
ATOM     19  O20 ZIN A   1      19.772  -4.412   8.972  0.00  0.00    -0.591 OA
ATOM     20  O21 ZIN A   1      18.452  -6.121   7.898  0.00  0.00    -0.591 OA
ENDBRANCH   6  17
BRANCH   1  21
ATOM     21  O2  ZIN A   1      18.142  -5.744   5.189  0.00  0.00    -0.354 OA
ATOM     22  C1  ZIN A   1      16.899  -6.129   4.598  0.00  0.00     0.210 C 
ENDBRANCH   1  21
TORSDOF 5
ENDMDL
