MODEL 1
REMARK VINA RESULT:      -8.1      0.000      0.000
REMARK  5 active torsions:
REMARK  status: ('A' for Active; 'I' for Inactive)
REMARK    1  A    between atoms: C2_2  and  C3_3 
REMARK    2  A    between atoms: C4_4  and  C5_5 
REMARK    3  A    between atoms: C14_14  and  C15_15 
REMARK    4  A    between atoms: C16_16  and  C17_17 
REMARK    5  A    between atoms: C19_19  and  C20_20 
ROOT
ATOM      1  C1  ZIN A   1      18.327  -0.210   5.762  0.00  0.00     0.048 C 
ATOM      2  C2  ZIN A   1      18.795   0.277   7.109  0.00  0.00    -0.062 C 
ATOM      3  C14 ZIN A   1      18.885   1.616   7.358  0.00  0.00     0.007 C 
ENDROOT
BRANCH   2   4
ATOM      4  C3  ZIN A   1      19.140  -0.649   8.109  0.00  0.00     0.007 C 
ATOM      5  C4  ZIN A   1      18.212  -1.529   8.570  0.00  0.00     0.009 C 
BRANCH   5   6
ATOM      6  C5  ZIN A   1      18.591  -2.542   9.487  0.00  0.00    -0.048 C 
ATOM      7  C11 ZIN A   1      18.718  -2.173  10.936  0.00  0.00    -0.020 C 
ATOM      8  C10 ZIN A   1      18.702  -3.435  11.803  0.00  0.00     0.014 C 
ATOM      9  C12 ZIN A   1      20.030  -1.417  11.163  0.00  0.00     0.020 C 
ATOM     10  C13 ZIN A   1      17.544  -1.273  11.328  0.00  0.00     0.020 C 
ATOM     11  C9  ZIN A   1      19.723  -4.427  11.232  0.00  0.00     0.005 C 
ATOM     12  C8  ZIN A   1      19.215  -4.922   9.876  0.00  0.00     0.034 C 
ATOM     13  C6  ZIN A   1      18.818  -3.758   9.017  0.00  0.00    -0.077 C 
ATOM     14  C7  ZIN A   1      18.668  -3.986   7.535  0.00  0.00     0.044 C 
ENDBRANCH   5   6
ENDBRANCH   2   4
BRANCH   3  15
ATOM     15  C15 ZIN A   1      19.320   2.068   8.611  0.00  0.00     0.001 C 
ATOM     16  C16 ZIN A   1      18.401   2.404   9.579  0.00  0.00     0.007 C 
BRANCH  16  17
ATOM     17  C17 ZIN A   1      18.836   2.856  10.832  0.00  0.00    -0.056 C 
ATOM     18  C18 ZIN A   1      19.760   2.001  11.661  0.00  0.00     0.048 C 
ATOM     19  C19 ZIN A   1      18.421   4.079  11.305  0.00  0.00     0.091 C 
BRANCH  19  20
ATOM     20  C20 ZIN A   1      17.369   4.757  10.669  0.00  0.00     0.199 C 
ATOM     21  O21 ZIN A   1      16.125   4.650  11.138  0.00  0.00    -0.644 OA
ATOM     22  O22 ZIN A   1      17.614   5.508   9.594  0.00  0.00    -0.644 OA
ENDBRANCH  19  20
ENDBRANCH  16  17
ENDBRANCH   3  15
TORSDOF 5
ENDMDL
MODEL 2
REMARK VINA RESULT:      -7.6      2.966      5.258
REMARK  5 active torsions:
REMARK  status: ('A' for Active; 'I' for Inactive)
REMARK    1  A    between atoms: C2_2  and  C3_3 
REMARK    2  A    between atoms: C4_4  and  C5_5 
REMARK    3  A    between atoms: C14_14  and  C15_15 
REMARK    4  A    between atoms: C16_16  and  C17_17 
REMARK    5  A    between atoms: C19_19  and  C20_20 
ROOT
ATOM      1  C1  ZIN A   1      18.931  -5.541   9.541  0.00  0.00     0.048 C 
ATOM      2  C2  ZIN A   1      18.335  -4.206   9.905  0.00  0.00    -0.062 C 
ATOM      3  C14 ZIN A   1      17.971  -3.949  11.196  0.00  0.00     0.007 C 
ENDROOT
BRANCH   2   4
ATOM      4  C3  ZIN A   1      18.152  -3.225   8.914  0.00  0.00     0.007 C 
ATOM      5  C4  ZIN A   1      19.213  -2.502   8.469  0.00  0.00     0.009 C 
BRANCH   5   6
ATOM      6  C5  ZIN A   1      19.052  -1.602   7.386  0.00  0.00    -0.048 C 
ATOM      7  C11 ZIN A   1      18.662  -0.186   7.695  0.00  0.00    -0.020 C 
ATOM      8  C10 ZIN A   1      18.955   0.714   6.491  0.00  0.00     0.014 C 
ATOM      9  C12 ZIN A   1      17.168  -0.123   8.024  0.00  0.00     0.020 C 
ATOM     10  C13 ZIN A   1      19.464   0.304   8.902  0.00  0.00     0.020 C 
ATOM     11  C9  ZIN A   1      18.345   0.066   5.242  0.00  0.00     0.005 C 
ATOM     12  C8  ZIN A   1      19.125  -1.212   4.927  0.00  0.00     0.034 C 
ATOM     13  C6  ZIN A   1      19.251  -2.058   6.160  0.00  0.00    -0.077 C 
ATOM     14  C7  ZIN A   1      19.626  -3.507   5.993  0.00  0.00     0.044 C 
ENDBRANCH   5   6
ENDBRANCH   2   4
BRANCH   3  15
ATOM     15  C15 ZIN A   1      17.416  -2.707  11.533  0.00  0.00     0.001 C 
ATOM     16  C16 ZIN A   1      18.196  -1.746  12.135  0.00  0.00     0.007 C 
BRANCH  16  17
ATOM     17  C17 ZIN A   1      17.642  -0.504  12.473  0.00  0.00    -0.056 C 
ATOM     18  C18 ZIN A   1      16.525   0.073  11.641  0.00  0.00     0.048 C 
ATOM     19  C19 ZIN A   1      18.116   0.188  13.564  0.00  0.00     0.091 C 
BRANCH  19  20
ATOM     20  C20 ZIN A   1      19.313  -0.210  14.181  0.00  0.00     0.199 C 
ATOM     21  O21 ZIN A   1      20.484   0.207  13.697  0.00  0.00    -0.644 OA
ATOM     22  O22 ZIN A   1      19.279  -1.005  15.251  0.00  0.00    -0.644 OA
ENDBRANCH  19  20
ENDBRANCH  16  17
ENDBRANCH   3  15
TORSDOF 5
ENDMDL
MODEL 3
REMARK VINA RESULT:      -7.6      3.166      5.811
REMARK  5 active torsions:
REMARK  status: ('A' for Active; 'I' for Inactive)
REMARK    1  A    between atoms: C2_2  and  C3_3 
REMARK    2  A    between atoms: C4_4  and  C5_5 
REMARK    3  A    between atoms: C14_14  and  C15_15 
REMARK    4  A    between atoms: C16_16  and  C17_17 
REMARK    5  A    between atoms: C19_19  and  C20_20 
ROOT
ATOM      1  C1  ZIN A   1      17.943   4.144  10.062  0.00  0.00     0.048 C 
ATOM      2  C2  ZIN A   1      18.287   2.683   9.930  0.00  0.00    -0.062 C 
ATOM      3  C14 ZIN A   1      18.811   2.206   8.764  0.00  0.00     0.007 C 
ENDROOT
BRANCH   2   4
ATOM      4  C3  ZIN A   1      18.066   1.810  11.011  0.00  0.00     0.007 C 
ATOM      5  C4  ZIN A   1      18.984   1.719  12.010  0.00  0.00     0.009 C 
BRANCH   5   6
ATOM      6  C5  ZIN A   1      18.706   0.935  13.157  0.00  0.00    -0.048 C 
ATOM      7  C11 ZIN A   1      18.721  -0.559  13.014  0.00  0.00    -0.020 C 
ATOM      8  C10 ZIN A   1      18.833  -1.219  14.391  0.00  0.00     0.014 C 
ATOM      9  C12 ZIN A   1      17.432  -1.025  12.331  0.00  0.00     0.020 C 
ATOM     10  C13 ZIN A   1      19.921  -0.968  12.156  0.00  0.00     0.020 C 
ATOM     11  C9  ZIN A   1      17.768  -0.605  15.309  0.00  0.00     0.005 C 
ATOM     12  C8  ZIN A   1      18.144   0.853  15.582  0.00  0.00     0.034 C 
ATOM     13  C6  ZIN A   1      18.444   1.560  14.293  0.00  0.00    -0.077 C 
ATOM     14  C7  ZIN A   1      18.447   3.066  14.292  0.00  0.00     0.044 C 
ENDBRANCH   5   6
ENDBRANCH   2   4
BRANCH   3  15
ATOM     15  C15 ZIN A   1      19.130   0.847   8.643  0.00  0.00     0.001 C 
ATOM     16  C16 ZIN A   1      18.456   0.060   7.736  0.00  0.00     0.007 C 
BRANCH  16  17
ATOM     17  C17 ZIN A   1      18.774  -1.299   7.615  0.00  0.00    -0.056 C 
ATOM     18  C18 ZIN A   1      19.027  -2.126   8.849  0.00  0.00     0.048 C 
ATOM     19  C19 ZIN A   1      18.856  -1.878   6.369  0.00  0.00     0.091 C 
BRANCH  19  20
ATOM     20  C20 ZIN A   1      18.881  -1.071   5.220  0.00  0.00     0.199 C 
ATOM     21  O21 ZIN A   1      20.048  -0.694   4.695  0.00  0.00    -0.644 OA
ATOM     22  O22 ZIN A   1      17.738  -0.682   4.654  0.00  0.00    -0.644 OA
ENDBRANCH  19  20
ENDBRANCH  16  17
ENDBRANCH   3  15
TORSDOF 5
ENDMDL
MODEL 4
REMARK VINA RESULT:      -7.6      3.868      6.098
REMARK  5 active torsions:
REMARK  status: ('A' for Active; 'I' for Inactive)
REMARK    1  A    between atoms: C2_2  and  C3_3 
REMARK    2  A    between atoms: C4_4  and  C5_5 
REMARK    3  A    between atoms: C14_14  and  C15_15 
REMARK    4  A    between atoms: C16_16  and  C17_17 
REMARK    5  A    between atoms: C19_19  and  C20_20 
ROOT
ATOM      1  C1  ZIN A   1      19.191   4.772  12.632  0.00  0.00     0.048 C 
ATOM      2  C2  ZIN A   1      18.894   3.357  13.055  0.00  0.00    -0.062 C 
ATOM      3  C14 ZIN A   1      18.451   3.101  14.320  0.00  0.00     0.007 C 
ENDROOT
BRANCH   2   4
ATOM      4  C3  ZIN A   1      19.074   2.300  12.146  0.00  0.00     0.007 C 
ATOM      5  C4  ZIN A   1      18.119   2.032  11.217  0.00  0.00     0.009 C 
BRANCH   5   6
ATOM      6  C5  ZIN A   1      18.354   1.048  10.224  0.00  0.00    -0.048 C 
ATOM      7  C11 ZIN A   1      18.229  -0.396  10.614  0.00  0.00    -0.020 C 
ATOM      8  C10 ZIN A   1      18.087  -1.268   9.363  0.00  0.00     0.014 C 
ATOM      9  C12 ZIN A   1      19.473  -0.828  11.395  0.00  0.00     0.020 C 
ATOM     10  C13 ZIN A   1      16.993  -0.572  11.498  0.00  0.00     0.020 C 
ATOM     11  C9  ZIN A   1      19.205  -0.892   8.382  0.00  0.00     0.005 C 
ATOM     12  C8  ZIN A   1      18.938   0.522   7.860  0.00  0.00     0.034 C 
ATOM     13  C6  ZIN A   1      18.674   1.454   9.006  0.00  0.00    -0.077 C 
ATOM     14  C7  ZIN A   1      18.778   2.936   8.756  0.00  0.00     0.044 C 
ENDBRANCH   5   6
ENDBRANCH   2   4
BRANCH   3  15
ATOM     15  C15 ZIN A   1      18.176   1.785  14.713  0.00  0.00     0.001 C 
ATOM     16  C16 ZIN A   1      19.106   1.074  15.438  0.00  0.00     0.007 C 
BRANCH  16  17
ATOM     17  C17 ZIN A   1      18.831  -0.242  15.831  0.00  0.00    -0.056 C 
ATOM     18  C18 ZIN A   1      18.555  -1.297  14.791  0.00  0.00     0.048 C 
ATOM     19  C19 ZIN A   1      18.814  -0.572  17.167  0.00  0.00     0.091 C 
BRANCH  19  20
ATOM     20  C20 ZIN A   1      18.810   0.440  18.140  0.00  0.00     0.199 C 
ATOM     21  O21 ZIN A   1      17.656   0.868  18.654  0.00  0.00    -0.644 OA
ATOM     22  O22 ZIN A   1      19.961   0.974  18.551  0.00  0.00    -0.644 OA
ENDBRANCH  19  20
ENDBRANCH  16  17
ENDBRANCH   3  15
TORSDOF 5
ENDMDL
MODEL 5
REMARK VINA RESULT:      -7.4      3.190      5.841
REMARK  5 active torsions:
REMARK  status: ('A' for Active; 'I' for Inactive)
REMARK    1  A    between atoms: C2_2  and  C3_3 
REMARK    2  A    between atoms: C4_4  and  C5_5 
REMARK    3  A    between atoms: C14_14  and  C15_15 
REMARK    4  A    between atoms: C16_16  and  C17_17 
REMARK    5  A    between atoms: C19_19  and  C20_20 
ROOT
ATOM      1  C1  ZIN A   1      19.529  -3.847  11.514  0.00  0.00     0.048 C 
ATOM      2  C2  ZIN A   1      19.235  -2.498  10.910  0.00  0.00    -0.062 C 
ATOM      3  C14 ZIN A   1      18.883  -2.401   9.595  0.00  0.00     0.007 C 
ENDROOT
BRANCH   2   4
ATOM      4  C3  ZIN A   1      19.324  -1.340  11.702  0.00  0.00     0.007 C 
ATOM      5  C4  ZIN A   1      18.289  -0.986  12.508  0.00  0.00     0.009 C 
BRANCH   5   6
ATOM      6  C5  ZIN A   1      18.425   0.109  13.397  0.00  0.00    -0.048 C 
ATOM      7  C11 ZIN A   1      18.428   1.494  12.818  0.00  0.00    -0.020 C 
ATOM      8  C10 ZIN A   1      18.150   2.524  13.917  0.00  0.00     0.014 C 
ATOM      9  C12 ZIN A   1      19.790   1.785  12.183  0.00  0.00     0.020 C 
ATOM     10  C13 ZIN A   1      17.341   1.591  11.745  0.00  0.00     0.020 C 
ATOM     11  C9  ZIN A   1      19.096   2.244  15.092  0.00  0.00     0.005 C 
ATOM     12  C8  ZIN A   1      18.690   0.918  15.738  0.00  0.00     0.034 C 
ATOM     13  C6  ZIN A   1      18.548  -0.146  14.689  0.00  0.00    -0.077 C 
ATOM     14  C7  ZIN A   1      18.544  -1.585  15.133  0.00  0.00     0.044 C 
ENDBRANCH   5   6
ENDBRANCH   2   4
BRANCH   3  15
ATOM     15  C15 ZIN A   1      18.610  -1.146   9.034  0.00  0.00     0.001 C 
ATOM     16  C16 ZIN A   1      19.369  -0.682   7.984  0.00  0.00     0.007 C 
BRANCH  16  17
ATOM     17  C17 ZIN A   1      19.097   0.573   7.422  0.00  0.00    -0.056 C 
ATOM     18  C18 ZIN A   1      18.944   1.779   8.313  0.00  0.00     0.048 C 
ATOM     19  C19 ZIN A   1      18.969   0.704   6.058  0.00  0.00     0.091 C 
BRANCH  19  20
ATOM     20  C20 ZIN A   1      18.850  -0.439   5.251  0.00  0.00     0.199 C 
ATOM     21  O21 ZIN A   1      17.659  -1.013   5.079  0.00  0.00    -0.644 OA
ATOM     22  O22 ZIN A   1      19.929  -0.951   4.657  0.00  0.00    -0.644 OA
ENDBRANCH  19  20
ENDBRANCH  16  17
ENDBRANCH   3  15
TORSDOF 5
ENDMDL
MODEL 6
REMARK VINA RESULT:      -7.3      3.924      5.722
REMARK  5 active torsions:
REMARK  status: ('A' for Active; 'I' for Inactive)
REMARK    1  A    between atoms: C2_2  and  C3_3 
REMARK    2  A    between atoms: C4_4  and  C5_5 
REMARK    3  A    between atoms: C14_14  and  C15_15 
REMARK    4  A    between atoms: C16_16  and  C17_17 
REMARK    5  A    between atoms: C19_19  and  C20_20 
ROOT
ATOM      1  C1  ZIN A   1      17.795   3.600  11.569  0.00  0.00     0.048 C 
ATOM      2  C2  ZIN A   1      17.986   2.313  12.328  0.00  0.00    -0.062 C 
ATOM      3  C14 ZIN A   1      17.777   2.278  13.677  0.00  0.00     0.007 C 
ENDROOT
BRANCH   2   4
ATOM      4  C3  ZIN A   1      18.381   1.148  11.647  0.00  0.00     0.007 C 
ATOM      5  C4  ZIN A   1      17.569   0.605  10.702  0.00  0.00     0.009 C 
BRANCH   5   6
ATOM      6  C5  ZIN A   1      18.019  -0.495   9.930  0.00  0.00    -0.048 C 
ATOM      7  C11 ZIN A   1      18.453  -0.238   8.516  0.00  0.00    -0.020 C 
ATOM      8  C10 ZIN A   1      19.289  -1.413   8.000  0.00  0.00     0.014 C 
ATOM      9  C12 ZIN A   1      17.222  -0.060   7.623  0.00  0.00     0.020 C 
ATOM     10  C13 ZIN A   1      19.293   1.040   8.474  0.00  0.00     0.020 C 
ATOM     11  C9  ZIN A   1      18.523  -2.711   8.282  0.00  0.00     0.005 C 
ATOM     12  C8  ZIN A   1      18.490  -2.938   9.795  0.00  0.00     0.034 C 
ATOM     13  C6  ZIN A   1      18.030  -1.692  10.494  0.00  0.00    -0.077 C 
ATOM     14  C7  ZIN A   1      17.553  -1.810  11.918  0.00  0.00     0.044 C 
ENDBRANCH   5   6
ENDBRANCH   2   4
BRANCH   3  15
ATOM     15  C15 ZIN A   1      17.955   1.080  14.382  0.00  0.00     0.001 C 
ATOM     16  C16 ZIN A   1      18.652   1.078  15.569  0.00  0.00     0.007 C 
BRANCH  16  17
ATOM     17  C17 ZIN A   1      18.831  -0.119  16.275  0.00  0.00    -0.056 C 
ATOM     18  C18 ZIN A   1      18.817  -1.435  15.541  0.00  0.00     0.048 C 
ATOM     19  C19 ZIN A   1      19.020  -0.093  17.638  0.00  0.00     0.091 C 
BRANCH  19  20
ATOM     20  C20 ZIN A   1      18.777   1.088  18.358  0.00  0.00     0.199 C 
ATOM     21  O21 ZIN A   1      19.791   1.885  18.694  0.00  0.00    -0.644 OA
ATOM     22  O22 ZIN A   1      17.531   1.411  18.706  0.00  0.00    -0.644 OA
ENDBRANCH  19  20
ENDBRANCH  16  17
ENDBRANCH   3  15
TORSDOF 5
ENDMDL
MODEL 7
REMARK VINA RESULT:      -7.2      3.868      6.681
REMARK  5 active torsions:
REMARK  status: ('A' for Active; 'I' for Inactive)
REMARK    1  A    between atoms: C2_2  and  C3_3 
REMARK    2  A    between atoms: C4_4  and  C5_5 
REMARK    3  A    between atoms: C14_14  and  C15_15 
REMARK    4  A    between atoms: C16_16  and  C17_17 
REMARK    5  A    between atoms: C19_19  and  C20_20 
ROOT
ATOM      1  C1  ZIN A   1      18.819   1.302   6.802  0.00  0.00     0.048 C 
ATOM      2  C2  ZIN A   1      18.987   0.353   7.960  0.00  0.00    -0.062 C 
ATOM      3  C14 ZIN A   1      19.110  -0.987   7.732  0.00  0.00     0.007 C 
ENDROOT
BRANCH   2   4
ATOM      4  C3  ZIN A   1      19.017   0.849   9.275  0.00  0.00     0.007 C 
ATOM      5  C4  ZIN A   1      17.883   1.335   9.844  0.00  0.00     0.009 C 
BRANCH   5   6
ATOM      6  C5  ZIN A   1      17.884   1.720  11.208  0.00  0.00    -0.048 C 
ATOM      7  C11 ZIN A   1      18.327   3.113  11.551  0.00  0.00    -0.020 C 
ATOM      8  C10 ZIN A   1      17.860   3.481  12.962  0.00  0.00     0.014 C 
ATOM      9  C12 ZIN A   1      19.853   3.200  11.481  0.00  0.00     0.020 C 
ATOM     10  C13 ZIN A   1      17.720   4.093  10.544  0.00  0.00     0.020 C 
ATOM     11  C9  ZIN A   1      18.270   2.352  13.916  0.00  0.00     0.005 C 
ATOM     12  C8  ZIN A   1      17.442   1.109  13.582  0.00  0.00     0.034 C 
ATOM     13  C6  ZIN A   1      17.498   0.831  12.109  0.00  0.00    -0.077 C 
ATOM     14  C7  ZIN A   1      17.092  -0.537  11.627  0.00  0.00     0.044 C 
ENDBRANCH   5   6
ENDBRANCH   2   4
BRANCH   3  15
ATOM     15  C15 ZIN A   1      19.266  -1.869   8.810  0.00  0.00     0.001 C 
ATOM     16  C16 ZIN A   1      19.011  -3.212   8.643  0.00  0.00     0.007 C 
BRANCH  16  17
ATOM     17  C17 ZIN A   1      19.167  -4.094   9.720  0.00  0.00    -0.056 C 
ATOM     18  C18 ZIN A   1      19.019  -3.591  11.133  0.00  0.00     0.048 C 
ATOM     19  C19 ZIN A   1      19.455  -5.420   9.487  0.00  0.00     0.091 C 
BRANCH  19  20
ATOM     20  C20 ZIN A   1      19.848  -5.839   8.207  0.00  0.00     0.199 C 
ATOM     21  O21 ZIN A   1      18.945  -6.333   7.359  0.00  0.00    -0.644 OA
ATOM     22  O22 ZIN A   1      21.127  -5.744   7.838  0.00  0.00    -0.644 OA
ENDBRANCH  19  20
ENDBRANCH  16  17
ENDBRANCH   3  15
TORSDOF 5
ENDMDL
MODEL 8
REMARK VINA RESULT:      -7.2      3.512      6.103
REMARK  5 active torsions:
REMARK  status: ('A' for Active; 'I' for Inactive)
REMARK    1  A    between atoms: C2_2  and  C3_3 
REMARK    2  A    between atoms: C4_4  and  C5_5 
REMARK    3  A    between atoms: C14_14  and  C15_15 
REMARK    4  A    between atoms: C16_16  and  C17_17 
REMARK    5  A    between atoms: C19_19  and  C20_20 
ROOT
ATOM      1  C1  ZIN A   1      17.936  -3.459  11.873  0.00  0.00     0.048 C 
ATOM      2  C2  ZIN A   1      18.237  -2.116  11.260  0.00  0.00    -0.062 C 
ATOM      3  C14 ZIN A   1      18.173  -1.952   9.907  0.00  0.00     0.007 C 
ENDROOT
BRANCH   2   4
ATOM      4  C3  ZIN A   1      18.586  -1.031  12.084  0.00  0.00     0.007 C 
ATOM      5  C4  ZIN A   1      17.707  -0.573  13.013  0.00  0.00     0.009 C 
BRANCH   5   6
ATOM      6  C5  ZIN A   1      18.102   0.438  13.925  0.00  0.00    -0.048 C 
ATOM      7  C11 ZIN A   1      18.401   0.038  15.340  0.00  0.00    -0.020 C 
ATOM      8  C10 ZIN A   1      19.206   1.138  16.039  0.00  0.00     0.014 C 
ATOM      9  C12 ZIN A   1      17.091  -0.192  16.098  0.00  0.00     0.020 C 
ATOM     10  C13 ZIN A   1      19.213  -1.259  15.333  0.00  0.00     0.020 C 
ATOM     11  C9  ZIN A   1      18.491   2.476  15.816  0.00  0.00     0.005 C 
ATOM     12  C8  ZIN A   1      18.599   2.845  14.335  0.00  0.00     0.034 C 
ATOM     13  C6  ZIN A   1      18.184   1.682  13.481  0.00  0.00    -0.077 C 
ATOM     14  C7  ZIN A   1      17.841   1.946  12.038  0.00  0.00     0.044 C 
ENDBRANCH   5   6
ENDBRANCH   2   4
BRANCH   3  15
ATOM     15  C15 ZIN A   1      18.455  -0.703   9.337  0.00  0.00     0.001 C 
ATOM     16  C16 ZIN A   1      18.666  -0.597   7.981  0.00  0.00     0.007 C 
BRANCH  16  17
ATOM     17  C17 ZIN A   1      18.947   0.652   7.412  0.00  0.00    -0.056 C 
ATOM     18  C18 ZIN A   1      18.947   1.889   8.272  0.00  0.00     0.048 C 
ATOM     19  C19 ZIN A   1      19.223   0.748   6.067  0.00  0.00     0.091 C 
BRANCH  19  20
ATOM     20  C20 ZIN A   1      18.972  -0.341   5.219  0.00  0.00     0.199 C 
ATOM     21  O21 ZIN A   1      17.718  -0.663   4.899  0.00  0.00    -0.644 OA
ATOM     22  O22 ZIN A   1      19.988  -1.056   4.733  0.00  0.00    -0.644 OA
ENDBRANCH  19  20
ENDBRANCH  16  17
ENDBRANCH   3  15
TORSDOF 5
ENDMDL
MODEL 9
REMARK VINA RESULT:      -7.1      1.606      3.787
REMARK  5 active torsions:
REMARK  status: ('A' for Active; 'I' for Inactive)
REMARK    1  A    between atoms: C2_2  and  C3_3 
REMARK    2  A    between atoms: C4_4  and  C5_5 
REMARK    3  A    between atoms: C14_14  and  C15_15 
REMARK    4  A    between atoms: C16_16  and  C17_17 
REMARK    5  A    between atoms: C19_19  and  C20_20 
ROOT
ATOM      1  C1  ZIN A   1      18.570  -1.423  15.027  0.00  0.00     0.048 C 
ATOM      2  C2  ZIN A   1      18.843  -0.820  13.673  0.00  0.00    -0.062 C 
ATOM      3  C14 ZIN A   1      18.897   0.536  13.528  0.00  0.00     0.007 C 
ENDROOT
BRANCH   2   4
ATOM      4  C3  ZIN A   1      19.041  -1.655  12.559  0.00  0.00     0.007 C 
ATOM      5  C4  ZIN A   1      17.986  -2.305  12.001  0.00  0.00     0.009 C 
BRANCH   5   6
ATOM      6  C5  ZIN A   1      18.164  -3.047  10.807  0.00  0.00    -0.048 C 
ATOM      7  C11 ZIN A   1      18.572  -4.487  10.922  0.00  0.00    -0.020 C 
ATOM      8  C10 ZIN A   1      18.296  -5.219   9.606  0.00  0.00     0.014 C 
ATOM      9  C12 ZIN A   1      20.065  -4.574  11.249  0.00  0.00     0.020 C 
ATOM     10  C13 ZIN A   1      17.771  -5.146  12.047  0.00  0.00     0.020 C 
ATOM     11  C9  ZIN A   1      18.904  -4.399   8.460  0.00  0.00     0.005 C 
ATOM     12  C8  ZIN A   1      18.107  -3.100   8.317  0.00  0.00     0.034 C 
ATOM     13  C6  ZIN A   1      17.964  -2.432   9.653  0.00  0.00    -0.077 C 
ATOM     14  C7  ZIN A   1      17.570  -0.978   9.682  0.00  0.00     0.044 C 
ENDBRANCH   5   6
ENDBRANCH   2   4
BRANCH   3  15
ATOM     15  C15 ZIN A   1      19.150   1.096  12.269  0.00  0.00     0.001 C 
ATOM     16  C16 ZIN A   1      18.267   2.003  11.729  0.00  0.00     0.007 C 
BRANCH  16  17
ATOM     17  C17 ZIN A   1      18.519   2.564  10.470  0.00  0.00    -0.056 C 
ATOM     18  C18 ZIN A   1      19.376   1.824   9.475  0.00  0.00     0.048 C 
ATOM     19  C19 ZIN A   1      17.984   3.789  10.142  0.00  0.00     0.091 C 
BRANCH  19  20
ATOM     20  C20 ZIN A   1      17.411   4.594  11.139  0.00  0.00     0.199 C 
ATOM     21  O21 ZIN A   1      18.186   5.172  12.058  0.00  0.00    -0.644 OA
ATOM     22  O22 ZIN A   1      16.091   4.781  11.168  0.00  0.00    -0.644 OA
ENDBRANCH  19  20
ENDBRANCH  16  17
ENDBRANCH   3  15
TORSDOF 5
ENDMDL
