MODEL 1
REMARK VINA RESULT:      -8.3      0.000      0.000
REMARK  0 active torsions:
REMARK  status: ('A' for Active; 'I' for Inactive)
ROOT
ATOM      1  C1  ZIN A   1      19.273  -0.294   4.895  0.00  0.00     0.269 C 
ATOM      2  N2  ZIN A   1      18.416  -0.092   6.071  0.00  0.00    -0.074 N 
ATOM      3  H3  ZIN A   1      17.473   0.111   5.775  0.00  0.00     0.279 HD
ATOM      4  C4  ZIN A   1      18.938   1.037   6.882  0.00  0.00     0.244 C 
ATOM      5  C5  ZIN A   1      19.284   0.448   8.251  0.00  0.00     0.057 C 
ATOM      6  C7  ZIN A   1      19.162   1.354   9.410  0.00  0.00    -0.018 A 
ATOM      7  C8  ZIN A   1      18.641   2.629   9.309  0.00  0.00     0.010 A 
ATOM      8  C9  ZIN A   1      18.522   3.418  10.439  0.00  0.00     0.001 A 
ATOM      9  C10 ZIN A   1      18.920   2.933  11.672  0.00  0.00     0.003 A 
ATOM     10  C11 ZIN A   1      19.454   1.662  11.776  0.00  0.00     0.038 A 
ATOM     11  C12 ZIN A   1      19.591   0.878  10.643  0.00  0.00     0.082 A 
ATOM     12  O13 ZIN A   1      20.189  -0.328  10.680  0.00  0.00    -0.310 OA
ATOM     13  C14 ZIN A   1      19.571  -1.506  10.472  0.00  0.00     0.083 A 
ATOM     14  C15 ZIN A   1      19.831  -2.515  11.403  0.00  0.00     0.039 A 
ATOM     15  C16 ZIN A   1      19.234  -3.750  11.298  0.00  0.00     0.026 A 
ATOM     16  C17 ZIN A   1      18.361  -3.997  10.252  0.00  0.00     0.034 A 
ATOM     17 Cl18 ZIN A   1      17.588  -5.544  10.109  0.00  0.00    -0.084 Cl
ATOM     18  C19 ZIN A   1      18.108  -3.009   9.326  0.00  0.00     0.034 A 
ATOM     19  C20 ZIN A   1      18.713  -1.756   9.413  0.00  0.00    -0.016 A 
ATOM     20  C21 ZIN A   1      18.401  -0.779   8.348  0.00  0.00     0.057 C 
ATOM     21  C23 ZIN A   1      18.423  -1.319   6.914  0.00  0.00     0.244 C 
ENDROOT
TORSDOF 0
ENDMDL
MODEL 2
REMARK VINA RESULT:      -8.2      2.534      4.240
REMARK  0 active torsions:
REMARK  status: ('A' for Active; 'I' for Inactive)
ROOT
ATOM      1  C1  ZIN A   1      18.199  -5.667   9.654  0.00  0.00     0.269 C 
ATOM      2  N2  ZIN A   1      17.583  -4.334   9.699  0.00  0.00    -0.074 N 
ATOM      3  H3  ZIN A   1      16.583  -4.417   9.594  0.00  0.00     0.279 HD
ATOM      4  C4  ZIN A   1      18.132  -3.493   8.606  0.00  0.00     0.244 C 
ATOM      5  C5  ZIN A   1      18.813  -2.305   9.287  0.00  0.00     0.057 C 
ATOM      6  C7  ZIN A   1      18.831  -1.034   8.537  0.00  0.00    -0.018 A 
ATOM      7  C8  ZIN A   1      18.162  -0.863   7.342  0.00  0.00     0.010 A 
ATOM      8  C9  ZIN A   1      18.190   0.364   6.704  0.00  0.00     0.001 A 
ATOM      9  C10 ZIN A   1      18.882   1.423   7.262  0.00  0.00     0.003 A 
ATOM     10  C11 ZIN A   1      19.564   1.254   8.453  0.00  0.00     0.038 A 
ATOM     11  C12 ZIN A   1      19.552   0.021   9.083  0.00  0.00     0.082 A 
ATOM     12  O13 ZIN A   1      20.275  -0.216  10.194  0.00  0.00    -0.310 OA
ATOM     13  C14 ZIN A   1      19.763  -0.459  11.415  0.00  0.00     0.083 A 
ATOM     14  C15 ZIN A   1      20.317   0.262  12.475  0.00  0.00     0.039 A 
ATOM     15  C16 ZIN A   1      19.852   0.108  13.761  0.00  0.00     0.026 A 
ATOM     16  C17 ZIN A   1      18.817  -0.778  14.007  0.00  0.00     0.034 A 
ATOM     17 Cl18 ZIN A   1      18.207  -0.977  15.620  0.00  0.00    -0.084 Cl
ATOM     18  C19 ZIN A   1      18.272  -1.499  12.968  0.00  0.00     0.034 A 
ATOM     19  C20 ZIN A   1      18.740  -1.361  11.662  0.00  0.00    -0.016 A 
ATOM     20  C21 ZIN A   1      18.110  -2.208  10.626  0.00  0.00     0.057 C 
ATOM     21  C23 ZIN A   1      17.898  -3.679  10.998  0.00  0.00     0.244 C 
ENDROOT
TORSDOF 0
ENDMDL
MODEL 3
REMARK VINA RESULT:      -8.2      4.133      6.307
REMARK  0 active torsions:
REMARK  status: ('A' for Active; 'I' for Inactive)
ROOT
ATOM      1  C1  ZIN A   1      16.355   6.250  13.948  0.00  0.00     0.269 C 
ATOM      2  N2  ZIN A   1      17.550   5.491  13.555  0.00  0.00    -0.074 N 
ATOM      3  H3  ZIN A   1      18.353   6.102  13.542  0.00  0.00     0.279 HD
ATOM      4  C4  ZIN A   1      17.348   4.903  12.207  0.00  0.00     0.244 C 
ATOM      5  C5  ZIN A   1      17.443   3.388  12.388  0.00  0.00     0.057 C 
ATOM      6  C7  ZIN A   1      17.956   2.616  11.240  0.00  0.00    -0.018 A 
ATOM      7  C8  ZIN A   1      18.453   3.215  10.100  0.00  0.00     0.010 A 
ATOM      8  C9  ZIN A   1      18.950   2.437   9.071  0.00  0.00     0.001 A 
ATOM      9  C10 ZIN A   1      18.957   1.058   9.180  0.00  0.00     0.003 A 
ATOM     10  C11 ZIN A   1      18.449   0.452  10.315  0.00  0.00     0.038 A 
ATOM     11  C12 ZIN A   1      17.934   1.230  11.338  0.00  0.00     0.082 A 
ATOM     12  O13 ZIN A   1      17.346   0.684  12.420  0.00  0.00    -0.310 OA
ATOM     13  C14 ZIN A   1      17.830   0.736  13.675  0.00  0.00     0.083 A 
ATOM     14  C15 ZIN A   1      17.856  -0.469  14.381  0.00  0.00     0.039 A 
ATOM     15  C16 ZIN A   1      18.352  -0.533  15.662  0.00  0.00     0.026 A 
ATOM     16  C17 ZIN A   1      18.836   0.618  16.262  0.00  0.00     0.034 A 
ATOM     17 Cl18 ZIN A   1      19.478   0.556  17.873  0.00  0.00    -0.084 Cl
ATOM     18  C19 ZIN A   1      18.806   1.811  15.574  0.00  0.00     0.034 A 
ATOM     19  C20 ZIN A   1      18.295   1.893  14.280  0.00  0.00    -0.016 A 
ATOM     20  C21 ZIN A   1      18.276   3.229  13.644  0.00  0.00     0.057 C 
ATOM     21  C23 ZIN A   1      17.779   4.383  14.522  0.00  0.00     0.244 C 
ENDROOT
TORSDOF 0
ENDMDL
MODEL 4
REMARK VINA RESULT:      -8.2      3.021      4.339
REMARK  0 active torsions:
REMARK  status: ('A' for Active; 'I' for Inactive)
ROOT
ATOM      1  C1  ZIN A   1      18.153   3.038  10.326  0.00  0.00     0.269 C 
ATOM      2  N2  ZIN A   1      17.390   2.002  11.034  0.00  0.00    -0.074 N 
ATOM      3  H3  ZIN A   1      16.403   2.199  10.966  0.00  0.00     0.279 HD
ATOM      4  C4  ZIN A   1      17.795   1.970  12.462  0.00  0.00     0.244 C 
ATOM      5  C5  ZIN A   1      18.361   0.572  12.710  0.00  0.00     0.057 C 
ATOM      6  C7  ZIN A   1      18.204   0.027  14.072  0.00  0.00    -0.018 A 
ATOM      7  C8  ZIN A   1      17.475   0.669  15.053  0.00  0.00     0.010 A 
ATOM      8  C9  ZIN A   1      17.336   0.090  16.302  0.00  0.00     0.001 A 
ATOM      9  C10 ZIN A   1      17.923  -1.133  16.571  0.00  0.00     0.003 A 
ATOM     10  C11 ZIN A   1      18.665  -1.774  15.597  0.00  0.00     0.038 A 
ATOM     11  C12 ZIN A   1      18.819  -1.187  14.352  0.00  0.00     0.082 A 
ATOM     12  O13 ZIN A   1      19.607  -1.728  13.403  0.00  0.00    -0.310 OA
ATOM     13  C14 ZIN A   1      19.173  -2.249  12.240  0.00  0.00     0.083 A 
ATOM     14  C15 ZIN A   1      19.681  -3.504  11.894  0.00  0.00     0.039 A 
ATOM     15  C16 ZIN A   1      19.287  -4.137  10.738  0.00  0.00     0.026 A 
ATOM     16  C17 ZIN A   1      18.370  -3.520   9.904  0.00  0.00     0.034 A 
ATOM     17 Cl18 ZIN A   1      17.850  -4.308   8.448  0.00  0.00    -0.084 Cl
ATOM     18  C19 ZIN A   1      17.872  -2.279  10.234  0.00  0.00     0.034 A 
ATOM     19  C20 ZIN A   1      18.271  -1.620  11.397  0.00  0.00    -0.016 A 
ATOM     20  C21 ZIN A   1      17.703  -0.276  11.640  0.00  0.00     0.057 C 
ATOM     21  C23 ZIN A   1      17.677   0.670  10.435  0.00  0.00     0.244 C 
ENDROOT
TORSDOF 0
ENDMDL
MODEL 5
REMARK VINA RESULT:      -8.1      3.200      4.878
REMARK  0 active torsions:
REMARK  status: ('A' for Active; 'I' for Inactive)
ROOT
ATOM      1  C1  ZIN A   1      20.002  -4.247  11.397  0.00  0.00     0.269 C 
ATOM      2  N2  ZIN A   1      18.987  -3.193  11.263  0.00  0.00    -0.074 N 
ATOM      3  H3  ZIN A   1      18.136  -3.585  10.889  0.00  0.00     0.279 HD
ATOM      4  C4  ZIN A   1      19.488  -2.130  10.356  0.00  0.00     0.244 C 
ATOM      5  C5  ZIN A   1      19.532  -0.849  11.191  0.00  0.00     0.057 C 
ATOM      6  C7  ZIN A   1      19.319   0.419  10.467  0.00  0.00    -0.018 A 
ATOM      7  C8  ZIN A   1      18.966   0.467   9.133  0.00  0.00     0.010 A 
ATOM      8  C9  ZIN A   1      18.748   1.687   8.519  0.00  0.00     0.001 A 
ATOM      9  C10 ZIN A   1      18.877   2.862   9.238  0.00  0.00     0.003 A 
ATOM     10  C11 ZIN A   1      19.242   2.820  10.571  0.00  0.00     0.038 A 
ATOM     11  C12 ZIN A   1      19.478   1.600  11.182  0.00  0.00     0.082 A 
ATOM     12  O13 ZIN A   1      19.924   1.514  12.449  0.00  0.00    -0.310 OA
ATOM     13  C14 ZIN A   1      19.224   1.015  13.486  0.00  0.00     0.083 A 
ATOM     14  C15 ZIN A   1      19.210   1.783  14.652  0.00  0.00     0.039 A 
ATOM     15  C16 ZIN A   1      18.506   1.378  15.763  0.00  0.00     0.026 A 
ATOM     16  C17 ZIN A   1      17.799   0.188  15.722  0.00  0.00     0.034 A 
ATOM     17 Cl18 ZIN A   1      16.894  -0.335  17.108  0.00  0.00    -0.084 Cl
ATOM     18  C19 ZIN A   1      17.816  -0.578  14.578  0.00  0.00     0.034 A 
ATOM     19  C20 ZIN A   1      18.533  -0.186  13.449  0.00  0.00    -0.016 A 
ATOM     20  C21 ZIN A   1      18.514  -1.099  12.285  0.00  0.00     0.057 C 
ATOM     21  C23 ZIN A   1      18.717  -2.586  12.595  0.00  0.00     0.244 C 
ENDROOT
TORSDOF 0
ENDMDL
MODEL 6
REMARK VINA RESULT:      -8.1      3.288      4.755
REMARK  0 active torsions:
REMARK  status: ('A' for Active; 'I' for Inactive)
ROOT
ATOM      1  C1  ZIN A   1      20.019  -0.401   9.292  0.00  0.00     0.269 C 
ATOM      2  N2  ZIN A   1      18.801   0.090   9.953  0.00  0.00    -0.074 N 
ATOM      3  H3  ZIN A   1      17.988  -0.297   9.498  0.00  0.00     0.279 HD
ATOM      4  C4  ZIN A   1      18.757   1.572   9.882  0.00  0.00     0.244 C 
ATOM      5  C5  ZIN A   1      18.760   2.064  11.330  0.00  0.00     0.057 C 
ATOM      6  C7  ZIN A   1      18.063   3.336  11.598  0.00  0.00    -0.018 A 
ATOM      7  C8  ZIN A   1      17.326   4.000  10.636  0.00  0.00     0.010 A 
ATOM      8  C9  ZIN A   1      16.667   5.172  10.958  0.00  0.00     0.001 A 
ATOM      9  C10 ZIN A   1      16.739   5.682  12.242  0.00  0.00     0.003 A 
ATOM     10  C11 ZIN A   1      17.485   5.028  13.206  0.00  0.00     0.038 A 
ATOM     11  C12 ZIN A   1      18.160   3.864  12.879  0.00  0.00     0.082 A 
ATOM     12  O13 ZIN A   1      18.971   3.243  13.757  0.00  0.00    -0.310 OA
ATOM     13  C14 ZIN A   1      18.743   2.034  14.303  0.00  0.00     0.083 A 
ATOM     14  C15 ZIN A   1      18.906   1.937  15.687  0.00  0.00     0.039 A 
ATOM     15  C16 ZIN A   1      18.676   0.753  16.349  0.00  0.00     0.026 A 
ATOM     16  C17 ZIN A   1      18.274  -0.360  15.631  0.00  0.00     0.034 A 
ATOM     17 Cl18 ZIN A   1      17.966  -1.859  16.450  0.00  0.00    -0.084 Cl
ATOM     18  C19 ZIN A   1      18.119  -0.274  14.266  0.00  0.00     0.034 A 
ATOM     19  C20 ZIN A   1      18.360   0.915  13.579  0.00  0.00    -0.016 A 
ATOM     20  C21 ZIN A   1      18.199   0.891  12.109  0.00  0.00     0.057 C 
ATOM     21  C23 ZIN A   1      18.812  -0.313  11.386  0.00  0.00     0.244 C 
ENDROOT
TORSDOF 0
ENDMDL
MODEL 7
REMARK VINA RESULT:      -8.0      2.691      4.712
REMARK  0 active torsions:
REMARK  status: ('A' for Active; 'I' for Inactive)
ROOT
ATOM      1  C1  ZIN A   1      16.269  -5.309   9.960  0.00  0.00     0.269 C 
ATOM      2  N2  ZIN A   1      17.552  -4.622  10.161  0.00  0.00    -0.074 N 
ATOM      3  H3  ZIN A   1      18.297  -5.300  10.213  0.00  0.00     0.279 HD
ATOM      4  C4  ZIN A   1      17.506  -3.834  11.419  0.00  0.00     0.244 C 
ATOM      5  C5  ZIN A   1      17.720  -2.376  11.012  0.00  0.00     0.057 C 
ATOM      6  C7  ZIN A   1      18.385  -1.504  12.000  0.00  0.00    -0.018 A 
ATOM      7  C8  ZIN A   1      18.913  -1.984  13.182  0.00  0.00     0.010 A 
ATOM      8  C9  ZIN A   1      19.554  -1.121  14.052  0.00  0.00     0.001 A 
ATOM      9  C10 ZIN A   1      19.672   0.221  13.742  0.00  0.00     0.003 A 
ATOM     10  C11 ZIN A   1      19.134   0.709  12.565  0.00  0.00     0.038 A 
ATOM     11  C12 ZIN A   1      18.476  -0.150  11.702  0.00  0.00     0.082 A 
ATOM     12  O13 ZIN A   1      17.857   0.294  10.591  0.00  0.00    -0.310 OA
ATOM     13  C14 ZIN A   1      18.237   0.020   9.329  0.00  0.00     0.083 A 
ATOM     14  C15 ZIN A   1      18.313   1.106   8.454  0.00  0.00     0.039 A 
ATOM     15  C16 ZIN A   1      18.714   0.941   7.148  0.00  0.00     0.026 A 
ATOM     16  C17 ZIN A   1      19.048  -0.324   6.695  0.00  0.00     0.034 A 
ATOM     17 Cl18 ZIN A   1      19.568  -0.551   5.054  0.00  0.00    -0.084 Cl
ATOM     18  C19 ZIN A   1      18.966  -1.401   7.550  0.00  0.00     0.034 A 
ATOM     19  C20 ZIN A   1      18.551  -1.251   8.872  0.00  0.00    -0.016 A 
ATOM     20  C21 ZIN A   1      18.465  -2.476   9.696  0.00  0.00     0.057 C 
ATOM     21  C23 ZIN A   1      17.803  -3.687   9.030  0.00  0.00     0.244 C 
ENDROOT
TORSDOF 0
ENDMDL
MODEL 8
REMARK VINA RESULT:      -8.0      2.913      4.819
REMARK  0 active torsions:
REMARK  status: ('A' for Active; 'I' for Inactive)
ROOT
ATOM      1  C1  ZIN A   1      16.990   5.040  12.551  0.00  0.00     0.269 C 
ATOM      2  N2  ZIN A   1      18.089   4.201  12.053  0.00  0.00    -0.074 N 
ATOM      3  H3  ZIN A   1      18.960   4.706  12.119  0.00  0.00     0.279 HD
ATOM      4  C4  ZIN A   1      17.833   3.828  10.640  0.00  0.00     0.244 C 
ATOM      5  C5  ZIN A   1      17.743   2.301  10.615  0.00  0.00     0.057 C 
ATOM      6  C7  ZIN A   1      18.171   1.634   9.371  0.00  0.00    -0.018 A 
ATOM      7  C8  ZIN A   1      18.750   2.316   8.319  0.00  0.00     0.010 A 
ATOM      8  C9  ZIN A   1      19.162   1.628   7.192  0.00  0.00     0.001 A 
ATOM      9  C10 ZIN A   1      19.000   0.257   7.116  0.00  0.00     0.003 A 
ATOM     10  C11 ZIN A   1      18.410  -0.430   8.161  0.00  0.00     0.038 A 
ATOM     11  C12 ZIN A   1      17.981   0.260   9.282  0.00  0.00     0.082 A 
ATOM     12  O13 ZIN A   1      17.319  -0.351  10.283  0.00  0.00    -0.310 OA
ATOM     13  C14 ZIN A   1      17.792  -0.526  11.531  0.00  0.00     0.083 A 
ATOM     14  C15 ZIN A   1      17.664  -1.809  12.069  0.00  0.00     0.039 A 
ATOM     15  C16 ZIN A   1      18.135  -2.104  13.328  0.00  0.00     0.026 A 
ATOM     16  C17 ZIN A   1      18.747  -1.111  14.074  0.00  0.00     0.034 A 
ATOM     17 Cl18 ZIN A   1      19.359  -1.465  15.659  0.00  0.00    -0.084 Cl
ATOM     18  C19 ZIN A   1      18.869   0.159  13.553  0.00  0.00     0.034 A 
ATOM     19  C20 ZIN A   1      18.387   0.475  12.284  0.00  0.00    -0.016 A 
ATOM     20  C21 ZIN A   1      18.536   1.876  11.834  0.00  0.00     0.057 C 
ATOM     21  C23 ZIN A   1      18.172   2.953  12.861  0.00  0.00     0.244 C 
ENDROOT
TORSDOF 0
ENDMDL
MODEL 9
REMARK VINA RESULT:      -7.9      2.896      5.784
REMARK  0 active torsions:
REMARK  status: ('A' for Active; 'I' for Inactive)
ROOT
ATOM      1  C1  ZIN A   1      20.741   0.462  11.872  0.00  0.00     0.269 C 
ATOM      2  N2  ZIN A   1      19.504  -0.152  11.370  0.00  0.00    -0.074 N 
ATOM      3  H3  ZIN A   1      18.706   0.372  11.697  0.00  0.00     0.279 HD
ATOM      4  C4  ZIN A   1      19.412  -1.554  11.849  0.00  0.00     0.244 C 
ATOM      5  C5  ZIN A   1      19.390  -2.428  10.594  0.00  0.00     0.057 C 
ATOM      6  C7  ZIN A   1      18.650  -3.701  10.688  0.00  0.00    -0.018 A 
ATOM      7  C8  ZIN A   1      17.899  -4.048  11.794  0.00  0.00     0.010 A 
ATOM      8  C9  ZIN A   1      17.200  -5.241  11.808  0.00  0.00     0.001 A 
ATOM      9  C10 ZIN A   1      17.247  -6.089  10.716  0.00  0.00     0.003 A 
ATOM     10  C11 ZIN A   1      18.008  -5.752   9.611  0.00  0.00     0.038 A 
ATOM     11  C12 ZIN A   1      18.722  -4.566   9.604  0.00  0.00     0.082 A 
ATOM     12  O13 ZIN A   1      19.548  -4.240   8.591  0.00  0.00    -0.310 OA
ATOM     13  C14 ZIN A   1      19.355  -3.223   7.730  0.00  0.00     0.083 A 
ATOM     14  C15 ZIN A   1      19.512  -3.519   6.374  0.00  0.00     0.039 A 
ATOM     15  C16 ZIN A   1      19.316  -2.559   5.408  0.00  0.00     0.026 A 
ATOM     16  C17 ZIN A   1      18.955  -1.278   5.788  0.00  0.00     0.034 A 
ATOM     17 Cl18 ZIN A   1      18.690  -0.056   4.584  0.00  0.00    -0.084 Cl
ATOM     18  C19 ZIN A   1      18.807  -0.976   7.124  0.00  0.00     0.034 A 
ATOM     19  C20 ZIN A   1      19.013  -1.936   8.114  0.00  0.00    -0.016 A 
ATOM     20  C21 ZIN A   1      18.862  -1.500   9.519  0.00  0.00     0.057 C 
ATOM     21  C23 ZIN A   1      19.519  -0.163   9.881  0.00  0.00     0.244 C 
ENDROOT
TORSDOF 0
ENDMDL
