MODEL 1
REMARK VINA RESULT:      -9.9      0.000      0.000
REMARK  5 active torsions:
REMARK  status: ('A' for Active; 'I' for Inactive)
REMARK    1  A    between atoms: N16_12  and  C17_13 
REMARK    2  A    between atoms: C17_13  and  C18_14 
REMARK    3  A    between atoms: C24_19  and  C26_20 
REMARK    4  A    between atoms: C26_20  and  N27_21 
REMARK    5  A    between atoms: N30_24  and  C31_25 
ROOT
ATOM      1  C18 RES d   1      18.506   1.267  15.629  0.00  0.00     0.010 C 
ATOM      2  C20 RES d   1      18.819   0.806  17.054  0.00  0.00     0.007 C 
ATOM      3  C21 RES d   1      18.047  -0.479  17.356  0.00  0.00     0.000 C 
ATOM      4  C22 RES d   1      18.463  -1.568  16.364  0.00  0.00     0.000 C 
ATOM      5  C23 RES d   1      18.150  -1.108  14.939  0.00  0.00     0.007 C 
ATOM      6  C24 RES d   1      18.922   0.178  14.638  0.00  0.00     0.019 C 
ENDROOT
BRANCH   6   7
ATOM      7  C26 RES d   1      18.609   0.639  13.213  0.00  0.00     0.277 C 
BRANCH   7   8
ATOM      8  N27 RES d   1      18.657  -0.514  12.305  0.00  0.00     0.092 N 
ATOM      9  C41 RES d   1      17.560  -0.461  11.329  0.00  0.00     0.292 C 
ATOM     10  C40 RES d   1      17.536  -1.763  10.521  0.00  0.00     0.154 C 
ATOM     11  N30 RES d   1      18.872  -1.981   9.944  0.00  0.00    -0.361 N 
ATOM     12  C29 RES d   1      20.036  -1.911  10.840  0.00  0.00     0.154 C 
ATOM     13  C28 RES d   1      19.962  -0.603  11.634  0.00  0.00     0.292 C 
BRANCH  11  14
ATOM     14  C31 RES d   1      19.028  -2.245   8.582  0.00  0.00     0.145 A 
ATOM     15  C39 RES d   1      19.046  -1.170   7.604  0.00  0.00     0.029 A 
ATOM     16  C34 RES d   1      19.218  -1.664   6.297  0.00  0.00     0.037 A 
ATOM     17  C38 RES d   1      18.938   0.226   7.773  0.00  0.00     0.017 A 
ATOM     18  S33 RES d   1      19.324  -3.418   6.462  0.00  0.00     0.014 SA
ATOM     19  C35 RES d   1      19.268  -0.802   5.210  0.00  0.00     0.021 A 
ATOM     20  N32 RES d   1      19.156  -3.454   8.147  0.00  0.00    -0.192 NA
ATOM     21  C36 RES d   1      19.153   0.555   5.410  0.00  0.00     0.001 A 
ATOM     22  C37 RES d   1      18.988   1.056   6.696  0.00  0.00     0.001 A 
ENDBRANCH  11  14
ENDBRANCH   7   8
ENDBRANCH   6   7
BRANCH   1  23
ATOM     23  C17 RES d   1      19.279   2.553  15.329  0.00  0.00     0.140 C 
BRANCH  23  24
ATOM     24  N16 RES d   1      18.390   3.706  15.485  0.00  0.00    -0.287 N 
ATOM     25  C2  RES d   1      17.676   4.198  14.466  0.00  0.00     0.231 A 
ATOM     26  O1  RES d   1      17.670   3.757  13.337  0.00  0.00    -0.272 OA
ATOM     27  C3  RES d   1      16.872   5.386  14.944  0.00  0.00     0.096 A 
ATOM     28  C12 RES d   1      17.258   5.498  16.446  0.00  0.00     0.096 A 
ATOM     29  C5  RES d   1      17.448   6.671  14.277  0.00  0.00    -0.000 C 
ATOM     30  C9  RES d   1      18.021   6.875  16.531  0.00  0.00    -0.000 C 
ATOM     31  C14 RES d   1      18.252   4.384  16.676  0.00  0.00     0.231 A 
ATOM     32  C8  RES d   1      16.926   7.961  16.302  0.00  0.00     0.006 C 
ATOM     33  C11 RES d   1      18.753   6.879  15.123  0.00  0.00     0.011 C 
ATOM     34  C7  RES d   1      16.547   7.827  14.809  0.00  0.00     0.006 C 
ATOM     35  O15 RES d   1      18.799   4.140  17.730  0.00  0.00    -0.272 OA
ENDBRANCH  23  24
ENDBRANCH   1  23
TORSDOF 5
ENDMDL
MODEL 2
REMARK VINA RESULT:      -9.9      4.278     10.836
REMARK  5 active torsions:
REMARK  status: ('A' for Active; 'I' for Inactive)
REMARK    1  A    between atoms: N16_12  and  C17_13 
REMARK    2  A    between atoms: C17_13  and  C18_14 
REMARK    3  A    between atoms: C24_19  and  C26_20 
REMARK    4  A    between atoms: C26_20  and  N27_21 
REMARK    5  A    between atoms: N30_24  and  C31_25 
ROOT
ATOM      1  C18 RES d   1      18.556  -2.515   7.979  0.00  0.00     0.010 C 
ATOM      2  C20 RES d   1      19.248  -2.399   6.620  0.00  0.00     0.007 C 
ATOM      3  C21 RES d   1      18.544  -1.333   5.778  0.00  0.00     0.000 C 
ATOM      4  C22 RES d   1      18.613   0.014   6.502  0.00  0.00     0.000 C 
ATOM      5  C23 RES d   1      17.922  -0.101   7.861  0.00  0.00     0.007 C 
ATOM      6  C24 RES d   1      18.625  -1.168   8.702  0.00  0.00     0.019 C 
ENDROOT
BRANCH   6   7
ATOM      7  C26 RES d   1      17.934  -1.283  10.062  0.00  0.00     0.277 C 
BRANCH   7   8
ATOM      8  N27 RES d   1      18.243  -0.096  10.870  0.00  0.00     0.092 N 
ATOM      9  C41 RES d   1      17.145   0.210  11.797  0.00  0.00     0.292 C 
ATOM     10  C40 RES d   1      17.422   1.548  12.489  0.00  0.00     0.154 C 
ATOM     11  N30 RES d   1      18.758   1.490  13.104  0.00  0.00    -0.361 N 
ATOM     12  C29 RES d   1      19.889   1.057  12.270  0.00  0.00     0.154 C 
ATOM     13  C28 RES d   1      19.514  -0.263  11.588  0.00  0.00     0.292 C 
BRANCH  11  14
ATOM     14  C31 RES d   1      18.945   1.835  14.443  0.00  0.00     0.145 A 
ATOM     15  C39 RES d   1      18.988   0.819  15.483  0.00  0.00     0.029 A 
ATOM     16  C34 RES d   1      19.189   1.390  16.754  0.00  0.00     0.037 A 
ATOM     17  C38 RES d   1      18.881  -0.585  15.400  0.00  0.00     0.017 A 
ATOM     18  S33 RES d   1      19.284   3.132  16.483  0.00  0.00     0.014 SA
ATOM     19  C35 RES d   1      19.267   0.595  17.889  0.00  0.00     0.021 A 
ATOM     20  N32 RES d   1      19.078   3.068  14.803  0.00  0.00    -0.192 NA
ATOM     21  C36 RES d   1      19.152  -0.772  17.772  0.00  0.00     0.001 A 
ATOM     22  C37 RES d   1      18.959  -1.349  16.523  0.00  0.00     0.001 A 
ENDBRANCH  11  14
ENDBRANCH   7   8
ENDBRANCH   6   7
BRANCH   1  23
ATOM     23  C17 RES d   1      19.260  -3.582   8.820  0.00  0.00     0.140 C 
BRANCH  23  24
ATOM     24  N16 RES d   1      18.576  -4.865   8.654  0.00  0.00    -0.287 N 
ATOM     25  C2  RES d   1      19.045  -5.824   7.846  0.00  0.00     0.231 A 
ATOM     26  O1  RES d   1      20.061  -5.752   7.190  0.00  0.00    -0.272 OA
ATOM     27  C3  RES d   1      18.113  -7.014   7.885  0.00  0.00     0.096 A 
ATOM     28  C12 RES d   1      16.999  -6.565   8.873  0.00  0.00     0.096 A 
ATOM     29  C5  RES d   1      17.407  -7.132   6.501  0.00  0.00    -0.000 C 
ATOM     30  C9  RES d   1      15.712  -6.479   7.966  0.00  0.00    -0.000 C 
ATOM     31  C14 RES d   1      17.389  -5.164   9.286  0.00  0.00     0.231 A 
ATOM     32  C8  RES d   1      15.372  -7.957   7.604  0.00  0.00     0.006 C 
ATOM     33  C11 RES d   1      16.357  -5.972   6.608  0.00  0.00     0.011 C 
ATOM     34  C7  RES d   1      16.494  -8.389   6.632  0.00  0.00     0.006 C 
ATOM     35  O15 RES d   1      16.765  -4.461  10.051  0.00  0.00    -0.272 OA
ENDBRANCH  23  24
ENDBRANCH   1  23
TORSDOF 5
ENDMDL
MODEL 3
REMARK VINA RESULT:      -9.8      0.956      1.774
REMARK  5 active torsions:
REMARK  status: ('A' for Active; 'I' for Inactive)
REMARK    1  A    between atoms: N16_12  and  C17_13 
REMARK    2  A    between atoms: C17_13  and  C18_14 
REMARK    3  A    between atoms: C24_19  and  C26_20 
REMARK    4  A    between atoms: C26_20  and  N27_21 
REMARK    5  A    between atoms: N30_24  and  C31_25 
ROOT
ATOM      1  C18 RES d   1      18.507   1.921  15.695  0.00  0.00     0.010 C 
ATOM      2  C20 RES d   1      19.173   1.801  17.067  0.00  0.00     0.007 C 
ATOM      3  C21 RES d   1      18.246   1.044  18.019  0.00  0.00     0.000 C 
ATOM      4  C22 RES d   1      17.974  -0.355  17.461  0.00  0.00     0.000 C 
ATOM      5  C23 RES d   1      17.308  -0.236  16.089  0.00  0.00     0.007 C 
ATOM      6  C24 RES d   1      18.235   0.522  15.136  0.00  0.00     0.019 C 
ENDROOT
BRANCH   6   7
ATOM      7  C26 RES d   1      17.569   0.641  13.764  0.00  0.00     0.277 C 
BRANCH   7   8
ATOM      8  N27 RES d   1      18.091  -0.404  12.875  0.00  0.00     0.092 N 
ATOM      9  C41 RES d   1      17.032  -0.933  12.005  0.00  0.00     0.292 C 
ATOM     10  C40 RES d   1      17.569  -2.137  11.225  0.00  0.00     0.154 C 
ATOM     11  N30 RES d   1      18.800  -1.732  10.529  0.00  0.00    -0.361 N 
ATOM     12  C29 RES d   1      19.855  -1.069  11.310  0.00  0.00     0.154 C 
ATOM     13  C28 RES d   1      19.227   0.094  12.086  0.00  0.00     0.292 C 
BRANCH  11  14
ATOM     14  C31 RES d   1      18.962  -1.971   9.163  0.00  0.00     0.145 A 
ATOM     15  C39 RES d   1      18.964  -0.879   8.203  0.00  0.00     0.029 A 
ATOM     16  C34 RES d   1      19.145  -1.348   6.888  0.00  0.00     0.037 A 
ATOM     17  C38 RES d   1      18.835   0.512   8.396  0.00  0.00     0.017 A 
ATOM     18  S33 RES d   1      19.277  -3.103   7.024  0.00  0.00     0.014 SA
ATOM     19  C35 RES d   1      19.183  -0.468   5.816  0.00  0.00     0.021 A 
ATOM     20  N32 RES d   1      19.109  -3.170   8.707  0.00  0.00    -0.192 NA
ATOM     21  C36 RES d   1      19.047   0.884   6.039  0.00  0.00     0.001 A 
ATOM     22  C37 RES d   1      18.874   1.361   7.332  0.00  0.00     0.001 A 
ENDBRANCH  11  14
ENDBRANCH   7   8
ENDBRANCH   6   7
BRANCH   1  23
ATOM     23  C17 RES d   1      19.435   2.678  14.742  0.00  0.00     0.140 C 
BRANCH  23  24
ATOM     24  N16 RES d   1      19.030   4.083  14.681  0.00  0.00    -0.287 N 
ATOM     25  C2  RES d   1      19.599   5.023  15.445  0.00  0.00     0.231 A 
ATOM     26  O1  RES d   1      20.493   4.832  16.241  0.00  0.00    -0.272 OA
ATOM     27  C3  RES d   1      18.958   6.362  15.156  0.00  0.00     0.096 A 
ATOM     28  C12 RES d   1      17.895   6.023  14.072  0.00  0.00     0.096 A 
ATOM     29  C5  RES d   1      18.139   6.796  16.409  0.00  0.00    -0.000 C 
ATOM     30  C9  RES d   1      16.524   6.316  14.794  0.00  0.00    -0.000 C 
ATOM     31  C14 RES d   1      18.017   4.532  13.862  0.00  0.00     0.231 A 
ATOM     32  C8  RES d   1      16.472   7.866  14.954  0.00  0.00     0.006 C 
ATOM     33  C11 RES d   1      16.882   5.867  16.273  0.00  0.00     0.011 C 
ATOM     34  C7  RES d   1      17.541   8.184  16.025  0.00  0.00     0.006 C 
ATOM     35  O15 RES d   1      17.349   3.877  13.091  0.00  0.00    -0.272 OA
ENDBRANCH  23  24
ENDBRANCH   1  23
TORSDOF 5
ENDMDL
MODEL 4
REMARK VINA RESULT:      -9.1      1.946      3.348
REMARK  5 active torsions:
REMARK  status: ('A' for Active; 'I' for Inactive)
REMARK    1  A    between atoms: N16_12  and  C17_13 
REMARK    2  A    between atoms: C17_13  and  C18_14 
REMARK    3  A    between atoms: C24_19  and  C26_20 
REMARK    4  A    between atoms: C26_20  and  N27_21 
REMARK    5  A    between atoms: N30_24  and  C31_25 
ROOT
ATOM      1  C18 RES d   1      18.484   1.916  15.776  0.00  0.00     0.010 C 
ATOM      2  C20 RES d   1      19.350   1.674  17.013  0.00  0.00     0.007 C 
ATOM      3  C21 RES d   1      18.526   0.950  18.079  0.00  0.00     0.000 C 
ATOM      4  C22 RES d   1      18.042  -0.391  17.526  0.00  0.00     0.000 C 
ATOM      5  C23 RES d   1      17.176  -0.150  16.288  0.00  0.00     0.007 C 
ATOM      6  C24 RES d   1      18.000   0.575  15.222  0.00  0.00     0.019 C 
ENDROOT
BRANCH   6   7
ATOM      7  C26 RES d   1      17.133   0.816  13.985  0.00  0.00     0.277 C 
BRANCH   7   8
ATOM      8  N27 RES d   1      17.854   0.365  12.787  0.00  0.00     0.092 N 
ATOM      9  C41 RES d   1      18.577  -0.887  13.049  0.00  0.00     0.292 C 
ATOM     10  C40 RES d   1      19.457  -1.227  11.842  0.00  0.00     0.154 C 
ATOM     11  N30 RES d   1      18.613  -1.238  10.636  0.00  0.00    -0.361 N 
ATOM     12  C29 RES d   1      17.754  -0.072  10.380  0.00  0.00     0.154 C 
ATOM     13  C28 RES d   1      16.941   0.222  11.645  0.00  0.00     0.292 C 
BRANCH  11  14
ATOM     14  C31 RES d   1      18.628  -2.325   9.761  0.00  0.00     0.145 A 
ATOM     15  C39 RES d   1      18.123  -3.627  10.169  0.00  0.00     0.029 A 
ATOM     16  C34 RES d   1      18.232  -4.571   9.131  0.00  0.00     0.037 A 
ATOM     17  C38 RES d   1      17.554  -4.049  11.389  0.00  0.00     0.017 A 
ATOM     18  S33 RES d   1      18.966  -3.707   7.778  0.00  0.00     0.014 SA
ATOM     19  C35 RES d   1      17.802  -5.879   9.309  0.00  0.00     0.021 A 
ATOM     20  N32 RES d   1      19.096  -2.212   8.563  0.00  0.00    -0.192 NA
ATOM     21  C36 RES d   1      17.257  -6.259  10.514  0.00  0.00     0.001 A 
ATOM     22  C37 RES d   1      17.139  -5.335  11.546  0.00  0.00     0.001 A 
ENDBRANCH  11  14
ENDBRANCH   7   8
ENDBRANCH   6   7
BRANCH   1  23
ATOM     23  C17 RES d   1      19.309   2.640  14.710  0.00  0.00     0.140 C 
BRANCH  23  24
ATOM     24  N16 RES d   1      18.942   4.058  14.687  0.00  0.00    -0.287 N 
ATOM     25  C2  RES d   1      19.547   4.962  15.466  0.00  0.00     0.231 A 
ATOM     26  O1  RES d   1      20.445   4.728  16.245  0.00  0.00    -0.272 OA
ATOM     27  C3  RES d   1      18.940   6.325  15.219  0.00  0.00     0.096 A 
ATOM     28  C12 RES d   1      17.854   6.042  14.142  0.00  0.00     0.096 A 
ATOM     29  C5  RES d   1      18.150   6.751  16.492  0.00  0.00    -0.000 C 
ATOM     30  C9  RES d   1      16.501   6.354  14.888  0.00  0.00    -0.000 C 
ATOM     31  C14 RES d   1      17.932   4.554  13.893  0.00  0.00     0.231 A 
ATOM     32  C8  RES d   1      16.494   7.901  15.087  0.00  0.00     0.006 C 
ATOM     33  C11 RES d   1      16.865   5.860  16.352  0.00  0.00     0.011 C 
ATOM     34  C7  RES d   1      17.586   8.163  16.150  0.00  0.00     0.006 C 
ATOM     35  O15 RES d   1      17.235   3.936  13.117  0.00  0.00    -0.272 OA
ENDBRANCH  23  24
ENDBRANCH   1  23
TORSDOF 5
ENDMDL
MODEL 5
REMARK VINA RESULT:      -9.0      1.561      2.412
REMARK  5 active torsions:
REMARK  status: ('A' for Active; 'I' for Inactive)
REMARK    1  A    between atoms: N16_12  and  C17_13 
REMARK    2  A    between atoms: C17_13  and  C18_14 
REMARK    3  A    between atoms: C24_19  and  C26_20 
REMARK    4  A    between atoms: C26_20  and  N27_21 
REMARK    5  A    between atoms: N30_24  and  C31_25 
ROOT
ATOM      1  C18 RES d   1      18.559   2.005  16.040  0.00  0.00     0.010 C 
ATOM      2  C20 RES d   1      18.378   1.217  17.339  0.00  0.00     0.007 C 
ATOM      3  C21 RES d   1      17.287   0.162  17.148  0.00  0.00     0.000 C 
ATOM      4  C22 RES d   1      17.693  -0.794  16.024  0.00  0.00     0.000 C 
ATOM      5  C23 RES d   1      17.875  -0.007  14.725  0.00  0.00     0.007 C 
ATOM      6  C24 RES d   1      18.966   1.049  14.916  0.00  0.00     0.019 C 
ENDROOT
BRANCH   6   7
ATOM      7  C26 RES d   1      19.147   1.836  13.617  0.00  0.00     0.277 C 
BRANCH   7   8
ATOM      8  N27 RES d   1      18.933   0.943  12.471  0.00  0.00     0.092 N 
ATOM      9  C41 RES d   1      17.875   1.460  11.592  0.00  0.00     0.292 C 
ATOM     10  C40 RES d   1      17.556   0.420  10.514  0.00  0.00     0.154 C 
ATOM     11  N30 RES d   1      18.808   0.054   9.832  0.00  0.00    -0.361 N 
ATOM     12  C29 RES d   1      19.958  -0.343  10.657  0.00  0.00     0.154 C 
ATOM     13  C28 RES d   1      20.183   0.728  11.728  0.00  0.00     0.292 C 
BRANCH  11  14
ATOM     14  C31 RES d   1      18.899   0.085   8.439  0.00  0.00     0.145 A 
ATOM     15  C39 RES d   1      18.994  -1.142   7.664  0.00  0.00     0.029 A 
ATOM     16  C34 RES d   1      19.073  -0.875   6.284  0.00  0.00     0.037 A 
ATOM     17  C38 RES d   1      19.000  -2.490   8.078  0.00  0.00     0.017 A 
ATOM     18  S33 RES d   1      19.030   0.883   6.136  0.00  0.00     0.014 SA
ATOM     19  C35 RES d   1      19.165  -1.909   5.362  0.00  0.00     0.021 A 
ATOM     20  N32 RES d   1      18.909   1.204   7.795  0.00  0.00    -0.192 NA
ATOM     21  C36 RES d   1      19.175  -3.214   5.801  0.00  0.00     0.001 A 
ATOM     22  C37 RES d   1      19.092  -3.491   7.160  0.00  0.00     0.001 A 
ENDBRANCH  11  14
ENDBRANCH   7   8
ENDBRANCH   6   7
BRANCH   1  23
ATOM     23  C17 RES d   1      19.651   3.059  16.232  0.00  0.00     0.140 C 
BRANCH  23  24
ATOM     24  N16 RES d   1      19.058   4.396  16.152  0.00  0.00    -0.287 N 
ATOM     25  C2  RES d   1      18.258   4.879  17.110  0.00  0.00     0.231 A 
ATOM     26  O1  RES d   1      17.950   4.296  18.126  0.00  0.00    -0.272 OA
ATOM     27  C3  RES d   1      17.804   6.271  16.730  0.00  0.00     0.096 A 
ATOM     28  C12 RES d   1      18.491   6.510  15.356  0.00  0.00     0.096 A 
ATOM     29  C5  RES d   1      16.278   6.223  16.420  0.00  0.00    -0.000 C 
ATOM     30  C9  RES d   1      17.283   6.603  14.348  0.00  0.00    -0.000 C 
ATOM     31  C14 RES d   1      19.251   5.234  15.076  0.00  0.00     0.231 A 
ATOM     32  C8  RES d   1      16.570   7.946  14.692  0.00  0.00     0.006 C 
ATOM     33  C11 RES d   1      16.288   5.553  15.001  0.00  0.00     0.011 C 
ATOM     34  C7  RES d   1      15.903   7.693  16.064  0.00  0.00     0.006 C 
ATOM     35  O15 RES d   1      19.919   5.020  14.087  0.00  0.00    -0.272 OA
ENDBRANCH  23  24
ENDBRANCH   1  23
TORSDOF 5
ENDMDL
MODEL 6
REMARK VINA RESULT:      -9.0      4.865     11.180
REMARK  5 active torsions:
REMARK  status: ('A' for Active; 'I' for Inactive)
REMARK    1  A    between atoms: N16_12  and  C17_13 
REMARK    2  A    between atoms: C17_13  and  C18_14 
REMARK    3  A    between atoms: C24_19  and  C26_20 
REMARK    4  A    between atoms: C26_20  and  N27_21 
REMARK    5  A    between atoms: N30_24  and  C31_25 
ROOT
ATOM      1  C18 RES d   1      18.211  -3.581   6.271  0.00  0.00     0.010 C 
ATOM      2  C20 RES d   1      18.005  -3.552   4.756  0.00  0.00     0.007 C 
ATOM      3  C21 RES d   1      17.387  -2.213   4.350  0.00  0.00     0.000 C 
ATOM      4  C22 RES d   1      18.326  -1.075   4.758  0.00  0.00     0.000 C 
ATOM      5  C23 RES d   1      18.533  -1.103   6.273  0.00  0.00     0.007 C 
ATOM      6  C24 RES d   1      19.150  -2.443   6.679  0.00  0.00     0.019 C 
ENDROOT
BRANCH   6   7
ATOM      7  C26 RES d   1      19.357  -2.471   8.195  0.00  0.00     0.277 C 
BRANCH   7   8
ATOM      8  N27 RES d   1      18.893  -1.204   8.775  0.00  0.00     0.092 N 
ATOM      9  C41 RES d   1      17.801  -1.433   9.731  0.00  0.00     0.292 C 
ATOM     10  C40 RES d   1      17.225  -0.085  10.177  0.00  0.00     0.154 C 
ATOM     11  N30 RES d   1      18.326   0.752  10.678  0.00  0.00    -0.361 N 
ATOM     12  C29 RES d   1      19.516   0.916   9.831  0.00  0.00     0.154 C 
ATOM     13  C28 RES d   1      20.002  -0.472   9.401  0.00  0.00     0.292 C 
BRANCH  11  14
ATOM     14  C31 RES d   1      18.242   1.373  11.926  0.00  0.00     0.145 A 
ATOM     15  C39 RES d   1      18.385   0.611  13.157  0.00  0.00     0.029 A 
ATOM     16  C34 RES d   1      18.269   1.437  14.291  0.00  0.00     0.037 A 
ATOM     17  C38 RES d   1      18.628  -0.763  13.362  0.00  0.00     0.017 A 
ATOM     18  S33 RES d   1      17.983   3.063  13.667  0.00  0.00     0.014 SA
ATOM     19  C35 RES d   1      18.380   0.910  15.570  0.00  0.00     0.021 A 
ATOM     20  N32 RES d   1      18.027   2.642  12.028  0.00  0.00    -0.192 NA
ATOM     21  C36 RES d   1      18.612  -0.436  15.735  0.00  0.00     0.001 A 
ATOM     22  C37 RES d   1      18.733  -1.262  14.624  0.00  0.00     0.001 A 
ENDBRANCH  11  14
ENDBRANCH   7   8
ENDBRANCH   6   7
BRANCH   1  23
ATOM     23  C17 RES d   1      18.829  -4.921   6.676  0.00  0.00     0.140 C 
BRANCH  23  24
ATOM     24  N16 RES d   1      17.763  -5.876   6.987  0.00  0.00    -0.287 N 
ATOM     25  C2  RES d   1      17.523  -6.948   6.224  0.00  0.00     0.231 A 
ATOM     26  O1  RES d   1      18.144  -7.254   5.229  0.00  0.00    -0.272 OA
ATOM     27  C3  RES d   1      16.361  -7.725   6.801  0.00  0.00     0.096 A 
ATOM     28  C12 RES d   1      15.961  -6.894   8.053  0.00  0.00     0.096 A 
ATOM     29  C5  RES d   1      15.152  -7.600   5.825  0.00  0.00    -0.000 C 
ATOM     30  C9  RES d   1      14.519  -6.364   7.701  0.00  0.00    -0.000 C 
ATOM     31  C14 RES d   1      16.914  -5.721   8.061  0.00  0.00     0.231 A 
ATOM     32  C8  RES d   1      13.603  -7.625   7.733  0.00  0.00     0.006 C 
ATOM     33  C11 RES d   1      14.674  -6.138   6.138  0.00  0.00     0.011 C 
ATOM     34  C7  RES d   1      14.023  -8.444   6.490  0.00  0.00     0.006 C 
ATOM     35  O15 RES d   1      16.922  -4.831   8.884  0.00  0.00    -0.272 OA
ENDBRANCH  23  24
ENDBRANCH   1  23
TORSDOF 5
ENDMDL
MODEL 7
REMARK VINA RESULT:      -8.9      3.810     10.038
REMARK  5 active torsions:
REMARK  status: ('A' for Active; 'I' for Inactive)
REMARK    1  A    between atoms: N16_12  and  C17_13 
REMARK    2  A    between atoms: C17_13  and  C18_14 
REMARK    3  A    between atoms: C24_19  and  C26_20 
REMARK    4  A    between atoms: C26_20  and  N27_21 
REMARK    5  A    between atoms: N30_24  and  C31_25 
ROOT
ATOM      1  C18 RES d   1      18.946   0.047  10.496  0.00  0.00     0.010 C 
ATOM      2  C20 RES d   1      19.912  -0.077   9.316  0.00  0.00     0.007 C 
ATOM      3  C21 RES d   1      19.389   0.749   8.140  0.00  0.00     0.000 C 
ATOM      4  C22 RES d   1      19.280   2.217   8.557  0.00  0.00     0.000 C 
ATOM      5  C23 RES d   1      18.315   2.343   9.737  0.00  0.00     0.007 C 
ATOM      6  C24 RES d   1      18.837   1.515  10.914  0.00  0.00     0.019 C 
ENDROOT
BRANCH   6   7
ATOM      7  C26 RES d   1      17.872   1.640  12.094  0.00  0.00     0.277 C 
BRANCH   7   8
ATOM      8  N27 RES d   1      18.343   2.693  13.002  0.00  0.00     0.092 N 
ATOM      9  C41 RES d   1      17.804   4.003  12.615  0.00  0.00     0.292 C 
ATOM     10  C40 RES d   1      18.457   5.095  13.469  0.00  0.00     0.154 C 
ATOM     11  N30 RES d   1      18.284   4.745  14.887  0.00  0.00    -0.361 N 
ATOM     12  C29 RES d   1      18.676   3.397  15.324  0.00  0.00     0.154 C 
ATOM     13  C28 RES d   1      18.013   2.373  14.398  0.00  0.00     0.292 C 
BRANCH  11  14
ATOM     14  C31 RES d   1      17.761   5.670  15.794  0.00  0.00     0.145 A 
ATOM     15  C39 RES d   1      16.389   6.138  15.683  0.00  0.00     0.029 A 
ATOM     16  C34 RES d   1      16.075   7.060  16.699  0.00  0.00     0.037 A 
ATOM     17  C38 RES d   1      15.377   5.804  14.759  0.00  0.00     0.017 A 
ATOM     18  S33 RES d   1      17.547   7.230  17.658  0.00  0.00     0.014 SA
ATOM     19  C35 RES d   1      14.811   7.629  16.781  0.00  0.00     0.021 A 
ATOM     20  N32 RES d   1      18.481   6.143  16.755  0.00  0.00    -0.192 NA
ATOM     21  C36 RES d   1      13.848   7.285  15.859  0.00  0.00     0.001 A 
ATOM     22  C37 RES d   1      14.144   6.372  14.854  0.00  0.00     0.001 A 
ENDBRANCH  11  14
ENDBRANCH   7   8
ENDBRANCH   6   7
BRANCH   1  23
ATOM     23  C17 RES d   1      19.469  -0.780  11.672  0.00  0.00     0.140 C 
BRANCH  23  24
ATOM     24  N16 RES d   1      18.983  -2.156  11.557  0.00  0.00    -0.287 N 
ATOM     25  C2  RES d   1      19.808  -3.188  11.342  0.00  0.00     0.231 A 
ATOM     26  O1  RES d   1      21.013  -3.110  11.234  0.00  0.00    -0.272 OA
ATOM     27  C3  RES d   1      19.005  -4.466  11.262  0.00  0.00     0.096 A 
ATOM     28  C12 RES d   1      17.541  -3.982  11.468  0.00  0.00     0.096 A 
ATOM     29  C5  RES d   1      19.058  -4.990   9.795  0.00  0.00    -0.000 C 
ATOM     30  C9  RES d   1      16.850  -4.291  10.085  0.00  0.00    -0.000 C 
ATOM     31  C14 RES d   1      17.647  -2.483  11.626  0.00  0.00     0.231 A 
ATOM     32  C8  RES d   1      16.765  -5.846  10.013  0.00  0.00     0.006 C 
ATOM     33  C11 RES d   1      18.057  -4.005   9.095  0.00  0.00     0.011 C 
ATOM     34  C7  RES d   1      18.228  -6.309   9.820  0.00  0.00     0.006 C 
ATOM     35  O15 RES d   1      16.713  -1.730  11.801  0.00  0.00    -0.272 OA
ENDBRANCH  23  24
ENDBRANCH   1  23
TORSDOF 5
ENDMDL
MODEL 8
REMARK VINA RESULT:      -8.9      3.893     10.511
REMARK  5 active torsions:
REMARK  status: ('A' for Active; 'I' for Inactive)
REMARK    1  A    between atoms: N16_12  and  C17_13 
REMARK    2  A    between atoms: C17_13  and  C18_14 
REMARK    3  A    between atoms: C24_19  and  C26_20 
REMARK    4  A    between atoms: C26_20  and  N27_21 
REMARK    5  A    between atoms: N30_24  and  C31_25 
ROOT
ATOM      1  C18 RES d   1      19.005  -0.377   8.283  0.00  0.00     0.010 C 
ATOM      2  C20 RES d   1      19.162  -0.221   6.769  0.00  0.00     0.007 C 
ATOM      3  C21 RES d   1      18.405   1.024   6.303  0.00  0.00     0.000 C 
ATOM      4  C22 RES d   1      18.975   2.258   7.004  0.00  0.00     0.000 C 
ATOM      5  C23 RES d   1      18.819   2.103   8.518  0.00  0.00     0.007 C 
ATOM      6  C24 RES d   1      19.575   0.857   8.984  0.00  0.00     0.019 C 
ENDROOT
BRANCH   6   7
ATOM      7  C26 RES d   1      19.418   0.703  10.498  0.00  0.00     0.277 C 
BRANCH   7   8
ATOM      8  N27 RES d   1      19.014   1.988  11.082  0.00  0.00     0.092 N 
ATOM      9  C41 RES d   1      17.884   1.814  12.005  0.00  0.00     0.292 C 
ATOM     10  C40 RES d   1      17.378   3.189  12.452  0.00  0.00     0.154 C 
ATOM     11  N30 RES d   1      18.512   3.953  12.994  0.00  0.00    -0.361 N 
ATOM     12  C29 RES d   1      19.734   4.054  12.182  0.00  0.00     0.154 C 
ATOM     13  C28 RES d   1      20.148   2.645  11.747  0.00  0.00     0.292 C 
BRANCH  11  14
ATOM     14  C31 RES d   1      18.430   4.563  14.247  0.00  0.00     0.145 A 
ATOM     15  C39 RES d   1      18.691   3.816  15.467  0.00  0.00     0.029 A 
ATOM     16  C34 RES d   1      18.556   4.628  16.609  0.00  0.00     0.037 A 
ATOM     17  C38 RES d   1      19.058   2.467  15.656  0.00  0.00     0.017 A 
ATOM     18  S33 RES d   1      18.106   6.224  16.006  0.00  0.00     0.014 SA
ATOM     19  C35 RES d   1      18.766   4.111  17.880  0.00  0.00     0.021 A 
ATOM     20  N32 RES d   1      18.114   5.810  14.364  0.00  0.00    -0.192 NA
ATOM     21  C36 RES d   1      19.117   2.789  18.029  0.00  0.00     0.001 A 
ATOM     22  C37 RES d   1      19.260   1.977  16.910  0.00  0.00     0.001 A 
ENDBRANCH  11  14
ENDBRANCH   7   8
ENDBRANCH   6   7
BRANCH   1  23
ATOM     23  C17 RES d   1      19.762  -1.623   8.748  0.00  0.00     0.140 C 
BRANCH  23  24
ATOM     24  N16 RES d   1      18.934  -2.810   8.524  0.00  0.00    -0.287 N 
ATOM     25  C2  RES d   1      18.033  -3.230   9.420  0.00  0.00     0.231 A 
ATOM     26  O1  RES d   1      17.795  -2.690  10.479  0.00  0.00    -0.272 OA
ATOM     27  C3  RES d   1      17.354  -4.477   8.903  0.00  0.00     0.096 A 
ATOM     28  C12 RES d   1      18.037  -4.712   7.526  0.00  0.00     0.096 A 
ATOM     29  C5  RES d   1      17.796  -5.681   9.788  0.00  0.00    -0.000 C 
ATOM     30  C9  RES d   1      18.816  -6.069   7.724  0.00  0.00    -0.000 C 
ATOM     31  C14 RES d   1      19.047  -3.595   7.398  0.00  0.00     0.231 A 
ATOM     32  C8  RES d   1      17.708  -7.161   7.828  0.00  0.00     0.006 C 
ATOM     33  C11 RES d   1      19.248  -5.927   9.245  0.00  0.00     0.011 C 
ATOM     34  C7  RES d   1      17.033  -6.905   9.196  0.00  0.00     0.006 C 
ATOM     35  O15 RES d   1      19.792  -3.430   6.457  0.00  0.00    -0.272 OA
ENDBRANCH  23  24
ENDBRANCH   1  23
TORSDOF 5
ENDMDL
MODEL 9
REMARK VINA RESULT:      -8.9      4.029      6.379
REMARK  5 active torsions:
REMARK  status: ('A' for Active; 'I' for Inactive)
REMARK    1  A    between atoms: N16_12  and  C17_13 
REMARK    2  A    between atoms: C17_13  and  C18_14 
REMARK    3  A    between atoms: C24_19  and  C26_20 
REMARK    4  A    between atoms: C26_20  and  N27_21 
REMARK    5  A    between atoms: N30_24  and  C31_25 
ROOT
ATOM      1  C18 RES d   1      18.363  -2.209  10.460  0.00  0.00     0.010 C 
ATOM      2  C20 RES d   1      19.664  -1.731  11.108  0.00  0.00     0.007 C 
ATOM      3  C21 RES d   1      20.073  -2.708  12.212  0.00  0.00     0.000 C 
ATOM      4  C22 RES d   1      20.285  -4.098  11.609  0.00  0.00     0.000 C 
ATOM      5  C23 RES d   1      18.985  -4.577  10.961  0.00  0.00     0.007 C 
ATOM      6  C24 RES d   1      18.575  -3.599   9.857  0.00  0.00     0.019 C 
ENDROOT
BRANCH   6   7
ATOM      7  C26 RES d   1      17.275  -4.079   9.209  0.00  0.00     0.277 C 
BRANCH   7   8
ATOM      8  N27 RES d   1      17.570  -5.163   8.263  0.00  0.00     0.092 N 
ATOM      9  C41 RES d   1      16.333  -5.760   7.744  0.00  0.00     0.292 C 
ATOM     10  C40 RES d   1      16.677  -6.996   6.908  0.00  0.00     0.154 C 
ATOM     11  N30 RES d   1      17.658  -6.609   5.882  0.00  0.00    -0.361 N 
ATOM     12  C29 RES d   1      18.863  -5.883   6.312  0.00  0.00     0.154 C 
ATOM     13  C28 RES d   1      18.432  -4.690   7.170  0.00  0.00     0.292 C 
BRANCH  11  14
ATOM     14  C31 RES d   1      17.450  -6.923   4.538  0.00  0.00     0.145 A 
ATOM     15  C39 RES d   1      16.880  -5.951   3.618  0.00  0.00     0.029 A 
ATOM     16  C34 RES d   1      16.763  -6.478   2.318  0.00  0.00     0.037 A 
ATOM     17  C38 RES d   1      16.464  -4.620   3.831  0.00  0.00     0.017 A 
ATOM     18  S33 RES d   1      17.374  -8.131   2.418  0.00  0.00     0.014 SA
ATOM     19  C35 RES d   1      16.245  -5.713   1.282  0.00  0.00     0.021 A 
ATOM     20  N32 RES d   1      17.752  -8.087   4.069  0.00  0.00    -0.192 NA
ATOM     21  C36 RES d   1      15.843  -4.419   1.526  0.00  0.00     0.001 A 
ATOM     22  C37 RES d   1      15.958  -3.885   2.804  0.00  0.00     0.001 A 
ENDBRANCH  11  14
ENDBRANCH   7   8
ENDBRANCH   6   7
BRANCH   1  23
ATOM     23  C17 RES d   1      17.955  -1.232   9.356  0.00  0.00     0.140 C 
BRANCH  23  24
ATOM     24  N16 RES d   1      17.945   0.132   9.889  0.00  0.00    -0.287 N 
ATOM     25  C2  RES d   1      18.791   1.073   9.455  0.00  0.00     0.231 A 
ATOM     26  O1  RES d   1      19.627   0.919   8.591  0.00  0.00    -0.272 OA
ATOM     27  C3  RES d   1      18.538   2.361  10.204  0.00  0.00     0.096 A 
ATOM     28  C12 RES d   1      17.377   1.991  11.170  0.00  0.00     0.096 A 
ATOM     29  C5  RES d   1      19.762   2.643  11.126  0.00  0.00    -0.000 C 
ATOM     30  C9  RES d   1      18.031   2.112  12.600  0.00  0.00    -0.000 C 
ATOM     31  C14 RES d   1      17.094   0.532  10.895  0.00  0.00     0.231 A 
ATOM     32  C8  RES d   1      18.272   3.638  12.808  0.00  0.00     0.006 C 
ATOM     33  C11 RES d   1      19.503   1.612  12.280  0.00  0.00     0.011 C 
ATOM     34  C7  RES d   1      19.419   3.990  11.833  0.00  0.00     0.006 C 
ATOM     35  O15 RES d   1      16.251  -0.135  11.456  0.00  0.00    -0.272 OA
ENDBRANCH  23  24
ENDBRANCH   1  23
TORSDOF 5
ENDMDL
