MODEL 1
REMARK VINA RESULT:      -9.0      0.000      0.000
REMARK  3 active torsions:
REMARK  status: ('A' for Active; 'I' for Inactive)
REMARK       I    between atoms: N1_1  and  C2_2 
REMARK    1  A    between atoms: C2_2  and  C4_4 
REMARK    2  A    between atoms: N10_10  and  C11_11 
REMARK    3  A    between atoms: C14_14  and  C15_15 
ROOT
ATOM      1  C4  ZIN A   1      19.290  -1.917   6.165  0.00  0.00     0.063 A 
ATOM      2  C5  ZIN A   1      19.319  -1.104   5.042  0.00  0.00     0.019 A 
ATOM      3  C6  ZIN A   1      19.127   0.268   5.136  0.00  0.00     0.002 A 
ATOM      4  C7  ZIN A   1      18.899   0.895   6.319  0.00  0.00     0.015 A 
ATOM      5  C8  ZIN A   1      18.849   0.162   7.521  0.00  0.00     0.013 A 
ATOM      6  C9  ZIN A   1      18.645   0.481   8.852  0.00  0.00     0.132 A 
ATOM      7  N10 ZIN A   1      18.709  -0.656   9.561  0.00  0.00    -0.244 N 
ATOM      8  N26 ZIN A   1      18.956  -1.738   8.708  0.00  0.00    -0.166 NA
ATOM      9  C27 ZIN A   1      19.042  -1.297   7.472  0.00  0.00     0.104 A 
ENDROOT
BRANCH   7  10
ATOM     10  C11 ZIN A   1      18.551  -0.748  10.950  0.00  0.00     0.058 A 
ATOM     11  C25 ZIN A   1      17.567  -0.006  11.588  0.00  0.00     0.032 A 
ATOM     12  C24 ZIN A   1      17.409  -0.103  12.958  0.00  0.00     0.010 A 
ATOM     13  C14 ZIN A   1      18.237  -0.931  13.693  0.00  0.00    -0.052 A 
ATOM     14  C13 ZIN A   1      19.222  -1.667  13.061  0.00  0.00     0.010 A 
ATOM     15  C12 ZIN A   1      19.381  -1.579  11.692  0.00  0.00     0.032 A 
BRANCH  13  16
ATOM     16  C15 ZIN A   1      18.067  -1.029  15.187  0.00  0.00     0.044 C 
ATOM     17  C23 ZIN A   1      19.422  -1.314  15.839  0.00  0.00     0.241 C 
ATOM     18  N20 ZIN A   1      19.259  -1.407  17.294  0.00  0.00    -0.074 N 
ATOM     19  C19 ZIN A   1      18.797  -0.119  17.828  0.00  0.00     0.232 C 
ATOM     20  H21 ZIN A   1      20.144  -1.646  17.717  0.00  0.00     0.277 HD
ATOM     21  H22 ZIN A   1      18.580  -2.121  17.509  0.00  0.00     0.277 HD
ATOM     22  C18 ZIN A   1      17.419   0.211  17.253  0.00  0.00     0.028 C 
ATOM     23  C17 ZIN A   1      17.515   0.293  15.726  0.00  0.00     0.013 C 
ENDBRANCH  13  16
ENDBRANCH   7  10
BRANCH   1  24
ATOM     24  C2  ZIN A   1      19.496  -3.369   6.049  0.00  0.00     0.251 C 
ATOM     25  N1  ZIN A   1      20.357  -3.996   6.875  0.00  0.00    -0.366 N 
ATOM     26  H28 ZIN A   1      20.492  -4.953   6.799  0.00  0.00     0.159 HD
ATOM     27  H29 ZIN A   1      20.843  -3.489   7.544  0.00  0.00     0.159 HD
ATOM     28  O3  ZIN A   1      18.889  -4.004   5.207  0.00  0.00    -0.268 OA
ENDBRANCH   1  24
TORSDOF 3
ENDMDL
MODEL 2
REMARK VINA RESULT:      -8.8      4.378      9.157
REMARK  3 active torsions:
REMARK  status: ('A' for Active; 'I' for Inactive)
REMARK       I    between atoms: N1_1  and  C2_2 
REMARK    1  A    between atoms: C2_2  and  C4_4 
REMARK    2  A    between atoms: N10_10  and  C11_11 
REMARK    3  A    between atoms: C14_14  and  C15_15 
ROOT
ATOM      1  C4  ZIN A   1      18.350   3.964  15.356  0.00  0.00     0.063 A 
ATOM      2  C5  ZIN A   1      17.777   5.086  15.936  0.00  0.00     0.019 A 
ATOM      3  C6  ZIN A   1      16.998   5.965  15.194  0.00  0.00     0.002 A 
ATOM      4  C7  ZIN A   1      16.752   5.786  13.871  0.00  0.00     0.015 A 
ATOM      5  C8  ZIN A   1      17.287   4.678  13.185  0.00  0.00     0.013 A 
ATOM      6  C9  ZIN A   1      17.231   4.215  11.883  0.00  0.00     0.132 A 
ATOM      7  N10 ZIN A   1      17.952   3.084  11.818  0.00  0.00    -0.244 N 
ATOM      8  N26 ZIN A   1      18.491   2.789  13.075  0.00  0.00    -0.166 NA
ATOM      9  C27 ZIN A   1      18.124   3.721  13.927  0.00  0.00     0.104 A 
ENDROOT
BRANCH   7  10
ATOM     10  C11 ZIN A   1      18.138   2.315  10.662  0.00  0.00     0.058 A 
ATOM     11  C25 ZIN A   1      18.950   2.783   9.638  0.00  0.00     0.032 A 
ATOM     12  C24 ZIN A   1      19.136   2.019   8.502  0.00  0.00     0.010 A 
ATOM     13  C14 ZIN A   1      18.507   0.794   8.380  0.00  0.00    -0.052 A 
ATOM     14  C13 ZIN A   1      17.693   0.328   9.395  0.00  0.00     0.010 A 
ATOM     15  C12 ZIN A   1      17.507   1.083  10.536  0.00  0.00     0.032 A 
BRANCH  13  16
ATOM     16  C15 ZIN A   1      18.707  -0.033   7.136  0.00  0.00     0.044 C 
ATOM     17  C23 ZIN A   1      17.396  -0.733   6.771  0.00  0.00     0.241 C 
ATOM     18  N20 ZIN A   1      17.588  -1.537   5.558  0.00  0.00    -0.074 N 
ATOM     19  C19 ZIN A   1      17.929  -0.662   4.429  0.00  0.00     0.232 C 
ATOM     20  H21 ZIN A   1      16.737  -2.037   5.349  0.00  0.00     0.277 HD
ATOM     21  H22 ZIN A   1      18.337  -2.195   5.709  0.00  0.00     0.277 HD
ATOM     22  C18 ZIN A   1      19.260   0.039   4.705  0.00  0.00     0.028 C 
ATOM     23  C17 ZIN A   1      19.135   0.876   5.981  0.00  0.00     0.013 C 
ENDBRANCH  13  16
ENDBRANCH   7  10
BRANCH   1  24
ATOM     24  C2  ZIN A   1      19.173   3.042  16.155  0.00  0.00     0.251 C 
ATOM     25  N1  ZIN A   1      19.066   1.711  15.971  0.00  0.00    -0.366 N 
ATOM     26  H28 ZIN A   1      19.609   1.104  16.497  0.00  0.00     0.159 HD
ATOM     27  H29 ZIN A   1      18.445   1.361  15.313  0.00  0.00     0.159 HD
ATOM     28  O3  ZIN A   1      19.949   3.481  16.983  0.00  0.00    -0.268 OA
ENDBRANCH   1  24
TORSDOF 3
ENDMDL
MODEL 3
REMARK VINA RESULT:      -8.8      3.549      9.099
REMARK  3 active torsions:
REMARK  status: ('A' for Active; 'I' for Inactive)
REMARK       I    between atoms: N1_1  and  C2_2 
REMARK    1  A    between atoms: C2_2  and  C4_4 
REMARK    2  A    between atoms: N10_10  and  C11_11 
REMARK    3  A    between atoms: C14_14  and  C15_15 
ROOT
ATOM      1  C4  ZIN A   1      19.099   1.432  16.493  0.00  0.00     0.063 A 
ATOM      2  C5  ZIN A   1      19.192   0.755  17.700  0.00  0.00     0.019 A 
ATOM      3  C6  ZIN A   1      19.170  -0.632  17.755  0.00  0.00     0.002 A 
ATOM      4  C7  ZIN A   1      19.054  -1.406  16.646  0.00  0.00     0.015 A 
ATOM      5  C8  ZIN A   1      18.952  -0.819  15.369  0.00  0.00     0.013 A 
ATOM      6  C9  ZIN A   1      18.828  -1.303  14.079  0.00  0.00     0.132 A 
ATOM      7  N10 ZIN A   1      18.775  -0.249  13.249  0.00  0.00    -0.244 N 
ATOM      8  N26 ZIN A   1      18.865   0.940  13.982  0.00  0.00    -0.166 NA
ATOM      9  C27 ZIN A   1      18.966   0.649  15.260  0.00  0.00     0.104 A 
ENDROOT
BRANCH   7  10
ATOM     10  C11 ZIN A   1      18.649  -0.328  11.856  0.00  0.00     0.058 A 
ATOM     11  C25 ZIN A   1      19.747  -0.659  11.075  0.00  0.00     0.032 A 
ATOM     12  C24 ZIN A   1      19.618  -0.742   9.702  0.00  0.00     0.010 A 
ATOM     13  C14 ZIN A   1      18.397  -0.485   9.105  0.00  0.00    -0.052 A 
ATOM     14  C13 ZIN A   1      17.303  -0.150   9.880  0.00  0.00     0.010 A 
ATOM     15  C12 ZIN A   1      17.424  -0.071  11.253  0.00  0.00     0.032 A 
BRANCH  13  16
ATOM     16  C15 ZIN A   1      18.261  -0.570   7.607  0.00  0.00     0.044 C 
ATOM     17  C23 ZIN A   1      18.706   0.753   6.977  0.00  0.00     0.241 C 
ATOM     18  N20 ZIN A   1      18.577   0.671   5.518  0.00  0.00    -0.074 N 
ATOM     19  C19 ZIN A   1      19.474  -0.367   4.995  0.00  0.00     0.232 C 
ATOM     20  H21 ZIN A   1      18.821   1.561   5.109  0.00  0.00     0.277 HD
ATOM     21  H22 ZIN A   1      17.624   0.442   5.279  0.00  0.00     0.277 HD
ATOM     22  C18 ZIN A   1      19.058  -1.732   5.548  0.00  0.00     0.028 C 
ATOM     23  C17 ZIN A   1      19.143  -1.704   7.077  0.00  0.00     0.013 C 
ENDBRANCH  13  16
ENDBRANCH   7  10
BRANCH   1  24
ATOM     24  C2  ZIN A   1      19.124   2.902  16.452  0.00  0.00     0.251 C 
ATOM     25  N1  ZIN A   1      18.111   3.579  15.875  0.00  0.00    -0.366 N 
ATOM     26  H28 ZIN A   1      18.128   4.548  15.847  0.00  0.00     0.159 HD
ATOM     27  H29 ZIN A   1      17.366   3.095  15.484  0.00  0.00     0.159 HD
ATOM     28  O3  ZIN A   1      20.061   3.509  16.938  0.00  0.00    -0.268 OA
ENDBRANCH   1  24
TORSDOF 3
ENDMDL
MODEL 4
REMARK VINA RESULT:      -8.8      4.222      8.820
REMARK  3 active torsions:
REMARK  status: ('A' for Active; 'I' for Inactive)
REMARK       I    between atoms: N1_1  and  C2_2 
REMARK    1  A    between atoms: C2_2  and  C4_4 
REMARK    2  A    between atoms: N10_10  and  C11_11 
REMARK    3  A    between atoms: C14_14  and  C15_15 
ROOT
ATOM      1  C4  ZIN A   1      17.960   3.919  14.490  0.00  0.00     0.063 A 
ATOM      2  C5  ZIN A   1      17.395   5.101  14.945  0.00  0.00     0.019 A 
ATOM      3  C6  ZIN A   1      16.740   5.970  14.082  0.00  0.00     0.002 A 
ATOM      4  C7  ZIN A   1      16.615   5.723  12.752  0.00  0.00     0.015 A 
ATOM      5  C8  ZIN A   1      17.154   4.550  12.187  0.00  0.00     0.013 A 
ATOM      6  C9  ZIN A   1      17.199   4.012  10.913  0.00  0.00     0.132 A 
ATOM      7  N10 ZIN A   1      17.860   2.846  10.984  0.00  0.00    -0.244 N 
ATOM      8  N26 ZIN A   1      18.258   2.602  12.303  0.00  0.00    -0.166 NA
ATOM      9  C27 ZIN A   1      17.861   3.601  13.062  0.00  0.00     0.104 A 
ENDROOT
BRANCH   7  10
ATOM     10  C11 ZIN A   1      18.116   1.999   9.898  0.00  0.00     0.058 A 
ATOM     11  C25 ZIN A   1      18.975   2.406   8.885  0.00  0.00     0.032 A 
ATOM     12  C24 ZIN A   1      19.229   1.566   7.818  0.00  0.00     0.010 A 
ATOM     13  C14 ZIN A   1      18.622   0.326   7.753  0.00  0.00    -0.052 A 
ATOM     14  C13 ZIN A   1      17.763  -0.080   8.756  0.00  0.00     0.010 A 
ATOM     15  C12 ZIN A   1      17.508   0.752   9.829  0.00  0.00     0.032 A 
BRANCH  13  16
ATOM     16  C15 ZIN A   1      18.897  -0.585   6.584  0.00  0.00     0.044 C 
ATOM     17  C23 ZIN A   1      19.068  -2.021   7.083  0.00  0.00     0.241 C 
ATOM     18  N20 ZIN A   1      19.332  -2.910   5.946  0.00  0.00    -0.074 N 
ATOM     19  C19 ZIN A   1      18.179  -2.914   5.037  0.00  0.00     0.232 C 
ATOM     20  H21 ZIN A   1      19.495  -3.847   6.283  0.00  0.00     0.277 HD
ATOM     21  H22 ZIN A   1      20.148  -2.585   5.451  0.00  0.00     0.277 HD
ATOM     22  C18 ZIN A   1      17.976  -1.512   4.459  0.00  0.00     0.028 C 
ATOM     23  C17 ZIN A   1      17.723  -0.526   5.603  0.00  0.00     0.013 C 
ENDBRANCH  13  16
ENDBRANCH   7  10
BRANCH   1  24
ATOM     24  C2  ZIN A   1      18.649   3.009  15.418  0.00  0.00     0.251 C 
ATOM     25  N1  ZIN A   1      19.492   2.071  14.941  0.00  0.00    -0.366 N 
ATOM     26  H28 ZIN A   1      19.946   1.471  15.552  0.00  0.00     0.159 HD
ATOM     27  H29 ZIN A   1      19.640   1.994  13.985  0.00  0.00     0.159 HD
ATOM     28  O3  ZIN A   1      18.460   3.103  16.616  0.00  0.00    -0.268 OA
ENDBRANCH   1  24
TORSDOF 3
ENDMDL
MODEL 5
REMARK VINA RESULT:      -8.5      1.611      2.565
REMARK  3 active torsions:
REMARK  status: ('A' for Active; 'I' for Inactive)
REMARK       I    between atoms: N1_1  and  C2_2 
REMARK    1  A    between atoms: C2_2  and  C4_4 
REMARK    2  A    between atoms: N10_10  and  C11_11 
REMARK    3  A    between atoms: C14_14  and  C15_15 
ROOT
ATOM      1  C4  ZIN A   1      19.053  -2.337   6.245  0.00  0.00     0.063 A 
ATOM      2  C5  ZIN A   1      19.039  -3.481   5.462  0.00  0.00     0.019 A 
ATOM      3  C6  ZIN A   1      18.810  -4.734   6.016  0.00  0.00     0.002 A 
ATOM      4  C7  ZIN A   1      18.589  -4.917   7.344  0.00  0.00     0.015 A 
ATOM      5  C8  ZIN A   1      18.582  -3.820   8.228  0.00  0.00     0.013 A 
ATOM      6  C9  ZIN A   1      18.394  -3.665   9.589  0.00  0.00     0.132 A 
ATOM      7  N10 ZIN A   1      18.502  -2.357   9.871  0.00  0.00    -0.244 N 
ATOM      8  N26 ZIN A   1      18.762  -1.636   8.701  0.00  0.00    -0.166 NA
ATOM      9  C27 ZIN A   1      18.825  -2.472   7.688  0.00  0.00     0.104 A 
ENDROOT
BRANCH   7  10
ATOM     10  C11 ZIN A   1      18.375  -1.797  11.149  0.00  0.00     0.058 A 
ATOM     11  C25 ZIN A   1      17.457  -0.780  11.375  0.00  0.00     0.032 A 
ATOM     12  C24 ZIN A   1      17.329  -0.233  12.637  0.00  0.00     0.010 A 
ATOM     13  C14 ZIN A   1      18.122  -0.692  13.673  0.00  0.00    -0.052 A 
ATOM     14  C13 ZIN A   1      19.041  -1.700  13.451  0.00  0.00     0.010 A 
ATOM     15  C12 ZIN A   1      19.169  -2.255  12.193  0.00  0.00     0.032 A 
BRANCH  13  16
ATOM     16  C15 ZIN A   1      17.985  -0.088  15.048  0.00  0.00     0.044 C 
ATOM     17  C23 ZIN A   1      18.109  -1.189  16.104  0.00  0.00     0.241 C 
ATOM     18  N20 ZIN A   1      17.979  -0.603  17.443  0.00  0.00    -0.074 N 
ATOM     19  C19 ZIN A   1      19.079   0.339  17.684  0.00  0.00     0.232 C 
ATOM     20  H21 ZIN A   1      18.009  -1.337  18.135  0.00  0.00     0.277 HD
ATOM     21  H22 ZIN A   1      17.099  -0.115  17.510  0.00  0.00     0.277 HD
ATOM     22  C18 ZIN A   1      18.991   1.498  16.689  0.00  0.00     0.028 C 
ATOM     23  C17 ZIN A   1      19.091   0.947  15.263  0.00  0.00     0.013 C 
ENDBRANCH  13  16
ENDBRANCH   7  10
BRANCH   1  24
ATOM     24  C2  ZIN A   1      19.296  -1.017   5.643  0.00  0.00     0.251 C 
ATOM     25  N1  ZIN A   1      18.783   0.091   6.215  0.00  0.00    -0.366 N 
ATOM     26  H28 ZIN A   1      18.943   0.961   5.818  0.00  0.00     0.159 HD
ATOM     27  H29 ZIN A   1      18.249   0.016   7.022  0.00  0.00     0.159 HD
ATOM     28  O3  ZIN A   1      19.962  -0.924   4.628  0.00  0.00    -0.268 OA
ENDBRANCH   1  24
TORSDOF 3
ENDMDL
MODEL 6
REMARK VINA RESULT:      -8.5      4.011      9.144
REMARK  3 active torsions:
REMARK  status: ('A' for Active; 'I' for Inactive)
REMARK       I    between atoms: N1_1  and  C2_2 
REMARK    1  A    between atoms: C2_2  and  C4_4 
REMARK    2  A    between atoms: N10_10  and  C11_11 
REMARK    3  A    between atoms: C14_14  and  C15_15 
ROOT
ATOM      1  C4  ZIN A   1      18.913   2.448  16.930  0.00  0.00     0.063 A 
ATOM      2  C5  ZIN A   1      18.712   3.584  17.698  0.00  0.00     0.019 A 
ATOM      3  C6  ZIN A   1      18.425   4.811  17.115  0.00  0.00     0.002 A 
ATOM      4  C7  ZIN A   1      18.326   4.976  15.770  0.00  0.00     0.015 A 
ATOM      5  C8  ZIN A   1      18.512   3.885  14.898  0.00  0.00     0.013 A 
ATOM      6  C9  ZIN A   1      18.480   3.715  13.526  0.00  0.00     0.132 A 
ATOM      7  N10 ZIN A   1      18.738   2.424  13.266  0.00  0.00    -0.244 N 
ATOM      8  N26 ZIN A   1      18.944   1.728  14.462  0.00  0.00    -0.166 NA
ATOM      9  C27 ZIN A   1      18.824   2.565  15.470  0.00  0.00     0.104 A 
ENDROOT
BRANCH   7  10
ATOM     10  C11 ZIN A   1      18.796   1.857  11.986  0.00  0.00     0.058 A 
ATOM     11  C25 ZIN A   1      18.611   0.491  11.821  0.00  0.00     0.032 A 
ATOM     12  C24 ZIN A   1      18.663  -0.064  10.557  0.00  0.00     0.010 A 
ATOM     13  C14 ZIN A   1      18.907   0.738   9.458  0.00  0.00    -0.052 A 
ATOM     14  C13 ZIN A   1      19.097   2.098   9.619  0.00  0.00     0.010 A 
ATOM     15  C12 ZIN A   1      19.041   2.660  10.879  0.00  0.00     0.032 A 
BRANCH  13  16
ATOM     16  C15 ZIN A   1      18.969   0.128   8.081  0.00  0.00     0.044 C 
ATOM     17  C23 ZIN A   1      17.745  -0.764   7.861  0.00  0.00     0.241 C 
ATOM     18  N20 ZIN A   1      17.802  -1.356   6.520  0.00  0.00    -0.074 N 
ATOM     19  C19 ZIN A   1      17.741  -0.297   5.504  0.00  0.00     0.232 C 
ATOM     20  H21 ZIN A   1      17.022  -1.984   6.396  0.00  0.00     0.277 HD
ATOM     21  H22 ZIN A   1      18.665  -1.869   6.418  0.00  0.00     0.277 HD
ATOM     22  C18 ZIN A   1      18.965   0.611   5.633  0.00  0.00     0.028 C 
ATOM     23  C17 ZIN A   1      18.981   1.241   7.030  0.00  0.00     0.013 C 
ENDBRANCH  13  16
ENDBRANCH   7  10
BRANCH   1  24
ATOM     24  C2  ZIN A   1      19.216   1.155  17.563  0.00  0.00     0.251 C 
ATOM     25  N1  ZIN A   1      18.720   0.015  17.041  0.00  0.00    -0.366 N 
ATOM     26  H28 ZIN A   1      18.920  -0.837  17.459  0.00  0.00     0.159 HD
ATOM     27  H29 ZIN A   1      18.161   0.049  16.249  0.00  0.00     0.159 HD
ATOM     28  O3  ZIN A   1      19.915   1.114  18.559  0.00  0.00    -0.268 OA
ENDBRANCH   1  24
TORSDOF 3
ENDMDL
MODEL 7
REMARK VINA RESULT:      -7.9      4.414      9.319
REMARK  3 active torsions:
REMARK  status: ('A' for Active; 'I' for Inactive)
REMARK       I    between atoms: N1_1  and  C2_2 
REMARK    1  A    between atoms: C2_2  and  C4_4 
REMARK    2  A    between atoms: N10_10  and  C11_11 
REMARK    3  A    between atoms: C14_14  and  C15_15 
ROOT
ATOM      1  C4  ZIN A   1      19.040   4.452  14.984  0.00  0.00     0.063 A 
ATOM      2  C5  ZIN A   1      19.148   4.046  16.305  0.00  0.00     0.019 A 
ATOM      3  C6  ZIN A   1      19.124   2.702  16.654  0.00  0.00     0.002 A 
ATOM      4  C7  ZIN A   1      18.994   1.710  15.735  0.00  0.00     0.015 A 
ATOM      5  C8  ZIN A   1      18.877   2.014  14.364  0.00  0.00     0.013 A 
ATOM      6  C9  ZIN A   1      18.736   1.268  13.207  0.00  0.00     0.132 A 
ATOM      7  N10 ZIN A   1      18.675   2.122  12.174  0.00  0.00    -0.244 N 
ATOM      8  N26 ZIN A   1      18.775   3.439  12.636  0.00  0.00    -0.166 NA
ATOM      9  C27 ZIN A   1      18.892   3.425  13.946  0.00  0.00     0.104 A 
ENDROOT
BRANCH   7  10
ATOM     10  C11 ZIN A   1      18.531   1.750  10.831  0.00  0.00     0.058 A 
ATOM     11  C25 ZIN A   1      19.175   2.473   9.836  0.00  0.00     0.032 A 
ATOM     12  C24 ZIN A   1      19.036   2.100   8.513  0.00  0.00     0.010 A 
ATOM     13  C14 ZIN A   1      18.248   1.015   8.179  0.00  0.00    -0.052 A 
ATOM     14  C13 ZIN A   1      17.600   0.296   9.166  0.00  0.00     0.010 A 
ATOM     15  C12 ZIN A   1      17.740   0.660  10.491  0.00  0.00     0.032 A 
BRANCH  13  16
ATOM     16  C15 ZIN A   1      18.092   0.615   6.734  0.00  0.00     0.044 C 
ATOM     17  C23 ZIN A   1      19.400   0.884   5.985  0.00  0.00     0.241 C 
ATOM     18  N20 ZIN A   1      19.252   0.492   4.579  0.00  0.00    -0.074 N 
ATOM     19  C19 ZIN A   1      19.002  -0.952   4.487  0.00  0.00     0.232 C 
ATOM     20  H21 ZIN A   1      20.098   0.718   4.077  0.00  0.00     0.277 HD
ATOM     21  H22 ZIN A   1      18.476   0.993   4.173  0.00  0.00     0.277 HD
ATOM     22  C18 ZIN A   1      17.679  -1.290   5.176  0.00  0.00     0.028 C 
ATOM     23  C17 ZIN A   1      17.758  -0.877   6.650  0.00  0.00     0.013 C 
ENDBRANCH  13  16
ENDBRANCH   7  10
BRANCH   1  24
ATOM     24  C2  ZIN A   1      19.068   5.880  14.631  0.00  0.00     0.251 C 
ATOM     25  N1  ZIN A   1      17.913   6.553  14.456  0.00  0.00    -0.366 N 
ATOM     26  H28 ZIN A   1      17.931   7.494  14.224  0.00  0.00     0.159 HD
ATOM     27  H29 ZIN A   1      17.064   6.095  14.560  0.00  0.00     0.159 HD
ATOM     28  O3  ZIN A   1      20.133   6.453  14.496  0.00  0.00    -0.268 OA
ENDBRANCH   1  24
TORSDOF 3
ENDMDL
MODEL 8
REMARK VINA RESULT:      -7.9      2.623      3.770
REMARK  3 active torsions:
REMARK  status: ('A' for Active; 'I' for Inactive)
REMARK       I    between atoms: N1_1  and  C2_2 
REMARK    1  A    between atoms: C2_2  and  C4_4 
REMARK    2  A    between atoms: N10_10  and  C11_11 
REMARK    3  A    between atoms: C14_14  and  C15_15 
ROOT
ATOM      1  C4  ZIN A   1      18.543  -4.256   7.884  0.00  0.00     0.063 A 
ATOM      2  C5  ZIN A   1      18.343  -5.597   7.590  0.00  0.00     0.019 A 
ATOM      3  C6  ZIN A   1      17.956  -6.502   8.569  0.00  0.00     0.002 A 
ATOM      4  C7  ZIN A   1      17.753  -6.138   9.862  0.00  0.00     0.015 A 
ATOM      5  C8  ZIN A   1      17.929  -4.800  10.267  0.00  0.00     0.013 A 
ATOM      6  C9  ZIN A   1      17.807  -4.119  11.464  0.00  0.00     0.132 A 
ATOM      7  N10 ZIN A   1      18.108  -2.831  11.235  0.00  0.00    -0.244 N 
ATOM      8  N26 ZIN A   1      18.431  -2.649   9.886  0.00  0.00    -0.166 NA
ATOM      9  C27 ZIN A   1      18.344  -3.805   9.265  0.00  0.00     0.104 A 
ENDROOT
BRANCH   7  10
ATOM     10  C11 ZIN A   1      18.101  -1.819  12.204  0.00  0.00     0.058 A 
ATOM     11  C25 ZIN A   1      18.810  -1.983  13.386  0.00  0.00     0.032 A 
ATOM     12  C24 ZIN A   1      18.806  -0.980  14.337  0.00  0.00     0.010 A 
ATOM     13  C14 ZIN A   1      18.089   0.181  14.116  0.00  0.00    -0.052 A 
ATOM     14  C13 ZIN A   1      17.377   0.345  12.943  0.00  0.00     0.010 A 
ATOM     15  C12 ZIN A   1      17.382  -0.651  11.985  0.00  0.00     0.032 A 
BRANCH  13  16
ATOM     16  C15 ZIN A   1      18.081   1.269  15.159  0.00  0.00     0.044 C 
ATOM     17  C23 ZIN A   1      19.047   0.903  16.288  0.00  0.00     0.241 C 
ATOM     18  N20 ZIN A   1      19.043   1.963  17.303  0.00  0.00    -0.074 N 
ATOM     19  C19 ZIN A   1      19.535   3.216  16.717  0.00  0.00     0.232 C 
ATOM     20  H21 ZIN A   1      19.641   1.695  18.071  0.00  0.00     0.277 HD
ATOM     21  H22 ZIN A   1      18.102   2.098  17.641  0.00  0.00     0.277 HD
ATOM     22  C18 ZIN A   1      18.588   3.671  15.605  0.00  0.00     0.028 C 
ATOM     23  C17 ZIN A   1      18.524   2.589  14.522  0.00  0.00     0.013 C 
ENDBRANCH  13  16
ENDBRANCH   7  10
BRANCH   1  24
ATOM     24  C2  ZIN A   1      18.952  -3.309   6.834  0.00  0.00     0.251 C 
ATOM     25  N1  ZIN A   1      18.163  -2.259   6.529  0.00  0.00    -0.366 N 
ATOM     26  H28 ZIN A   1      18.433  -1.635   5.838  0.00  0.00     0.159 HD
ATOM     27  H29 ZIN A   1      17.324  -2.131   6.999  0.00  0.00     0.159 HD
ATOM     28  O3  ZIN A   1      20.002  -3.473   6.242  0.00  0.00    -0.268 OA
ENDBRANCH   1  24
TORSDOF 3
ENDMDL
MODEL 9
REMARK VINA RESULT:      -7.7      3.764      8.732
REMARK  3 active torsions:
REMARK  status: ('A' for Active; 'I' for Inactive)
REMARK       I    between atoms: N1_1  and  C2_2 
REMARK    1  A    between atoms: C2_2  and  C4_4 
REMARK    2  A    between atoms: N10_10  and  C11_11 
REMARK    3  A    between atoms: C14_14  and  C15_15 
ROOT
ATOM      1  C4  ZIN A   1      18.926   2.345  15.982  0.00  0.00     0.063 A 
ATOM      2  C5  ZIN A   1      19.000   2.397  17.366  0.00  0.00     0.019 A 
ATOM      3  C6  ZIN A   1      18.993   1.241  18.135  0.00  0.00     0.002 A 
ATOM      4  C7  ZIN A   1      18.913  -0.000  17.589  0.00  0.00     0.015 A 
ATOM      5  C8  ZIN A   1      18.834  -0.165  16.192  0.00  0.00     0.013 A 
ATOM      6  C9  ZIN A   1      18.746  -1.252  15.340  0.00  0.00     0.132 A 
ATOM      7  N10 ZIN A   1      18.700  -0.786  14.083  0.00  0.00    -0.244 N 
ATOM      8  N26 ZIN A   1      18.758   0.613  14.090  0.00  0.00    -0.166 NA
ATOM      9  C27 ZIN A   1      18.833   1.031  15.335  0.00  0.00     0.104 A 
ENDROOT
BRANCH   7  10
ATOM     10  C11 ZIN A   1      18.608  -1.580  12.933  0.00  0.00     0.058 A 
ATOM     11  C25 ZIN A   1      17.501  -1.475  12.102  0.00  0.00     0.032 A 
ATOM     12  C24 ZIN A   1      17.415  -2.256  10.965  0.00  0.00     0.010 A 
ATOM     13  C14 ZIN A   1      18.425  -3.149  10.661  0.00  0.00    -0.052 A 
ATOM     14  C13 ZIN A   1      19.526  -3.261  11.489  0.00  0.00     0.010 A 
ATOM     15  C12 ZIN A   1      19.621  -2.479  12.624  0.00  0.00     0.032 A 
BRANCH  13  16
ATOM     16  C15 ZIN A   1      18.325  -4.004   9.424  0.00  0.00     0.044 C 
ATOM     17  C23 ZIN A   1      18.825  -3.213   8.213  0.00  0.00     0.241 C 
ATOM     18  N20 ZIN A   1      18.731  -4.045   7.008  0.00  0.00    -0.074 N 
ATOM     19  C19 ZIN A   1      19.609  -5.215   7.140  0.00  0.00     0.232 C 
ATOM     20  H21 ZIN A   1      19.012  -3.505   6.204  0.00  0.00     0.277 HD
ATOM     21  H22 ZIN A   1      17.778  -4.354   6.889  0.00  0.00     0.277 HD
ATOM     22  C18 ZIN A   1      19.138  -6.083   8.309  0.00  0.00     0.028 C 
ATOM     23  C17 ZIN A   1      19.185  -5.259   9.599  0.00  0.00     0.013 C 
ENDBRANCH  13  16
ENDBRANCH   7  10
BRANCH   1  24
ATOM     24  C2  ZIN A   1      18.935   3.579  15.181  0.00  0.00     0.251 C 
ATOM     25  N1  ZIN A   1      19.744   3.681  14.108  0.00  0.00    -0.366 N 
ATOM     26  H28 ZIN A   1      19.750   4.494  13.580  0.00  0.00     0.159 HD
ATOM     27  H29 ZIN A   1      20.323   2.941  13.866  0.00  0.00     0.159 HD
ATOM     28  O3  ZIN A   1      18.211   4.508  15.487  0.00  0.00    -0.268 OA
ENDBRANCH   1  24
TORSDOF 3
ENDMDL
