MODEL 1
REMARK VINA RESULT:      -7.6      0.000      0.000
REMARK  16 active torsions:
REMARK  status: ('A' for Active; 'I' for Inactive)
REMARK    1  A    between atoms: C2_2  and  C4_4 
REMARK    2  A    between atoms: C4_4  and  N5_5 
REMARK    3  A    between atoms: N5_5  and  C6_6 
REMARK    4  A    between atoms: N5_5  and  S33_30 
REMARK    5  A    between atoms: C6_6  and  C7_7 
REMARK    6  A    between atoms: C7_7  and  O9_8 
REMARK    7  A    between atoms: C7_7  and  C14_13 
REMARK    8  A    between atoms: O9_8  and  P10_9 
REMARK    9  A    between atoms: P10_9  and  O13_12 
REMARK   10  A    between atoms: C14_13  and  C16_14 
REMARK   11  A    between atoms: C14_13  and  N23_21 
REMARK   12  A    between atoms: C16_14  and  C17_15 
REMARK       I    between atoms: N23_21  and  C24_22 
REMARK   13  A    between atoms: C24_22  and  O26_24 
REMARK   14  A    between atoms: O26_24  and  C27_25 
REMARK   15  A    between atoms: S33_30  and  C36_33 
REMARK   16  A    between atoms: C39_36  and  N40_37 
ROOT
ATOM      1  C7  ZIN A   1      18.546  -1.657   8.162  0.00  0.00     0.176 C 
ENDROOT
BRANCH   1   2
ATOM      2  C6  ZIN A   1      17.751  -2.956   8.313  0.00  0.00     0.170 C 
BRANCH   2   3
ATOM      3  N5  ZIN A   1      18.677  -4.091   8.362  0.00  0.00    -0.304 N 
BRANCH   3   4
ATOM      4  C4  ZIN A   1      18.981  -4.732   9.644  0.00  0.00     0.139 C 
BRANCH   4   5
ATOM      5  C2  ZIN A   1      17.677  -5.153  10.325  0.00  0.00    -0.004 C 
ATOM      6  C1  ZIN A   1      17.172  -6.455   9.699  0.00  0.00     0.011 C 
ATOM      7  C3  ZIN A   1      17.930  -5.371  11.819  0.00  0.00     0.011 C 
ENDBRANCH   4   5
ENDBRANCH   3   4
BRANCH   3   8
ATOM      8  S33 ZIN A   1      19.378  -4.649   6.970  0.00  0.00     0.260 S 
ATOM      9  O34 ZIN A   1      20.310  -3.655   6.564  0.00  0.00    -0.200 OA
ATOM     10  O35 ZIN A   1      19.740  -6.000   7.217  0.00  0.00    -0.200 OA
BRANCH   8  11
ATOM     11  C36 ZIN A   1      18.123  -4.687   5.734  0.00  0.00     0.079 A 
ATOM     12  C42 ZIN A   1      18.199  -3.836   4.646  0.00  0.00     0.027 A 
ATOM     13  C41 ZIN A   1      17.220  -3.868   3.672  0.00  0.00     0.030 A 
ATOM     14  C39 ZIN A   1      16.152  -4.749   3.793  0.00  0.00     0.025 A 
ATOM     15  C38 ZIN A   1      16.075  -5.598   4.888  0.00  0.00     0.030 A 
ATOM     16  C37 ZIN A   1      17.061  -5.565   5.855  0.00  0.00     0.027 A 
BRANCH  14  17
ATOM     17  N40 ZIN A   1      15.157  -4.779   2.812  0.00  0.00    -0.399 N 
ATOM     18  H71 ZIN A   1      14.285  -4.394   2.994  0.00  0.00     0.156 HD
ATOM     19  H72 ZIN A   1      15.338  -5.185   1.950  0.00  0.00     0.156 HD
ENDBRANCH  14  17
ENDBRANCH   8  11
ENDBRANCH   3   8
ENDBRANCH   2   3
ENDBRANCH   1   2
BRANCH   1  20
ATOM     20  O9  ZIN A   1      17.899  -0.810   7.210  0.00  0.00    -0.281 OA
BRANCH  20  21
ATOM     21  P10 ZIN A   1      18.653  -0.200   5.925  0.00  0.00     0.406 P 
ATOM     22  O11 ZIN A   1      17.662  -0.104   4.743  0.00  0.00    -0.624 OA
ATOM     23  O12 ZIN A   1      19.190   1.208   6.264  0.00  0.00    -0.624 OA
BRANCH  21  24
ATOM     24  O13 ZIN A   1      19.881  -1.159   5.519  0.00  0.00    -0.300 OA
ATOM     25  H54 ZIN A   1      19.836  -1.493   4.613  0.00  0.00     0.223 HD
ENDBRANCH  21  24
ENDBRANCH  20  21
ENDBRANCH   1  20
BRANCH   1  26
ATOM     26  C14 ZIN A   1      18.618  -0.944   9.514  0.00  0.00     0.122 C 
BRANCH  26  27
ATOM     27  C16 ZIN A   1      17.545  -1.510  10.446  0.00  0.00     0.066 C 
BRANCH  27  28
ATOM     28  C17 ZIN A   1      17.941  -1.258  11.879  0.00  0.00    -0.056 A 
ATOM     29  C22 ZIN A   1      18.997  -1.953  12.437  0.00  0.00     0.007 A 
ATOM     30  C21 ZIN A   1      19.362  -1.720  13.749  0.00  0.00     0.001 A 
ATOM     31  C20 ZIN A   1      18.664  -0.798  14.507  0.00  0.00     0.000 A 
ATOM     32  C19 ZIN A   1      17.604  -0.107  13.950  0.00  0.00     0.001 A 
ATOM     33  C18 ZIN A   1      17.242  -0.337  12.637  0.00  0.00     0.007 A 
ENDBRANCH  27  28
ENDBRANCH  26  27
BRANCH  26  34
ATOM     34  N23 ZIN A   1      18.391   0.492   9.322  0.00  0.00    -0.329 N 
ATOM     35  C24 ZIN A   1      19.178   1.387   9.948  0.00  0.00     0.361 C 
ATOM     36  O25 ZIN A   1      20.077   1.006  10.672  0.00  0.00    -0.238 OA
ATOM     37  H62 ZIN A   1      17.673   0.796   8.745  0.00  0.00     0.165 HD
BRANCH  35  38
ATOM     38  O26 ZIN A   1      18.970   2.706   9.773  0.00  0.00    -0.296 OA
BRANCH  38  39
ATOM     39  C27 ZIN A   1      17.782   3.273  10.386  0.00  0.00     0.159 C 
ATOM     40  C32 ZIN A   1      17.635   4.766  10.021  0.00  0.00     0.200 C 
ATOM     41  O31 ZIN A   1      17.198   5.455  11.203  0.00  0.00    -0.389 OA
ATOM     42  C30 ZIN A   1      17.011   4.520  12.276  0.00  0.00     0.170 C 
ATOM     43  C29 ZIN A   1      17.926   3.318  11.932  0.00  0.00     0.061 C 
ENDBRANCH  38  39
ENDBRANCH  35  38
ENDBRANCH  26  34
ENDBRANCH   1  26
TORSDOF 16
ENDMDL
MODEL 2
REMARK VINA RESULT:      -7.5      1.369      3.777
REMARK  16 active torsions:
REMARK  status: ('A' for Active; 'I' for Inactive)
REMARK    1  A    between atoms: C2_2  and  C4_4 
REMARK    2  A    between atoms: C4_4  and  N5_5 
REMARK    3  A    between atoms: N5_5  and  C6_6 
REMARK    4  A    between atoms: N5_5  and  S33_30 
REMARK    5  A    between atoms: C6_6  and  C7_7 
REMARK    6  A    between atoms: C7_7  and  O9_8 
REMARK    7  A    between atoms: C7_7  and  C14_13 
REMARK    8  A    between atoms: O9_8  and  P10_9 
REMARK    9  A    between atoms: P10_9  and  O13_12 
REMARK   10  A    between atoms: C14_13  and  C16_14 
REMARK   11  A    between atoms: C14_13  and  N23_21 
REMARK   12  A    between atoms: C16_14  and  C17_15 
REMARK       I    between atoms: N23_21  and  C24_22 
REMARK   13  A    between atoms: C24_22  and  O26_24 
REMARK   14  A    between atoms: O26_24  and  C27_25 
REMARK   15  A    between atoms: S33_30  and  C36_33 
REMARK   16  A    between atoms: C39_36  and  N40_37 
ROOT
ATOM      1  C7  ZIN A   1      18.631  -1.958   7.011  0.00  0.00     0.176 C 
ENDROOT
BRANCH   1   2
ATOM      2  C6  ZIN A   1      17.759  -3.213   7.092  0.00  0.00     0.170 C 
BRANCH   2   3
ATOM      3  N5  ZIN A   1      18.373  -4.285   6.303  0.00  0.00    -0.304 N 
BRANCH   3   4
ATOM      4  C4  ZIN A   1      18.195  -4.317   4.849  0.00  0.00     0.139 C 
BRANCH   4   5
ATOM      5  C2  ZIN A   1      16.710  -4.166   4.514  0.00  0.00    -0.004 C 
ATOM      6  C1  ZIN A   1      16.558  -3.747   3.050  0.00  0.00     0.011 C 
ATOM      7  C3  ZIN A   1      15.998  -5.502   4.739  0.00  0.00     0.011 C 
ENDBRANCH   4   5
ENDBRANCH   3   4
BRANCH   3   8
ATOM      8  S33 ZIN A   1      19.267  -5.458   7.054  0.00  0.00     0.260 S 
ATOM      9  O34 ZIN A   1      18.906  -6.690   6.446  0.00  0.00    -0.200 OA
ATOM     10  O35 ZIN A   1      20.603  -4.976   7.101  0.00  0.00    -0.200 OA
BRANCH   8  11
ATOM     11  C36 ZIN A   1      18.711  -5.547   8.725  0.00  0.00     0.079 A 
ATOM     12  C42 ZIN A   1      19.543  -5.137   9.751  0.00  0.00     0.027 A 
ATOM     13  C41 ZIN A   1      19.108  -5.201  11.061  0.00  0.00     0.030 A 
ATOM     14  C39 ZIN A   1      17.838  -5.687  11.346  0.00  0.00     0.025 A 
ATOM     15  C38 ZIN A   1      17.008  -6.102  10.314  0.00  0.00     0.030 A 
ATOM     16  C37 ZIN A   1      17.447  -6.030   9.006  0.00  0.00     0.027 A 
BRANCH  14  17
ATOM     17  N40 ZIN A   1      17.398  -5.758  12.670  0.00  0.00    -0.399 N 
ATOM     18  H71 ZIN A   1      18.028  -5.955  13.381  0.00  0.00     0.156 HD
ATOM     19  H72 ZIN A   1      16.462  -5.610  12.879  0.00  0.00     0.156 HD
ENDBRANCH  14  17
ENDBRANCH   8  11
ENDBRANCH   3   8
ENDBRANCH   2   3
ENDBRANCH   1   2
BRANCH   1  20
ATOM     20  O9  ZIN A   1      18.052  -1.034   6.086  0.00  0.00    -0.281 OA
BRANCH  20  21
ATOM     21  P10 ZIN A   1      18.827  -0.502   4.779  0.00  0.00     0.406 P 
ATOM     22  O11 ZIN A   1      19.392   0.909   5.053  0.00  0.00    -0.624 OA
ATOM     23  O12 ZIN A   1      19.985  -1.465   4.439  0.00  0.00    -0.624 OA
BRANCH  21  24
ATOM     24  O13 ZIN A   1      17.802  -0.437   3.538  0.00  0.00    -0.300 OA
ATOM     25  H54 ZIN A   1      17.981  -1.088   2.846  0.00  0.00     0.223 HD
ENDBRANCH  21  24
ENDBRANCH  20  21
ENDBRANCH   1  20
BRANCH   1  26
ATOM     26  C14 ZIN A   1      18.719  -1.308   8.393  0.00  0.00     0.122 C 
BRANCH  26  27
ATOM     27  C16 ZIN A   1      17.818  -2.065   9.370  0.00  0.00     0.066 C 
BRANCH  27  28
ATOM     28  C17 ZIN A   1      18.139  -1.643  10.781  0.00  0.00    -0.056 A 
ATOM     29  C22 ZIN A   1      19.431  -1.750  11.258  0.00  0.00     0.007 A 
ATOM     30  C21 ZIN A   1      19.726  -1.360  12.550  0.00  0.00     0.001 A 
ATOM     31  C20 ZIN A   1      18.726  -0.869  13.369  0.00  0.00     0.000 A 
ATOM     32  C19 ZIN A   1      17.432  -0.767  12.894  0.00  0.00     0.001 A 
ATOM     33  C18 ZIN A   1      17.138  -1.154  11.600  0.00  0.00     0.007 A 
ENDBRANCH  27  28
ENDBRANCH  26  27
BRANCH  26  34
ATOM     34  N23 ZIN A   1      18.281   0.088   8.306  0.00  0.00    -0.329 N 
ATOM     35  C24 ZIN A   1      19.109   1.078   8.694  0.00  0.00     0.361 C 
ATOM     36  O25 ZIN A   1      20.217   0.814   9.117  0.00  0.00    -0.238 OA
ATOM     37  H62 ZIN A   1      17.396   0.298   7.970  0.00  0.00     0.165 HD
BRANCH  35  38
ATOM     38  O26 ZIN A   1      18.707   2.361   8.615  0.00  0.00    -0.296 OA
BRANCH  38  39
ATOM     39  C27 ZIN A   1      18.633   3.107   9.859  0.00  0.00     0.159 C 
ATOM     40  C32 ZIN A   1      17.684   2.414  10.859  0.00  0.00     0.200 C 
ATOM     41  O31 ZIN A   1      16.922   3.442  11.511  0.00  0.00    -0.389 OA
ATOM     42  C30 ZIN A   1      17.339   4.734  11.043  0.00  0.00     0.170 C 
ATOM     43  C29 ZIN A   1      17.943   4.481   9.639  0.00  0.00     0.061 C 
ENDBRANCH  38  39
ENDBRANCH  35  38
ENDBRANCH  26  34
ENDBRANCH   1  26
TORSDOF 16
ENDMDL
MODEL 3
REMARK VINA RESULT:      -7.5      3.025      4.668
REMARK  16 active torsions:
REMARK  status: ('A' for Active; 'I' for Inactive)
REMARK    1  A    between atoms: C2_2  and  C4_4 
REMARK    2  A    between atoms: C4_4  and  N5_5 
REMARK    3  A    between atoms: N5_5  and  C6_6 
REMARK    4  A    between atoms: N5_5  and  S33_30 
REMARK    5  A    between atoms: C6_6  and  C7_7 
REMARK    6  A    between atoms: C7_7  and  O9_8 
REMARK    7  A    between atoms: C7_7  and  C14_13 
REMARK    8  A    between atoms: O9_8  and  P10_9 
REMARK    9  A    between atoms: P10_9  and  O13_12 
REMARK   10  A    between atoms: C14_13  and  C16_14 
REMARK   11  A    between atoms: C14_13  and  N23_21 
REMARK   12  A    between atoms: C16_14  and  C17_15 
REMARK       I    between atoms: N23_21  and  C24_22 
REMARK   13  A    between atoms: C24_22  and  O26_24 
REMARK   14  A    between atoms: O26_24  and  C27_25 
REMARK   15  A    between atoms: S33_30  and  C36_33 
REMARK   16  A    between atoms: C39_36  and  N40_37 
ROOT
ATOM      1  C7  ZIN A   1      18.384   0.474  11.458  0.00  0.00     0.176 C 
ENDROOT
BRANCH   1   2
ATOM      2  C6  ZIN A   1      17.642  -0.847  11.244  0.00  0.00     0.170 C 
BRANCH   2   3
ATOM      3  N5  ZIN A   1      18.537  -1.811  10.597  0.00  0.00    -0.304 N 
BRANCH   3   4
ATOM      4  C4  ZIN A   1      19.096  -1.519   9.275  0.00  0.00     0.139 C 
BRANCH   4   5
ATOM      5  C2  ZIN A   1      18.041  -1.796   8.203  0.00  0.00    -0.004 C 
ATOM      6  C1  ZIN A   1      17.552  -0.472   7.614  0.00  0.00     0.011 C 
ATOM      7  C3  ZIN A   1      18.656  -2.651   7.093  0.00  0.00     0.011 C 
ENDBRANCH   4   5
ENDBRANCH   3   4
BRANCH   3   8
ATOM      8  S33 ZIN A   1      18.916  -3.230  11.362  0.00  0.00     0.260 S 
ATOM      9  O34 ZIN A   1      20.335  -3.291  11.415  0.00  0.00    -0.200 OA
ATOM     10  O35 ZIN A   1      18.091  -3.296  12.517  0.00  0.00    -0.200 OA
BRANCH   8  11
ATOM     11  C36 ZIN A   1      18.401  -4.544  10.307  0.00  0.00     0.079 A 
ATOM     12  C42 ZIN A   1      19.344  -5.282   9.614  0.00  0.00     0.027 A 
ATOM     13  C41 ZIN A   1      18.944  -6.316   8.790  0.00  0.00     0.030 A 
ATOM     14  C39 ZIN A   1      17.593  -6.608   8.650  0.00  0.00     0.025 A 
ATOM     15  C38 ZIN A   1      16.649  -5.862   9.343  0.00  0.00     0.030 A 
ATOM     16  C37 ZIN A   1      17.056  -4.832  10.169  0.00  0.00     0.027 A 
BRANCH  14  17
ATOM     17  N40 ZIN A   1      17.186  -7.649   7.813  0.00  0.00    -0.399 N 
ATOM     18  H71 ZIN A   1      16.904  -7.459   6.905  0.00  0.00     0.156 HD
ATOM     19  H72 ZIN A   1      17.184  -8.562   8.141  0.00  0.00     0.156 HD
ENDBRANCH  14  17
ENDBRANCH   8  11
ENDBRANCH   3   8
ENDBRANCH   2   3
ENDBRANCH   1   2
BRANCH   1  20
ATOM     20  O9  ZIN A   1      17.857   1.466  10.574  0.00  0.00    -0.281 OA
BRANCH  20  21
ATOM     21  P10 ZIN A   1      18.741   2.679   9.990  0.00  0.00     0.406 P 
ATOM     22  O11 ZIN A   1      19.087   2.400   8.511  0.00  0.00    -0.624 OA
ATOM     23  O12 ZIN A   1      17.939   3.995  10.093  0.00  0.00    -0.624 OA
BRANCH  21  24
ATOM     24  O13 ZIN A   1      20.100   2.811  10.844  0.00  0.00    -0.300 OA
ATOM     25  H54 ZIN A   1      20.809   2.225  10.546  0.00  0.00     0.223 HD
ENDBRANCH  21  24
ENDBRANCH  20  21
ENDBRANCH   1  20
BRANCH   1  26
ATOM     26  C14 ZIN A   1      18.203   0.932  12.906  0.00  0.00     0.122 C 
BRANCH  26  27
ATOM     27  C16 ZIN A   1      17.269  -0.037  13.633  0.00  0.00     0.066 C 
BRANCH  27  28
ATOM     28  C17 ZIN A   1      17.809  -0.315  15.013  0.00  0.00    -0.056 A 
ATOM     29  C22 ZIN A   1      17.247   0.303  16.113  0.00  0.00     0.007 A 
ATOM     30  C21 ZIN A   1      17.740   0.044  17.378  0.00  0.00     0.001 A 
ATOM     31  C20 ZIN A   1      18.801  -0.826  17.542  0.00  0.00     0.000 A 
ATOM     32  C19 ZIN A   1      19.367  -1.440  16.440  0.00  0.00     0.001 A 
ATOM     33  C18 ZIN A   1      18.872  -1.184  15.176  0.00  0.00     0.007 A 
ENDBRANCH  27  28
ENDBRANCH  26  27
BRANCH  26  34
ATOM     34  N23 ZIN A   1      17.622   2.277  12.923  0.00  0.00    -0.329 N 
ATOM     35  C24 ZIN A   1      18.110   3.210  13.765  0.00  0.00     0.361 C 
ATOM     36  O25 ZIN A   1      19.031   2.936  14.508  0.00  0.00    -0.238 OA
ATOM     37  H62 ZIN A   1      16.886   2.495  12.330  0.00  0.00     0.165 HD
BRANCH  35  38
ATOM     38  O26 ZIN A   1      17.575   4.447  13.782  0.00  0.00    -0.296 OA
BRANCH  38  39
ATOM     39  C27 ZIN A   1      17.734   5.216  15.002  0.00  0.00     0.159 C 
ATOM     40  C32 ZIN A   1      16.382   5.802  15.462  0.00  0.00     0.200 C 
ATOM     41  O31 ZIN A   1      16.627   7.139  15.925  0.00  0.00    -0.389 OA
ATOM     42  C30 ZIN A   1      18.030   7.438  15.841  0.00  0.00     0.170 C 
ATOM     43  C29 ZIN A   1      18.581   6.493  14.744  0.00  0.00     0.061 C 
ENDBRANCH  38  39
ENDBRANCH  35  38
ENDBRANCH  26  34
ENDBRANCH   1  26
TORSDOF 16
ENDMDL
MODEL 4
REMARK VINA RESULT:      -7.5      3.170      6.354
REMARK  16 active torsions:
REMARK  status: ('A' for Active; 'I' for Inactive)
REMARK    1  A    between atoms: C2_2  and  C4_4 
REMARK    2  A    between atoms: C4_4  and  N5_5 
REMARK    3  A    between atoms: N5_5  and  C6_6 
REMARK    4  A    between atoms: N5_5  and  S33_30 
REMARK    5  A    between atoms: C6_6  and  C7_7 
REMARK    6  A    between atoms: C7_7  and  O9_8 
REMARK    7  A    between atoms: C7_7  and  C14_13 
REMARK    8  A    between atoms: O9_8  and  P10_9 
REMARK    9  A    between atoms: P10_9  and  O13_12 
REMARK   10  A    between atoms: C14_13  and  C16_14 
REMARK   11  A    between atoms: C14_13  and  N23_21 
REMARK   12  A    between atoms: C16_14  and  C17_15 
REMARK       I    between atoms: N23_21  and  C24_22 
REMARK   13  A    between atoms: C24_22  and  O26_24 
REMARK   14  A    between atoms: O26_24  and  C27_25 
REMARK   15  A    between atoms: S33_30  and  C36_33 
REMARK   16  A    between atoms: C39_36  and  N40_37 
ROOT
ATOM      1  C7  ZIN A   1      18.602  -2.874   8.097  0.00  0.00     0.176 C 
ENDROOT
BRANCH   1   2
ATOM      2  C6  ZIN A   1      17.550  -2.915   9.207  0.00  0.00     0.170 C 
BRANCH   2   3
ATOM      3  N5  ZIN A   1      18.079  -3.658  10.354  0.00  0.00    -0.304 N 
BRANCH   3   4
ATOM      4  C4  ZIN A   1      19.337  -3.242  10.979  0.00  0.00     0.139 C 
BRANCH   4   5
ATOM      5  C2  ZIN A   1      19.191  -1.819  11.521  0.00  0.00    -0.004 C 
ATOM      6  C1  ZIN A   1      19.198  -1.853  13.051  0.00  0.00     0.011 C 
ATOM      7  C3  ZIN A   1      20.358  -0.963  11.025  0.00  0.00     0.011 C 
ENDBRANCH   4   5
ENDBRANCH   3   4
BRANCH   3   8
ATOM      8  S33 ZIN A   1      17.254  -4.967  10.944  0.00  0.00     0.260 S 
ATOM      9  O34 ZIN A   1      18.218  -5.796  11.579  0.00  0.00    -0.200 OA
ATOM     10  O35 ZIN A   1      16.110  -4.453  11.613  0.00  0.00    -0.200 OA
BRANCH   8  11
ATOM     11  C36 ZIN A   1      16.655  -5.874   9.557  0.00  0.00     0.079 A 
ATOM     12  C42 ZIN A   1      15.469  -5.502   8.950  0.00  0.00     0.027 A 
ATOM     13  C41 ZIN A   1      14.999  -6.208   7.859  0.00  0.00     0.030 A 
ATOM     14  C39 ZIN A   1      15.714  -7.298   7.379  0.00  0.00     0.025 A 
ATOM     15  C38 ZIN A   1      16.902  -7.671   7.994  0.00  0.00     0.030 A 
ATOM     16  C37 ZIN A   1      17.369  -6.958   9.081  0.00  0.00     0.027 A 
BRANCH  14  17
ATOM     17  N40 ZIN A   1      15.239  -8.017   6.280  0.00  0.00    -0.399 N 
ATOM     18  H71 ZIN A   1      15.492  -8.946   6.162  0.00  0.00     0.156 HD
ATOM     19  H72 ZIN A   1      14.656  -7.587   5.635  0.00  0.00     0.156 HD
ENDBRANCH  14  17
ENDBRANCH   8  11
ENDBRANCH   3   8
ENDBRANCH   2   3
ENDBRANCH   1   2
BRANCH   1  20
ATOM     20  O9  ZIN A   1      18.628  -4.131   7.418  0.00  0.00    -0.281 OA
BRANCH  20  21
ATOM     21  P10 ZIN A   1      19.967  -5.007   7.245  0.00  0.00     0.406 P 
ATOM     22  O11 ZIN A   1      21.091  -4.123   6.661  0.00  0.00    -0.624 OA
ATOM     23  O12 ZIN A   1      20.404  -5.556   8.621  0.00  0.00    -0.624 OA
BRANCH  21  24
ATOM     24  O13 ZIN A   1      19.677  -6.236   6.245  0.00  0.00    -0.300 OA
ATOM     25  H54 ZIN A   1      19.477  -7.069   6.694  0.00  0.00     0.223 HD
ENDBRANCH  21  24
ENDBRANCH  20  21
ENDBRANCH   1  20
BRANCH   1  26
ATOM     26  C14 ZIN A   1      18.254  -1.763   7.105  0.00  0.00     0.122 C 
BRANCH  26  27
ATOM     27  C16 ZIN A   1      17.191  -0.848   7.717  0.00  0.00     0.066 C 
BRANCH  27  28
ATOM     28  C17 ZIN A   1      17.862   0.315   8.400  0.00  0.00    -0.056 A 
ATOM     29  C22 ZIN A   1      18.958   0.922   7.817  0.00  0.00     0.007 A 
ATOM     30  C21 ZIN A   1      19.571   1.992   8.442  0.00  0.00     0.001 A 
ATOM     31  C20 ZIN A   1      19.093   2.449   9.656  0.00  0.00     0.000 A 
ATOM     32  C19 ZIN A   1      18.000   1.838  10.242  0.00  0.00     0.001 A 
ATOM     33  C18 ZIN A   1      17.385   0.771   9.615  0.00  0.00     0.007 A 
ENDBRANCH  27  28
ENDBRANCH  26  27
BRANCH  26  34
ATOM     34  N23 ZIN A   1      17.736  -2.357   5.869  0.00  0.00    -0.329 N 
ATOM     35  C24 ZIN A   1      18.496  -2.367   4.757  0.00  0.00     0.361 C 
ATOM     36  O25 ZIN A   1      19.611  -1.884   4.778  0.00  0.00    -0.238 OA
ATOM     37  H62 ZIN A   1      16.845  -2.741   5.853  0.00  0.00     0.165 HD
BRANCH  35  38
ATOM     38  O26 ZIN A   1      18.020  -2.912   3.621  0.00  0.00    -0.296 OA
BRANCH  38  39
ATOM     39  C27 ZIN A   1      16.840  -3.750   3.736  0.00  0.00     0.159 C 
ATOM     40  C32 ZIN A   1      17.228  -5.195   4.113  0.00  0.00     0.200 C 
ATOM     41  O31 ZIN A   1      16.396  -6.078   3.345  0.00  0.00    -0.389 OA
ATOM     42  C30 ZIN A   1      15.479  -5.315   2.544  0.00  0.00     0.170 C 
ATOM     43  C29 ZIN A   1      16.158  -3.936   2.352  0.00  0.00     0.061 C 
ENDBRANCH  38  39
ENDBRANCH  35  38
ENDBRANCH  26  34
ENDBRANCH   1  26
TORSDOF 16
ENDMDL
MODEL 5
REMARK VINA RESULT:      -7.4      4.575     10.268
REMARK  16 active torsions:
REMARK  status: ('A' for Active; 'I' for Inactive)
REMARK    1  A    between atoms: C2_2  and  C4_4 
REMARK    2  A    between atoms: C4_4  and  N5_5 
REMARK    3  A    between atoms: N5_5  and  C6_6 
REMARK    4  A    between atoms: N5_5  and  S33_30 
REMARK    5  A    between atoms: C6_6  and  C7_7 
REMARK    6  A    between atoms: C7_7  and  O9_8 
REMARK    7  A    between atoms: C7_7  and  C14_13 
REMARK    8  A    between atoms: O9_8  and  P10_9 
REMARK    9  A    between atoms: P10_9  and  O13_12 
REMARK   10  A    between atoms: C14_13  and  C16_14 
REMARK   11  A    between atoms: C14_13  and  N23_21 
REMARK   12  A    between atoms: C16_14  and  C17_15 
REMARK       I    between atoms: N23_21  and  C24_22 
REMARK   13  A    between atoms: C24_22  and  O26_24 
REMARK   14  A    between atoms: O26_24  and  C27_25 
REMARK   15  A    between atoms: S33_30  and  C36_33 
REMARK   16  A    between atoms: C39_36  and  N40_37 
ROOT
ATOM      1  C7  ZIN A   1      18.273   1.092  13.475  0.00  0.00     0.176 C 
ENDROOT
BRANCH   1   2
ATOM      2  C6  ZIN A   1      17.366   2.311  13.289  0.00  0.00     0.170 C 
BRANCH   2   3
ATOM      3  N5  ZIN A   1      18.175   3.532  13.333  0.00  0.00    -0.304 N 
BRANCH   3   4
ATOM      4  C4  ZIN A   1      18.615   4.165  12.087  0.00  0.00     0.139 C 
BRANCH   4   5
ATOM      5  C2  ZIN A   1      17.410   4.368  11.167  0.00  0.00    -0.004 C 
ATOM      6  C1  ZIN A   1      16.495   5.445  11.754  0.00  0.00     0.011 C 
ATOM      7  C3  ZIN A   1      17.895   4.810   9.784  0.00  0.00     0.011 C 
ENDBRANCH   4   5
ENDBRANCH   3   4
BRANCH   3   8
ATOM      8  S33 ZIN A   1      18.591   4.197  14.791  0.00  0.00     0.260 S 
ATOM      9  O34 ZIN A   1      18.105   3.310  15.790  0.00  0.00    -0.200 OA
ATOM     10  O35 ZIN A   1      19.957   4.574  14.685  0.00  0.00    -0.200 OA
BRANCH   8  11
ATOM     11  C36 ZIN A   1      17.674   5.692  14.964  0.00  0.00     0.079 A 
ATOM     12  C42 ZIN A   1      18.293   6.910  14.751  0.00  0.00     0.027 A 
ATOM     13  C41 ZIN A   1      17.576   8.083  14.880  0.00  0.00     0.030 A 
ATOM     14  C39 ZIN A   1      16.233   8.038  15.235  0.00  0.00     0.025 A 
ATOM     15  C38 ZIN A   1      15.616   6.814  15.453  0.00  0.00     0.030 A 
ATOM     16  C37 ZIN A   1      16.338   5.644  15.317  0.00  0.00     0.027 A 
BRANCH  14  17
ATOM     17  N40 ZIN A   1      15.507   9.223  15.372  0.00  0.00    -0.399 N 
ATOM     18  H71 ZIN A   1      15.180   9.493  16.244  0.00  0.00     0.156 HD
ATOM     19  H72 ZIN A   1      15.328   9.775  14.594  0.00  0.00     0.156 HD
ENDBRANCH  14  17
ENDBRANCH   8  11
ENDBRANCH   3   8
ENDBRANCH   2   3
ENDBRANCH   1   2
BRANCH   1  20
ATOM     20  O9  ZIN A   1      17.684   0.201  14.425  0.00  0.00    -0.281 OA
BRANCH  20  21
ATOM     21  P10 ZIN A   1      18.473  -0.349  15.717  0.00  0.00     0.406 P 
ATOM     22  O11 ZIN A   1      17.465  -0.971  16.709  0.00  0.00    -0.624 OA
ATOM     23  O12 ZIN A   1      19.494  -1.421  15.278  0.00  0.00    -0.624 OA
BRANCH  21  24
ATOM     24  O13 ZIN A   1      19.247   0.869  16.431  0.00  0.00    -0.300 OA
ATOM     25  H54 ZIN A   1      19.334   1.657  15.877  0.00  0.00     0.223 HD
ENDBRANCH  21  24
ENDBRANCH  20  21
ENDBRANCH   1  20
BRANCH   1  26
ATOM     26  C14 ZIN A   1      18.441   0.373  12.136  0.00  0.00     0.122 C 
BRANCH  26  27
ATOM     27  C16 ZIN A   1      17.349   0.833  11.169  0.00  0.00     0.066 C 
BRANCH  27  28
ATOM     28  C17 ZIN A   1      17.889   0.829   9.762  0.00  0.00    -0.056 A 
ATOM     29  C22 ZIN A   1      17.266   0.076   8.785  0.00  0.00     0.007 A 
ATOM     30  C21 ZIN A   1      17.758   0.075   7.493  0.00  0.00     0.001 A 
ATOM     31  C20 ZIN A   1      18.880   0.820   7.181  0.00  0.00     0.000 A 
ATOM     32  C19 ZIN A   1      19.506   1.569   8.160  0.00  0.00     0.001 A 
ATOM     33  C18 ZIN A   1      19.012   1.573   9.450  0.00  0.00     0.007 A 
ENDBRANCH  27  28
ENDBRANCH  26  27
BRANCH  26  34
ATOM     34  N23 ZIN A   1      18.334  -1.075  12.342  0.00  0.00    -0.329 N 
ATOM     35  C24 ZIN A   1      19.247  -1.902  11.797  0.00  0.00     0.361 C 
ATOM     36  O25 ZIN A   1      20.160  -1.448  11.135  0.00  0.00    -0.238 OA
ATOM     37  H62 ZIN A   1      17.604  -1.436  12.869  0.00  0.00     0.165 HD
BRANCH  35  38
ATOM     38  O26 ZIN A   1      19.148  -3.232  11.985  0.00  0.00    -0.296 OA
BRANCH  38  39
ATOM     39  C27 ZIN A   1      18.233  -3.954  11.119  0.00  0.00     0.159 C 
ATOM     40  C32 ZIN A   1      17.418  -4.989  11.924  0.00  0.00     0.200 C 
ATOM     41  O31 ZIN A   1      17.327  -6.179  11.125  0.00  0.00    -0.389 OA
ATOM     42  C30 ZIN A   1      17.977  -5.973   9.861  0.00  0.00     0.170 C 
ATOM     43  C29 ZIN A   1      19.012  -4.848  10.116  0.00  0.00     0.061 C 
ENDBRANCH  38  39
ENDBRANCH  35  38
ENDBRANCH  26  34
ENDBRANCH   1  26
TORSDOF 16
ENDMDL
MODEL 6
REMARK VINA RESULT:      -7.4      2.978      8.186
REMARK  16 active torsions:
REMARK  status: ('A' for Active; 'I' for Inactive)
REMARK    1  A    between atoms: C2_2  and  C4_4 
REMARK    2  A    between atoms: C4_4  and  N5_5 
REMARK    3  A    between atoms: N5_5  and  C6_6 
REMARK    4  A    between atoms: N5_5  and  S33_30 
REMARK    5  A    between atoms: C6_6  and  C7_7 
REMARK    6  A    between atoms: C7_7  and  O9_8 
REMARK    7  A    between atoms: C7_7  and  C14_13 
REMARK    8  A    between atoms: O9_8  and  P10_9 
REMARK    9  A    between atoms: P10_9  and  O13_12 
REMARK   10  A    between atoms: C14_13  and  C16_14 
REMARK   11  A    between atoms: C14_13  and  N23_21 
REMARK   12  A    between atoms: C16_14  and  C17_15 
REMARK       I    between atoms: N23_21  and  C24_22 
REMARK   13  A    between atoms: C24_22  and  O26_24 
REMARK   14  A    between atoms: O26_24  and  C27_25 
REMARK   15  A    between atoms: S33_30  and  C36_33 
REMARK   16  A    between atoms: C39_36  and  N40_37 
ROOT
ATOM      1  C7  ZIN A   1      18.214  -2.477  10.814  0.00  0.00     0.176 C 
ENDROOT
BRANCH   1   2
ATOM      2  C6  ZIN A   1      17.938  -1.147  11.519  0.00  0.00     0.170 C 
BRANCH   2   3
ATOM      3  N5  ZIN A   1      19.124  -0.744  12.280  0.00  0.00    -0.304 N 
BRANCH   3   4
ATOM      4  C4  ZIN A   1      19.330  -1.252  13.638  0.00  0.00     0.139 C 
BRANCH   4   5
ATOM      5  C2  ZIN A   1      18.138  -0.864  14.514  0.00  0.00    -0.004 C 
ATOM      6  C1  ZIN A   1      18.228  -1.599  15.853  0.00  0.00     0.011 C 
ATOM      7  C3  ZIN A   1      18.157   0.646  14.760  0.00  0.00     0.011 C 
ENDBRANCH   4   5
ENDBRANCH   3   4
BRANCH   3   8
ATOM      8  S33 ZIN A   1      20.230   0.286  11.604  0.00  0.00     0.260 S 
ATOM      9  O34 ZIN A   1      21.107   0.678  12.652  0.00  0.00    -0.200 OA
ATOM     10  O35 ZIN A   1      20.677  -0.334  10.407  0.00  0.00    -0.200 OA
BRANCH   8  11
ATOM     11  C36 ZIN A   1      19.359   1.739  11.117  0.00  0.00     0.079 A 
ATOM     12  C42 ZIN A   1      18.843   2.589  12.078  0.00  0.00     0.027 A 
ATOM     13  C41 ZIN A   1      18.165   3.732  11.699  0.00  0.00     0.030 A 
ATOM     14  C39 ZIN A   1      17.993   4.020  10.351  0.00  0.00     0.025 A 
ATOM     15  C38 ZIN A   1      18.508   3.162   9.388  0.00  0.00     0.030 A 
ATOM     16  C37 ZIN A   1      19.189   2.024   9.774  0.00  0.00     0.027 A 
BRANCH  14  17
ATOM     17  N40 ZIN A   1      17.302   5.171   9.965  0.00  0.00    -0.399 N 
ATOM     18  H71 ZIN A   1      17.633   5.711   9.230  0.00  0.00     0.156 HD
ATOM     19  H72 ZIN A   1      16.493   5.431  10.432  0.00  0.00     0.156 HD
ENDBRANCH  14  17
ENDBRANCH   8  11
ENDBRANCH   3   8
ENDBRANCH   2   3
ENDBRANCH   1   2
BRANCH   1  20
ATOM     20  O9  ZIN A   1      17.185  -3.413  11.142  0.00  0.00    -0.281 OA
BRANCH  20  21
ATOM     21  P10 ZIN A   1      17.450  -4.995  11.280  0.00  0.00     0.406 P 
ATOM     22  O11 ZIN A   1      16.505  -5.761  10.328  0.00  0.00    -0.624 OA
ATOM     23  O12 ZIN A   1      18.917  -5.305  10.909  0.00  0.00    -0.624 OA
BRANCH  21  24
ATOM     24  O13 ZIN A   1      17.171  -5.455  12.797  0.00  0.00    -0.300 OA
ATOM     25  H54 ZIN A   1      16.701  -4.797  13.327  0.00  0.00     0.223 HD
ENDBRANCH  21  24
ENDBRANCH  20  21
ENDBRANCH   1  20
BRANCH   1  26
ATOM     26  C14 ZIN A   1      18.239  -2.256   9.300  0.00  0.00     0.122 C 
BRANCH  26  27
ATOM     27  C16 ZIN A   1      17.517  -0.950   8.964  0.00  0.00     0.066 C 
BRANCH  27  28
ATOM     28  C17 ZIN A   1      17.848  -0.541   7.552  0.00  0.00    -0.056 A 
ATOM     29  C22 ZIN A   1      19.162  -0.544   7.122  0.00  0.00     0.007 A 
ATOM     30  C21 ZIN A   1      19.465  -0.172   5.826  0.00  0.00     0.001 A 
ATOM     31  C20 ZIN A   1      18.456   0.212   4.962  0.00  0.00     0.000 A 
ATOM     32  C19 ZIN A   1      17.143   0.219   5.394  0.00  0.00     0.001 A 
ATOM     33  C18 ZIN A   1      16.839  -0.156   6.689  0.00  0.00     0.007 A 
ENDBRANCH  27  28
ENDBRANCH  26  27
BRANCH  26  34
ATOM     34  N23 ZIN A   1      17.566  -3.373   8.632  0.00  0.00    -0.329 N 
ATOM     35  C24 ZIN A   1      18.248  -4.151   7.769  0.00  0.00     0.361 C 
ATOM     36  O25 ZIN A   1      19.422  -3.926   7.544  0.00  0.00    -0.238 OA
ATOM     37  H62 ZIN A   1      16.629  -3.551   8.811  0.00  0.00     0.165 HD
BRANCH  35  38
ATOM     38  O26 ZIN A   1      17.630  -5.177   7.154  0.00  0.00    -0.296 OA
BRANCH  38  39
ATOM     39  C27 ZIN A   1      18.093  -5.523   5.822  0.00  0.00     0.159 C 
ATOM     40  C32 ZIN A   1      17.454  -4.601   4.761  0.00  0.00     0.200 C 
ATOM     41  O31 ZIN A   1      17.116  -5.417   3.629  0.00  0.00    -0.389 OA
ATOM     42  C30 ZIN A   1      17.528  -6.773   3.862  0.00  0.00     0.170 C 
ATOM     43  C29 ZIN A   1      17.573  -6.925   5.403  0.00  0.00     0.061 C 
ENDBRANCH  38  39
ENDBRANCH  35  38
ENDBRANCH  26  34
ENDBRANCH   1  26
TORSDOF 16
ENDMDL
MODEL 7
REMARK VINA RESULT:      -7.1      2.557      8.262
REMARK  16 active torsions:
REMARK  status: ('A' for Active; 'I' for Inactive)
REMARK    1  A    between atoms: C2_2  and  C4_4 
REMARK    2  A    between atoms: C4_4  and  N5_5 
REMARK    3  A    between atoms: N5_5  and  C6_6 
REMARK    4  A    between atoms: N5_5  and  S33_30 
REMARK    5  A    between atoms: C6_6  and  C7_7 
REMARK    6  A    between atoms: C7_7  and  O9_8 
REMARK    7  A    between atoms: C7_7  and  C14_13 
REMARK    8  A    between atoms: O9_8  and  P10_9 
REMARK    9  A    between atoms: P10_9  and  O13_12 
REMARK   10  A    between atoms: C14_13  and  C16_14 
REMARK   11  A    between atoms: C14_13  and  N23_21 
REMARK   12  A    between atoms: C16_14  and  C17_15 
REMARK       I    between atoms: N23_21  and  C24_22 
REMARK   13  A    between atoms: C24_22  and  O26_24 
REMARK   14  A    between atoms: O26_24  and  C27_25 
REMARK   15  A    between atoms: S33_30  and  C36_33 
REMARK   16  A    between atoms: C39_36  and  N40_37 
ROOT
ATOM      1  C7  ZIN A   1      18.708  -1.827   8.004  0.00  0.00     0.176 C 
ENDROOT
BRANCH   1   2
ATOM      2  C6  ZIN A   1      19.352  -1.170   9.227  0.00  0.00     0.170 C 
BRANCH   2   3
ATOM      3  N5  ZIN A   1      18.337  -0.978  10.268  0.00  0.00    -0.304 N 
BRANCH   3   4
ATOM      4  C4  ZIN A   1      18.201  -1.959  11.347  0.00  0.00     0.139 C 
BRANCH   4   5
ATOM      5  C2  ZIN A   1      19.517  -2.051  12.121  0.00  0.00    -0.004 C 
ATOM      6  C1  ZIN A   1      19.257  -1.774  13.603  0.00  0.00     0.011 C 
ATOM      7  C3  ZIN A   1      20.104  -3.456  11.961  0.00  0.00     0.011 C 
ENDBRANCH   4   5
ENDBRANCH   3   4
BRANCH   3   8
ATOM      8  S33 ZIN A   1      17.347   0.348  10.223  0.00  0.00     0.260 S 
ATOM      9  O34 ZIN A   1      17.353   0.810   8.879  0.00  0.00    -0.200 OA
ATOM     10  O35 ZIN A   1      16.160  -0.014  10.915  0.00  0.00    -0.200 OA
BRANCH   8  11
ATOM     11  C36 ZIN A   1      18.119   1.608  11.185  0.00  0.00     0.079 A 
ATOM     12  C42 ZIN A   1      17.787   1.759  12.519  0.00  0.00     0.027 A 
ATOM     13  C41 ZIN A   1      18.395   2.741  13.276  0.00  0.00     0.030 A 
ATOM     14  C39 ZIN A   1      19.332   3.585  12.693  0.00  0.00     0.025 A 
ATOM     15  C38 ZIN A   1      19.659   3.434  11.352  0.00  0.00     0.030 A 
ATOM     16  C37 ZIN A   1      19.052   2.446  10.602  0.00  0.00     0.027 A 
BRANCH  14  17
ATOM     17  N40 ZIN A   1      19.943   4.584  13.455  0.00  0.00    -0.399 N 
ATOM     18  H71 ZIN A   1      20.891   4.760  13.351  0.00  0.00     0.156 HD
ATOM     19  H72 ZIN A   1      19.419   5.100  14.088  0.00  0.00     0.156 HD
ENDBRANCH  14  17
ENDBRANCH   8  11
ENDBRANCH   3   8
ENDBRANCH   2   3
ENDBRANCH   1   2
BRANCH   1  20
ATOM     20  O9  ZIN A   1      19.400  -1.416   6.823  0.00  0.00    -0.281 OA
BRANCH  20  21
ATOM     21  P10 ZIN A   1      18.848  -0.268   5.838  0.00  0.00     0.406 P 
ATOM     22  O11 ZIN A   1      19.610  -0.330   4.496  0.00  0.00    -0.624 OA
ATOM     23  O12 ZIN A   1      17.340  -0.488   5.586  0.00  0.00    -0.624 OA
BRANCH  21  24
ATOM     24  O13 ZIN A   1      19.074   1.174   6.517  0.00  0.00    -0.300 OA
ATOM     25  H54 ZIN A   1      18.270   1.709   6.580  0.00  0.00     0.223 HD
ENDBRANCH  21  24
ENDBRANCH  20  21
ENDBRANCH   1  20
BRANCH   1  26
ATOM     26  C14 ZIN A   1      18.790  -3.349   8.141  0.00  0.00     0.122 C 
BRANCH  26  27
ATOM     27  C16 ZIN A   1      19.596  -3.923   6.975  0.00  0.00     0.066 C 
BRANCH  27  28
ATOM     28  C17 ZIN A   1      18.676  -4.677   6.051  0.00  0.00    -0.056 A 
ATOM     29  C22 ZIN A   1      18.668  -6.059   6.059  0.00  0.00     0.007 A 
ATOM     30  C21 ZIN A   1      17.821  -6.751   5.214  0.00  0.00     0.001 A 
ATOM     31  C20 ZIN A   1      16.988  -6.061   4.354  0.00  0.00     0.000 A 
ATOM     32  C19 ZIN A   1      17.000  -4.679   4.341  0.00  0.00     0.001 A 
ATOM     33  C18 ZIN A   1      17.844  -3.987   5.189  0.00  0.00     0.007 A 
ENDBRANCH  27  28
ENDBRANCH  26  27
BRANCH  26  34
ATOM     34  N23 ZIN A   1      17.438  -3.914   8.126  0.00  0.00    -0.329 N 
ATOM     35  C24 ZIN A   1      17.040  -4.735   9.117  0.00  0.00     0.361 C 
ATOM     36  O25 ZIN A   1      17.802  -5.006  10.025  0.00  0.00    -0.238 OA
ATOM     37  H62 ZIN A   1      16.830  -3.697   7.401  0.00  0.00     0.165 HD
BRANCH  35  38
ATOM     38  O26 ZIN A   1      15.798  -5.255   9.103  0.00  0.00    -0.296 OA
BRANCH  38  39
ATOM     39  C27 ZIN A   1      15.441  -6.079   7.962  0.00  0.00     0.159 C 
ATOM     40  C32 ZIN A   1      13.916  -6.313   7.909  0.00  0.00     0.200 C 
ATOM     41  O31 ZIN A   1      13.704  -7.682   7.533  0.00  0.00    -0.389 OA
ATOM     42  C30 ZIN A   1      14.966  -8.327   7.297  0.00  0.00     0.170 C 
ATOM     43  C29 ZIN A   1      15.995  -7.521   8.127  0.00  0.00     0.061 C 
ENDBRANCH  38  39
ENDBRANCH  35  38
ENDBRANCH  26  34
ENDBRANCH   1  26
TORSDOF 16
ENDMDL
MODEL 8
REMARK VINA RESULT:      -7.1      1.476      3.291
REMARK  16 active torsions:
REMARK  status: ('A' for Active; 'I' for Inactive)
REMARK    1  A    between atoms: C2_2  and  C4_4 
REMARK    2  A    between atoms: C4_4  and  N5_5 
REMARK    3  A    between atoms: N5_5  and  C6_6 
REMARK    4  A    between atoms: N5_5  and  S33_30 
REMARK    5  A    between atoms: C6_6  and  C7_7 
REMARK    6  A    between atoms: C7_7  and  O9_8 
REMARK    7  A    between atoms: C7_7  and  C14_13 
REMARK    8  A    between atoms: O9_8  and  P10_9 
REMARK    9  A    between atoms: P10_9  and  O13_12 
REMARK   10  A    between atoms: C14_13  and  C16_14 
REMARK   11  A    between atoms: C14_13  and  N23_21 
REMARK   12  A    between atoms: C16_14  and  C17_15 
REMARK       I    between atoms: N23_21  and  C24_22 
REMARK   13  A    between atoms: C24_22  and  O26_24 
REMARK   14  A    between atoms: O26_24  and  C27_25 
REMARK   15  A    between atoms: S33_30  and  C36_33 
REMARK   16  A    between atoms: C39_36  and  N40_37 
ROOT
ATOM      1  C7  ZIN A   1      18.506  -1.444   7.634  0.00  0.00     0.176 C 
ENDROOT
BRANCH   1   2
ATOM      2  C6  ZIN A   1      17.821  -2.733   8.093  0.00  0.00     0.170 C 
BRANCH   2   3
ATOM      3  N5  ZIN A   1      18.826  -3.788   8.255  0.00  0.00    -0.304 N 
BRANCH   3   4
ATOM      4  C4  ZIN A   1      19.284  -4.164   9.595  0.00  0.00     0.139 C 
BRANCH   4   5
ATOM      5  C2  ZIN A   1      18.087  -4.609  10.436  0.00  0.00    -0.004 C 
ATOM      6  C1  ZIN A   1      17.645  -6.007   9.996  0.00  0.00     0.011 C 
ATOM      7  C3  ZIN A   1      18.487  -4.643  11.913  0.00  0.00     0.011 C 
ENDBRANCH   4   5
ENDBRANCH   3   4
BRANCH   3   8
ATOM      8  S33 ZIN A   1      19.442  -4.555   6.923  0.00  0.00     0.260 S 
ATOM      9  O34 ZIN A   1      20.369  -3.654   6.333  0.00  0.00    -0.200 OA
ATOM     10  O35 ZIN A   1      19.793  -5.867   7.342  0.00  0.00    -0.200 OA
BRANCH   8  11
ATOM     11  C36 ZIN A   1      18.123  -4.737   5.769  0.00  0.00     0.079 A 
ATOM     12  C42 ZIN A   1      18.153  -4.045   4.572  0.00  0.00     0.027 A 
ATOM     13  C41 ZIN A   1      17.123  -4.189   3.663  0.00  0.00     0.030 A 
ATOM     14  C39 ZIN A   1      16.051  -5.023   3.957  0.00  0.00     0.025 A 
ATOM     15  C38 ZIN A   1      16.022  -5.713   5.162  0.00  0.00     0.030 A 
ATOM     16  C37 ZIN A   1      17.058  -5.568   6.064  0.00  0.00     0.027 A 
BRANCH  14  17
ATOM     17  N40 ZIN A   1      15.005  -5.167   3.043  0.00  0.00    -0.399 N 
ATOM     18  H71 ZIN A   1      14.653  -6.048   2.844  0.00  0.00     0.156 HD
ATOM     19  H72 ZIN A   1      14.632  -4.385   2.606  0.00  0.00     0.156 HD
ENDBRANCH  14  17
ENDBRANCH   8  11
ENDBRANCH   3   8
ENDBRANCH   2   3
ENDBRANCH   1   2
BRANCH   1  20
ATOM     20  O9  ZIN A   1      17.910  -0.996   6.414  0.00  0.00    -0.281 OA
BRANCH  20  21
ATOM     21  P10 ZIN A   1      18.768  -0.426   5.177  0.00  0.00     0.406 P 
ATOM     22  O11 ZIN A   1      19.119   1.057   5.433  0.00  0.00    -0.624 OA
ATOM     23  O12 ZIN A   1      20.068  -1.246   5.030  0.00  0.00    -0.624 OA
BRANCH  21  24
ATOM     24  O13 ZIN A   1      17.902  -0.546   3.825  0.00  0.00    -0.300 OA
ATOM     25  H54 ZIN A   1      17.348   0.225   3.643  0.00  0.00     0.223 HD
ENDBRANCH  21  24
ENDBRANCH  20  21
ENDBRANCH   1  20
BRANCH   1  26
ATOM     26  C14 ZIN A   1      18.341  -0.368   8.709  0.00  0.00     0.122 C 
BRANCH  26  27
ATOM     27  C16 ZIN A   1      19.506   0.619   8.625  0.00  0.00     0.066 C 
BRANCH  27  28
ATOM     28  C17 ZIN A   1      19.253   1.776   9.557  0.00  0.00    -0.056 A 
ATOM     29  C22 ZIN A   1      19.885   1.825  10.785  0.00  0.00     0.007 A 
ATOM     30  C21 ZIN A   1      19.656   2.888  11.638  0.00  0.00     0.001 A 
ATOM     31  C20 ZIN A   1      18.788   3.898  11.267  0.00  0.00     0.000 A 
ATOM     32  C19 ZIN A   1      18.152   3.845  10.041  0.00  0.00     0.001 A 
ATOM     33  C18 ZIN A   1      18.384   2.784   9.186  0.00  0.00     0.007 A 
ENDBRANCH  27  28
ENDBRANCH  26  27
BRANCH  26  34
ATOM     34  N23 ZIN A   1      18.328  -0.998  10.032  0.00  0.00    -0.329 N 
ATOM     35  C24 ZIN A   1      17.377  -0.664  10.927  0.00  0.00     0.361 C 
ATOM     36  O25 ZIN A   1      16.531   0.159  10.637  0.00  0.00    -0.238 OA
ATOM     37  H62 ZIN A   1      19.004  -1.655  10.263  0.00  0.00     0.165 HD
BRANCH  35  38
ATOM     38  O26 ZIN A   1      17.365  -1.242  12.143  0.00  0.00    -0.296 OA
BRANCH  38  39
ATOM     39  C27 ZIN A   1      18.235  -0.668  13.155  0.00  0.00     0.159 C 
ATOM     40  C32 ZIN A   1      18.670  -1.740  14.177  0.00  0.00     0.200 C 
ATOM     41  O31 ZIN A   1      18.635  -1.132  15.478  0.00  0.00    -0.389 OA
ATOM     42  C30 ZIN A   1      18.258   0.249  15.364  0.00  0.00     0.170 C 
ATOM     43  C29 ZIN A   1      17.458   0.344  14.041  0.00  0.00     0.061 C 
ENDBRANCH  38  39
ENDBRANCH  35  38
ENDBRANCH  26  34
ENDBRANCH   1  26
TORSDOF 16
ENDMDL
MODEL 9
REMARK VINA RESULT:      -7.1      3.738      5.642
REMARK  16 active torsions:
REMARK  status: ('A' for Active; 'I' for Inactive)
REMARK    1  A    between atoms: C2_2  and  C4_4 
REMARK    2  A    between atoms: C4_4  and  N5_5 
REMARK    3  A    between atoms: N5_5  and  C6_6 
REMARK    4  A    between atoms: N5_5  and  S33_30 
REMARK    5  A    between atoms: C6_6  and  C7_7 
REMARK    6  A    between atoms: C7_7  and  O9_8 
REMARK    7  A    between atoms: C7_7  and  C14_13 
REMARK    8  A    between atoms: O9_8  and  P10_9 
REMARK    9  A    between atoms: P10_9  and  O13_12 
REMARK   10  A    between atoms: C14_13  and  C16_14 
REMARK   11  A    between atoms: C14_13  and  N23_21 
REMARK   12  A    between atoms: C16_14  and  C17_15 
REMARK       I    between atoms: N23_21  and  C24_22 
REMARK   13  A    between atoms: C24_22  and  O26_24 
REMARK   14  A    between atoms: O26_24  and  C27_25 
REMARK   15  A    between atoms: S33_30  and  C36_33 
REMARK   16  A    between atoms: C39_36  and  N40_37 
ROOT
ATOM      1  C7  ZIN A   1      18.146   1.587  12.497  0.00  0.00     0.176 C 
ENDROOT
BRANCH   1   2
ATOM      2  C6  ZIN A   1      17.716   0.151  12.191  0.00  0.00     0.170 C 
BRANCH   2   3
ATOM      3  N5  ZIN A   1      18.704  -0.477  11.309  0.00  0.00    -0.304 N 
BRANCH   3   4
ATOM      4  C4  ZIN A   1      18.920   0.049   9.959  0.00  0.00     0.139 C 
BRANCH   4   5
ATOM      5  C2  ZIN A   1      18.246  -0.871   8.940  0.00  0.00    -0.004 C 
ATOM      6  C1  ZIN A   1      17.191  -0.084   8.160  0.00  0.00     0.011 C 
ATOM      7  C3  ZIN A   1      19.298  -1.413   7.969  0.00  0.00     0.011 C 
ENDBRANCH   4   5
ENDBRANCH   3   4
BRANCH   3   8
ATOM      8  S33 ZIN A   1      19.577  -1.780  11.839  0.00  0.00     0.260 S 
ATOM      9  O34 ZIN A   1      20.849  -1.694  11.212  0.00  0.00    -0.200 OA
ATOM     10  O35 ZIN A   1      19.407  -1.830  13.249  0.00  0.00    -0.200 OA
BRANCH   8  11
ATOM     11  C36 ZIN A   1      18.801  -3.225  11.193  0.00  0.00     0.079 A 
ATOM     12  C42 ZIN A   1      17.464  -3.466  11.456  0.00  0.00     0.027 A 
ATOM     13  C41 ZIN A   1      16.852  -4.595  10.946  0.00  0.00     0.030 A 
ATOM     14  C39 ZIN A   1      17.583  -5.492  10.178  0.00  0.00     0.025 A 
ATOM     15  C38 ZIN A   1      18.925  -5.249   9.920  0.00  0.00     0.030 A 
ATOM     16  C37 ZIN A   1      19.530  -4.116  10.428  0.00  0.00     0.027 A 
BRANCH  14  17
ATOM     17  N40 ZIN A   1      16.968  -6.637   9.666  0.00  0.00    -0.399 N 
ATOM     18  H71 ZIN A   1      16.412  -7.186  10.240  0.00  0.00     0.156 HD
ATOM     19  H72 ZIN A   1      17.097  -6.883   8.736  0.00  0.00     0.156 HD
ENDBRANCH  14  17
ENDBRANCH   8  11
ENDBRANCH   3   8
ENDBRANCH   2   3
ENDBRANCH   1   2
BRANCH   1  20
ATOM     20  O9  ZIN A   1      17.204   2.499  11.928  0.00  0.00    -0.281 OA
BRANCH  20  21
ATOM     21  P10 ZIN A   1      17.640   3.784  11.062  0.00  0.00     0.406 P 
ATOM     22  O11 ZIN A   1      16.418   4.708  10.860  0.00  0.00    -0.624 OA
ATOM     23  O12 ZIN A   1      18.752   4.554  11.807  0.00  0.00    -0.624 OA
BRANCH  21  24
ATOM     24  O13 ZIN A   1      18.189   3.301   9.627  0.00  0.00    -0.300 OA
ATOM     25  H54 ZIN A   1      17.982   2.380   9.417  0.00  0.00     0.223 HD
ENDBRANCH  21  24
ENDBRANCH  20  21
ENDBRANCH   1  20
BRANCH   1  26
ATOM     26  C14 ZIN A   1      18.203   1.790  14.012  0.00  0.00     0.122 C 
BRANCH  26  27
ATOM     27  C16 ZIN A   1      17.343   0.730  14.701  0.00  0.00     0.066 C 
BRANCH  27  28
ATOM     28  C17 ZIN A   1      17.997   0.314  15.994  0.00  0.00    -0.056 A 
ATOM     29  C22 ZIN A   1      18.707  -0.869  16.060  0.00  0.00     0.007 A 
ATOM     30  C21 ZIN A   1      19.310  -1.249  17.245  0.00  0.00     0.001 A 
ATOM     31  C20 ZIN A   1      19.194  -0.449  18.366  0.00  0.00     0.000 A 
ATOM     32  C19 ZIN A   1      18.479   0.732  18.301  0.00  0.00     0.001 A 
ATOM     33  C18 ZIN A   1      17.880   1.114  17.116  0.00  0.00     0.007 A 
ENDBRANCH  27  28
ENDBRANCH  26  27
BRANCH  26  34
ATOM     34  N23 ZIN A   1      17.696   3.124  14.346  0.00  0.00    -0.329 N 
ATOM     35  C24 ZIN A   1      18.468   3.985  15.038  0.00  0.00     0.361 C 
ATOM     36  O25 ZIN A   1      19.585   3.655  15.386  0.00  0.00    -0.238 OA
ATOM     37  H62 ZIN A   1      16.804   3.387  14.069  0.00  0.00     0.165 HD
BRANCH  35  38
ATOM     38  O26 ZIN A   1      18.001   5.210  15.345  0.00  0.00    -0.296 OA
BRANCH  38  39
ATOM     39  C27 ZIN A   1      16.562   5.396  15.311  0.00  0.00     0.159 C 
ATOM     40  C32 ZIN A   1      16.172   6.478  14.282  0.00  0.00     0.200 C 
ATOM     41  O31 ZIN A   1      15.125   7.269  14.866  0.00  0.00    -0.389 OA
ATOM     42  C30 ZIN A   1      14.784   6.752  16.162  0.00  0.00     0.170 C 
ATOM     43  C29 ZIN A   1      16.051   6.004  16.647  0.00  0.00     0.061 C 
ENDBRANCH  38  39
ENDBRANCH  35  38
ENDBRANCH  26  34
ENDBRANCH   1  26
TORSDOF 16
ENDMDL
