MODEL 1
REMARK VINA RESULT:      -6.8      0.000      0.000
REMARK  22 active torsions:
REMARK  status: ('A' for Active; 'I' for Inactive)
REMARK    1  A    between atoms: C2_2  and  C3_3 
REMARK    2  A    between atoms: C3_3  and  C4_4 
REMARK    3  A    between atoms: C4_4  and  C5_5 
REMARK    4  A    between atoms: C5_5  and  C6_6 
REMARK    5  A    between atoms: C6_6  and  C7_7 
REMARK    6  A    between atoms: C7_7  and  C8_8 
REMARK    7  A    between atoms: C8_8  and  C9_9 
REMARK    8  A    between atoms: C9_9  and  C10_10 
REMARK    9  A    between atoms: C10_10  and  C11_11 
REMARK   10  A    between atoms: C11_11  and  C12_12 
REMARK   11  A    between atoms: C12_12  and  C13_13 
REMARK   12  A    between atoms: C13_13  and  C14_14 
REMARK   13  A    between atoms: C14_14  and  C15_15 
REMARK   14  A    between atoms: C15_15  and  C16_16 
REMARK   15  A    between atoms: C16_16  and  N17_17 
REMARK   16  A    between atoms: N17_17  and  C20_20 
REMARK   17  A    between atoms: C20_20  and  C21_21 
REMARK   18  A    between atoms: C21_21  and  N22_22 
REMARK   19  A    between atoms: N22_22  and  C23_23 
REMARK   20  A    between atoms: N22_22  and  C32_32 
REMARK   21  A    between atoms: C23_23  and  C24_24 
REMARK   22  A    between atoms: C27_27  and  O28_28 
ROOT
ATOM      1  N17 ZIN A   1      18.849  -3.236  11.111  0.00  0.00    -0.073 N 
ATOM      2  C18 ZIN A   1      17.437  -3.630  11.017  0.00  0.00     0.272 C 
ATOM      3  C19 ZIN A   1      19.694  -4.439  11.113  0.00  0.00     0.272 C 
ENDROOT
BRANCH   1   4
ATOM      4  C16 ZIN A   1      19.201  -2.393   9.961  0.00  0.00     0.236 C 
BRANCH   4   5
ATOM      5  C15 ZIN A   1      17.992  -2.268   9.032  0.00  0.00     0.028 C 
BRANCH   5   6
ATOM      6  C14 ZIN A   1      17.914  -0.841   8.486  0.00  0.00     0.002 C 
BRANCH   6   7
ATOM      7  C13 ZIN A   1      19.326  -0.263   8.368  0.00  0.00     0.000 C 
BRANCH   7   8
ATOM      8  C12 ZIN A   1      19.246   1.182   7.869  0.00  0.00     0.000 C 
BRANCH   8   9
ATOM      9  C11 ZIN A   1      18.483   1.222   6.544  0.00  0.00     0.000 C 
BRANCH   9  10
ATOM     10  C10 ZIN A   1      19.397   0.742   5.415  0.00  0.00     0.000 C 
BRANCH  10  11
ATOM     11  C9  ZIN A   1      18.684  -0.346   4.609  0.00  0.00     0.000 C 
BRANCH  11  12
ATOM     12  C8  ZIN A   1      19.183  -1.722   5.054  0.00  0.00     0.000 C 
BRANCH  12  13
ATOM     13  C7  ZIN A   1      18.040  -2.734   4.959  0.00  0.00     0.000 C 
BRANCH  13  14
ATOM     14  C6  ZIN A   1      18.537  -4.108   5.416  0.00  0.00     0.000 C 
BRANCH  14  15
ATOM     15  C5  ZIN A   1      19.778  -3.934   6.295  0.00  0.00     0.000 C 
BRANCH  15  16
ATOM     16  C4  ZIN A   1      19.814  -5.040   7.351  0.00  0.00     0.000 C 
BRANCH  16  17
ATOM     17  C3  ZIN A   1      18.587  -5.938   7.192  0.00  0.00    -0.000 C 
BRANCH  17  18
ATOM     18  C2  ZIN A   1      18.196  -6.515   8.554  0.00  0.00    -0.005 C 
ATOM     19  C1  ZIN A   1      16.845  -7.223   8.439  0.00  0.00     0.005 C 
ENDBRANCH  17  18
ENDBRANCH  16  17
ENDBRANCH  15  16
ENDBRANCH  14  15
ENDBRANCH  13  14
ENDBRANCH  12  13
ENDBRANCH  11  12
ENDBRANCH  10  11
ENDBRANCH   9  10
ENDBRANCH   8   9
ENDBRANCH   7   8
ENDBRANCH   6   7
ENDBRANCH   5   6
ENDBRANCH   4   5
ENDBRANCH   1   4
BRANCH   1  20
ATOM     20  C20 ZIN A   1      19.066  -2.485  12.354  0.00  0.00     0.257 C 
BRANCH  20  21
ATOM     21  C21 ZIN A   1      19.596  -1.089  12.023  0.00  0.00     0.169 C 
BRANCH  21  22
ATOM     22  N22 ZIN A   1      18.604  -0.084  12.415  0.00  0.00    -0.208 N 
BRANCH  22  23
ATOM     23  C23 ZIN A   1      17.622  -0.392  13.458  0.00  0.00     0.180 C 
BRANCH  23  24
ATOM     24  C24 ZIN A   1      18.138   0.085  14.791  0.00  0.00    -0.040 A 
ATOM     25  C31 ZIN A   1      18.293   1.438  15.027  0.00  0.00     0.011 A 
ATOM     26  C30 ZIN A   1      18.762   1.879  16.250  0.00  0.00     0.037 A 
ATOM     27  C27 ZIN A   1      19.087   0.960  17.238  0.00  0.00     0.068 A 
ATOM     28  C26 ZIN A   1      18.936  -0.398  16.997  0.00  0.00     0.037 A 
ATOM     29  C25 ZIN A   1      18.463  -0.832  15.775  0.00  0.00     0.011 A 
BRANCH  27  30
ATOM     30  O28 ZIN A   1      19.553   1.390  18.440  0.00  0.00    -0.356 OA
ATOM     31  C29 ZIN A   1      19.181   2.708  18.846  0.00  0.00     0.210 C 
ENDBRANCH  27  30
ENDBRANCH  23  24
ENDBRANCH  22  23
BRANCH  22  32
ATOM     32  C32 ZIN A   1      18.596   1.155  11.801  0.00  0.00     0.724 A 
ATOM     33  N37 ZIN A   1      19.731   1.829  11.688  0.00  0.00    -0.075 NA
ATOM     34  C36 ZIN A   1      19.758   3.015  11.102  0.00  0.00     0.138 A 
ATOM     35  C35 ZIN A   1      18.579   3.555  10.613  0.00  0.00     0.040 A 
ATOM     36  C34 ZIN A   1      17.409   2.826  10.752  0.00  0.00     0.138 A 
ATOM     37  N33 ZIN A   1      17.451   1.644  11.344  0.00  0.00    -0.075 NA
ENDBRANCH  22  32
ENDBRANCH  21  22
ENDBRANCH  20  21
ENDBRANCH   1  20
TORSDOF 22
ENDMDL
MODEL 2
REMARK VINA RESULT:      -6.5      3.139      9.920
REMARK  22 active torsions:
REMARK  status: ('A' for Active; 'I' for Inactive)
REMARK    1  A    between atoms: C2_2  and  C3_3 
REMARK    2  A    between atoms: C3_3  and  C4_4 
REMARK    3  A    between atoms: C4_4  and  C5_5 
REMARK    4  A    between atoms: C5_5  and  C6_6 
REMARK    5  A    between atoms: C6_6  and  C7_7 
REMARK    6  A    between atoms: C7_7  and  C8_8 
REMARK    7  A    between atoms: C8_8  and  C9_9 
REMARK    8  A    between atoms: C9_9  and  C10_10 
REMARK    9  A    between atoms: C10_10  and  C11_11 
REMARK   10  A    between atoms: C11_11  and  C12_12 
REMARK   11  A    between atoms: C12_12  and  C13_13 
REMARK   12  A    between atoms: C13_13  and  C14_14 
REMARK   13  A    between atoms: C14_14  and  C15_15 
REMARK   14  A    between atoms: C15_15  and  C16_16 
REMARK   15  A    between atoms: C16_16  and  N17_17 
REMARK   16  A    between atoms: N17_17  and  C20_20 
REMARK   17  A    between atoms: C20_20  and  C21_21 
REMARK   18  A    between atoms: C21_21  and  N22_22 
REMARK   19  A    between atoms: N22_22  and  C23_23 
REMARK   20  A    between atoms: N22_22  and  C32_32 
REMARK   21  A    between atoms: C23_23  and  C24_24 
REMARK   22  A    between atoms: C27_27  and  O28_28 
ROOT
ATOM      1  N17 ZIN A   1      18.442   3.251  11.026  0.00  0.00    -0.073 N 
ATOM      2  C18 ZIN A   1      17.916   4.554  10.601  0.00  0.00     0.272 C 
ATOM      3  C19 ZIN A   1      19.813   3.416  11.531  0.00  0.00     0.272 C 
ENDROOT
BRANCH   1   4
ATOM      4  C16 ZIN A   1      17.591   2.701  12.090  0.00  0.00     0.236 C 
BRANCH   4   5
ATOM      5  C15 ZIN A   1      18.327   2.793  13.429  0.00  0.00     0.028 C 
BRANCH   5   6
ATOM      6  C14 ZIN A   1      18.029   1.544  14.259  0.00  0.00     0.002 C 
BRANCH   6   7
ATOM      7  C13 ZIN A   1      19.108   0.490  14.000  0.00  0.00     0.000 C 
BRANCH   7   8
ATOM      8  C12 ZIN A   1      18.557  -0.898  14.336  0.00  0.00     0.000 C 
BRANCH   8   9
ATOM      9  C11 ZIN A   1      18.881  -1.235  15.793  0.00  0.00     0.000 C 
BRANCH   9  10
ATOM     10  C10 ZIN A   1      17.595  -1.203  16.622  0.00  0.00     0.000 C 
BRANCH  10  11
ATOM     11  C9  ZIN A   1      17.634  -0.010  17.578  0.00  0.00     0.000 C 
BRANCH  11  12
ATOM     12  C8  ZIN A   1      19.089   0.375  17.856  0.00  0.00     0.000 C 
BRANCH  12  13
ATOM     13  C7  ZIN A   1      19.135   1.759  18.508  0.00  0.00     0.000 C 
BRANCH  13  14
ATOM     14  C6  ZIN A   1      19.461   2.811  17.446  0.00  0.00     0.000 C 
BRANCH  14  15
ATOM     15  C5  ZIN A   1      18.268   3.755  17.281  0.00  0.00     0.000 C 
BRANCH  15  16
ATOM     16  C4  ZIN A   1      18.656   4.913  16.360  0.00  0.00     0.000 C 
BRANCH  16  17
ATOM     17  C3  ZIN A   1      17.392   5.608  15.852  0.00  0.00    -0.000 C 
BRANCH  17  18
ATOM     18  C2  ZIN A   1      17.656   6.200  14.466  0.00  0.00    -0.005 C 
ATOM     19  C1  ZIN A   1      16.383   6.112  13.623  0.00  0.00     0.005 C 
ENDBRANCH  17  18
ENDBRANCH  16  17
ENDBRANCH  15  16
ENDBRANCH  14  15
ENDBRANCH  13  14
ENDBRANCH  12  13
ENDBRANCH  11  12
ENDBRANCH  10  11
ENDBRANCH   9  10
ENDBRANCH   8   9
ENDBRANCH   7   8
ENDBRANCH   6   7
ENDBRANCH   5   6
ENDBRANCH   4   5
ENDBRANCH   1   4
BRANCH   1  20
ATOM     20  C20 ZIN A   1      18.452   2.330   9.881  0.00  0.00     0.257 C 
BRANCH  20  21
ATOM     21  C21 ZIN A   1      17.851   0.987  10.300  0.00  0.00     0.169 C 
BRANCH  21  22
ATOM     22  N22 ZIN A   1      18.743  -0.099   9.884  0.00  0.00    -0.208 N 
BRANCH  22  23
ATOM     23  C23 ZIN A   1      19.673   0.104   8.770  0.00  0.00     0.180 C 
BRANCH  23  24
ATOM     24  C24 ZIN A   1      19.045  -0.396   7.494  0.00  0.00    -0.040 A 
ATOM     25  C31 ZIN A   1      18.233   0.441   6.751  0.00  0.00     0.011 A 
ATOM     26  C30 ZIN A   1      17.660  -0.013   5.578  0.00  0.00     0.037 A 
ATOM     27  C27 ZIN A   1      17.892  -1.313   5.153  0.00  0.00     0.068 A 
ATOM     28  C26 ZIN A   1      18.703  -2.153   5.904  0.00  0.00     0.037 A 
ATOM     29  C25 ZIN A   1      19.277  -1.692   7.072  0.00  0.00     0.011 A 
BRANCH  27  30
ATOM     30  O28 ZIN A   1      17.326  -1.764   4.002  0.00  0.00    -0.356 OA
ATOM     31  C29 ZIN A   1      16.915  -3.132   3.974  0.00  0.00     0.210 C 
ENDBRANCH  27  30
ENDBRANCH  23  24
ENDBRANCH  22  23
BRANCH  22  32
ATOM     32  C32 ZIN A   1      18.706  -1.315  10.543  0.00  0.00     0.724 A 
ATOM     33  N37 ZIN A   1      17.538  -1.908  10.742  0.00  0.00    -0.075 NA
ATOM     34  C36 ZIN A   1      17.469  -3.073  11.364  0.00  0.00     0.138 A 
ATOM     35  C35 ZIN A   1      18.635  -3.668  11.819  0.00  0.00     0.040 A 
ATOM     36  C34 ZIN A   1      19.840  -3.018  11.598  0.00  0.00     0.138 A 
ATOM     37  N33 ZIN A   1      19.839  -1.857  10.964  0.00  0.00    -0.075 NA
ENDBRANCH  22  32
ENDBRANCH  21  22
ENDBRANCH  20  21
ENDBRANCH   1  20
TORSDOF 22
ENDMDL
MODEL 3
REMARK VINA RESULT:      -6.3      3.417      8.857
REMARK  22 active torsions:
REMARK  status: ('A' for Active; 'I' for Inactive)
REMARK    1  A    between atoms: C2_2  and  C3_3 
REMARK    2  A    between atoms: C3_3  and  C4_4 
REMARK    3  A    between atoms: C4_4  and  C5_5 
REMARK    4  A    between atoms: C5_5  and  C6_6 
REMARK    5  A    between atoms: C6_6  and  C7_7 
REMARK    6  A    between atoms: C7_7  and  C8_8 
REMARK    7  A    between atoms: C8_8  and  C9_9 
REMARK    8  A    between atoms: C9_9  and  C10_10 
REMARK    9  A    between atoms: C10_10  and  C11_11 
REMARK   10  A    between atoms: C11_11  and  C12_12 
REMARK   11  A    between atoms: C12_12  and  C13_13 
REMARK   12  A    between atoms: C13_13  and  C14_14 
REMARK   13  A    between atoms: C14_14  and  C15_15 
REMARK   14  A    between atoms: C15_15  and  C16_16 
REMARK   15  A    between atoms: C16_16  and  N17_17 
REMARK   16  A    between atoms: N17_17  and  C20_20 
REMARK   17  A    between atoms: C20_20  and  C21_21 
REMARK   18  A    between atoms: C21_21  and  N22_22 
REMARK   19  A    between atoms: N22_22  and  C23_23 
REMARK   20  A    between atoms: N22_22  and  C32_32 
REMARK   21  A    between atoms: C23_23  and  C24_24 
REMARK   22  A    between atoms: C27_27  and  O28_28 
ROOT
ATOM      1  N17 ZIN A   1      17.986  -5.106  10.395  0.00  0.00    -0.073 N 
ATOM      2  C18 ZIN A   1      19.398  -5.390  10.112  0.00  0.00     0.272 C 
ATOM      3  C19 ZIN A   1      17.724  -5.302  11.828  0.00  0.00     0.272 C 
ENDROOT
BRANCH   1   4
ATOM      4  C16 ZIN A   1      17.681  -3.717  10.027  0.00  0.00     0.236 C 
BRANCH   4   5
ATOM      5  C15 ZIN A   1      18.721  -2.785  10.651  0.00  0.00     0.028 C 
BRANCH   5   6
ATOM      6  C14 ZIN A   1      18.911  -1.561   9.753  0.00  0.00     0.002 C 
BRANCH   6   7
ATOM      7  C13 ZIN A   1      17.860  -1.577   8.642  0.00  0.00     0.000 C 
BRANCH   7   8
ATOM      8  C12 ZIN A   1      17.668  -0.157   8.101  0.00  0.00     0.000 C 
BRANCH   8   9
ATOM      9  C11 ZIN A   1      19.031   0.447   7.760  0.00  0.00     0.000 C 
BRANCH   9  10
ATOM     10  C10 ZIN A   1      19.007   1.950   8.044  0.00  0.00     0.000 C 
BRANCH  10  11
ATOM     11  C9  ZIN A   1      19.327   2.196   9.520  0.00  0.00     0.000 C 
BRANCH  11  12
ATOM     12  C8  ZIN A   1      18.142   2.895  10.190  0.00  0.00     0.000 C 
BRANCH  12  13
ATOM     13  C7  ZIN A   1      17.484   1.940  11.188  0.00  0.00     0.000 C 
BRANCH  13  14
ATOM     14  C6  ZIN A   1      18.561   1.301  12.068  0.00  0.00     0.000 C 
BRANCH  14  15
ATOM     15  C5  ZIN A   1      17.943   0.879  13.403  0.00  0.00     0.000 C 
BRANCH  15  16
ATOM     16  C4  ZIN A   1      17.737  -0.637  13.413  0.00  0.00     0.000 C 
BRANCH  16  17
ATOM     17  C3  ZIN A   1      18.596  -1.262  14.513  0.00  0.00    -0.000 C 
BRANCH  17  18
ATOM     18  C2  ZIN A   1      17.971  -0.970  15.878  0.00  0.00    -0.005 C 
ATOM     19  C1  ZIN A   1      19.050  -1.040  16.960  0.00  0.00     0.005 C 
ENDBRANCH  17  18
ENDBRANCH  16  17
ENDBRANCH  15  16
ENDBRANCH  14  15
ENDBRANCH  13  14
ENDBRANCH  12  13
ENDBRANCH  11  12
ENDBRANCH  10  11
ENDBRANCH   9  10
ENDBRANCH   8   9
ENDBRANCH   7   8
ENDBRANCH   6   7
ENDBRANCH   5   6
ENDBRANCH   4   5
ENDBRANCH   1   4
BRANCH   1  20
ATOM     20  C20 ZIN A   1      17.137  -6.017   9.616  0.00  0.00     0.257 C 
BRANCH  20  21
ATOM     21  C21 ZIN A   1      16.437  -5.237   8.502  0.00  0.00     0.169 C 
BRANCH  21  22
ATOM     22  N22 ZIN A   1      16.541  -5.982   7.244  0.00  0.00    -0.208 N 
BRANCH  22  23
ATOM     23  C23 ZIN A   1      17.848  -6.173   6.612  0.00  0.00     0.180 C 
BRANCH  23  24
ATOM     24  C24 ZIN A   1      18.334  -4.859   6.055  0.00  0.00    -0.040 A 
ATOM     25  C31 ZIN A   1      19.403  -4.212   6.646  0.00  0.00     0.011 A 
ATOM     26  C30 ZIN A   1      19.853  -3.009   6.135  0.00  0.00     0.037 A 
ATOM     27  C27 ZIN A   1      19.224  -2.448   5.033  0.00  0.00     0.068 A 
ATOM     28  C26 ZIN A   1      18.149  -3.097   4.445  0.00  0.00     0.037 A 
ATOM     29  C25 ZIN A   1      17.706  -4.300   4.957  0.00  0.00     0.011 A 
BRANCH  27  30
ATOM     30  O28 ZIN A   1      19.662  -1.263   4.531  0.00  0.00    -0.356 OA
ATOM     31  C29 ZIN A   1      18.674  -0.266   4.266  0.00  0.00     0.210 C 
ENDBRANCH  27  30
ENDBRANCH  23  24
ENDBRANCH  22  23
BRANCH  22  32
ATOM     32  C32 ZIN A   1      15.403  -6.504   6.654  0.00  0.00     0.724 A 
ATOM     33  N37 ZIN A   1      15.515  -7.174   5.516  0.00  0.00    -0.075 NA
ATOM     34  C36 ZIN A   1      14.448  -7.690   4.929  0.00  0.00     0.138 A 
ATOM     35  C35 ZIN A   1      13.203  -7.514   5.512  0.00  0.00     0.040 A 
ATOM     36  C34 ZIN A   1      13.122  -6.805   6.700  0.00  0.00     0.138 A 
ATOM     37  N33 ZIN A   1      14.228  -6.319   7.238  0.00  0.00    -0.075 NA
ENDBRANCH  22  32
ENDBRANCH  21  22
ENDBRANCH  20  21
ENDBRANCH   1  20
TORSDOF 22
ENDMDL
MODEL 4
REMARK VINA RESULT:      -6.2      2.965      8.609
REMARK  22 active torsions:
REMARK  status: ('A' for Active; 'I' for Inactive)
REMARK    1  A    between atoms: C2_2  and  C3_3 
REMARK    2  A    between atoms: C3_3  and  C4_4 
REMARK    3  A    between atoms: C4_4  and  C5_5 
REMARK    4  A    between atoms: C5_5  and  C6_6 
REMARK    5  A    between atoms: C6_6  and  C7_7 
REMARK    6  A    between atoms: C7_7  and  C8_8 
REMARK    7  A    between atoms: C8_8  and  C9_9 
REMARK    8  A    between atoms: C9_9  and  C10_10 
REMARK    9  A    between atoms: C10_10  and  C11_11 
REMARK   10  A    between atoms: C11_11  and  C12_12 
REMARK   11  A    between atoms: C12_12  and  C13_13 
REMARK   12  A    between atoms: C13_13  and  C14_14 
REMARK   13  A    between atoms: C14_14  and  C15_15 
REMARK   14  A    between atoms: C15_15  and  C16_16 
REMARK   15  A    between atoms: C16_16  and  N17_17 
REMARK   16  A    between atoms: N17_17  and  C20_20 
REMARK   17  A    between atoms: C20_20  and  C21_21 
REMARK   18  A    between atoms: C21_21  and  N22_22 
REMARK   19  A    between atoms: N22_22  and  C23_23 
REMARK   20  A    between atoms: N22_22  and  C32_32 
REMARK   21  A    between atoms: C23_23  and  C24_24 
REMARK   22  A    between atoms: C27_27  and  O28_28 
ROOT
ATOM      1  N17 ZIN A   1      18.028  -0.220   8.647  0.00  0.00    -0.073 N 
ATOM      2  C18 ZIN A   1      17.055  -0.258   7.547  0.00  0.00     0.272 C 
ATOM      3  C19 ZIN A   1      19.387  -0.128   8.096  0.00  0.00     0.272 C 
ENDROOT
BRANCH   1   4
ATOM      4  C16 ZIN A   1      17.764   0.950   9.495  0.00  0.00     0.236 C 
BRANCH   4   5
ATOM      5  C15 ZIN A   1      18.705   2.090   9.099  0.00  0.00     0.028 C 
BRANCH   5   6
ATOM      6  C14 ZIN A   1      18.521   3.261  10.065  0.00  0.00     0.002 C 
BRANCH   6   7
ATOM      7  C13 ZIN A   1      17.789   2.777  11.319  0.00  0.00     0.000 C 
BRANCH   7   8
ATOM      8  C12 ZIN A   1      17.992   3.788  12.450  0.00  0.00     0.000 C 
BRANCH   8   9
ATOM      9  C11 ZIN A   1      19.436   4.292  12.431  0.00  0.00     0.000 C 
BRANCH   9  10
ATOM     10  C10 ZIN A   1      19.681   5.182  13.650  0.00  0.00     0.000 C 
BRANCH  10  11
ATOM     11  C9  ZIN A   1      18.532   5.012  14.646  0.00  0.00     0.000 C 
BRANCH  11  12
ATOM     12  C8  ZIN A   1      19.087   5.002  16.071  0.00  0.00     0.000 C 
BRANCH  12  13
ATOM     13  C7  ZIN A   1      19.083   3.570  16.611  0.00  0.00     0.000 C 
BRANCH  13  14
ATOM     14  C6  ZIN A   1      18.512   3.563  18.031  0.00  0.00     0.000 C 
BRANCH  14  15
ATOM     15  C5  ZIN A   1      18.157   2.129  18.430  0.00  0.00     0.000 C 
BRANCH  15  16
ATOM     16  C4  ZIN A   1      19.387   1.235  18.269  0.00  0.00     0.000 C 
BRANCH  16  17
ATOM     17  C3  ZIN A   1      18.943  -0.198  17.973  0.00  0.00    -0.000 C 
BRANCH  17  18
ATOM     18  C2  ZIN A   1      17.540  -0.182  17.363  0.00  0.00    -0.005 C 
ATOM     19  C1  ZIN A   1      17.257  -1.531  16.698  0.00  0.00     0.005 C 
ENDBRANCH  17  18
ENDBRANCH  16  17
ENDBRANCH  15  16
ENDBRANCH  14  15
ENDBRANCH  13  14
ENDBRANCH  12  13
ENDBRANCH  11  12
ENDBRANCH  10  11
ENDBRANCH   9  10
ENDBRANCH   8   9
ENDBRANCH   7   8
ENDBRANCH   6   7
ENDBRANCH   5   6
ENDBRANCH   4   5
ENDBRANCH   1   4
BRANCH   1  20
ATOM     20  C20 ZIN A   1      17.908  -1.444   9.449  0.00  0.00     0.257 C 
BRANCH  20  21
ATOM     21  C21 ZIN A   1      19.257  -2.164   9.489  0.00  0.00     0.169 C 
BRANCH  21  22
ATOM     22  N22 ZIN A   1      19.642  -2.405  10.882  0.00  0.00    -0.208 N 
BRANCH  22  23
ATOM     23  C23 ZIN A   1      19.955  -3.765  11.330  0.00  0.00     0.180 C 
BRANCH  23  24
ATOM     24  C24 ZIN A   1      19.067  -4.747  10.611  0.00  0.00    -0.040 A 
ATOM     25  C31 ZIN A   1      19.524  -5.388   9.475  0.00  0.00     0.011 A 
ATOM     26  C30 ZIN A   1      18.713  -6.293   8.817  0.00  0.00     0.037 A 
ATOM     27  C27 ZIN A   1      17.436  -6.551   9.293  0.00  0.00     0.068 A 
ATOM     28  C26 ZIN A   1      16.977  -5.903  10.430  0.00  0.00     0.037 A 
ATOM     29  C25 ZIN A   1      17.793  -5.003  11.087  0.00  0.00     0.011 A 
BRANCH  27  30
ATOM     30  O28 ZIN A   1      16.634  -7.437   8.644  0.00  0.00    -0.356 OA
ATOM     31  C29 ZIN A   1      16.077  -7.017   7.398  0.00  0.00     0.210 C 
ENDBRANCH  27  30
ENDBRANCH  23  24
ENDBRANCH  22  23
BRANCH  22  32
ATOM     32  C32 ZIN A   1      19.710  -1.349  11.773  0.00  0.00     0.724 A 
ATOM     33  N37 ZIN A   1      18.966  -1.380  12.869  0.00  0.00    -0.075 NA
ATOM     34  C36 ZIN A   1      19.011  -0.388  13.744  0.00  0.00     0.138 A 
ATOM     35  C35 ZIN A   1      19.840   0.694  13.498  0.00  0.00     0.040 A 
ATOM     36  C34 ZIN A   1      20.602   0.696  12.339  0.00  0.00     0.138 A 
ATOM     37  N33 ZIN A   1      20.514  -0.329  11.509  0.00  0.00    -0.075 NA
ENDBRANCH  22  32
ENDBRANCH  21  22
ENDBRANCH  20  21
ENDBRANCH   1  20
TORSDOF 22
ENDMDL
MODEL 5
REMARK VINA RESULT:      -6.1      2.766      8.902
REMARK  22 active torsions:
REMARK  status: ('A' for Active; 'I' for Inactive)
REMARK    1  A    between atoms: C2_2  and  C3_3 
REMARK    2  A    between atoms: C3_3  and  C4_4 
REMARK    3  A    between atoms: C4_4  and  C5_5 
REMARK    4  A    between atoms: C5_5  and  C6_6 
REMARK    5  A    between atoms: C6_6  and  C7_7 
REMARK    6  A    between atoms: C7_7  and  C8_8 
REMARK    7  A    between atoms: C8_8  and  C9_9 
REMARK    8  A    between atoms: C9_9  and  C10_10 
REMARK    9  A    between atoms: C10_10  and  C11_11 
REMARK   10  A    between atoms: C11_11  and  C12_12 
REMARK   11  A    between atoms: C12_12  and  C13_13 
REMARK   12  A    between atoms: C13_13  and  C14_14 
REMARK   13  A    between atoms: C14_14  and  C15_15 
REMARK   14  A    between atoms: C15_15  and  C16_16 
REMARK   15  A    between atoms: C16_16  and  N17_17 
REMARK   16  A    between atoms: N17_17  and  C20_20 
REMARK   17  A    between atoms: C20_20  and  C21_21 
REMARK   18  A    between atoms: C21_21  and  N22_22 
REMARK   19  A    between atoms: N22_22  and  C23_23 
REMARK   20  A    between atoms: N22_22  and  C32_32 
REMARK   21  A    between atoms: C23_23  and  C24_24 
REMARK   22  A    between atoms: C27_27  and  O28_28 
ROOT
ATOM      1  N17 ZIN A   1      18.607  -3.835  11.066  0.00  0.00    -0.073 N 
ATOM      2  C18 ZIN A   1      19.642  -4.542  10.301  0.00  0.00     0.272 C 
ATOM      3  C19 ZIN A   1      17.665  -4.810  11.634  0.00  0.00     0.272 C 
ENDROOT
BRANCH   1   4
ATOM      4  C16 ZIN A   1      19.235  -3.072  12.153  0.00  0.00     0.236 C 
BRANCH   4   5
ATOM      5  C15 ZIN A   1      18.234  -2.054  12.705  0.00  0.00     0.028 C 
BRANCH   5   6
ATOM      6  C14 ZIN A   1      18.971  -1.035  13.574  0.00  0.00     0.002 C 
BRANCH   6   7
ATOM      7  C13 ZIN A   1      18.757  -1.375  15.051  0.00  0.00     0.000 C 
BRANCH   7   8
ATOM      8  C12 ZIN A   1      17.720  -0.421  15.649  0.00  0.00     0.000 C 
BRANCH   8   9
ATOM      9  C11 ZIN A   1      17.658  -0.621  17.165  0.00  0.00     0.000 C 
BRANCH   9  10
ATOM     10  C10 ZIN A   1      17.536   0.740  17.853  0.00  0.00     0.000 C 
BRANCH  10  11
ATOM     11  C9  ZIN A   1      18.878   1.116  18.483  0.00  0.00     0.000 C 
BRANCH  11  12
ATOM     12  C8  ZIN A   1      19.236   2.555  18.103  0.00  0.00     0.000 C 
BRANCH  12  13
ATOM     13  C7  ZIN A   1      19.253   2.691  16.579  0.00  0.00     0.000 C 
BRANCH  13  14
ATOM     14  C6  ZIN A   1      19.386   4.168  16.202  0.00  0.00     0.000 C 
BRANCH  14  15
ATOM     15  C5  ZIN A   1      18.013   4.720  15.812  0.00  0.00     0.000 C 
BRANCH  15  16
ATOM     16  C4  ZIN A   1      18.068   6.249  15.781  0.00  0.00     0.000 C 
BRANCH  16  17
ATOM     17  C3  ZIN A   1      17.158   6.770  14.668  0.00  0.00    -0.000 C 
BRANCH  17  18
ATOM     18  C2  ZIN A   1      16.067   5.739  14.375  0.00  0.00    -0.005 C 
ATOM     19  C1  ZIN A   1      14.727   6.247  14.913  0.00  0.00     0.005 C 
ENDBRANCH  17  18
ENDBRANCH  16  17
ENDBRANCH  15  16
ENDBRANCH  14  15
ENDBRANCH  13  14
ENDBRANCH  12  13
ENDBRANCH  11  12
ENDBRANCH  10  11
ENDBRANCH   9  10
ENDBRANCH   8   9
ENDBRANCH   7   8
ENDBRANCH   6   7
ENDBRANCH   5   6
ENDBRANCH   4   5
ENDBRANCH   1   4
BRANCH   1  20
ATOM     20  C20 ZIN A   1      17.882  -2.917  10.177  0.00  0.00     0.257 C 
BRANCH  20  21
ATOM     21  C21 ZIN A   1      18.872  -2.232   9.234  0.00  0.00     0.169 C 
BRANCH  21  22
ATOM     22  N22 ZIN A   1      18.138  -1.566   8.155  0.00  0.00    -0.208 N 
BRANCH  22  23
ATOM     23  C23 ZIN A   1      17.144  -0.537   8.472  0.00  0.00     0.180 C 
BRANCH  23  24
ATOM     24  C24 ZIN A   1      17.799   0.570   9.257  0.00  0.00    -0.040 A 
ATOM     25  C31 ZIN A   1      17.410   0.816  10.561  0.00  0.00     0.011 A 
ATOM     26  C30 ZIN A   1      18.013   1.827  11.284  0.00  0.00     0.037 A 
ATOM     27  C27 ZIN A   1      19.002   2.603  10.696  0.00  0.00     0.068 A 
ATOM     28  C26 ZIN A   1      19.387   2.358   9.386  0.00  0.00     0.037 A 
ATOM     29  C25 ZIN A   1      18.784   1.343   8.670  0.00  0.00     0.011 A 
BRANCH  27  30
ATOM     30  O28 ZIN A   1      19.593   3.602  11.404  0.00  0.00    -0.356 OA
ATOM     31  C29 ZIN A   1      18.731   4.485  12.124  0.00  0.00     0.210 C 
ENDBRANCH  27  30
ENDBRANCH  23  24
ENDBRANCH  22  23
BRANCH  22  32
ATOM     32  C32 ZIN A   1      18.383  -1.908   6.837  0.00  0.00     0.724 A 
ATOM     33  N37 ZIN A   1      18.101  -1.036   5.879  0.00  0.00    -0.075 NA
ATOM     34  C36 ZIN A   1      18.328  -1.331   4.610  0.00  0.00     0.138 A 
ATOM     35  C35 ZIN A   1      18.858  -2.570   4.287  0.00  0.00     0.040 A 
ATOM     36  C34 ZIN A   1      19.137  -3.459   5.313  0.00  0.00     0.138 A 
ATOM     37  N33 ZIN A   1      18.891  -3.101   6.562  0.00  0.00    -0.075 NA
ENDBRANCH  22  32
ENDBRANCH  21  22
ENDBRANCH  20  21
ENDBRANCH   1  20
TORSDOF 22
ENDMDL
MODEL 6
REMARK VINA RESULT:      -6.1      1.061      3.623
REMARK  22 active torsions:
REMARK  status: ('A' for Active; 'I' for Inactive)
REMARK    1  A    between atoms: C2_2  and  C3_3 
REMARK    2  A    between atoms: C3_3  and  C4_4 
REMARK    3  A    between atoms: C4_4  and  C5_5 
REMARK    4  A    between atoms: C5_5  and  C6_6 
REMARK    5  A    between atoms: C6_6  and  C7_7 
REMARK    6  A    between atoms: C7_7  and  C8_8 
REMARK    7  A    between atoms: C8_8  and  C9_9 
REMARK    8  A    between atoms: C9_9  and  C10_10 
REMARK    9  A    between atoms: C10_10  and  C11_11 
REMARK   10  A    between atoms: C11_11  and  C12_12 
REMARK   11  A    between atoms: C12_12  and  C13_13 
REMARK   12  A    between atoms: C13_13  and  C14_14 
REMARK   13  A    between atoms: C14_14  and  C15_15 
REMARK   14  A    between atoms: C15_15  and  C16_16 
REMARK   15  A    between atoms: C16_16  and  N17_17 
REMARK   16  A    between atoms: N17_17  and  C20_20 
REMARK   17  A    between atoms: C20_20  and  C21_21 
REMARK   18  A    between atoms: C21_21  and  N22_22 
REMARK   19  A    between atoms: N22_22  and  C23_23 
REMARK   20  A    between atoms: N22_22  and  C32_32 
REMARK   21  A    between atoms: C23_23  and  C24_24 
REMARK   22  A    between atoms: C27_27  and  O28_28 
ROOT
ATOM      1  N17 ZIN A   1      18.580  -3.832  11.099  0.00  0.00    -0.073 N 
ATOM      2  C18 ZIN A   1      17.779  -4.601  12.060  0.00  0.00     0.272 C 
ATOM      3  C19 ZIN A   1      19.976  -3.779  11.557  0.00  0.00     0.272 C 
ENDROOT
BRANCH   1   4
ATOM      4  C16 ZIN A   1      18.521  -4.478   9.782  0.00  0.00     0.236 C 
BRANCH   4   5
ATOM      5  C15 ZIN A   1      17.061  -4.730   9.402  0.00  0.00     0.028 C 
BRANCH   5   6
ATOM      6  C14 ZIN A   1      17.002  -5.493   8.079  0.00  0.00     0.002 C 
BRANCH   6   7
ATOM      7  C13 ZIN A   1      18.399  -6.009   7.726  0.00  0.00     0.000 C 
BRANCH   7   8
ATOM      8  C12 ZIN A   1      18.468  -6.312   6.228  0.00  0.00     0.000 C 
BRANCH   8   9
ATOM      9  C11 ZIN A   1      17.198  -5.801   5.545  0.00  0.00     0.000 C 
BRANCH   9  10
ATOM     10  C10 ZIN A   1      17.497  -5.492   4.077  0.00  0.00     0.000 C 
BRANCH  10  11
ATOM     11  C9  ZIN A   1      17.379  -3.986   3.838  0.00  0.00     0.000 C 
BRANCH  11  12
ATOM     12  C8  ZIN A   1      18.686  -3.300   4.239  0.00  0.00     0.000 C 
BRANCH  12  13
ATOM     13  C7  ZIN A   1      18.431  -2.369   5.426  0.00  0.00     0.000 C 
BRANCH  13  14
ATOM     14  C6  ZIN A   1      19.471  -2.639   6.517  0.00  0.00     0.000 C 
BRANCH  14  15
ATOM     15  C5  ZIN A   1      19.178  -1.753   7.729  0.00  0.00     0.000 C 
BRANCH  15  16
ATOM     16  C4  ZIN A   1      17.752  -1.209   7.631  0.00  0.00     0.000 C 
BRANCH  16  17
ATOM     17  C3  ZIN A   1      17.736   0.262   8.049  0.00  0.00    -0.000 C 
BRANCH  17  18
ATOM     18  C2  ZIN A   1      19.048   0.927   7.629  0.00  0.00    -0.005 C 
ATOM     19  C1  ZIN A   1      18.949   1.373   6.168  0.00  0.00     0.005 C 
ENDBRANCH  17  18
ENDBRANCH  16  17
ENDBRANCH  15  16
ENDBRANCH  14  15
ENDBRANCH  13  14
ENDBRANCH  12  13
ENDBRANCH  11  12
ENDBRANCH  10  11
ENDBRANCH   9  10
ENDBRANCH   8   9
ENDBRANCH   7   8
ENDBRANCH   6   7
ENDBRANCH   5   6
ENDBRANCH   4   5
ENDBRANCH   1   4
BRANCH   1  20
ATOM     20  C20 ZIN A   1      18.048  -2.466  11.000  0.00  0.00     0.257 C 
BRANCH  20  21
ATOM     21  C21 ZIN A   1      18.982  -1.499  11.729  0.00  0.00     0.169 C 
BRANCH  21  22
ATOM     22  N22 ZIN A   1      18.210  -0.359  12.231  0.00  0.00    -0.208 N 
BRANCH  22  23
ATOM     23  C23 ZIN A   1      17.258  -0.547  13.329  0.00  0.00     0.180 C 
BRANCH  23  24
ATOM     24  C24 ZIN A   1      17.906  -0.148  14.630  0.00  0.00    -0.040 A 
ATOM     25  C31 ZIN A   1      18.119   1.188  14.914  0.00  0.00     0.011 A 
ATOM     26  C30 ZIN A   1      18.709   1.557  16.108  0.00  0.00     0.037 A 
ATOM     27  C27 ZIN A   1      19.096   0.583  17.017  0.00  0.00     0.068 A 
ATOM     28  C26 ZIN A   1      18.887  -0.758  16.727  0.00  0.00     0.037 A 
ATOM     29  C25 ZIN A   1      18.292  -1.120  15.535  0.00  0.00     0.011 A 
BRANCH  27  30
ATOM     30  O28 ZIN A   1      19.682   0.942  18.190  0.00  0.00    -0.356 OA
ATOM     31  C29 ZIN A   1      19.324   2.215  18.730  0.00  0.00     0.210 C 
ENDBRANCH  27  30
ENDBRANCH  23  24
ENDBRANCH  22  23
BRANCH  22  32
ATOM     32  C32 ZIN A   1      18.380   0.893  11.669  0.00  0.00     0.724 A 
ATOM     33  N37 ZIN A   1      17.318   1.657  11.457  0.00  0.00    -0.075 NA
ATOM     34  C36 ZIN A   1      17.447   2.861  10.925  0.00  0.00     0.138 A 
ATOM     35  C35 ZIN A   1      18.709   3.317  10.579  0.00  0.00     0.040 A 
ATOM     36  C34 ZIN A   1      19.798   2.490  10.810  0.00  0.00     0.138 A 
ATOM     37  N33 ZIN A   1      19.601   1.299  11.350  0.00  0.00    -0.075 NA
ENDBRANCH  22  32
ENDBRANCH  21  22
ENDBRANCH  20  21
ENDBRANCH   1  20
TORSDOF 22
ENDMDL
MODEL 7
REMARK VINA RESULT:      -6.0      2.836      9.253
REMARK  22 active torsions:
REMARK  status: ('A' for Active; 'I' for Inactive)
REMARK    1  A    between atoms: C2_2  and  C3_3 
REMARK    2  A    between atoms: C3_3  and  C4_4 
REMARK    3  A    between atoms: C4_4  and  C5_5 
REMARK    4  A    between atoms: C5_5  and  C6_6 
REMARK    5  A    between atoms: C6_6  and  C7_7 
REMARK    6  A    between atoms: C7_7  and  C8_8 
REMARK    7  A    between atoms: C8_8  and  C9_9 
REMARK    8  A    between atoms: C9_9  and  C10_10 
REMARK    9  A    between atoms: C10_10  and  C11_11 
REMARK   10  A    between atoms: C11_11  and  C12_12 
REMARK   11  A    between atoms: C12_12  and  C13_13 
REMARK   12  A    between atoms: C13_13  and  C14_14 
REMARK   13  A    between atoms: C14_14  and  C15_15 
REMARK   14  A    between atoms: C15_15  and  C16_16 
REMARK   15  A    between atoms: C16_16  and  N17_17 
REMARK   16  A    between atoms: N17_17  and  C20_20 
REMARK   17  A    between atoms: C20_20  and  C21_21 
REMARK   18  A    between atoms: C21_21  and  N22_22 
REMARK   19  A    between atoms: N22_22  and  C23_23 
REMARK   20  A    between atoms: N22_22  and  C32_32 
REMARK   21  A    between atoms: C23_23  and  C24_24 
REMARK   22  A    between atoms: C27_27  and  O28_28 
ROOT
ATOM      1  N17 ZIN A   1      18.074   3.208  11.412  0.00  0.00    -0.073 N 
ATOM      2  C18 ZIN A   1      17.130   4.302  11.148  0.00  0.00     0.272 C 
ATOM      3  C19 ZIN A   1      19.448   3.683  11.193  0.00  0.00     0.272 C 
ENDROOT
BRANCH   1   4
ATOM      4  C16 ZIN A   1      17.928   2.758  12.802  0.00  0.00     0.236 C 
BRANCH   4   5
ATOM      5  C15 ZIN A   1      18.991   1.701  13.110  0.00  0.00     0.028 C 
BRANCH   5   6
ATOM      6  C14 ZIN A   1      18.424   0.682  14.100  0.00  0.00     0.002 C 
BRANCH   6   7
ATOM      7  C13 ZIN A   1      19.491  -0.367  14.418  0.00  0.00     0.000 C 
BRANCH   7   8
ATOM      8  C12 ZIN A   1      18.848  -1.541  15.161  0.00  0.00     0.000 C 
BRANCH   8   9
ATOM      9  C11 ZIN A   1      18.777  -1.221  16.656  0.00  0.00     0.000 C 
BRANCH   9  10
ATOM     10  C10 ZIN A   1      17.365  -0.754  17.010  0.00  0.00     0.000 C 
BRANCH  10  11
ATOM     11  C9  ZIN A   1      17.445   0.520  17.854  0.00  0.00     0.000 C 
BRANCH  11  12
ATOM     12  C8  ZIN A   1      18.905   0.808  18.207  0.00  0.00     0.000 C 
BRANCH  12  13
ATOM     13  C7  ZIN A   1      19.165   2.314  18.115  0.00  0.00     0.000 C 
BRANCH  13  14
ATOM     14  C6  ZIN A   1      19.496   2.686  16.668  0.00  0.00     0.000 C 
BRANCH  14  15
ATOM     15  C5  ZIN A   1      19.645   4.205  16.554  0.00  0.00     0.000 C 
BRANCH  15  16
ATOM     16  C4  ZIN A   1      18.320   4.814  16.092  0.00  0.00     0.000 C 
BRANCH  16  17
ATOM     17  C3  ZIN A   1      18.321   6.316  16.379  0.00  0.00    -0.000 C 
BRANCH  17  18
ATOM     18  C2  ZIN A   1      18.395   7.088  15.060  0.00  0.00    -0.005 C 
ATOM     19  C1  ZIN A   1      17.224   6.679  14.163  0.00  0.00     0.005 C 
ENDBRANCH  17  18
ENDBRANCH  16  17
ENDBRANCH  15  16
ENDBRANCH  14  15
ENDBRANCH  13  14
ENDBRANCH  12  13
ENDBRANCH  11  12
ENDBRANCH  10  11
ENDBRANCH   9  10
ENDBRANCH   8   9
ENDBRANCH   7   8
ENDBRANCH   6   7
ENDBRANCH   5   6
ENDBRANCH   4   5
ENDBRANCH   1   4
BRANCH   1  20
ATOM     20  C20 ZIN A   1      17.794   2.089  10.502  0.00  0.00     0.257 C 
BRANCH  20  21
ATOM     21  C21 ZIN A   1      18.772   2.129   9.327  0.00  0.00     0.169 C 
BRANCH  21  22
ATOM     22  N22 ZIN A   1      19.058   0.763   8.882  0.00  0.00    -0.208 N 
BRANCH  22  23
ATOM     23  C23 ZIN A   1      19.829  -0.140   9.741  0.00  0.00     0.180 C 
BRANCH  23  24
ATOM     24  C24 ZIN A   1      18.998  -1.355  10.067  0.00  0.00    -0.040 A 
ATOM     25  C31 ZIN A   1      19.050  -2.467   9.248  0.00  0.00     0.011 A 
ATOM     26  C30 ZIN A   1      18.293  -3.584   9.546  0.00  0.00     0.037 A 
ATOM     27  C27 ZIN A   1      17.472  -3.583  10.665  0.00  0.00     0.068 A 
ATOM     28  C26 ZIN A   1      17.417  -2.464  11.483  0.00  0.00     0.037 A 
ATOM     29  C25 ZIN A   1      18.180  -1.353  11.182  0.00  0.00     0.011 A 
BRANCH  27  30
ATOM     30  O28 ZIN A   1      16.723  -4.679  10.959  0.00  0.00    -0.356 OA
ATOM     31  C29 ZIN A   1      17.256  -5.949  10.583  0.00  0.00     0.210 C 
ENDBRANCH  27  30
ENDBRANCH  23  24
ENDBRANCH  22  23
BRANCH  22  32
ATOM     32  C32 ZIN A   1      18.600   0.325   7.652  0.00  0.00     0.724 A 
ATOM     33  N37 ZIN A   1      19.471   0.110   6.677  0.00  0.00    -0.075 NA
ATOM     34  C36 ZIN A   1      19.067  -0.313   5.491  0.00  0.00     0.138 A 
ATOM     35  C35 ZIN A   1      17.714  -0.520   5.271  0.00  0.00     0.040 A 
ATOM     36  C34 ZIN A   1      16.830  -0.281   6.312  0.00  0.00     0.138 A 
ATOM     37  N33 ZIN A   1      17.300   0.136   7.475  0.00  0.00    -0.075 NA
ENDBRANCH  22  32
ENDBRANCH  21  22
ENDBRANCH  20  21
ENDBRANCH   1  20
TORSDOF 22
ENDMDL
MODEL 8
REMARK VINA RESULT:      -6.0      3.492      9.629
REMARK  22 active torsions:
REMARK  status: ('A' for Active; 'I' for Inactive)
REMARK    1  A    between atoms: C2_2  and  C3_3 
REMARK    2  A    between atoms: C3_3  and  C4_4 
REMARK    3  A    between atoms: C4_4  and  C5_5 
REMARK    4  A    between atoms: C5_5  and  C6_6 
REMARK    5  A    between atoms: C6_6  and  C7_7 
REMARK    6  A    between atoms: C7_7  and  C8_8 
REMARK    7  A    between atoms: C8_8  and  C9_9 
REMARK    8  A    between atoms: C9_9  and  C10_10 
REMARK    9  A    between atoms: C10_10  and  C11_11 
REMARK   10  A    between atoms: C11_11  and  C12_12 
REMARK   11  A    between atoms: C12_12  and  C13_13 
REMARK   12  A    between atoms: C13_13  and  C14_14 
REMARK   13  A    between atoms: C14_14  and  C15_15 
REMARK   14  A    between atoms: C15_15  and  C16_16 
REMARK   15  A    between atoms: C16_16  and  N17_17 
REMARK   16  A    between atoms: N17_17  and  C20_20 
REMARK   17  A    between atoms: C20_20  and  C21_21 
REMARK   18  A    between atoms: C21_21  and  N22_22 
REMARK   19  A    between atoms: N22_22  and  C23_23 
REMARK   20  A    between atoms: N22_22  and  C32_32 
REMARK   21  A    between atoms: C23_23  and  C24_24 
REMARK   22  A    between atoms: C27_27  and  O28_28 
ROOT
ATOM      1  N17 ZIN A   1      18.534  -3.259  10.777  0.00  0.00    -0.073 N 
ATOM      2  C18 ZIN A   1      19.623  -3.085  11.747  0.00  0.00     0.272 C 
ATOM      3  C19 ZIN A   1      17.591  -4.270  11.275  0.00  0.00     0.272 C 
ENDROOT
BRANCH   1   4
ATOM      4  C16 ZIN A   1      17.832  -1.982  10.594  0.00  0.00     0.236 C 
BRANCH   4   5
ATOM      5  C15 ZIN A   1      17.369  -1.455  11.954  0.00  0.00     0.028 C 
BRANCH   5   6
ATOM      6  C14 ZIN A   1      16.676  -0.105  11.768  0.00  0.00     0.002 C 
BRANCH   6   7
ATOM      7  C13 ZIN A   1      17.421   0.709  10.708  0.00  0.00     0.000 C 
BRANCH   7   8
ATOM      8  C12 ZIN A   1      18.433   1.632  11.391  0.00  0.00     0.000 C 
BRANCH   8   9
ATOM      9  C11 ZIN A   1      17.692   2.623  12.292  0.00  0.00     0.000 C 
BRANCH   9  10
ATOM     10  C10 ZIN A   1      18.118   2.407  13.745  0.00  0.00     0.000 C 
BRANCH  10  11
ATOM     11  C9  ZIN A   1      19.313   1.453  13.790  0.00  0.00     0.000 C 
BRANCH  11  12
ATOM     12  C8  ZIN A   1      19.024   0.319  14.775  0.00  0.00     0.000 C 
BRANCH  12  13
ATOM     13  C7  ZIN A   1      17.634   0.514  15.385  0.00  0.00     0.000 C 
BRANCH  13  14
ATOM     14  C6  ZIN A   1      17.385  -0.565  16.441  0.00  0.00     0.000 C 
BRANCH  14  15
ATOM     15  C5  ZIN A   1      18.311  -0.330  17.637  0.00  0.00     0.000 C 
BRANCH  15  16
ATOM     16  C4  ZIN A   1      17.876   0.935  18.378  0.00  0.00     0.000 C 
BRANCH  16  17
ATOM     17  C3  ZIN A   1      19.084   1.852  18.576  0.00  0.00    -0.000 C 
BRANCH  17  18
ATOM     18  C2  ZIN A   1      18.773   3.237  18.005  0.00  0.00    -0.005 C 
ATOM     19  C1  ZIN A   1      19.688   3.513  16.810  0.00  0.00     0.005 C 
ENDBRANCH  17  18
ENDBRANCH  16  17
ENDBRANCH  15  16
ENDBRANCH  14  15
ENDBRANCH  13  14
ENDBRANCH  12  13
ENDBRANCH  11  12
ENDBRANCH  10  11
ENDBRANCH   9  10
ENDBRANCH   8   9
ENDBRANCH   7   8
ENDBRANCH   6   7
ENDBRANCH   5   6
ENDBRANCH   4   5
ENDBRANCH   1   4
BRANCH   1  20
ATOM     20  C20 ZIN A   1      19.090  -3.702   9.491  0.00  0.00     0.257 C 
BRANCH  20  21
ATOM     21  C21 ZIN A   1      18.174  -3.246   8.354  0.00  0.00     0.169 C 
BRANCH  21  22
ATOM     22  N22 ZIN A   1      18.977  -2.967   7.161  0.00  0.00    -0.208 N 
BRANCH  22  23
ATOM     23  C23 ZIN A   1      19.697  -4.054   6.493  0.00  0.00     0.180 C 
BRANCH  23  24
ATOM     24  C24 ZIN A   1      18.710  -5.073   5.986  0.00  0.00    -0.040 A 
ATOM     25  C31 ZIN A   1      18.561  -6.278   6.648  0.00  0.00     0.011 A 
ATOM     26  C30 ZIN A   1      17.653  -7.213   6.188  0.00  0.00     0.037 A 
ATOM     27  C27 ZIN A   1      16.899  -6.945   5.055  0.00  0.00     0.068 A 
ATOM     28  C26 ZIN A   1      17.054  -5.738   4.389  0.00  0.00     0.037 A 
ATOM     29  C25 ZIN A   1      17.959  -4.805   4.856  0.00  0.00     0.011 A 
BRANCH  27  30
ATOM     30  O28 ZIN A   1      16.009  -7.865   4.597  0.00  0.00    -0.356 OA
ATOM     31  C29 ZIN A   1      15.179  -7.476   3.501  0.00  0.00     0.210 C 
ENDBRANCH  27  30
ENDBRANCH  23  24
ENDBRANCH  22  23
BRANCH  22  32
ATOM     32  C32 ZIN A   1      19.055  -1.677   6.666  0.00  0.00     0.724 A 
ATOM     33  N37 ZIN A   1      19.434  -1.489   5.410  0.00  0.00    -0.075 NA
ATOM     34  C36 ZIN A   1      19.514  -0.268   4.905  0.00  0.00     0.138 A 
ATOM     35  C35 ZIN A   1      19.208   0.818   5.708  0.00  0.00     0.040 A 
ATOM     36  C34 ZIN A   1      18.820   0.585   7.019  0.00  0.00     0.138 A 
ATOM     37  N33 ZIN A   1      18.755  -0.659   7.460  0.00  0.00    -0.075 NA
ENDBRANCH  22  32
ENDBRANCH  21  22
ENDBRANCH  20  21
ENDBRANCH   1  20
TORSDOF 22
ENDMDL
MODEL 9
REMARK VINA RESULT:      -5.9      2.628      9.150
REMARK  22 active torsions:
REMARK  status: ('A' for Active; 'I' for Inactive)
REMARK    1  A    between atoms: C2_2  and  C3_3 
REMARK    2  A    between atoms: C3_3  and  C4_4 
REMARK    3  A    between atoms: C4_4  and  C5_5 
REMARK    4  A    between atoms: C5_5  and  C6_6 
REMARK    5  A    between atoms: C6_6  and  C7_7 
REMARK    6  A    between atoms: C7_7  and  C8_8 
REMARK    7  A    between atoms: C8_8  and  C9_9 
REMARK    8  A    between atoms: C9_9  and  C10_10 
REMARK    9  A    between atoms: C10_10  and  C11_11 
REMARK   10  A    between atoms: C11_11  and  C12_12 
REMARK   11  A    between atoms: C12_12  and  C13_13 
REMARK   12  A    between atoms: C13_13  and  C14_14 
REMARK   13  A    between atoms: C14_14  and  C15_15 
REMARK   14  A    between atoms: C15_15  and  C16_16 
REMARK   15  A    between atoms: C16_16  and  N17_17 
REMARK   16  A    between atoms: N17_17  and  C20_20 
REMARK   17  A    between atoms: C20_20  and  C21_21 
REMARK   18  A    between atoms: C21_21  and  N22_22 
REMARK   19  A    between atoms: N22_22  and  C23_23 
REMARK   20  A    between atoms: N22_22  and  C32_32 
REMARK   21  A    between atoms: C23_23  and  C24_24 
REMARK   22  A    between atoms: C27_27  and  O28_28 
ROOT
ATOM      1  N17 ZIN A   1      18.817  -3.253  11.411  0.00  0.00    -0.073 N 
ATOM      2  C18 ZIN A   1      19.601  -4.493  11.341  0.00  0.00     0.272 C 
ATOM      3  C19 ZIN A   1      17.467  -3.497  10.881  0.00  0.00     0.272 C 
ENDROOT
BRANCH   1   4
ATOM      4  C16 ZIN A   1      18.722  -2.810  12.808  0.00  0.00     0.236 C 
BRANCH   4   5
ATOM      5  C15 ZIN A   1      17.786  -1.602  12.897  0.00  0.00     0.028 C 
BRANCH   5   6
ATOM      6  C14 ZIN A   1      18.161  -0.757  14.115  0.00  0.00     0.002 C 
BRANCH   6   7
ATOM      7  C13 ZIN A   1      19.084  -1.564  15.031  0.00  0.00     0.000 C 
BRANCH   7   8
ATOM      8  C12 ZIN A   1      18.883  -1.117  16.480  0.00  0.00     0.000 C 
BRANCH   8   9
ATOM      9  C11 ZIN A   1      18.197   0.251  16.502  0.00  0.00     0.000 C 
BRANCH   9  10
ATOM     10  C10 ZIN A   1      19.165   1.297  17.057  0.00  0.00     0.000 C 
BRANCH  10  11
ATOM     11  C9  ZIN A   1      18.869   1.530  18.540  0.00  0.00     0.000 C 
BRANCH  11  12
ATOM     12  C8  ZIN A   1      17.355   1.538  18.764  0.00  0.00     0.000 C 
BRANCH  12  13
ATOM     13  C7  ZIN A   1      16.924   2.911  19.285  0.00  0.00     0.000 C 
BRANCH  13  14
ATOM     14  C6  ZIN A   1      17.748   4.000  18.594  0.00  0.00     0.000 C 
BRANCH  14  15
ATOM     15  C5  ZIN A   1      16.865   5.225  18.344  0.00  0.00     0.000 C 
BRANCH  15  16
ATOM     16  C4  ZIN A   1      17.144   5.778  16.946  0.00  0.00     0.000 C 
BRANCH  16  17
ATOM     17  C3  ZIN A   1      18.432   5.160  16.399  0.00  0.00    -0.000 C 
BRANCH  17  18
ATOM     18  C2  ZIN A   1      19.325   6.263  15.829  0.00  0.00    -0.005 C 
ATOM     19  C1  ZIN A   1      20.730   5.707  15.587  0.00  0.00     0.005 C 
ENDBRANCH  17  18
ENDBRANCH  16  17
ENDBRANCH  15  16
ENDBRANCH  14  15
ENDBRANCH  13  14
ENDBRANCH  12  13
ENDBRANCH  11  12
ENDBRANCH  10  11
ENDBRANCH   9  10
ENDBRANCH   8   9
ENDBRANCH   7   8
ENDBRANCH   6   7
ENDBRANCH   5   6
ENDBRANCH   4   5
ENDBRANCH   1   4
BRANCH   1  20
ATOM     20  C20 ZIN A   1      19.474  -2.212  10.609  0.00  0.00     0.257 C 
BRANCH  20  21
ATOM     21  C21 ZIN A   1      18.558  -1.800   9.456  0.00  0.00     0.169 C 
BRANCH  21  22
ATOM     22  N22 ZIN A   1      19.253  -0.833   8.602  0.00  0.00    -0.208 N 
BRANCH  22  23
ATOM     23  C23 ZIN A   1      20.058   0.232   9.206  0.00  0.00     0.180 C 
BRANCH  23  24
ATOM     24  C24 ZIN A   1      19.149   1.316   9.726  0.00  0.00    -0.040 A 
ATOM     25  C31 ZIN A   1      18.409   1.105  10.875  0.00  0.00     0.011 A 
ATOM     26  C30 ZIN A   1      17.579   2.098  11.357  0.00  0.00     0.037 A 
ATOM     27  C27 ZIN A   1      17.480   3.305  10.679  0.00  0.00     0.068 A 
ATOM     28  C26 ZIN A   1      18.219   3.513   9.524  0.00  0.00     0.037 A 
ATOM     29  C25 ZIN A   1      19.051   2.518   9.050  0.00  0.00     0.011 A 
BRANCH  27  30
ATOM     30  O28 ZIN A   1      16.660   4.283  11.148  0.00  0.00    -0.356 OA
ATOM     31  C29 ZIN A   1      17.049   4.930  12.360  0.00  0.00     0.210 C 
ENDBRANCH  27  30
ENDBRANCH  23  24
ENDBRANCH  22  23
BRANCH  22  32
ATOM     32  C32 ZIN A   1      19.148  -0.925   7.226  0.00  0.00     0.724 A 
ATOM     33  N37 ZIN A   1      19.213  -2.118   6.651  0.00  0.00    -0.075 NA
ATOM     34  C36 ZIN A   1      19.112  -2.241   5.338  0.00  0.00     0.138 A 
ATOM     35  C35 ZIN A   1      18.947  -1.105   4.562  0.00  0.00     0.040 A 
ATOM     36  C34 ZIN A   1      18.888   0.127   5.195  0.00  0.00     0.138 A 
ATOM     37  N33 ZIN A   1      18.991   0.181   6.512  0.00  0.00    -0.075 NA
ENDBRANCH  22  32
ENDBRANCH  21  22
ENDBRANCH  20  21
ENDBRANCH   1  20
TORSDOF 22
ENDMDL
