MODEL 1
REMARK VINA RESULT:      -8.3      0.000      0.000
REMARK  6 active torsions:
REMARK  status: ('A' for Active; 'I' for Inactive)
REMARK    1  A    between atoms: N12_12  and  C13_13 
REMARK    2  A    between atoms: C13_13  and  C14_14 
REMARK    3  A    between atoms: C14_14  and  C15_15 
REMARK    4  A    between atoms: C15_15  and  C16_16 
REMARK    5  A    between atoms: C16_16  and  N17_17 
REMARK    6  A    between atoms: N20_20  and  C21_21 
ROOT
ATOM      1  C14 <0> d   1      18.490  -2.607  12.685  0.00  0.00     0.022 C 
ENDROOT
BRANCH   1   2
ATOM      2  C13 <0> d   1      17.396  -2.333  11.651  0.00  0.00     0.135 C 
BRANCH   2   3
ATOM      3  N12 <0> d   1      17.899  -1.394  10.645  0.00  0.00    -0.288 N 
ATOM      4  C2  <0> d   1      18.981  -1.736   9.931  0.00  0.00     0.227 C 
ATOM      5  O1  <0> d   1      19.501  -2.815  10.120  0.00  0.00    -0.273 OA
ATOM      6  C3  <0> d   1      19.561  -0.808   8.895  0.00  0.00     0.113 C 
ATOM      7  C4  <0> d   1      18.449   0.078   8.335  0.00  0.00    -0.024 C 
ATOM      8  C8  <0> d   1      17.440  -0.780   7.549  0.00  0.00     0.010 C 
ATOM      9  C5  <0> d   1      19.031   1.101   7.351  0.00  0.00     0.010 C 
ATOM     10  C9  <0> d   1      17.738   0.795   9.483  0.00  0.00     0.113 C 
ATOM     11  C7  <0> d   1      17.029   0.121   6.357  0.00  0.00     0.001 C 
ATOM     12  C6  <0> d   1      18.356   0.831   5.990  0.00  0.00     0.001 C 
ATOM     13  C10 <0> d   1      17.263  -0.224  10.485  0.00  0.00     0.227 C 
ATOM     14  O11 <0> d   1      16.283   0.017  11.157  0.00  0.00    -0.273 OA
ENDBRANCH   2   3
ENDBRANCH   1   2
BRANCH   1  15
ATOM     15  C15 <0> d   1      18.315  -1.661  13.875  0.00  0.00     0.032 C 
BRANCH  15  16
ATOM     16  C16 <0> d   1      19.668  -1.049  14.243  0.00  0.00     0.272 C 
BRANCH  16  17
ATOM     17  N17 <0> d   1      19.629   0.401  14.009  0.00  0.00     0.091 N 
ATOM     18  C28 <0> d   1      19.911   0.715  12.601  0.00  0.00     0.292 C 
ATOM     19  C27 <0> d   1      20.040   2.233  12.435  0.00  0.00     0.171 C 
ATOM     20  N20 <0> d   1      18.832   2.867  12.983  0.00  0.00    -0.211 N 
ATOM     21  C19 <0> d   1      18.407   2.497  14.343  0.00  0.00     0.171 C 
ATOM     22  C18 <0> d   1      18.343   0.968  14.434  0.00  0.00     0.292 C 
BRANCH  20  23
ATOM     23  C21 <0> d   1      18.113   3.787  12.241  0.00  0.00     0.724 A 
ATOM     24  N26 <0> d   1      17.231   4.564  12.852  0.00  0.00    -0.075 NA
ATOM     25  C25 <0> d   1      16.530   5.456  12.173  0.00  0.00     0.138 A 
ATOM     26  C24 <0> d   1      16.720   5.565  10.804  0.00  0.00     0.040 A 
ATOM     27  C23 <0> d   1      17.646   4.733  10.196  0.00  0.00     0.138 A 
ATOM     28  N22 <0> d   1      18.317   3.865  10.934  0.00  0.00    -0.075 NA
ENDBRANCH  20  23
ENDBRANCH  16  17
ENDBRANCH  15  16
ENDBRANCH   1  15
TORSDOF 6
ENDMDL
MODEL 2
REMARK VINA RESULT:      -8.3      2.443      5.990
REMARK  6 active torsions:
REMARK  status: ('A' for Active; 'I' for Inactive)
REMARK    1  A    between atoms: N12_12  and  C13_13 
REMARK    2  A    between atoms: C13_13  and  C14_14 
REMARK    3  A    between atoms: C14_14  and  C15_15 
REMARK    4  A    between atoms: C15_15  and  C16_16 
REMARK    5  A    between atoms: C16_16  and  N17_17 
REMARK    6  A    between atoms: N20_20  and  C21_21 
ROOT
ATOM      1  C14 <0> d   1      19.143   0.878  12.985  0.00  0.00     0.022 C 
ENDROOT
BRANCH   1   2
ATOM      2  C13 <0> d   1      19.829   1.384  11.714  0.00  0.00     0.135 C 
BRANCH   2   3
ATOM      3  N12 <0> d   1      19.218   0.750  10.543  0.00  0.00    -0.288 N 
ATOM      4  C2  <0> d   1      17.962   1.082  10.216  0.00  0.00     0.227 C 
ATOM      5  O1  <0> d   1      17.373   1.907  10.881  0.00  0.00    -0.273 OA
ATOM      6  C3  <0> d   1      17.268   0.452   9.036  0.00  0.00     0.113 C 
ATOM      7  C4  <0> d   1      18.312   0.048   7.996  0.00  0.00    -0.024 C 
ATOM      8  C8  <0> d   1      18.984   1.304   7.411  0.00  0.00     0.010 C 
ATOM      9  C5  <0> d   1      17.641  -0.687   6.828  0.00  0.00     0.010 C 
ATOM     10  C9  <0> d   1      19.364  -0.848   8.648  0.00  0.00     0.113 C 
ATOM     11  C7  <0> d   1      19.202   0.954   5.918  0.00  0.00     0.001 C 
ATOM     12  C6  <0> d   1      17.925   0.151   5.563  0.00  0.00     0.001 C 
ATOM     13  C10 <0> d   1      19.939  -0.145   9.850  0.00  0.00     0.227 C 
ATOM     14  O11 <0> d   1      21.074  -0.390  10.195  0.00  0.00    -0.273 OA
ENDBRANCH   2   3
ENDBRANCH   1   2
BRANCH   1  15
ATOM     15  C15 <0> d   1      19.608  -0.549  13.282  0.00  0.00     0.032 C 
BRANCH  15  16
ATOM     16  C16 <0> d   1      18.395  -1.424  13.604  0.00  0.00     0.272 C 
BRANCH  16  17
ATOM     17  N17 <0> d   1      18.388  -2.595  12.716  0.00  0.00     0.091 N 
ATOM     18  C28 <0> d   1      17.424  -2.419  11.621  0.00  0.00     0.292 C 
ATOM     19  C27 <0> d   1      17.315  -3.725  10.826  0.00  0.00     0.171 C 
ATOM     20  N20 <0> d   1      18.664  -4.132  10.408  0.00  0.00    -0.211 N 
ATOM     21  C19 <0> d   1      19.720  -4.198  11.430  0.00  0.00     0.171 C 
ATOM     22  C18 <0> d   1      19.735  -2.873  12.201  0.00  0.00     0.292 C 
BRANCH  20  23
ATOM     23  C21 <0> d   1      18.934  -4.444   9.087  0.00  0.00     0.724 A 
ATOM     24  N26 <0> d   1      20.060  -5.075   8.789  0.00  0.00    -0.075 NA
ATOM     25  C25 <0> d   1      20.348  -5.392   7.537  0.00  0.00     0.138 A 
ATOM     26  C24 <0> d   1      19.459  -5.046   6.531  0.00  0.00     0.040 A 
ATOM     27  C23 <0> d   1      18.292  -4.382   6.877  0.00  0.00     0.138 A 
ATOM     28  N22 <0> d   1      18.064  -4.099   8.149  0.00  0.00    -0.075 NA
ENDBRANCH  20  23
ENDBRANCH  16  17
ENDBRANCH  15  16
ENDBRANCH   1  15
TORSDOF 6
ENDMDL
MODEL 3
REMARK VINA RESULT:      -8.3      2.928      7.676
REMARK  6 active torsions:
REMARK  status: ('A' for Active; 'I' for Inactive)
REMARK    1  A    between atoms: N12_12  and  C13_13 
REMARK    2  A    between atoms: C13_13  and  C14_14 
REMARK    3  A    between atoms: C14_14  and  C15_15 
REMARK    4  A    between atoms: C15_15  and  C16_16 
REMARK    5  A    between atoms: C16_16  and  N17_17 
REMARK    6  A    between atoms: N20_20  and  C21_21 
ROOT
ATOM      1  C14 <0> d   1      18.478   2.143   9.621  0.00  0.00     0.022 C 
ENDROOT
BRANCH   1   2
ATOM      2  C13 <0> d   1      17.597   2.227  10.870  0.00  0.00     0.135 C 
BRANCH   2   3
ATOM      3  N12 <0> d   1      18.032   1.223  11.843  0.00  0.00    -0.288 N 
ATOM      4  C2  <0> d   1      19.223   1.378  12.437  0.00  0.00     0.227 C 
ATOM      5  O1  <0> d   1      19.898   2.349  12.171  0.00  0.00    -0.273 OA
ATOM      6  C3  <0> d   1      19.738   0.371  13.433  0.00  0.00     0.113 C 
ATOM      7  C4  <0> d   1      18.554  -0.305  14.122  0.00  0.00    -0.024 C 
ATOM      8  C8  <0> d   1      17.793   0.719  14.983  0.00  0.00     0.010 C 
ATOM      9  C5  <0> d   1      19.050  -1.407  15.069  0.00  0.00     0.010 C 
ATOM     10  C9  <0> d   1      17.618  -0.897  13.069  0.00  0.00     0.113 C 
ATOM     11  C7  <0> d   1      17.358  -0.088  16.232  0.00  0.00     0.001 C 
ATOM     12  C6  <0> d   1      18.574  -1.014  16.483  0.00  0.00     0.001 C 
ATOM     13  C10 <0> d   1      17.224   0.181  12.094  0.00  0.00     0.227 C 
ATOM     14  O11 <0> d   1      16.154   0.109  11.529  0.00  0.00    -0.273 OA
ENDBRANCH   2   3
ENDBRANCH   1   2
BRANCH   1  15
ATOM     15  C15 <0> d   1      18.065   0.929   8.787  0.00  0.00     0.032 C 
BRANCH  15  16
ATOM     16  C16 <0> d   1      19.268   0.428   7.985  0.00  0.00     0.272 C 
BRANCH  16  17
ATOM     17  N17 <0> d   1      19.416  -1.020   8.179  0.00  0.00     0.091 N 
ATOM     18  C28 <0> d   1      18.607  -1.485   9.315  0.00  0.00     0.292 C 
ATOM     19  C27 <0> d   1      18.926  -2.957   9.597  0.00  0.00     0.171 C 
ATOM     20  N20 <0> d   1      18.747  -3.720   8.354  0.00  0.00    -0.211 N 
ATOM     21  C19 <0> d   1      19.419  -3.236   7.137  0.00  0.00     0.171 C 
ATOM     22  C18 <0> d   1      19.081  -1.753   6.951  0.00  0.00     0.292 C 
BRANCH  20  23
ATOM     23  C21 <0> d   1      17.969  -4.863   8.327  0.00  0.00     0.724 A 
ATOM     24  N26 <0> d   1      16.760  -4.836   8.870  0.00  0.00    -0.075 NA
ATOM     25  C25 <0> d   1      15.988  -5.910   8.858  0.00  0.00     0.138 A 
ATOM     26  C24 <0> d   1      16.462  -7.076   8.279  0.00  0.00     0.040 A 
ATOM     27  C23 <0> d   1      17.732  -7.072   7.725  0.00  0.00     0.138 A 
ATOM     28  N22 <0> d   1      18.451  -5.963   7.766  0.00  0.00    -0.075 NA
ENDBRANCH  20  23
ENDBRANCH  16  17
ENDBRANCH  15  16
ENDBRANCH   1  15
TORSDOF 6
ENDMDL
MODEL 4
REMARK VINA RESULT:      -8.3      3.216      7.953
REMARK  6 active torsions:
REMARK  status: ('A' for Active; 'I' for Inactive)
REMARK    1  A    between atoms: N12_12  and  C13_13 
REMARK    2  A    between atoms: C13_13  and  C14_14 
REMARK    3  A    between atoms: C14_14  and  C15_15 
REMARK    4  A    between atoms: C15_15  and  C16_16 
REMARK    5  A    between atoms: C16_16  and  N17_17 
REMARK    6  A    between atoms: N20_20  and  C21_21 
ROOT
ATOM      1  C14 <0> d   1      18.422   2.556   9.964  0.00  0.00     0.022 C 
ENDROOT
BRANCH   1   2
ATOM      2  C13 <0> d   1      17.438   2.365  11.120  0.00  0.00     0.135 C 
BRANCH   2   3
ATOM      3  N12 <0> d   1      17.948   1.338  12.031  0.00  0.00    -0.288 N 
ATOM      4  C2  <0> d   1      19.105   1.564  12.669  0.00  0.00     0.227 C 
ATOM      5  O1  <0> d   1      19.686   2.612  12.493  0.00  0.00    -0.273 OA
ATOM      6  C3  <0> d   1      19.695   0.540  13.605  0.00  0.00     0.113 C 
ATOM      7  C4  <0> d   1      18.569  -0.297  14.209  0.00  0.00    -0.024 C 
ATOM      8  C8  <0> d   1      17.692   0.582  15.119  0.00  0.00     0.010 C 
ATOM      9  C5  <0> d   1      19.150  -1.412  15.088  0.00  0.00     0.010 C 
ATOM     10  C9  <0> d   1      17.719  -0.897  13.090  0.00  0.00     0.113 C 
ATOM     11  C7  <0> d   1      17.311  -0.354  16.294  0.00  0.00     0.001 C 
ATOM     12  C6  <0> d   1      18.607  -1.173  16.513  0.00  0.00     0.001 C 
ATOM     13  C10 <0> d   1      17.242   0.207  12.183  0.00  0.00     0.227 C 
ATOM     14  O11 <0> d   1      16.197   0.074  11.584  0.00  0.00    -0.273 OA
ENDBRANCH   2   3
ENDBRANCH   1   2
BRANCH   1  15
ATOM     15  C15 <0> d   1      18.401   1.316   9.067  0.00  0.00     0.032 C 
BRANCH  15  16
ATOM     16  C16 <0> d   1      19.110   1.630   7.747  0.00  0.00     0.272 C 
BRANCH  16  17
ATOM     17  N17 <0> d   1      19.348   0.381   7.012  0.00  0.00     0.091 N 
ATOM     18  C28 <0> d   1      18.749  -0.764   7.711  0.00  0.00     0.292 C 
ATOM     19  C27 <0> d   1      19.170  -2.062   7.014  0.00  0.00     0.171 C 
ATOM     20  N20 <0> d   1      18.831  -1.958   5.588  0.00  0.00    -0.211 N 
ATOM     21  C19 <0> d   1      19.280  -0.767   4.850  0.00  0.00     0.171 C 
ATOM     22  C18 <0> d   1      18.855   0.480   5.632  0.00  0.00     0.292 C 
BRANCH  20  23
ATOM     23  C21 <0> d   1      18.106  -2.953   4.955  0.00  0.00     0.724 A 
ATOM     24  N26 <0> d   1      17.175  -2.616   4.075  0.00  0.00    -0.075 NA
ATOM     25  C25 <0> d   1      16.467  -3.542   3.450  0.00  0.00     0.138 A 
ATOM     26  C24 <0> d   1      16.703  -4.878   3.733  0.00  0.00     0.040 A 
ATOM     27  C23 <0> d   1      17.681  -5.196   4.662  0.00  0.00     0.138 A 
ATOM     28  N22 <0> d   1      18.356  -4.222   5.248  0.00  0.00    -0.075 NA
ENDBRANCH  20  23
ENDBRANCH  16  17
ENDBRANCH  15  16
ENDBRANCH   1  15
TORSDOF 6
ENDMDL
MODEL 5
REMARK VINA RESULT:      -8.2      2.317      7.149
REMARK  6 active torsions:
REMARK  status: ('A' for Active; 'I' for Inactive)
REMARK    1  A    between atoms: N12_12  and  C13_13 
REMARK    2  A    between atoms: C13_13  and  C14_14 
REMARK    3  A    between atoms: C14_14  and  C15_15 
REMARK    4  A    between atoms: C15_15  and  C16_16 
REMARK    5  A    between atoms: C16_16  and  N17_17 
REMARK    6  A    between atoms: N20_20  and  C21_21 
ROOT
ATOM      1  C14 <0> d   1      18.328   2.854  10.258  0.00  0.00     0.022 C 
ENDROOT
BRANCH   1   2
ATOM      2  C13 <0> d   1      17.359   2.606  11.416  0.00  0.00     0.135 C 
BRANCH   2   3
ATOM      3  N12 <0> d   1      17.886   1.542  12.274  0.00  0.00    -0.288 N 
ATOM      4  C2  <0> d   1      19.021   1.767  12.951  0.00  0.00     0.227 C 
ATOM      5  O1  <0> d   1      19.569   2.843  12.852  0.00  0.00    -0.273 OA
ATOM      6  C3  <0> d   1      19.626   0.708  13.836  0.00  0.00     0.113 C 
ATOM      7  C4  <0> d   1      18.518  -0.202  14.363  0.00  0.00    -0.024 C 
ATOM      8  C8  <0> d   1      17.592   0.590  15.304  0.00  0.00     0.010 C 
ATOM      9  C5  <0> d   1      19.119  -1.349  15.185  0.00  0.00     0.010 C 
ATOM     10  C9  <0> d   1      17.713  -0.760  13.190  0.00  0.00     0.113 C 
ATOM     11  C7  <0> d   1      17.220  -0.429  16.411  0.00  0.00     0.001 C 
ATOM     12  C6  <0> d   1      18.538  -1.217  16.609  0.00  0.00     0.001 C 
ATOM     13  C10 <0> d   1      17.216   0.381  12.341  0.00  0.00     0.227 C 
ATOM     14  O11 <0> d   1      16.189   0.250  11.711  0.00  0.00    -0.273 OA
ENDBRANCH   2   3
ENDBRANCH   1   2
BRANCH   1  15
ATOM     15  C15 <0> d   1      18.131   1.778   9.188  0.00  0.00     0.032 C 
BRANCH  15  16
ATOM     16  C16 <0> d   1      19.490   1.379   8.609  0.00  0.00     0.272 C 
BRANCH  16  17
ATOM     17  N17 <0> d   1      19.649  -0.078   8.694  0.00  0.00     0.091 N 
ATOM     18  C28 <0> d   1      19.592  -0.533  10.091  0.00  0.00     0.292 C 
ATOM     19  C27 <0> d   1      19.940  -2.024  10.154  0.00  0.00     0.171 C 
ATOM     20  N20 <0> d   1      19.059  -2.750   9.227  0.00  0.00    -0.211 N 
ATOM     21  C19 <0> d   1      18.958  -2.267   7.841  0.00  0.00     0.171 C 
ATOM     22  C18 <0> d   1      18.648  -0.766   7.868  0.00  0.00     0.292 C 
BRANCH  20  23
ATOM     23  C21 <0> d   1      18.343  -3.856   9.647  0.00  0.00     0.724 A 
ATOM     24  N26 <0> d   1      17.557  -3.754  10.709  0.00  0.00    -0.075 NA
ATOM     25  C25 <0> d   1      16.856  -4.791  11.135  0.00  0.00     0.138 A 
ATOM     26  C24 <0> d   1      16.959  -5.999  10.463  0.00  0.00     0.040 A 
ATOM     27  C23 <0> d   1      17.794  -6.073   9.359  0.00  0.00     0.138 A 
ATOM     28  N22 <0> d   1      18.464  -4.997   8.983  0.00  0.00    -0.075 NA
ENDBRANCH  20  23
ENDBRANCH  16  17
ENDBRANCH  15  16
ENDBRANCH   1  15
TORSDOF 6
ENDMDL
MODEL 6
REMARK VINA RESULT:      -8.2      1.786      2.231
REMARK  6 active torsions:
REMARK  status: ('A' for Active; 'I' for Inactive)
REMARK    1  A    between atoms: N12_12  and  C13_13 
REMARK    2  A    between atoms: C13_13  and  C14_14 
REMARK    3  A    between atoms: C14_14  and  C15_15 
REMARK    4  A    between atoms: C15_15  and  C16_16 
REMARK    5  A    between atoms: C16_16  and  N17_17 
REMARK    6  A    between atoms: N20_20  and  C21_21 
ROOT
ATOM      1  C14 <0> d   1      18.638  -1.598  13.536  0.00  0.00     0.022 C 
ENDROOT
BRANCH   1   2
ATOM      2  C13 <0> d   1      17.784  -1.848  12.291  0.00  0.00     0.135 C 
BRANCH   2   3
ATOM      3  N12 <0> d   1      18.175  -0.910  11.235  0.00  0.00    -0.288 N 
ATOM      4  C2  <0> d   1      19.374  -1.061  10.655  0.00  0.00     0.227 C 
ATOM      5  O1  <0> d   1      20.092  -1.974  11.002  0.00  0.00    -0.273 OA
ATOM      6  C3  <0> d   1      19.845  -0.120   9.577  0.00  0.00     0.113 C 
ATOM      7  C4  <0> d   1      18.633   0.441   8.834  0.00  0.00    -0.024 C 
ATOM      8  C8  <0> d   1      17.922  -0.687   8.064  0.00  0.00     0.010 C 
ATOM      9  C5  <0> d   1      19.081   1.480   7.797  0.00  0.00     0.010 C 
ATOM     10  C9  <0> d   1      17.668   1.076   9.834  0.00  0.00     0.113 C 
ATOM     11  C7  <0> d   1      17.454  -0.009   6.751  0.00  0.00     0.001 C 
ATOM     12  C6  <0> d   1      18.627   0.947   6.421  0.00  0.00     0.001 C 
ATOM     13  C10 <0> d   1      17.321   0.068  10.898  0.00  0.00     0.227 C 
ATOM     14  O11 <0> d   1      16.247   0.138  11.456  0.00  0.00    -0.273 OA
ENDBRANCH   2   3
ENDBRANCH   1   2
BRANCH   1  15
ATOM     15  C15 <0> d   1      17.955  -0.554  14.422  0.00  0.00     0.032 C 
BRANCH  15  16
ATOM     16  C16 <0> d   1      18.976   0.032  15.399  0.00  0.00     0.272 C 
BRANCH  16  17
ATOM     17  N17 <0> d   1      19.186   1.453  15.092  0.00  0.00     0.091 N 
ATOM     18  C28 <0> d   1      18.303   1.892  14.002  0.00  0.00     0.292 C 
ATOM     19  C27 <0> d   1      18.675   3.321  13.591  0.00  0.00     0.171 C 
ATOM     20  N20 <0> d   1      18.654   4.172  14.790  0.00  0.00    -0.211 N 
ATOM     21  C19 <0> d   1      19.406   3.728  15.973  0.00  0.00     0.171 C 
ATOM     22  C18 <0> d   1      19.006   2.283  16.291  0.00  0.00     0.292 C 
BRANCH  20  23
ATOM     23  C21 <0> d   1      17.945   5.361  14.804  0.00  0.00     0.724 A 
ATOM     24  N26 <0> d   1      16.632   5.333  14.635  0.00  0.00    -0.075 NA
ATOM     25  C25 <0> d   1      15.923   6.449  14.648  0.00  0.00     0.138 A 
ATOM     26  C24 <0> d   1      16.573   7.660  14.831  0.00  0.00     0.040 A 
ATOM     27  C23 <0> d   1      17.949   7.654  15.000  0.00  0.00     0.138 A 
ATOM     28  N22 <0> d   1      18.597   6.501  14.981  0.00  0.00    -0.075 NA
ENDBRANCH  20  23
ENDBRANCH  16  17
ENDBRANCH  15  16
ENDBRANCH   1  15
TORSDOF 6
ENDMDL
MODEL 7
REMARK VINA RESULT:      -8.1      2.282      5.664
REMARK  6 active torsions:
REMARK  status: ('A' for Active; 'I' for Inactive)
REMARK    1  A    between atoms: N12_12  and  C13_13 
REMARK    2  A    between atoms: C13_13  and  C14_14 
REMARK    3  A    between atoms: C14_14  and  C15_15 
REMARK    4  A    between atoms: C15_15  and  C16_16 
REMARK    5  A    between atoms: C16_16  and  N17_17 
REMARK    6  A    between atoms: N20_20  and  C21_21 
ROOT
ATOM      1  C14 <0> d   1      17.771   1.795  10.460  0.00  0.00     0.022 C 
ENDROOT
BRANCH   1   2
ATOM      2  C13 <0> d   1      18.641   0.542  10.349  0.00  0.00     0.135 C 
BRANCH   2   3
ATOM      3  N12 <0> d   1      18.807  -0.057  11.676  0.00  0.00    -0.288 N 
ATOM      4  C2  <0> d   1      19.871   0.296  12.411  0.00  0.00     0.227 C 
ATOM      5  O1  <0> d   1      20.654   1.110  11.971  0.00  0.00    -0.273 OA
ATOM      6  C3  <0> d   1      20.110  -0.297  13.775  0.00  0.00     0.113 C 
ATOM      7  C4  <0> d   1      18.770  -0.686  14.397  0.00  0.00    -0.024 C 
ATOM      8  C8  <0> d   1      17.936   0.577  14.677  0.00  0.00     0.010 C 
ATOM      9  C5  <0> d   1      18.993  -1.384  15.745  0.00  0.00     0.010 C 
ATOM     10  C9  <0> d   1      18.012  -1.609  13.444  0.00  0.00     0.113 C 
ATOM     11  C7  <0> d   1      17.212   0.262  16.011  0.00  0.00     0.001 C 
ATOM     12  C6  <0> d   1      18.286  -0.518  16.809  0.00  0.00     0.001 C 
ATOM     13  C10 <0> d   1      17.891  -0.942  12.099  0.00  0.00     0.227 C 
ATOM     14  O11 <0> d   1      16.947  -1.207  11.387  0.00  0.00    -0.273 OA
ENDBRANCH   2   3
ENDBRANCH   1   2
BRANCH   1  15
ATOM     15  C15 <0> d   1      18.609   3.030  10.122  0.00  0.00     0.032 C 
BRANCH  15  16
ATOM     16  C16 <0> d   1      17.761   4.289  10.311  0.00  0.00     0.272 C 
BRANCH  16  17
ATOM     17  N17 <0> d   1      18.009   4.850  11.646  0.00  0.00     0.091 N 
ATOM     18  C28 <0> d   1      16.826   4.705  12.506  0.00  0.00     0.292 C 
ATOM     19  C27 <0> d   1      17.060   5.457  13.820  0.00  0.00     0.171 C 
ATOM     20  N20 <0> d   1      18.320   4.985  14.412  0.00  0.00    -0.211 N 
ATOM     21  C19 <0> d   1      19.524   4.971  13.566  0.00  0.00     0.171 C 
ATOM     22  C18 <0> d   1      19.194   4.238  12.262  0.00  0.00     0.292 C 
BRANCH  20  23
ATOM     23  C21 <0> d   1      18.373   4.565  15.729  0.00  0.00     0.724 A 
ATOM     24  N26 <0> d   1      17.581   5.138  16.624  0.00  0.00    -0.075 NA
ATOM     25  C25 <0> d   1      17.604   4.758  17.890  0.00  0.00     0.138 A 
ATOM     26  C24 <0> d   1      18.476   3.753  18.279  0.00  0.00     0.040 A 
ATOM     27  C23 <0> d   1      19.294   3.178  17.318  0.00  0.00     0.138 A 
ATOM     28  N22 <0> d   1      19.218   3.602  16.068  0.00  0.00    -0.075 NA
ENDBRANCH  20  23
ENDBRANCH  16  17
ENDBRANCH  15  16
ENDBRANCH   1  15
TORSDOF 6
ENDMDL
MODEL 8
REMARK VINA RESULT:      -8.0      3.232      6.730
REMARK  6 active torsions:
REMARK  status: ('A' for Active; 'I' for Inactive)
REMARK    1  A    between atoms: N12_12  and  C13_13 
REMARK    2  A    between atoms: C13_13  and  C14_14 
REMARK    3  A    between atoms: C14_14  and  C15_15 
REMARK    4  A    between atoms: C15_15  and  C16_16 
REMARK    5  A    between atoms: C16_16  and  N17_17 
REMARK    6  A    between atoms: N20_20  and  C21_21 
ROOT
ATOM      1  C14 <0> d   1      17.374  -2.810  11.839  0.00  0.00     0.022 C 
ENDROOT
BRANCH   1   2
ATOM      2  C13 <0> d   1      18.105  -1.565  12.347  0.00  0.00     0.135 C 
BRANCH   2   3
ATOM      3  N12 <0> d   1      18.370  -0.662  11.224  0.00  0.00    -0.288 N 
ATOM      4  C2  <0> d   1      19.568  -0.718  10.625  0.00  0.00     0.227 C 
ATOM      5  O1  <0> d   1      20.389  -1.521  11.011  0.00  0.00    -0.273 OA
ATOM      6  C3  <0> d   1      19.912   0.196   9.477  0.00  0.00     0.113 C 
ATOM      7  C4  <0> d   1      18.632   0.569   8.731  0.00  0.00    -0.024 C 
ATOM      8  C8  <0> d   1      18.037  -0.678   8.053  0.00  0.00     0.010 C 
ATOM      9  C5  <0> d   1      18.942   1.580   7.619  0.00  0.00     0.010 C 
ATOM     10  C9  <0> d   1      17.620   1.160   9.713  0.00  0.00     0.113 C 
ATOM     11  C7  <0> d   1      17.473  -0.144   6.712  0.00  0.00     0.001 C 
ATOM     12  C6  <0> d   1      18.526   0.911   6.292  0.00  0.00     0.001 C 
ATOM     13  C10 <0> d   1      17.407   0.192  10.847  0.00  0.00     0.227 C 
ATOM     14  O11 <0> d   1      16.342   0.181  11.426  0.00  0.00    -0.273 OA
ENDBRANCH   2   3
ENDBRANCH   1   2
BRANCH   1  15
ATOM     15  C15 <0> d   1      18.326  -4.007  11.866  0.00  0.00     0.032 C 
BRANCH  15  16
ATOM     16  C16 <0> d   1      17.545  -5.287  11.563  0.00  0.00     0.272 C 
BRANCH  16  17
ATOM     17  N17 <0> d   1      17.721  -5.645  10.150  0.00  0.00     0.091 N 
ATOM     18  C28 <0> d   1      16.515  -5.326   9.372  0.00  0.00     0.292 C 
ATOM     19  C27 <0> d   1      16.669  -5.876   7.950  0.00  0.00     0.171 C 
ATOM     20  N20 <0> d   1      17.925  -5.364   7.384  0.00  0.00    -0.211 N 
ATOM     21  C19 <0> d   1      19.159  -5.524   8.171  0.00  0.00     0.171 C 
ATOM     22  C18 <0> d   1      18.907  -4.988   9.585  0.00  0.00     0.292 C 
BRANCH  20  23
ATOM     23  C21 <0> d   1      17.948  -4.749   6.145  0.00  0.00     0.724 A 
ATOM     24  N26 <0> d   1      17.092  -5.139   5.213  0.00  0.00    -0.075 NA
ATOM     25  C25 <0> d   1      17.085  -4.569   4.019  0.00  0.00     0.138 A 
ATOM     26  C24 <0> d   1      17.994  -3.559   3.747  0.00  0.00     0.040 A 
ATOM     27  C23 <0> d   1      18.879  -3.178   4.743  0.00  0.00     0.138 A 
ATOM     28  N22 <0> d   1      18.831  -3.786   5.917  0.00  0.00    -0.075 NA
ENDBRANCH  20  23
ENDBRANCH  16  17
ENDBRANCH  15  16
ENDBRANCH   1  15
TORSDOF 6
ENDMDL
MODEL 9
REMARK VINA RESULT:      -7.9      2.106      5.177
REMARK  6 active torsions:
REMARK  status: ('A' for Active; 'I' for Inactive)
REMARK    1  A    between atoms: N12_12  and  C13_13 
REMARK    2  A    between atoms: C13_13  and  C14_14 
REMARK    3  A    between atoms: C14_14  and  C15_15 
REMARK    4  A    between atoms: C15_15  and  C16_16 
REMARK    5  A    between atoms: C16_16  and  N17_17 
REMARK    6  A    between atoms: N20_20  and  C21_21 
ROOT
ATOM      1  C14 <0> d   1      19.023   1.316   8.884  0.00  0.00     0.022 C 
ENDROOT
BRANCH   1   2
ATOM      2  C13 <0> d   1      17.824   0.368   8.817  0.00  0.00     0.135 C 
BRANCH   2   3
ATOM      3  N12 <0> d   1      18.075  -0.798   9.669  0.00  0.00    -0.288 N 
ATOM      4  C2  <0> d   1      17.362  -0.936  10.795  0.00  0.00     0.227 C 
ATOM      5  O1  <0> d   1      16.519  -0.109  11.070  0.00  0.00    -0.273 OA
ATOM      6  C3  <0> d   1      17.585  -2.101  11.724  0.00  0.00     0.113 C 
ATOM      7  C4  <0> d   1      18.097  -3.295  10.920  0.00  0.00    -0.024 C 
ATOM      8  C8  <0> d   1      17.002  -3.787   9.956  0.00  0.00     0.010 C 
ATOM      9  C5  <0> d   1      18.428  -4.463  11.858  0.00  0.00     0.010 C 
ATOM     10  C9  <0> d   1      19.340  -2.885  10.130  0.00  0.00     0.113 C 
ATOM     11  C7  <0> d   1      17.164  -5.328   9.958  0.00  0.00     0.001 C 
ATOM     12  C6  <0> d   1      17.517  -5.635  11.434  0.00  0.00     0.001 C 
ATOM     13  C10 <0> d   1      19.017  -1.675   9.292  0.00  0.00     0.227 C 
ATOM     14  O11 <0> d   1      19.617  -1.495   8.254  0.00  0.00    -0.273 OA
ENDBRANCH   2   3
ENDBRANCH   1   2
BRANCH   1  15
ATOM     15  C15 <0> d   1      18.640   2.567   9.678  0.00  0.00     0.032 C 
BRANCH  15  16
ATOM     16  C16 <0> d   1      19.571   2.709  10.884  0.00  0.00     0.272 C 
BRANCH  16  17
ATOM     17  N17 <0> d   1      19.107   1.831  11.966  0.00  0.00     0.091 N 
ATOM     18  C28 <0> d   1      20.237   1.140  12.605  0.00  0.00     0.292 C 
ATOM     19  C27 <0> d   1      19.702   0.104  13.599  0.00  0.00     0.171 C 
ATOM     20  N20 <0> d   1      18.781   0.778  14.526  0.00  0.00    -0.211 N 
ATOM     21  C19 <0> d   1      17.703   1.603  13.959  0.00  0.00     0.171 C 
ATOM     22  C18 <0> d   1      18.316   2.580  12.950  0.00  0.00     0.292 C 
BRANCH  20  23
ATOM     23  C21 <0> d   1      18.925   0.640  15.895  0.00  0.00     0.724 A 
ATOM     24  N26 <0> d   1      19.114   1.721  16.638  0.00  0.00    -0.075 NA
ATOM     25  C25 <0> d   1      19.251   1.626  17.950  0.00  0.00     0.138 A 
ATOM     26  C24 <0> d   1      19.205   0.375  18.545  0.00  0.00     0.040 A 
ATOM     27  C23 <0> d   1      19.010  -0.736  17.738  0.00  0.00     0.138 A 
ATOM     28  N22 <0> d   1      18.876  -0.570  16.433  0.00  0.00    -0.075 NA
ENDBRANCH  20  23
ENDBRANCH  16  17
ENDBRANCH  15  16
ENDBRANCH   1  15
TORSDOF 6
ENDMDL
