MODEL 1
REMARK VINA RESULT:      -8.2      0.000      0.000
REMARK  10 active torsions:
REMARK  status: ('A' for Active; 'I' for Inactive)
REMARK    1  A    between atoms: C2_2  and  C3_3 
REMARK    2  A    between atoms: C3_3  and  C4_4 
REMARK    3  A    between atoms: C4_4  and  C5_5 
REMARK    4  A    between atoms: C5_5  and  C6_6 
REMARK    5  A    between atoms: C6_6  and  C7_7 
REMARK    6  A    between atoms: C7_7  and  C8_8 
REMARK    7  A    between atoms: C8_8  and  C9_9 
REMARK    8  A    between atoms: C9_9  and  C10_10 
REMARK    9  A    between atoms: C10_10  and  O12_12 
REMARK   10  A    between atoms: O12_12  and  C13_13 
ROOT
ATOM      1  C13 ZIN A   1      18.013   1.657  10.761  0.00  0.00     0.140 C 
ATOM      2  C15 ZIN A   1      18.329   2.929   9.937  0.00  0.00     0.034 C 
ATOM      3  C16 ZIN A   1      18.850   2.440   8.558  0.00  0.00     0.008 C 
ATOM      4  C17 ZIN A   1      18.243   1.038   8.440  0.00  0.00     0.001 C 
ATOM      5  C19 ZIN A   1      18.945   0.093   7.481  0.00  0.00    -0.005 C 
ATOM      6  C21 ZIN A   1      18.835   0.631   6.051  0.00  0.00     0.010 C 
ATOM      7  C22 ZIN A   1      19.607  -0.293   5.106  0.00  0.00     0.035 C 
ATOM      8  C23 ZIN A   1      19.082  -1.706   5.270  0.00  0.00    -0.072 C 
ATOM      9  C24 ZIN A   1      18.777  -2.385   4.164  0.00  0.00     0.053 C 
ATOM     10  C25 ZIN A   1      18.279  -3.762   4.259  0.00  0.00     0.149 C 
ATOM     11  O26 ZIN A   1      17.645  -4.275   3.362  0.00  0.00    -0.293 OA
ATOM     12  C27 ZIN A   1      18.598  -4.507   5.540  0.00  0.00     0.084 C 
ATOM     13  C28 ZIN A   1      18.213  -3.600   6.707  0.00  0.00     0.017 C 
ATOM     14  C29 ZIN A   1      18.945  -2.271   6.650  0.00  0.00     0.019 C 
ATOM     15  C31 ZIN A   1      18.241  -1.268   7.572  0.00  0.00    -0.002 C 
ATOM     16  C33 ZIN A   1      18.230  -1.820   8.995  0.00  0.00     0.006 C 
ATOM     17  C34 ZIN A   1      17.645  -0.809   9.993  0.00  0.00     0.012 C 
ATOM     18  C35 ZIN A   1      18.437   0.487   9.879  0.00  0.00    -0.013 C 
ATOM     19  C36 ZIN A   1      19.929   0.201  10.072  0.00  0.00     0.018 C 
ENDROOT
BRANCH   1  20
ATOM     20  O12 ZIN A   1      18.774   1.656  11.997  0.00  0.00    -0.315 OA
BRANCH  20  21
ATOM     21  C10 ZIN A   1      18.079   1.543  13.140  0.00  0.00     0.259 C 
ATOM     22  O11 ZIN A   1      18.047   2.464  13.922  0.00  0.00    -0.265 OA
BRANCH  21  23
ATOM     23  C9  ZIN A   1      17.339   0.267  13.449  0.00  0.00     0.111 C 
BRANCH  23  24
ATOM     24  C8  ZIN A   1      18.209  -0.626  14.337  0.00  0.00     0.010 C 
BRANCH  24  25
ATOM     25  C7  ZIN A   1      19.298  -1.284  13.488  0.00  0.00     0.000 C 
BRANCH  25  26
ATOM     26  C6  ZIN A   1      18.752  -2.568  12.862  0.00  0.00     0.000 C 
BRANCH  26  27
ATOM     27  C5  ZIN A   1      19.822  -3.193  11.965  0.00  0.00     0.000 C 
BRANCH  27  28
ATOM     28  C4  ZIN A   1      19.274  -4.476  11.336  0.00  0.00     0.000 C 
BRANCH  28  29
ATOM     29  C3  ZIN A   1      17.784  -4.605  11.658  0.00  0.00    -0.000 C 
BRANCH  29  30
ATOM     30  C2  ZIN A   1      17.094  -5.425  10.567  0.00  0.00    -0.005 C 
ATOM     31  C1  ZIN A   1      18.139  -5.932   9.571  0.00  0.00     0.005 C 
ENDBRANCH  29  30
ENDBRANCH  28  29
ENDBRANCH  27  28
ENDBRANCH  26  27
ENDBRANCH  25  26
ENDBRANCH  24  25
ENDBRANCH  23  24
ENDBRANCH  21  23
ENDBRANCH  20  21
ENDBRANCH   1  20
TORSDOF 10
ENDMDL
MODEL 2
REMARK VINA RESULT:      -8.2      1.803      6.795
REMARK  10 active torsions:
REMARK  status: ('A' for Active; 'I' for Inactive)
REMARK    1  A    between atoms: C2_2  and  C3_3 
REMARK    2  A    between atoms: C3_3  and  C4_4 
REMARK    3  A    between atoms: C4_4  and  C5_5 
REMARK    4  A    between atoms: C5_5  and  C6_6 
REMARK    5  A    between atoms: C6_6  and  C7_7 
REMARK    6  A    between atoms: C7_7  and  C8_8 
REMARK    7  A    between atoms: C8_8  and  C9_9 
REMARK    8  A    between atoms: C9_9  and  C10_10 
REMARK    9  A    between atoms: C10_10  and  O12_12 
REMARK   10  A    between atoms: O12_12  and  C13_13 
ROOT
ATOM      1  C13 ZIN A   1      19.357  -0.807   7.066  0.00  0.00     0.140 C 
ATOM      2  C15 ZIN A   1      19.032   0.257   5.989  0.00  0.00     0.034 C 
ATOM      3  C16 ZIN A   1      18.503   1.504   6.749  0.00  0.00     0.008 C 
ATOM      4  C17 ZIN A   1      19.114   1.339   8.145  0.00  0.00     0.001 C 
ATOM      5  C19 ZIN A   1      18.409   2.081   9.266  0.00  0.00    -0.005 C 
ATOM      6  C21 ZIN A   1      18.507   3.590   9.030  0.00  0.00     0.010 C 
ATOM      7  C22 ZIN A   1      17.732   4.322  10.128  0.00  0.00     0.035 C 
ATOM      8  C23 ZIN A   1      18.263   3.879  11.478  0.00  0.00    -0.072 C 
ATOM      9  C24 ZIN A   1      18.563   4.826  12.366  0.00  0.00     0.053 C 
ATOM     10  C25 ZIN A   1      19.066   4.455  13.694  0.00  0.00     0.149 C 
ATOM     11  O26 ZIN A   1      19.695   5.234  14.379  0.00  0.00    -0.293 OA
ATOM     12  C27 ZIN A   1      18.757   3.048  14.165  0.00  0.00     0.084 C 
ATOM     13  C28 ZIN A   1      19.147   2.092  13.038  0.00  0.00     0.017 C 
ATOM     14  C29 ZIN A   1      18.410   2.413  11.749  0.00  0.00     0.019 C 
ATOM     15  C31 ZIN A   1      19.117   1.720  10.579  0.00  0.00    -0.002 C 
ATOM     16  C33 ZIN A   1      19.140   0.214  10.830  0.00  0.00     0.006 C 
ATOM     17  C34 ZIN A   1      19.728  -0.553   9.636  0.00  0.00     0.012 C 
ATOM     18  C35 ZIN A   1      18.931  -0.184   8.392  0.00  0.00    -0.013 C 
ATOM     19  C36 ZIN A   1      17.442  -0.442   8.635  0.00  0.00     0.018 C 
ENDROOT
BRANCH   1  20
ATOM     20  O12 ZIN A   1      18.605  -2.022   6.817  0.00  0.00    -0.315 OA
BRANCH  20  21
ATOM     21  C10 ZIN A   1      19.286  -3.179   6.854  0.00  0.00     0.259 C 
ATOM     22  O11 ZIN A   1      19.961  -3.513   5.908  0.00  0.00    -0.265 OA
BRANCH  21  23
ATOM     23  C9  ZIN A   1      19.209  -4.061   8.073  0.00  0.00     0.111 C 
BRANCH  23  24
ATOM     24  C8  ZIN A   1      17.771  -4.086   8.595  0.00  0.00     0.010 C 
BRANCH  24  25
ATOM     25  C7  ZIN A   1      17.761  -3.739  10.084  0.00  0.00     0.000 C 
BRANCH  25  26
ATOM     26  C6  ZIN A   1      18.899  -4.480  10.789  0.00  0.00     0.000 C 
BRANCH  26  27
ATOM     27  C5  ZIN A   1      19.628  -3.519  11.729  0.00  0.00     0.000 C 
BRANCH  27  28
ATOM     28  C4  ZIN A   1      18.605  -2.776  12.592  0.00  0.00     0.000 C 
BRANCH  28  29
ATOM     29  C3  ZIN A   1      19.337  -1.938  13.642  0.00  0.00    -0.000 C 
BRANCH  29  30
ATOM     30  C2  ZIN A   1      18.323  -1.101  14.424  0.00  0.00    -0.005 C 
ATOM     31  C1  ZIN A   1      18.552  -1.292  15.925  0.00  0.00     0.005 C 
ENDBRANCH  29  30
ENDBRANCH  28  29
ENDBRANCH  27  28
ENDBRANCH  26  27
ENDBRANCH  25  26
ENDBRANCH  24  25
ENDBRANCH  23  24
ENDBRANCH  21  23
ENDBRANCH  20  21
ENDBRANCH   1  20
TORSDOF 10
ENDMDL
MODEL 3
REMARK VINA RESULT:      -8.1      2.087      4.315
REMARK  10 active torsions:
REMARK  status: ('A' for Active; 'I' for Inactive)
REMARK    1  A    between atoms: C2_2  and  C3_3 
REMARK    2  A    between atoms: C3_3  and  C4_4 
REMARK    3  A    between atoms: C4_4  and  C5_5 
REMARK    4  A    between atoms: C5_5  and  C6_6 
REMARK    5  A    between atoms: C6_6  and  C7_7 
REMARK    6  A    between atoms: C7_7  and  C8_8 
REMARK    7  A    between atoms: C8_8  and  C9_9 
REMARK    8  A    between atoms: C9_9  and  C10_10 
REMARK    9  A    between atoms: C10_10  and  O12_12 
REMARK   10  A    between atoms: O12_12  and  C13_13 
ROOT
ATOM      1  C13 ZIN A   1      18.092   2.072  10.011  0.00  0.00     0.140 C 
ATOM      2  C15 ZIN A   1      18.761   2.326   8.638  0.00  0.00     0.034 C 
ATOM      3  C16 ZIN A   1      19.203   0.936   8.102  0.00  0.00     0.008 C 
ATOM      4  C17 ZIN A   1      18.263  -0.028   8.833  0.00  0.00     0.001 C 
ATOM      5  C19 ZIN A   1      18.744  -1.465   8.940  0.00  0.00    -0.005 C 
ATOM      6  C21 ZIN A   1      18.842  -2.082   7.542  0.00  0.00     0.010 C 
ATOM      7  C22 ZIN A   1      19.395  -3.504   7.659  0.00  0.00     0.035 C 
ATOM      8  C23 ZIN A   1      18.518  -4.291   8.615  0.00  0.00    -0.072 C 
ATOM      9  C24 ZIN A   1      18.101  -5.495   8.224  0.00  0.00     0.053 C 
ATOM     10  C25 ZIN A   1      17.264  -6.308   9.114  0.00  0.00     0.149 C 
ATOM     11  O26 ZIN A   1      16.562  -7.201   8.690  0.00  0.00    -0.293 OA
ATOM     12  C27 ZIN A   1      17.321  -5.970  10.590  0.00  0.00     0.084 C 
ATOM     13  C28 ZIN A   1      17.127  -4.461  10.724  0.00  0.00     0.017 C 
ATOM     14  C29 ZIN A   1      18.178  -3.689   9.944  0.00  0.00     0.019 C 
ATOM     15  C31 ZIN A   1      17.712  -2.239   9.771  0.00  0.00    -0.002 C 
ATOM     16  C33 ZIN A   1      17.493  -1.617  11.148  0.00  0.00     0.006 C 
ATOM     17  C34 ZIN A   1      17.141  -0.125  11.050  0.00  0.00     0.012 C 
ATOM     18  C35 ZIN A   1      18.243   0.575  10.265  0.00  0.00    -0.013 C 
ATOM     19  C36 ZIN A   1      19.601   0.289  10.911  0.00  0.00     0.018 C 
ENDROOT
BRANCH   1  20
ATOM     20  O12 ZIN A   1      18.769   2.828  11.049  0.00  0.00    -0.315 OA
BRANCH  20  21
ATOM     21  C10 ZIN A   1      18.003   3.351  12.019  0.00  0.00     0.259 C 
ATOM     22  O11 ZIN A   1      16.949   3.873  11.742  0.00  0.00    -0.265 OA
BRANCH  21  23
ATOM     23  C9  ZIN A   1      18.458   3.287  13.455  0.00  0.00     0.111 C 
BRANCH  23  24
ATOM     24  C8  ZIN A   1      18.127   1.911  14.035  0.00  0.00     0.010 C 
BRANCH  24  25
ATOM     25  C7  ZIN A   1      19.391   1.293  14.636  0.00  0.00     0.000 C 
BRANCH  25  26
ATOM     26  C6  ZIN A   1      19.389  -0.217  14.389  0.00  0.00     0.000 C 
BRANCH  26  27
ATOM     27  C5  ZIN A   1      18.016  -0.790  14.745  0.00  0.00     0.000 C 
BRANCH  27  28
ATOM     28  C4  ZIN A   1      17.997  -1.185  16.224  0.00  0.00     0.000 C 
BRANCH  28  29
ATOM     29  C3  ZIN A   1      17.026  -0.278  16.981  0.00  0.00    -0.000 C 
BRANCH  29  30
ATOM     30  C2  ZIN A   1      17.799   0.557  18.004  0.00  0.00    -0.005 C 
ATOM     31  C1  ZIN A   1      19.204  -0.023  18.180  0.00  0.00     0.005 C 
ENDBRANCH  29  30
ENDBRANCH  28  29
ENDBRANCH  27  28
ENDBRANCH  26  27
ENDBRANCH  25  26
ENDBRANCH  24  25
ENDBRANCH  23  24
ENDBRANCH  21  23
ENDBRANCH  20  21
ENDBRANCH   1  20
TORSDOF 10
ENDMDL
MODEL 4
REMARK VINA RESULT:      -8.0      1.496      6.826
REMARK  10 active torsions:
REMARK  status: ('A' for Active; 'I' for Inactive)
REMARK    1  A    between atoms: C2_2  and  C3_3 
REMARK    2  A    between atoms: C3_3  and  C4_4 
REMARK    3  A    between atoms: C4_4  and  C5_5 
REMARK    4  A    between atoms: C5_5  and  C6_6 
REMARK    5  A    between atoms: C6_6  and  C7_7 
REMARK    6  A    between atoms: C7_7  and  C8_8 
REMARK    7  A    between atoms: C8_8  and  C9_9 
REMARK    8  A    between atoms: C9_9  and  C10_10 
REMARK    9  A    between atoms: C10_10  and  O12_12 
REMARK   10  A    between atoms: O12_12  and  C13_13 
ROOT
ATOM      1  C13 ZIN A   1      19.244  -0.550   6.734  0.00  0.00     0.140 C 
ATOM      2  C15 ZIN A   1      19.225   0.827   6.024  0.00  0.00     0.034 C 
ATOM      3  C16 ZIN A   1      18.682   1.847   7.063  0.00  0.00     0.008 C 
ATOM      4  C17 ZIN A   1      19.005   1.177   8.403  0.00  0.00     0.001 C 
ATOM      5  C19 ZIN A   1      18.176   1.638   9.588  0.00  0.00    -0.005 C 
ATOM      6  C21 ZIN A   1      18.457   3.116   9.871  0.00  0.00     0.010 C 
ATOM      7  C22 ZIN A   1      17.563   3.585  11.022  0.00  0.00     0.035 C 
ATOM      8  C23 ZIN A   1      17.791   2.679  12.217  0.00  0.00    -0.072 C 
ATOM      9  C24 ZIN A   1      18.007   3.257  13.399  0.00  0.00     0.053 C 
ATOM     10  C25 ZIN A   1      18.218   2.430  14.593  0.00  0.00     0.149 C 
ATOM     11  O26 ZIN A   1      18.779   2.863  15.577  0.00  0.00    -0.293 OA
ATOM     12  C27 ZIN A   1      17.699   1.008  14.530  0.00  0.00     0.084 C 
ATOM     13  C28 ZIN A   1      18.201   0.394  13.224  0.00  0.00     0.017 C 
ATOM     14  C29 ZIN A   1      17.748   1.196  12.017  0.00  0.00     0.019 C 
ATOM     15  C31 ZIN A   1      18.593   0.795  10.801  0.00  0.00    -0.002 C 
ATOM     16  C33 ZIN A   1      18.429  -0.702  10.550  0.00  0.00     0.006 C 
ATOM     17  C34 ZIN A   1      19.154  -1.147   9.271  0.00  0.00     0.012 C 
ATOM     18  C35 ZIN A   1      18.639  -0.304   8.112  0.00  0.00    -0.013 C 
ATOM     19  C36 ZIN A   1      17.114  -0.402   8.038  0.00  0.00     0.018 C 
ENDROOT
BRANCH   1  20
ATOM     20  O12 ZIN A   1      18.442  -1.508   5.996  0.00  0.00    -0.315 OA
BRANCH  20  21
ATOM     21  C10 ZIN A   1      19.097  -2.499   5.371  0.00  0.00     0.259 C 
ATOM     22  O11 ZIN A   1      19.501  -2.340   4.244  0.00  0.00    -0.265 OA
BRANCH  21  23
ATOM     23  C9  ZIN A   1      19.329  -3.811   6.076  0.00  0.00     0.111 C 
BRANCH  23  24
ATOM     24  C8  ZIN A   1      18.179  -4.078   7.049  0.00  0.00     0.010 C 
BRANCH  24  25
ATOM     25  C7  ZIN A   1      18.049  -5.583   7.285  0.00  0.00     0.000 C 
BRANCH  25  26
ATOM     26  C6  ZIN A   1      16.659  -5.894   7.845  0.00  0.00     0.000 C 
BRANCH  26  27
ATOM     27  C5  ZIN A   1      16.511  -5.256   9.227  0.00  0.00     0.000 C 
BRANCH  27  28
ATOM     28  C4  ZIN A   1      17.419  -5.981  10.223  0.00  0.00     0.000 C 
BRANCH  28  29
ATOM     29  C3  ZIN A   1      18.101  -4.955  11.131  0.00  0.00    -0.000 C 
BRANCH  29  30
ATOM     30  C2  ZIN A   1      19.517  -4.682  10.619  0.00  0.00    -0.005 C 
ATOM     31  C1  ZIN A   1      20.259  -3.793  11.619  0.00  0.00     0.005 C 
ENDBRANCH  29  30
ENDBRANCH  28  29
ENDBRANCH  27  28
ENDBRANCH  26  27
ENDBRANCH  25  26
ENDBRANCH  24  25
ENDBRANCH  23  24
ENDBRANCH  21  23
ENDBRANCH  20  21
ENDBRANCH   1  20
TORSDOF 10
ENDMDL
MODEL 5
REMARK VINA RESULT:      -7.9      2.148      7.375
REMARK  10 active torsions:
REMARK  status: ('A' for Active; 'I' for Inactive)
REMARK    1  A    between atoms: C2_2  and  C3_3 
REMARK    2  A    between atoms: C3_3  and  C4_4 
REMARK    3  A    between atoms: C4_4  and  C5_5 
REMARK    4  A    between atoms: C5_5  and  C6_6 
REMARK    5  A    between atoms: C6_6  and  C7_7 
REMARK    6  A    between atoms: C7_7  and  C8_8 
REMARK    7  A    between atoms: C8_8  and  C9_9 
REMARK    8  A    between atoms: C9_9  and  C10_10 
REMARK    9  A    between atoms: C10_10  and  O12_12 
REMARK   10  A    between atoms: O12_12  and  C13_13 
ROOT
ATOM      1  C13 ZIN A   1      19.252   0.598   8.879  0.00  0.00     0.140 C 
ATOM      2  C15 ZIN A   1      19.149   2.132   8.695  0.00  0.00     0.034 C 
ATOM      3  C16 ZIN A   1      18.735   2.713  10.075  0.00  0.00     0.008 C 
ATOM      4  C17 ZIN A   1      19.216   1.639  11.057  0.00  0.00     0.001 C 
ATOM      5  C19 ZIN A   1      18.535   1.632  12.413  0.00  0.00    -0.005 C 
ATOM      6  C21 ZIN A   1      18.849   2.934  13.155  0.00  0.00     0.010 C 
ATOM      7  C22 ZIN A   1      18.099   2.944  14.490  0.00  0.00     0.035 C 
ATOM      8  C23 ZIN A   1      18.468   1.694  15.266  0.00  0.00    -0.072 C 
ATOM      9  C24 ZIN A   1      18.825   1.840  16.542  0.00  0.00     0.053 C 
ATOM     10  C25 ZIN A   1      19.177   0.664  17.346  0.00  0.00     0.149 C 
ATOM     11  O26 ZIN A   1      19.851   0.756  18.349  0.00  0.00    -0.293 OA
ATOM     12  C27 ZIN A   1      18.652  -0.671  16.856  0.00  0.00     0.084 C 
ATOM     13  C28 ZIN A   1      18.994  -0.780  15.370  0.00  0.00     0.017 C 
ATOM     14  C29 ZIN A   1      18.400   0.369  14.573  0.00  0.00     0.019 C 
ATOM     15  C31 ZIN A   1      19.093   0.442  13.206  0.00  0.00    -0.002 C 
ATOM     16  C33 ZIN A   1      18.899  -0.883  12.475  0.00  0.00     0.006 C 
ATOM     17  C34 ZIN A   1      19.466  -0.835  11.048  0.00  0.00     0.012 C 
ATOM     18  C35 ZIN A   1      18.817   0.333  10.317  0.00  0.00    -0.013 C 
ATOM     19  C36 ZIN A   1      17.293   0.205  10.385  0.00  0.00     0.018 C 
ENDROOT
BRANCH   1  20
ATOM     20  O12 ZIN A   1      18.366  -0.081   7.951  0.00  0.00    -0.315 OA
BRANCH  20  21
ATOM     21  C10 ZIN A   1      18.925  -0.969   7.115  0.00  0.00     0.259 C 
ATOM     22  O11 ZIN A   1      19.248  -0.631   6.000  0.00  0.00    -0.265 OA
BRANCH  21  23
ATOM     23  C9  ZIN A   1      19.150  -2.390   7.564  0.00  0.00     0.111 C 
BRANCH  23  24
ATOM     24  C8  ZIN A   1      19.752  -3.201   6.415  0.00  0.00     0.010 C 
BRANCH  24  25
ATOM     25  C7  ZIN A   1      19.413  -4.680   6.601  0.00  0.00     0.000 C 
BRANCH  25  26
ATOM     26  C6  ZIN A   1      20.558  -5.377   7.339  0.00  0.00     0.000 C 
BRANCH  26  27
ATOM     27  C5  ZIN A   1      20.132  -5.672   8.778  0.00  0.00     0.000 C 
BRANCH  27  28
ATOM     28  C4  ZIN A   1      18.770  -6.369   8.774  0.00  0.00     0.000 C 
BRANCH  28  29
ATOM     29  C3  ZIN A   1      17.871  -5.740   9.841  0.00  0.00    -0.000 C 
BRANCH  29  30
ATOM     30  C2  ZIN A   1      18.699  -4.791  10.710  0.00  0.00    -0.005 C 
ATOM     31  C1  ZIN A   1      17.830  -4.250  11.847  0.00  0.00     0.005 C 
ENDBRANCH  29  30
ENDBRANCH  28  29
ENDBRANCH  27  28
ENDBRANCH  26  27
ENDBRANCH  25  26
ENDBRANCH  24  25
ENDBRANCH  23  24
ENDBRANCH  21  23
ENDBRANCH  20  21
ENDBRANCH   1  20
TORSDOF 10
ENDMDL
MODEL 6
REMARK VINA RESULT:      -7.9      2.336      4.507
REMARK  10 active torsions:
REMARK  status: ('A' for Active; 'I' for Inactive)
REMARK    1  A    between atoms: C2_2  and  C3_3 
REMARK    2  A    between atoms: C3_3  and  C4_4 
REMARK    3  A    between atoms: C4_4  and  C5_5 
REMARK    4  A    between atoms: C5_5  and  C6_6 
REMARK    5  A    between atoms: C6_6  and  C7_7 
REMARK    6  A    between atoms: C7_7  and  C8_8 
REMARK    7  A    between atoms: C8_8  and  C9_9 
REMARK    8  A    between atoms: C9_9  and  C10_10 
REMARK    9  A    between atoms: C10_10  and  O12_12 
REMARK   10  A    between atoms: O12_12  and  C13_13 
ROOT
ATOM      1  C13 ZIN A   1      17.792   2.888  11.550  0.00  0.00     0.140 C 
ATOM      2  C15 ZIN A   1      18.207   3.356  10.134  0.00  0.00     0.034 C 
ATOM      3  C16 ZIN A   1      18.597   2.075   9.346  0.00  0.00     0.008 C 
ATOM      4  C17 ZIN A   1      17.829   0.973  10.082  0.00  0.00     0.001 C 
ATOM      5  C19 ZIN A   1      18.368  -0.436   9.909  0.00  0.00    -0.005 C 
ATOM      6  C21 ZIN A   1      18.246  -0.859   8.442  0.00  0.00     0.010 C 
ATOM      7  C22 ZIN A   1      18.858  -2.251   8.269  0.00  0.00     0.035 C 
ATOM      8  C23 ZIN A   1      18.184  -3.204   9.239  0.00  0.00    -0.072 C 
ATOM      9  C24 ZIN A   1      17.747  -4.368   8.759  0.00  0.00     0.053 C 
ATOM     10  C25 ZIN A   1      17.101  -5.336   9.654  0.00  0.00     0.149 C 
ATOM     11  O26 ZIN A   1      16.367  -6.204   9.232  0.00  0.00    -0.293 OA
ATOM     12  C27 ZIN A   1      17.399  -5.191  11.133  0.00  0.00     0.084 C 
ATOM     13  C28 ZIN A   1      17.180  -3.725  11.504  0.00  0.00     0.017 C 
ATOM     14  C29 ZIN A   1      18.056  -2.801  10.675  0.00  0.00     0.019 C 
ATOM     15  C31 ZIN A   1      17.519  -1.368  10.784  0.00  0.00    -0.002 C 
ATOM     16  C33 ZIN A   1      17.519  -0.944  12.250  0.00  0.00     0.006 C 
ATOM     17  C34 ZIN A   1      17.106   0.525  12.418  0.00  0.00     0.012 C 
ATOM     18  C35 ZIN A   1      18.034   1.382  11.566  0.00  0.00    -0.013 C 
ATOM     19  C36 ZIN A   1      19.490   1.091  11.934  0.00  0.00     0.018 C 
ENDROOT
BRANCH   1  20
ATOM     20  O12 ZIN A   1      18.610   3.539  12.556  0.00  0.00    -0.315 OA
BRANCH  20  21
ATOM     21  C10 ZIN A   1      17.966   4.203  13.529  0.00  0.00     0.259 C 
ATOM     22  O11 ZIN A   1      17.067   4.961  13.251  0.00  0.00    -0.265 OA
BRANCH  21  23
ATOM     23  C9  ZIN A   1      18.366   4.005  14.969  0.00  0.00     0.111 C 
BRANCH  23  24
ATOM     24  C8  ZIN A   1      18.525   2.510  15.253  0.00  0.00     0.010 C 
BRANCH  24  25
ATOM     25  C7  ZIN A   1      19.446   2.314  16.458  0.00  0.00     0.000 C 
BRANCH  25  26
ATOM     26  C6  ZIN A   1      18.605   2.041  17.706  0.00  0.00     0.000 C 
BRANCH  26  27
ATOM     27  C5  ZIN A   1      18.499   0.531  17.930  0.00  0.00     0.000 C 
BRANCH  27  28
ATOM     28  C4  ZIN A   1      17.188   0.018  17.330  0.00  0.00     0.000 C 
BRANCH  28  29
ATOM     29  C3  ZIN A   1      17.496  -0.981  16.213  0.00  0.00    -0.000 C 
BRANCH  29  30
ATOM     30  C2  ZIN A   1      18.959  -1.418  16.308  0.00  0.00    -0.005 C 
ATOM     31  C1  ZIN A   1      19.602  -1.357  14.921  0.00  0.00     0.005 C 
ENDBRANCH  29  30
ENDBRANCH  28  29
ENDBRANCH  27  28
ENDBRANCH  26  27
ENDBRANCH  25  26
ENDBRANCH  24  25
ENDBRANCH  23  24
ENDBRANCH  21  23
ENDBRANCH  20  21
ENDBRANCH   1  20
TORSDOF 10
ENDMDL
MODEL 7
REMARK VINA RESULT:      -7.8      2.409      5.682
REMARK  10 active torsions:
REMARK  status: ('A' for Active; 'I' for Inactive)
REMARK    1  A    between atoms: C2_2  and  C3_3 
REMARK    2  A    between atoms: C3_3  and  C4_4 
REMARK    3  A    between atoms: C4_4  and  C5_5 
REMARK    4  A    between atoms: C5_5  and  C6_6 
REMARK    5  A    between atoms: C6_6  and  C7_7 
REMARK    6  A    between atoms: C7_7  and  C8_8 
REMARK    7  A    between atoms: C8_8  and  C9_9 
REMARK    8  A    between atoms: C9_9  and  C10_10 
REMARK    9  A    between atoms: C10_10  and  O12_12 
REMARK   10  A    between atoms: O12_12  and  C13_13 
ROOT
ATOM      1  C13 ZIN A   1      19.263  -0.052  14.205  0.00  0.00     0.140 C 
ATOM      2  C15 ZIN A   1      19.070  -1.572  14.431  0.00  0.00     0.034 C 
ATOM      3  C16 ZIN A   1      18.632  -2.166  13.064  0.00  0.00     0.008 C 
ATOM      4  C17 ZIN A   1      19.182  -1.150  12.056  0.00  0.00     0.001 C 
ATOM      5  C19 ZIN A   1      18.512  -1.143  10.694  0.00  0.00    -0.005 C 
ATOM      6  C21 ZIN A   1      18.754  -2.481   9.991  0.00  0.00     0.010 C 
ATOM      7  C22 ZIN A   1      18.015  -2.486   8.652  0.00  0.00     0.035 C 
ATOM      8  C23 ZIN A   1      18.461  -1.282   7.844  0.00  0.00    -0.072 C 
ATOM      9  C24 ZIN A   1      18.818  -1.484   6.576  0.00  0.00     0.053 C 
ATOM     10  C25 ZIN A   1      19.243  -0.354   5.742  0.00  0.00     0.149 C 
ATOM     11  O26 ZIN A   1      19.918  -0.513   4.748  0.00  0.00    -0.293 OA
ATOM     12  C27 ZIN A   1      18.794   1.022   6.190  0.00  0.00     0.084 C 
ATOM     13  C28 ZIN A   1      19.131   1.154   7.675  0.00  0.00     0.017 C 
ATOM     14  C29 ZIN A   1      18.466   0.065   8.499  0.00  0.00     0.019 C 
ATOM     15  C31 ZIN A   1      19.144  -0.010   9.873  0.00  0.00    -0.002 C 
ATOM     16  C33 ZIN A   1      19.022   1.345  10.565  0.00  0.00     0.006 C 
ATOM     17  C34 ZIN A   1      19.575   1.304  11.998  0.00  0.00     0.012 C 
ATOM     18  C35 ZIN A   1      18.854   0.197  12.756  0.00  0.00    -0.013 C 
ATOM     19  C36 ZIN A   1      17.341   0.412  12.671  0.00  0.00     0.018 C 
ENDROOT
BRANCH   1  20
ATOM     20  O12 ZIN A   1      18.412   0.703  15.105  0.00  0.00    -0.315 OA
BRANCH  20  21
ATOM     21  C10 ZIN A   1      18.924   1.021  16.304  0.00  0.00     0.259 C 
ATOM     22  O11 ZIN A   1      19.130   0.156  17.122  0.00  0.00    -0.265 OA
BRANCH  21  23
ATOM     23  C9  ZIN A   1      19.241   2.458  16.631  0.00  0.00     0.111 C 
BRANCH  23  24
ATOM     24  C8  ZIN A   1      18.773   3.358  15.487  0.00  0.00     0.010 C 
BRANCH  24  25
ATOM     25  C7  ZIN A   1      19.302   4.776  15.702  0.00  0.00     0.000 C 
BRANCH  25  26
ATOM     26  C6  ZIN A   1      19.021   5.621  14.458  0.00  0.00     0.000 C 
BRANCH  26  27
ATOM     27  C5  ZIN A   1      19.914   5.150  13.308  0.00  0.00     0.000 C 
BRANCH  27  28
ATOM     28  C4  ZIN A   1      19.043   4.793  12.101  0.00  0.00     0.000 C 
BRANCH  28  29
ATOM     29  C3  ZIN A   1      17.567   4.906  12.486  0.00  0.00    -0.000 C 
BRANCH  29  30
ATOM     30  C2  ZIN A   1      16.707   4.897  11.221  0.00  0.00    -0.005 C 
ATOM     31  C1  ZIN A   1      17.607   4.749   9.992  0.00  0.00     0.005 C 
ENDBRANCH  29  30
ENDBRANCH  28  29
ENDBRANCH  27  28
ENDBRANCH  26  27
ENDBRANCH  25  26
ENDBRANCH  24  25
ENDBRANCH  23  24
ENDBRANCH  21  23
ENDBRANCH  20  21
ENDBRANCH   1  20
TORSDOF 10
ENDMDL
MODEL 8
REMARK VINA RESULT:      -7.7      1.897      3.809
REMARK  10 active torsions:
REMARK  status: ('A' for Active; 'I' for Inactive)
REMARK    1  A    between atoms: C2_2  and  C3_3 
REMARK    2  A    between atoms: C3_3  and  C4_4 
REMARK    3  A    between atoms: C4_4  and  C5_5 
REMARK    4  A    between atoms: C5_5  and  C6_6 
REMARK    5  A    between atoms: C6_6  and  C7_7 
REMARK    6  A    between atoms: C7_7  and  C8_8 
REMARK    7  A    between atoms: C8_8  and  C9_9 
REMARK    8  A    between atoms: C9_9  and  C10_10 
REMARK    9  A    between atoms: C10_10  and  O12_12 
REMARK   10  A    between atoms: O12_12  and  C13_13 
ROOT
ATOM      1  C13 ZIN A   1      18.182   1.889  10.877  0.00  0.00     0.140 C 
ATOM      2  C15 ZIN A   1      18.580   2.868   9.746  0.00  0.00     0.034 C 
ATOM      3  C16 ZIN A   1      19.000   1.991   8.535  0.00  0.00     0.008 C 
ATOM      4  C17 ZIN A   1      18.263   0.672   8.794  0.00  0.00     0.001 C 
ATOM      5  C19 ZIN A   1      18.838  -0.552   8.104  0.00  0.00    -0.005 C 
ATOM      6  C21 ZIN A   1      18.722  -0.392   6.586  0.00  0.00     0.010 C 
ATOM      7  C22 ZIN A   1      19.369  -1.599   5.903  0.00  0.00     0.035 C 
ATOM      8  C23 ZIN A   1      18.723  -2.865   6.436  0.00  0.00    -0.072 C 
ATOM      9  C24 ZIN A   1      18.314  -3.772   5.549  0.00  0.00     0.053 C 
ATOM     10  C25 ZIN A   1      17.697  -5.022   6.007  0.00  0.00     0.149 C 
ATOM     11  O26 ZIN A   1      16.985  -5.684   5.284  0.00  0.00    -0.293 OA
ATOM     12  C27 ZIN A   1      17.997  -5.440   7.433  0.00  0.00     0.084 C 
ATOM     13  C28 ZIN A   1      17.742  -4.229   8.329  0.00  0.00     0.017 C 
ATOM     14  C29 ZIN A   1      18.590  -3.038   7.917  0.00  0.00     0.019 C 
ATOM     15  C31 ZIN A   1      18.017  -1.767   8.556  0.00  0.00    -0.002 C 
ATOM     16  C33 ZIN A   1      18.011  -1.929  10.074  0.00  0.00     0.006 C 
ATOM     17  C34 ZIN A   1      17.561  -0.643  10.783  0.00  0.00     0.012 C 
ATOM     18  C35 ZIN A   1      18.463   0.495  10.324  0.00  0.00    -0.013 C 
ATOM     19  C36 ZIN A   1      19.928   0.124  10.564  0.00  0.00     0.018 C 
ENDROOT
BRANCH   1  20
ATOM     20  O12 ZIN A   1      18.987   2.132  12.060  0.00  0.00    -0.315 OA
BRANCH  20  21
ATOM     21  C10 ZIN A   1      18.331   2.432  13.192  0.00  0.00     0.259 C 
ATOM     22  O11 ZIN A   1      17.742   3.482  13.290  0.00  0.00    -0.265 OA
BRANCH  21  23
ATOM     23  C9  ZIN A   1      18.331   1.458  14.343  0.00  0.00     0.111 C 
BRANCH  23  24
ATOM     24  C8  ZIN A   1      19.559   0.551  14.245  0.00  0.00     0.010 C 
BRANCH  24  25
ATOM     25  C7  ZIN A   1      19.117  -0.912  14.277  0.00  0.00     0.000 C 
BRANCH  25  26
ATOM     26  C6  ZIN A   1      18.315  -1.177  15.553  0.00  0.00     0.000 C 
BRANCH  26  27
ATOM     27  C5  ZIN A   1      19.270  -1.548  16.688  0.00  0.00     0.000 C 
BRANCH  27  28
ATOM     28  C4  ZIN A   1      19.113  -0.545  17.834  0.00  0.00     0.000 C 
BRANCH  28  29
ATOM     29  C3  ZIN A   1      17.715   0.074  17.781  0.00  0.00    -0.000 C 
BRANCH  29  30
ATOM     30  C2  ZIN A   1      17.741   1.452  18.445  0.00  0.00    -0.005 C 
ATOM     31  C1  ZIN A   1      19.136   2.063  18.300  0.00  0.00     0.005 C 
ENDBRANCH  29  30
ENDBRANCH  28  29
ENDBRANCH  27  28
ENDBRANCH  26  27
ENDBRANCH  25  26
ENDBRANCH  24  25
ENDBRANCH  23  24
ENDBRANCH  21  23
ENDBRANCH  20  21
ENDBRANCH   1  20
TORSDOF 10
ENDMDL
MODEL 9
REMARK VINA RESULT:      -7.7      2.821      9.092
REMARK  10 active torsions:
REMARK  status: ('A' for Active; 'I' for Inactive)
REMARK    1  A    between atoms: C2_2  and  C3_3 
REMARK    2  A    between atoms: C3_3  and  C4_4 
REMARK    3  A    between atoms: C4_4  and  C5_5 
REMARK    4  A    between atoms: C5_5  and  C6_6 
REMARK    5  A    between atoms: C6_6  and  C7_7 
REMARK    6  A    between atoms: C7_7  and  C8_8 
REMARK    7  A    between atoms: C8_8  and  C9_9 
REMARK    8  A    between atoms: C9_9  and  C10_10 
REMARK    9  A    between atoms: C10_10  and  O12_12 
REMARK   10  A    between atoms: O12_12  and  C13_13 
ROOT
ATOM      1  C13 ZIN A   1      18.320  -1.330  10.696  0.00  0.00     0.140 C 
ATOM      2  C15 ZIN A   1      18.213  -2.792  11.193  0.00  0.00     0.034 C 
ATOM      3  C16 ZIN A   1      18.506  -2.759  12.718  0.00  0.00     0.008 C 
ATOM      4  C17 ZIN A   1      18.154  -1.319  13.104  0.00  0.00     0.001 C 
ATOM      5  C19 ZIN A   1      18.794  -0.802  14.380  0.00  0.00    -0.005 C 
ATOM      6  C21 ZIN A   1      18.283  -1.608  15.578  0.00  0.00     0.010 C 
ATOM      7  C22 ZIN A   1      18.989  -1.124  16.846  0.00  0.00     0.035 C 
ATOM      8  C23 ZIN A   1      18.778   0.373  16.981  0.00  0.00    -0.072 C 
ATOM      9  C24 ZIN A   1      18.372   0.837  18.163  0.00  0.00     0.053 C 
ATOM     10  C25 ZIN A   1      18.166   2.277  18.356  0.00  0.00     0.149 C 
ATOM     11  O26 ZIN A   1      17.460   2.707  19.242  0.00  0.00    -0.293 OA
ATOM     12  C27 ZIN A   1      18.884   3.197  17.389  0.00  0.00     0.084 C 
ATOM     13  C28 ZIN A   1      18.600   2.689  15.976  0.00  0.00     0.017 C 
ATOM     14  C29 ZIN A   1      19.048   1.249  15.797  0.00  0.00     0.019 C 
ATOM     15  C31 ZIN A   1      18.387   0.669  14.540  0.00  0.00    -0.002 C 
ATOM     16  C33 ZIN A   1      18.783   1.514  13.332  0.00  0.00     0.006 C 
ATOM     17  C34 ZIN A   1      18.252   0.917  12.021  0.00  0.00     0.012 C 
ATOM     18  C35 ZIN A   1      18.751  -0.518  11.914  0.00  0.00    -0.013 C 
ATOM     19  C36 ZIN A   1      20.275  -0.549  12.048  0.00  0.00     0.018 C 
ENDROOT
BRANCH   1  20
ATOM     20  O12 ZIN A   1      19.315  -1.226   9.645  0.00  0.00    -0.315 OA
BRANCH  20  21
ATOM     21  C10 ZIN A   1      18.931  -0.648   8.496  0.00  0.00     0.259 C 
ATOM     22  O11 ZIN A   1      19.302  -1.100   7.439  0.00  0.00    -0.265 OA
BRANCH  21  23
ATOM     23  C9  ZIN A   1      18.037   0.564   8.525  0.00  0.00     0.111 C 
BRANCH  23  24
ATOM     24  C8  ZIN A   1      18.860   1.813   8.205  0.00  0.00     0.010 C 
BRANCH  24  25
ATOM     25  C7  ZIN A   1      19.120   2.598   9.491  0.00  0.00     0.000 C 
BRANCH  25  26
ATOM     26  C6  ZIN A   1      18.256   3.860   9.504  0.00  0.00     0.000 C 
BRANCH  26  27
ATOM     27  C5  ZIN A   1      17.268   3.789  10.670  0.00  0.00     0.000 C 
BRANCH  27  28
ATOM     28  C4  ZIN A   1      17.302   5.108  11.447  0.00  0.00     0.000 C 
BRANCH  28  29
ATOM     29  C3  ZIN A   1      17.188   4.820  12.945  0.00  0.00    -0.000 C 
BRANCH  29  30
ATOM     30  C2  ZIN A   1      18.350   5.488  13.683  0.00  0.00    -0.005 C 
ATOM     31  C1  ZIN A   1      19.676   4.994  13.101  0.00  0.00     0.005 C 
ENDBRANCH  29  30
ENDBRANCH  28  29
ENDBRANCH  27  28
ENDBRANCH  26  27
ENDBRANCH  25  26
ENDBRANCH  24  25
ENDBRANCH  23  24
ENDBRANCH  21  23
ENDBRANCH  20  21
ENDBRANCH   1  20
TORSDOF 10
ENDMDL
