MODEL 1
REMARK VINA RESULT:      -7.3      0.000      0.000
REMARK  7 active torsions:
REMARK  status: ('A' for Active; 'I' for Inactive)
REMARK    1  A    between atoms: C2_2  and  C3_3 
REMARK    2  A    between atoms: C3_3  and  C5_5 
REMARK    3  A    between atoms: C5_5  and  C6_6 
REMARK    4  A    between atoms: C5_5  and  C14_13 
REMARK    5  A    between atoms: C5_5  and  C20_19 
REMARK    6  A    between atoms: C6_6  and  C7_7 
REMARK    7  A    between atoms: C7_7  and  N10_9 
ROOT
ATOM      1  C5  ZIN A   1      18.387   0.782  10.177  0.00  0.00     0.076 C 
ENDROOT
BRANCH   1   2
ATOM      2  C3  ZIN A   1      19.800   0.470  10.599  0.00  0.00     0.144 C 
ATOM      3  O4  ZIN A   1      20.407  -0.426  10.064  0.00  0.00    -0.296 OA
BRANCH   2   4
ATOM      4  C2  ZIN A   1      20.455   1.276  11.691  0.00  0.00     0.075 C 
ATOM      5  C1  ZIN A   1      20.619   0.408  12.939  0.00  0.00     0.013 C 
ENDBRANCH   2   4
ENDBRANCH   1   2
BRANCH   1   6
ATOM      6  C6  ZIN A   1      17.428  -0.217  10.827  0.00  0.00     0.060 C 
BRANCH   6   7
ATOM      7  C7  ZIN A   1      18.185  -1.500  11.177  0.00  0.00     0.185 C 
ATOM      8  C9  ZIN A   1      18.028  -1.792  12.670  0.00  0.00     0.040 C 
BRANCH   7   9
ATOM      9  N10 ZIN A   1      17.640  -2.619  10.398  0.00  0.00    -0.075 N 
ATOM     10  H11 ZIN A   1      16.838  -2.305   9.873  0.00  0.00     0.279 HD
ATOM     11  C12 ZIN A   1      18.666  -3.118   9.473  0.00  0.00     0.269 C 
ATOM     12  C13 ZIN A   1      17.236  -3.698  11.309  0.00  0.00     0.269 C 
ENDBRANCH   7   9
ENDBRANCH   6   7
ENDBRANCH   1   6
BRANCH   1  13
ATOM     13  C14 ZIN A   1      18.029   2.178  10.613  0.00  0.00    -0.037 A 
ATOM     14  C19 ZIN A   1      18.138   3.230   9.723  0.00  0.00     0.009 A 
ATOM     15  C18 ZIN A   1      17.806   4.511  10.121  0.00  0.00     0.001 A 
ATOM     16  C17 ZIN A   1      17.373   4.742  11.414  0.00  0.00     0.000 A 
ATOM     17  C16 ZIN A   1      17.270   3.691  12.306  0.00  0.00     0.001 A 
ATOM     18  C15 ZIN A   1      17.597   2.410  11.905  0.00  0.00     0.009 A 
ENDBRANCH   1  13
BRANCH   1  19
ATOM     19  C20 ZIN A   1      18.277   0.680   8.677  0.00  0.00    -0.037 A 
ATOM     20  C25 ZIN A   1      17.238  -0.031   8.107  0.00  0.00     0.009 A 
ATOM     21  C24 ZIN A   1      17.135  -0.121   6.731  0.00  0.00     0.001 A 
ATOM     22  C23 ZIN A   1      18.076   0.492   5.927  0.00  0.00     0.000 A 
ATOM     23  C22 ZIN A   1      19.118   1.199   6.497  0.00  0.00     0.001 A 
ATOM     24  C21 ZIN A   1      19.219   1.293   7.872  0.00  0.00     0.009 A 
ENDBRANCH   1  19
TORSDOF 7
ENDMDL
MODEL 2
REMARK VINA RESULT:      -7.2      1.988      6.096
REMARK  7 active torsions:
REMARK  status: ('A' for Active; 'I' for Inactive)
REMARK    1  A    between atoms: C2_2  and  C3_3 
REMARK    2  A    between atoms: C3_3  and  C5_5 
REMARK    3  A    between atoms: C5_5  and  C6_6 
REMARK    4  A    between atoms: C5_5  and  C14_13 
REMARK    5  A    between atoms: C5_5  and  C20_19 
REMARK    6  A    between atoms: C6_6  and  C7_7 
REMARK    7  A    between atoms: C7_7  and  N10_9 
ROOT
ATOM      1  C5  ZIN A   1      18.708  -0.927  11.917  0.00  0.00     0.076 C 
ENDROOT
BRANCH   1   2
ATOM      2  C3  ZIN A   1      20.077  -0.408  11.558  0.00  0.00     0.144 C 
ATOM      3  O4  ZIN A   1      20.609  -0.763  10.534  0.00  0.00    -0.296 OA
BRANCH   2   4
ATOM      4  C2  ZIN A   1      20.782   0.554  12.479  0.00  0.00     0.075 C 
ATOM      5  C1  ZIN A   1      20.498   1.989  12.033  0.00  0.00     0.013 C 
ENDBRANCH   2   4
ENDBRANCH   1   2
BRANCH   1   6
ATOM      6  C6  ZIN A   1      17.651  -0.194  11.089  0.00  0.00     0.060 C 
BRANCH   6   7
ATOM      7  C7  ZIN A   1      18.213   0.116   9.700  0.00  0.00     0.185 C 
ATOM      8  C9  ZIN A   1      17.571  -0.816   8.671  0.00  0.00     0.040 C 
BRANCH   7   9
ATOM      9  N10 ZIN A   1      17.916   1.511   9.352  0.00  0.00    -0.075 N 
ATOM     10  H11 ZIN A   1      17.132   1.540   8.718  0.00  0.00     0.279 HD
ATOM     11  C12 ZIN A   1      17.588   2.261  10.571  0.00  0.00     0.269 C 
ATOM     12  C13 ZIN A   1      19.090   2.114   8.706  0.00  0.00     0.269 C 
ENDBRANCH   7   9
ENDBRANCH   6   7
ENDBRANCH   1   6
BRANCH   1  13
ATOM     13  C14 ZIN A   1      18.639  -2.404  11.626  0.00  0.00    -0.037 A 
ATOM     14  C19 ZIN A   1      17.413  -3.023  11.477  0.00  0.00     0.009 A 
ATOM     15  C18 ZIN A   1      17.349  -4.376  11.207  0.00  0.00     0.001 A 
ATOM     16  C17 ZIN A   1      18.513  -5.114  11.095  0.00  0.00     0.000 A 
ATOM     17  C16 ZIN A   1      19.741  -4.496  11.251  0.00  0.00     0.001 A 
ATOM     18  C15 ZIN A   1      19.803  -3.142  11.516  0.00  0.00     0.009 A 
ENDBRANCH   1  13
BRANCH   1  19
ATOM     19  C20 ZIN A   1      18.449  -0.691  13.383  0.00  0.00    -0.037 A 
ATOM     20  C25 ZIN A   1      19.048  -1.501  14.330  0.00  0.00     0.009 A 
ATOM     21  C24 ZIN A   1      18.814  -1.282  15.675  0.00  0.00     0.001 A 
ATOM     22  C23 ZIN A   1      17.974  -0.260  16.072  0.00  0.00     0.000 A 
ATOM     23  C22 ZIN A   1      17.371   0.546  15.125  0.00  0.00     0.001 A 
ATOM     24  C21 ZIN A   1      17.609   0.331  13.781  0.00  0.00     0.009 A 
ENDBRANCH   1  19
TORSDOF 7
ENDMDL
MODEL 3
REMARK VINA RESULT:      -6.8      2.278      5.010
REMARK  7 active torsions:
REMARK  status: ('A' for Active; 'I' for Inactive)
REMARK    1  A    between atoms: C2_2  and  C3_3 
REMARK    2  A    between atoms: C3_3  and  C5_5 
REMARK    3  A    between atoms: C5_5  and  C6_6 
REMARK    4  A    between atoms: C5_5  and  C14_13 
REMARK    5  A    between atoms: C5_5  and  C20_19 
REMARK    6  A    between atoms: C6_6  and  C7_7 
REMARK    7  A    between atoms: C7_7  and  N10_9 
ROOT
ATOM      1  C5  ZIN A   1      18.620  -0.116  12.553  0.00  0.00     0.076 C 
ENDROOT
BRANCH   1   2
ATOM      2  C3  ZIN A   1      17.405  -0.602  11.808  0.00  0.00     0.144 C 
ATOM      3  O4  ZIN A   1      17.017  -1.736  11.958  0.00  0.00    -0.296 OA
BRANCH   2   4
ATOM      4  C2  ZIN A   1      16.673   0.325  10.873  0.00  0.00     0.075 C 
ATOM      5  C1  ZIN A   1      17.015  -0.033   9.426  0.00  0.00     0.013 C 
ENDBRANCH   2   4
ENDBRANCH   1   2
BRANCH   1   6
ATOM      6  C6  ZIN A   1      19.863  -0.840  12.032  0.00  0.00     0.060 C 
BRANCH   6   7
ATOM      7  C7  ZIN A   1      19.608  -1.332  10.606  0.00  0.00     0.185 C 
ATOM      8  C9  ZIN A   1      20.447  -0.511   9.625  0.00  0.00     0.040 C 
BRANCH   7   9
ATOM      9  N10 ZIN A   1      19.979  -2.749  10.503  0.00  0.00    -0.075 N 
ATOM     10  H11 ZIN A   1      20.891  -2.828  10.080  0.00  0.00     0.279 HD
ATOM     11  C12 ZIN A   1      20.007  -3.347  11.844  0.00  0.00     0.269 C 
ATOM     12  C13 ZIN A   1      18.991  -3.454   9.674  0.00  0.00     0.269 C 
ENDBRANCH   7   9
ENDBRANCH   6   7
ENDBRANCH   1   6
BRANCH   1  13
ATOM     13  C14 ZIN A   1      18.778   1.368  12.344  0.00  0.00    -0.037 A 
ATOM     14  C19 ZIN A   1      19.971   1.876  11.868  0.00  0.00     0.009 A 
ATOM     15  C18 ZIN A   1      20.115   3.237  11.673  0.00  0.00     0.001 A 
ATOM     16  C17 ZIN A   1      19.066   4.091  11.962  0.00  0.00     0.000 A 
ATOM     17  C16 ZIN A   1      17.874   3.583  12.443  0.00  0.00     0.001 A 
ATOM     18  C15 ZIN A   1      17.730   2.222  12.634  0.00  0.00     0.009 A 
ENDBRANCH   1  13
BRANCH   1  19
ATOM     19  C20 ZIN A   1      18.455  -0.400  14.024  0.00  0.00    -0.037 A 
ATOM     20  C25 ZIN A   1      17.441   0.212  14.738  0.00  0.00     0.009 A 
ATOM     21  C24 ZIN A   1      17.287  -0.052  16.086  0.00  0.00     0.001 A 
ATOM     22  C23 ZIN A   1      18.152  -0.921  16.722  0.00  0.00     0.000 A 
ATOM     23  C22 ZIN A   1      19.169  -1.530  16.011  0.00  0.00     0.001 A 
ATOM     24  C21 ZIN A   1      19.320  -1.270  14.662  0.00  0.00     0.009 A 
ENDBRANCH   1  19
TORSDOF 7
ENDMDL
MODEL 4
REMARK VINA RESULT:      -6.7      1.920      4.971
REMARK  7 active torsions:
REMARK  status: ('A' for Active; 'I' for Inactive)
REMARK    1  A    between atoms: C2_2  and  C3_3 
REMARK    2  A    between atoms: C3_3  and  C5_5 
REMARK    3  A    between atoms: C5_5  and  C6_6 
REMARK    4  A    between atoms: C5_5  and  C14_13 
REMARK    5  A    between atoms: C5_5  and  C20_19 
REMARK    6  A    between atoms: C6_6  and  C7_7 
REMARK    7  A    between atoms: C7_7  and  N10_9 
ROOT
ATOM      1  C5  ZIN A   1      18.721  -0.479  10.087  0.00  0.00     0.076 C 
ENDROOT
BRANCH   1   2
ATOM      2  C3  ZIN A   1      17.500  -0.202  10.925  0.00  0.00     0.144 C 
ATOM      3  O4  ZIN A   1      16.871   0.816  10.760  0.00  0.00    -0.296 OA
BRANCH   2   4
ATOM      4  C2  ZIN A   1      17.063  -1.195  11.972  0.00  0.00     0.075 C 
ATOM      5  C1  ZIN A   1      17.442  -0.676  13.359  0.00  0.00     0.013 C 
ENDBRANCH   2   4
ENDBRANCH   1   2
BRANCH   1   6
ATOM      6  C6  ZIN A   1      19.891   0.368  10.594  0.00  0.00     0.060 C 
BRANCH   6   7
ATOM      7  C7  ZIN A   1      19.354   1.538  11.421  0.00  0.00     0.185 C 
ATOM      8  C9  ZIN A   1      19.971   1.497  12.821  0.00  0.00     0.040 C 
BRANCH   7   9
ATOM      9  N10 ZIN A   1      19.707   2.804  10.766  0.00  0.00    -0.075 N 
ATOM     10  H11 ZIN A   1      20.423   2.637  10.076  0.00  0.00     0.279 HD
ATOM     11  C12 ZIN A   1      18.518   3.366  10.114  0.00  0.00     0.269 C 
ATOM     12  C13 ZIN A   1      20.208   3.751  11.771  0.00  0.00     0.269 C 
ENDBRANCH   7   9
ENDBRANCH   6   7
ENDBRANCH   1   6
BRANCH   1  13
ATOM     13  C14 ZIN A   1      19.078  -1.939  10.186  0.00  0.00    -0.037 A 
ATOM     14  C19 ZIN A   1      18.608  -2.831   9.240  0.00  0.00     0.009 A 
ATOM     15  C18 ZIN A   1      18.939  -4.170   9.328  0.00  0.00     0.001 A 
ATOM     16  C17 ZIN A   1      19.732  -4.619  10.368  0.00  0.00     0.000 A 
ATOM     17  C16 ZIN A   1      20.197  -3.728  11.317  0.00  0.00     0.001 A 
ATOM     18  C15 ZIN A   1      19.870  -2.388  11.225  0.00  0.00     0.009 A 
ENDBRANCH   1  13
BRANCH   1  19
ATOM     19  C20 ZIN A   1      18.434  -0.128   8.650  0.00  0.00    -0.037 A 
ATOM     20  C25 ZIN A   1      19.375   0.556   7.903  0.00  0.00     0.009 A 
ATOM     21  C24 ZIN A   1      19.113   0.874   6.584  0.00  0.00     0.001 A 
ATOM     22  C23 ZIN A   1      17.906   0.517   6.014  0.00  0.00     0.000 A 
ATOM     23  C22 ZIN A   1      16.963  -0.162   6.761  0.00  0.00     0.001 A 
ATOM     24  C21 ZIN A   1      17.226  -0.485   8.079  0.00  0.00     0.009 A 
ENDBRANCH   1  19
TORSDOF 7
ENDMDL
MODEL 5
REMARK VINA RESULT:      -6.5      2.210      5.197
REMARK  7 active torsions:
REMARK  status: ('A' for Active; 'I' for Inactive)
REMARK    1  A    between atoms: C2_2  and  C3_3 
REMARK    2  A    between atoms: C3_3  and  C5_5 
REMARK    3  A    between atoms: C5_5  and  C6_6 
REMARK    4  A    between atoms: C5_5  and  C14_13 
REMARK    5  A    between atoms: C5_5  and  C20_19 
REMARK    6  A    between atoms: C6_6  and  C7_7 
REMARK    7  A    between atoms: C7_7  and  N10_9 
ROOT
ATOM      1  C5  ZIN A   1      18.283  -0.842  11.532  0.00  0.00     0.076 C 
ENDROOT
BRANCH   1   2
ATOM      2  C3  ZIN A   1      17.054  -0.245  10.895  0.00  0.00     0.144 C 
ATOM      3  O4  ZIN A   1      16.010  -0.224  11.501  0.00  0.00    -0.296 OA
BRANCH   2   4
ATOM      4  C2  ZIN A   1      17.129   0.324   9.502  0.00  0.00     0.075 C 
ATOM      5  C1  ZIN A   1      17.243  -0.816   8.489  0.00  0.00     0.013 C 
ENDBRANCH   2   4
ENDBRANCH   1   2
BRANCH   1   6
ATOM      6  C6  ZIN A   1      19.533  -0.179  10.950  0.00  0.00     0.060 C 
BRANCH   6   7
ATOM      7  C7  ZIN A   1      19.896   1.050  11.785  0.00  0.00     0.185 C 
ATOM      8  C9  ZIN A   1      21.258   0.833  12.447  0.00  0.00     0.040 C 
BRANCH   7   9
ATOM      9  N10 ZIN A   1      19.955   2.233  10.916  0.00  0.00    -0.075 N 
ATOM     10  H11 ZIN A   1      20.840   2.699  11.043  0.00  0.00     0.279 HD
ATOM     11  C12 ZIN A   1      19.816   1.818   9.514  0.00  0.00     0.269 C 
ATOM     12  C13 ZIN A   1      18.863   3.152  11.266  0.00  0.00     0.269 C 
ENDBRANCH   7   9
ENDBRANCH   6   7
ENDBRANCH   1   6
BRANCH   1  13
ATOM     13  C14 ZIN A   1      18.239  -0.613  13.020  0.00  0.00    -0.037 A 
ATOM     14  C19 ZIN A   1      18.875  -1.495  13.874  0.00  0.00     0.009 A 
ATOM     15  C18 ZIN A   1      18.838  -1.283  15.239  0.00  0.00     0.001 A 
ATOM     16  C17 ZIN A   1      18.157  -0.194  15.752  0.00  0.00     0.000 A 
ATOM     17  C16 ZIN A   1      17.517   0.685  14.898  0.00  0.00     0.001 A 
ATOM     18  C15 ZIN A   1      17.558   0.475  13.533  0.00  0.00     0.009 A 
ENDBRANCH   1  13
BRANCH   1  19
ATOM     19  C20 ZIN A   1      18.325  -2.323  11.252  0.00  0.00    -0.037 A 
ATOM     20  C25 ZIN A   1      19.471  -2.896  10.733  0.00  0.00     0.009 A 
ATOM     21  C24 ZIN A   1      19.510  -4.255  10.480  0.00  0.00     0.001 A 
ATOM     22  C23 ZIN A   1      18.401  -5.038  10.738  0.00  0.00     0.000 A 
ATOM     23  C22 ZIN A   1      17.254  -4.464  11.253  0.00  0.00     0.001 A 
ATOM     24  C21 ZIN A   1      17.215  -3.106  11.510  0.00  0.00     0.009 A 
ENDBRANCH   1  19
TORSDOF 7
ENDMDL
MODEL 6
REMARK VINA RESULT:      -6.5      1.528      4.328
REMARK  7 active torsions:
REMARK  status: ('A' for Active; 'I' for Inactive)
REMARK    1  A    between atoms: C2_2  and  C3_3 
REMARK    2  A    between atoms: C3_3  and  C5_5 
REMARK    3  A    between atoms: C5_5  and  C6_6 
REMARK    4  A    between atoms: C5_5  and  C14_13 
REMARK    5  A    between atoms: C5_5  and  C20_19 
REMARK    6  A    between atoms: C6_6  and  C7_7 
REMARK    7  A    between atoms: C7_7  and  N10_9 
ROOT
ATOM      1  C5  ZIN A   1      18.504   0.468  10.173  0.00  0.00     0.076 C 
ENDROOT
BRANCH   1   2
ATOM      2  C3  ZIN A   1      17.307  -0.156  10.842  0.00  0.00     0.144 C 
ATOM      3  O4  ZIN A   1      16.886  -1.221  10.457  0.00  0.00    -0.296 OA
BRANCH   2   4
ATOM      4  C2  ZIN A   1      16.634   0.547  11.993  0.00  0.00     0.075 C 
ATOM      5  C1  ZIN A   1      17.306   0.139  13.305  0.00  0.00     0.013 C 
ENDBRANCH   2   4
ENDBRANCH   1   2
BRANCH   1   6
ATOM      6  C6  ZIN A   1      19.756  -0.346  10.503  0.00  0.00     0.060 C 
BRANCH   6   7
ATOM      7  C7  ZIN A   1      19.386  -1.825  10.629  0.00  0.00     0.185 C 
ATOM      8  C9  ZIN A   1      19.661  -2.533   9.301  0.00  0.00     0.040 C 
BRANCH   7   9
ATOM      9  N10 ZIN A   1      20.191  -2.443  11.690  0.00  0.00    -0.075 N 
ATOM     10  H11 ZIN A   1      21.122  -2.055  11.676  0.00  0.00     0.279 HD
ATOM     11  C12 ZIN A   1      19.569  -2.178  12.994  0.00  0.00     0.269 C 
ATOM     12  C13 ZIN A   1      20.263  -3.894  11.468  0.00  0.00     0.269 C 
ENDBRANCH   7   9
ENDBRANCH   6   7
ENDBRANCH   1   6
BRANCH   1  13
ATOM     13  C14 ZIN A   1      18.294   0.485   8.682  0.00  0.00    -0.037 A 
ATOM     14  C19 ZIN A   1      17.185  -0.130   8.133  0.00  0.00     0.009 A 
ATOM     15  C18 ZIN A   1      16.990  -0.111   6.765  0.00  0.00     0.001 A 
ATOM     16  C17 ZIN A   1      17.910   0.516   5.944  0.00  0.00     0.000 A 
ATOM     17  C16 ZIN A   1      19.022   1.126   6.493  0.00  0.00     0.001 A 
ATOM     18  C15 ZIN A   1      19.213   1.111   7.861  0.00  0.00     0.009 A 
ENDBRANCH   1  13
BRANCH   1  19
ATOM     19  C20 ZIN A   1      18.678   1.880  10.672  0.00  0.00    -0.037 A 
ATOM     20  C25 ZIN A   1      19.770   2.208  11.454  0.00  0.00     0.009 A 
ATOM     21  C24 ZIN A   1      19.931   3.504  11.908  0.00  0.00     0.001 A 
ATOM     22  C23 ZIN A   1      18.996   4.469  11.588  0.00  0.00     0.000 A 
ATOM     23  C22 ZIN A   1      17.902   4.141  10.810  0.00  0.00     0.001 A 
ATOM     24  C21 ZIN A   1      17.742   2.847  10.352  0.00  0.00     0.009 A 
ENDBRANCH   1  19
TORSDOF 7
ENDMDL
MODEL 7
REMARK VINA RESULT:      -6.4      1.683      4.949
REMARK  7 active torsions:
REMARK  status: ('A' for Active; 'I' for Inactive)
REMARK    1  A    between atoms: C2_2  and  C3_3 
REMARK    2  A    between atoms: C3_3  and  C5_5 
REMARK    3  A    between atoms: C5_5  and  C6_6 
REMARK    4  A    between atoms: C5_5  and  C14_13 
REMARK    5  A    between atoms: C5_5  and  C20_19 
REMARK    6  A    between atoms: C6_6  and  C7_7 
REMARK    7  A    between atoms: C7_7  and  N10_9 
ROOT
ATOM      1  C5  ZIN A   1      18.432  -0.960   9.696  0.00  0.00     0.076 C 
ENDROOT
BRANCH   1   2
ATOM      2  C3  ZIN A   1      19.793  -0.448  10.088  0.00  0.00     0.144 C 
ATOM      3  O4  ZIN A   1      20.392   0.301   9.354  0.00  0.00    -0.296 OA
BRANCH   2   4
ATOM      4  C2  ZIN A   1      20.409  -0.870  11.397  0.00  0.00     0.075 C 
ATOM      5  C1  ZIN A   1      21.020   0.348  12.090  0.00  0.00     0.013 C 
ENDBRANCH   2   4
ENDBRANCH   1   2
BRANCH   1   6
ATOM      6  C6  ZIN A   1      17.352  -0.117  10.378  0.00  0.00     0.060 C 
BRANCH   6   7
ATOM      7  C7  ZIN A   1      17.996   1.112  11.023  0.00  0.00     0.185 C 
ATOM      8  C9  ZIN A   1      17.802   2.326  10.113  0.00  0.00     0.040 C 
BRANCH   7   9
ATOM      9  N10 ZIN A   1      17.366   1.368  12.324  0.00  0.00    -0.075 N 
ATOM     10  H11 ZIN A   1      16.390   1.586  12.189  0.00  0.00     0.279 HD
ATOM     11  C12 ZIN A   1      17.488   0.175  13.172  0.00  0.00     0.269 C 
ATOM     12  C13 ZIN A   1      18.034   2.503  12.976  0.00  0.00     0.269 C 
ENDBRANCH   7   9
ENDBRANCH   6   7
ENDBRANCH   1   6
BRANCH   1  13
ATOM     13  C14 ZIN A   1      18.271  -0.868   8.201  0.00  0.00    -0.037 A 
ATOM     14  C19 ZIN A   1      17.186  -0.204   7.661  0.00  0.00     0.009 A 
ATOM     15  C18 ZIN A   1      17.040  -0.117   6.290  0.00  0.00     0.001 A 
ATOM     16  C17 ZIN A   1      17.977  -0.701   5.457  0.00  0.00     0.000 A 
ATOM     17  C16 ZIN A   1      19.060  -1.370   5.996  0.00  0.00     0.001 A 
ATOM     18  C15 ZIN A   1      19.207  -1.453   7.368  0.00  0.00     0.009 A 
ENDBRANCH   1  13
BRANCH   1  19
ATOM     19  C20 ZIN A   1      18.292  -2.398  10.128  0.00  0.00    -0.037 A 
ATOM     20  C25 ZIN A   1      17.419  -2.732  11.146  0.00  0.00     0.009 A 
ATOM     21  C24 ZIN A   1      17.288  -4.051  11.540  0.00  0.00     0.001 A 
ATOM     22  C23 ZIN A   1      18.038  -5.033  10.921  0.00  0.00     0.000 A 
ATOM     23  C22 ZIN A   1      18.914  -4.699   9.907  0.00  0.00     0.001 A 
ATOM     24  C21 ZIN A   1      19.042  -3.381   9.510  0.00  0.00     0.009 A 
ENDBRANCH   1  19
TORSDOF 7
ENDMDL
MODEL 8
REMARK VINA RESULT:      -6.3      1.995      4.863
REMARK  7 active torsions:
REMARK  status: ('A' for Active; 'I' for Inactive)
REMARK    1  A    between atoms: C2_2  and  C3_3 
REMARK    2  A    between atoms: C3_3  and  C5_5 
REMARK    3  A    between atoms: C5_5  and  C6_6 
REMARK    4  A    between atoms: C5_5  and  C14_13 
REMARK    5  A    between atoms: C5_5  and  C20_19 
REMARK    6  A    between atoms: C6_6  and  C7_7 
REMARK    7  A    between atoms: C7_7  and  N10_9 
ROOT
ATOM      1  C5  ZIN A   1      18.436  -1.379   9.938  0.00  0.00     0.076 C 
ENDROOT
BRANCH   1   2
ATOM      2  C3  ZIN A   1      17.312  -0.956  10.848  0.00  0.00     0.144 C 
ATOM      3  O4  ZIN A   1      16.929  -1.699  11.720  0.00  0.00    -0.296 OA
BRANCH   2   4
ATOM      4  C2  ZIN A   1      16.664   0.392  10.669  0.00  0.00     0.075 C 
ATOM      5  C1  ZIN A   1      17.344   1.411  11.585  0.00  0.00     0.013 C 
ENDBRANCH   2   4
ENDBRANCH   1   2
BRANCH   1   6
ATOM      6  C6  ZIN A   1      19.776  -1.142  10.638  0.00  0.00     0.060 C 
BRANCH   6   7
ATOM      7  C7  ZIN A   1      19.652  -1.511  12.117  0.00  0.00     0.185 C 
ATOM      8  C9  ZIN A   1      20.215  -2.916  12.340  0.00  0.00     0.040 C 
BRANCH   7   9
ATOM      9  N10 ZIN A   1      20.406  -0.546  12.927  0.00  0.00    -0.075 N 
ATOM     10  H11 ZIN A   1      21.239  -0.986  13.288  0.00  0.00     0.279 HD
ATOM     11  C12 ZIN A   1      20.782   0.605  12.096  0.00  0.00     0.269 C 
ATOM     12  C13 ZIN A   1      19.570  -0.089  14.046  0.00  0.00     0.269 C 
ENDBRANCH   7   9
ENDBRANCH   6   7
ENDBRANCH   1   6
BRANCH   1  13
ATOM     13  C14 ZIN A   1      18.293  -2.841   9.608  0.00  0.00    -0.037 A 
ATOM     14  C19 ZIN A   1      19.216  -3.457   8.784  0.00  0.00     0.009 A 
ATOM     15  C18 ZIN A   1      19.087  -4.800   8.484  0.00  0.00     0.001 A 
ATOM     16  C17 ZIN A   1      18.029  -5.526   9.000  0.00  0.00     0.000 A 
ATOM     17  C16 ZIN A   1      17.103  -4.908   9.820  0.00  0.00     0.001 A 
ATOM     18  C15 ZIN A   1      17.235  -3.566  10.124  0.00  0.00     0.009 A 
ENDBRANCH   1  13
BRANCH   1  19
ATOM     19  C20 ZIN A   1      18.384  -0.570   8.667  0.00  0.00    -0.037 A 
ATOM     20  C25 ZIN A   1      17.406  -0.825   7.724  0.00  0.00     0.009 A 
ATOM     21  C24 ZIN A   1      17.357  -0.081   6.560  0.00  0.00     0.001 A 
ATOM     22  C23 ZIN A   1      18.290   0.913   6.336  0.00  0.00     0.000 A 
ATOM     23  C22 ZIN A   1      19.271   1.165   7.276  0.00  0.00     0.001 A 
ATOM     24  C21 ZIN A   1      19.318   0.425   8.442  0.00  0.00     0.009 A 
ENDBRANCH   1  19
TORSDOF 7
ENDMDL
MODEL 9
REMARK VINA RESULT:      -6.3      1.637      2.233
REMARK  7 active torsions:
REMARK  status: ('A' for Active; 'I' for Inactive)
REMARK    1  A    between atoms: C2_2  and  C3_3 
REMARK    2  A    between atoms: C3_3  and  C5_5 
REMARK    3  A    between atoms: C5_5  and  C6_6 
REMARK    4  A    between atoms: C5_5  and  C14_13 
REMARK    5  A    between atoms: C5_5  and  C20_19 
REMARK    6  A    between atoms: C6_6  and  C7_7 
REMARK    7  A    between atoms: C7_7  and  N10_9 
ROOT
ATOM      1  C5  ZIN A   1      18.358   1.680  11.331  0.00  0.00     0.076 C 
ENDROOT
BRANCH   1   2
ATOM      2  C3  ZIN A   1      19.780   1.695  11.830  0.00  0.00     0.144 C 
ATOM      3  O4  ZIN A   1      20.477   0.718  11.699  0.00  0.00    -0.296 OA
BRANCH   2   4
ATOM      4  C2  ZIN A   1      20.333   2.930  12.493  0.00  0.00     0.075 C 
ATOM      5  C1  ZIN A   1      21.161   3.726  11.483  0.00  0.00     0.013 C 
ENDBRANCH   2   4
ENDBRANCH   1   2
BRANCH   1   6
ATOM      6  C6  ZIN A   1      17.527   0.722  12.187  0.00  0.00     0.060 C 
BRANCH   6   7
ATOM      7  C7  ZIN A   1      18.300   0.372  13.460  0.00  0.00     0.185 C 
ATOM      8  C9  ZIN A   1      17.394   0.570  14.677  0.00  0.00     0.040 C 
BRANCH   7   9
ATOM      9  N10 ZIN A   1      18.738  -1.029  13.397  0.00  0.00    -0.075 N 
ATOM     10  H11 ZIN A   1      19.657  -1.076  12.986  0.00  0.00     0.279 HD
ATOM     11  C12 ZIN A   1      18.777  -1.591  14.753  0.00  0.00     0.269 C 
ATOM     12  C13 ZIN A   1      17.795  -1.799  12.575  0.00  0.00     0.269 C 
ENDBRANCH   7   9
ENDBRANCH   6   7
ENDBRANCH   1   6
BRANCH   1  13
ATOM     13  C14 ZIN A   1      17.778   3.068  11.423  0.00  0.00    -0.037 A 
ATOM     14  C19 ZIN A   1      17.659   3.844  10.286  0.00  0.00     0.009 A 
ATOM     15  C18 ZIN A   1      17.124   5.115  10.370  0.00  0.00     0.001 A 
ATOM     16  C17 ZIN A   1      16.716   5.615  11.593  0.00  0.00     0.000 A 
ATOM     17  C16 ZIN A   1      16.841   4.840  12.732  0.00  0.00     0.001 A 
ATOM     18  C15 ZIN A   1      17.372   3.567  12.646  0.00  0.00     0.009 A 
ENDBRANCH   1  13
BRANCH   1  19
ATOM     19  C20 ZIN A   1      18.333   1.220   9.896  0.00  0.00    -0.037 A 
ATOM     20  C25 ZIN A   1      17.414   0.271   9.490  0.00  0.00     0.009 A 
ATOM     21  C24 ZIN A   1      17.389  -0.148   8.172  0.00  0.00     0.001 A 
ATOM     22  C23 ZIN A   1      18.290   0.375   7.264  0.00  0.00     0.000 A 
ATOM     23  C22 ZIN A   1      19.212   1.320   7.672  0.00  0.00     0.001 A 
ATOM     24  C21 ZIN A   1      19.235   1.743   8.987  0.00  0.00     0.009 A 
ENDBRANCH   1  19
TORSDOF 7
ENDMDL
