MODEL 1
REMARK VINA RESULT:      -3.0      0.000      0.000
REMARK  12 active torsions:
REMARK  status: ('A' for Active; 'I' for Inactive)
REMARK    1  A    between atoms: C2_2  and  C3_3 
REMARK    2  A    between atoms: C15_15  and  O16_16 
REMARK    3  A    between atoms: C18_18  and  C19_19 
REMARK    4  A    between atoms: C19_19  and  C20_20 
REMARK    5  A    between atoms: C20_20  and  O22_22 
REMARK    6  A    between atoms: C31_30  and  O32_31 
REMARK    7  A    between atoms: C31_30  and  C33_32 
REMARK    8  A    between atoms: C52_50  and  O53_51 
REMARK    9  A    between atoms: C52_50  and  C54_52 
REMARK   10  A    between atoms: C54_52  and  O56_54 
REMARK   11  A    between atoms: C58_56  and  O60_57 
REMARK   12  A    between atoms: O60_57  and  C61_58 
ROOT
ATOM      1  C3  ZIN A   1      18.268  -3.483   9.688  0.00  0.00     0.037 C 
ATOM      2  C4  ZIN A   1      18.821  -3.275  11.064  0.00  0.00    -0.015 C 
ATOM      3  C5  ZIN A   1      19.896  -3.873  11.482  0.00  0.00    -0.003 C 
ATOM      4  C6  ZIN A   1      20.670  -4.804  10.598  0.00  0.00     0.262 C 
ATOM      5  N7  ZIN A   1      19.783  -5.484   9.648  0.00  0.00    -0.061 N 
ATOM      6  H8  ZIN A   1      19.212  -6.164  10.127  0.00  0.00     0.280 HD
ATOM      7  C9  ZIN A   1      20.646  -6.151   8.633  0.00  0.00     0.237 C 
ATOM      8  C10 ZIN A   1      20.912  -5.049   7.580  0.00  0.00     0.046 C 
ATOM      9  C11 ZIN A   1      19.578  -4.250   7.571  0.00  0.00     0.040 C 
ATOM     10  C12 ZIN A   1      18.745  -4.746   6.422  0.00  0.00    -0.024 A 
ATOM     11  C13 ZIN A   1      18.400  -3.646   5.629  0.00  0.00     0.020 A 
ATOM     12  C14 ZIN A   1      17.636  -3.822   4.472  0.00  0.00     0.061 A 
ATOM     13  C15 ZIN A   1      17.237  -5.118   4.164  0.00  0.00     0.077 A 
ATOM     14  C18 ZIN A   1      17.578  -6.196   4.964  0.00  0.00     0.000 A 
ATOM     15  C47 ZIN A   1      18.341  -6.030   6.113  0.00  0.00     0.021 A 
ATOM     16  N48 ZIN A   1      18.884  -2.466   6.168  0.00  0.00    -0.278 NA
ATOM     17  C49 ZIN A   1      19.484  -1.618   5.129  0.00  0.00     0.117 C 
ATOM     18  C50 ZIN A   1      19.875  -2.796   7.226  0.00  0.00     0.125 C 
ATOM     19  C52 ZIN A   1      19.628  -1.849   8.396  0.00  0.00     0.190 C 
ATOM     20  C58 ZIN A   1      18.221  -2.142   8.954  0.00  0.00     0.192 C 
ATOM     21  C64 ZIN A   1      18.967  -4.534   8.910  0.00  0.00     0.218 C 
ENDROOT
BRANCH  14  22
ATOM     22  C19 ZIN A   1      17.109  -7.576   4.581  0.00  0.00     0.121 C 
ATOM     23  C39 ZIN A   1      15.755  -7.543   3.900  0.00  0.00     0.040 A 
ATOM     24  C38 ZIN A   1      14.668  -6.767   4.080  0.00  0.00    -0.020 A 
ATOM     25  N40 ZIN A   1      15.479  -8.455   2.888  0.00  0.00    -0.357 N 
ATOM     26  C37 ZIN A   1      14.370  -5.663   5.078  0.00  0.00     0.069 C 
ATOM     27  C46 ZIN A   1      13.689  -7.149   3.061  0.00  0.00    -0.001 A 
ATOM     28  C36 ZIN A   1      13.286  -6.186   6.093  0.00  0.00     0.239 C 
ATOM     29  N28 ZIN A   1      13.654  -7.594   6.264  0.00  0.00    -0.068 N 
ATOM     30  C27 ZIN A   1      15.066  -7.514   6.768  0.00  0.00     0.239 C 
ATOM     31  H29 ZIN A   1      13.614  -8.069   5.369  0.00  0.00     0.280 HD
ATOM     32  C30 ZIN A   1      13.020  -8.449   7.250  0.00  0.00     0.272 C 
ATOM     33  C25 ZIN A   1      15.572  -8.794   6.026  0.00  0.00     0.016 C 
ATOM     34  C24 ZIN A   1      17.060  -8.522   5.832  0.00  0.00     0.037 C 
ATOM     35  C35 ZIN A   1      15.152  -9.895   6.993  0.00  0.00     0.045 C 
ATOM     36  C31 ZIN A   1      13.623  -9.862   7.157  0.00  0.00     0.082 C 
ATOM     37  C41 ZIN A   1      14.262  -8.215   2.336  0.00  0.00     0.043 A 
ATOM     38  C45 ZIN A   1      12.420  -6.652   2.756  0.00  0.00     0.014 A 
ATOM     39  C42 ZIN A   1      13.574  -8.800   1.273  0.00  0.00     0.030 A 
ATOM     40  C43 ZIN A   1      12.320  -8.288   0.985  0.00  0.00     0.002 A 
ATOM     41  C44 ZIN A   1      11.761  -7.248   1.708  0.00  0.00     0.001 A 
ATOM     42 4H10 ZIN A   1      16.053  -9.187   2.617  0.00  0.00     0.166 HD
BRANCH  36  43
ATOM     43  O32 ZIN A   1      13.029 -10.535   6.043  0.00  0.00    -0.388 OA
ATOM     44  H92 ZIN A   1      13.198 -10.111   5.190  0.00  0.00     0.210 HD
ENDBRANCH  36  43
BRANCH  36  45
ATOM     45  C33 ZIN A   1      13.254 -10.628   8.432  0.00  0.00     0.035 C 
ATOM     46  C34 ZIN A   1      11.752 -10.490   8.693  0.00  0.00     0.008 C 
ENDBRANCH  36  45
BRANCH  22  47
ATOM     47  C20 ZIN A   1      18.138  -8.137   3.608  0.00  0.00     0.278 C 
ATOM     48  O21 ZIN A   1      18.968  -7.409   3.119  0.00  0.00    -0.264 OA
BRANCH  47  49
ATOM     49  O22 ZIN A   1      18.122  -9.443   3.294  0.00  0.00    -0.325 OA
ATOM     50  C23 ZIN A   1      17.925  -9.781   1.896  0.00  0.00     0.213 C 
ENDBRANCH  47  49
ENDBRANCH  22  47
ENDBRANCH  14  22
BRANCH  13  51
ATOM     51  O16 ZIN A   1      16.494  -5.332   3.046  0.00  0.00    -0.355 OA
ATOM     52  C17 ZIN A   1      16.102  -4.180   2.296  0.00  0.00     0.210 C 
ENDBRANCH  13  51
BRANCH  19  53
ATOM     53  O53 ZIN A   1      20.604  -2.079   9.414  0.00  0.00    -0.376 OA
ATOM     54 3H11 ZIN A   1      20.865  -1.282   9.896  0.00  0.00     0.211 HD
ENDBRANCH  19  53
BRANCH  19  55
ATOM     55  C54 ZIN A   1      19.720  -0.421   7.921  0.00  0.00     0.297 C 
ATOM     56  O55 ZIN A   1      20.652   0.269   8.258  0.00  0.00    -0.262 OA
BRANCH  55  57
ATOM     57  O56 ZIN A   1      18.766   0.082   7.122  0.00  0.00    -0.324 OA
ATOM     58  C57 ZIN A   1      18.819   1.508   6.851  0.00  0.00     0.213 C 
ENDBRANCH  55  57
ENDBRANCH  19  55
BRANCH   1  59
ATOM     59  C2  ZIN A   1      16.819  -3.943   9.858  0.00  0.00     0.014 C 
ATOM     60  C1  ZIN A   1      16.584  -4.366  11.309  0.00  0.00     0.006 C 
ENDBRANCH   1  59
BRANCH  20  61
ATOM     61  O60 ZIN A   1      17.828  -1.088   9.872  0.00  0.00    -0.311 OA
BRANCH  61  62
ATOM     62  C61 ZIN A   1      16.837  -0.274   9.478  0.00  0.00     0.255 C 
ATOM     63  C62 ZIN A   1      16.324   0.795  10.409  0.00  0.00     0.126 C 
ATOM     64  O63 ZIN A   1      16.354  -0.398   8.377  0.00  0.00    -0.266 OA
ENDBRANCH  61  62
ENDBRANCH  20  61
TORSDOF 12
ENDMDL
MODEL 2
REMARK VINA RESULT:      -0.2      2.595      5.194
REMARK  12 active torsions:
REMARK  status: ('A' for Active; 'I' for Inactive)
REMARK    1  A    between atoms: C2_2  and  C3_3 
REMARK    2  A    between atoms: C15_15  and  O16_16 
REMARK    3  A    between atoms: C18_18  and  C19_19 
REMARK    4  A    between atoms: C19_19  and  C20_20 
REMARK    5  A    between atoms: C20_20  and  O22_22 
REMARK    6  A    between atoms: C31_30  and  O32_31 
REMARK    7  A    between atoms: C31_30  and  C33_32 
REMARK    8  A    between atoms: C52_50  and  O53_51 
REMARK    9  A    between atoms: C52_50  and  C54_52 
REMARK   10  A    between atoms: C54_52  and  O56_54 
REMARK   11  A    between atoms: C58_56  and  O60_57 
REMARK   12  A    between atoms: O60_57  and  C61_58 
ROOT
ATOM      1  C3  ZIN A   1      19.817   0.609   9.078  0.00  0.00     0.037 C 
ATOM      2  C4  ZIN A   1      20.077   1.950   8.464  0.00  0.00    -0.015 C 
ATOM      3  C5  ZIN A   1      19.493   2.343   7.372  0.00  0.00    -0.003 C 
ATOM      4  C6  ZIN A   1      18.497   1.478   6.660  0.00  0.00     0.262 C 
ATOM      5  N7  ZIN A   1      18.808   0.057   6.846  0.00  0.00    -0.061 N 
ATOM      6  H8  ZIN A   1      19.632  -0.193   6.321  0.00  0.00     0.280 HD
ATOM      7  C9  ZIN A   1      17.631  -0.722   6.368  0.00  0.00     0.237 C 
ATOM      8  C10 ZIN A   1      16.691  -0.778   7.596  0.00  0.00     0.046 C 
ATOM      9  C11 ZIN A   1      17.684  -0.860   8.789  0.00  0.00     0.040 C 
ATOM     10  C12 ZIN A   1      17.817  -2.304   9.187  0.00  0.00    -0.024 A 
ATOM     11  C13 ZIN A   1      17.525  -2.408  10.551  0.00  0.00     0.020 A 
ATOM     12  C14 ZIN A   1      17.554  -3.652  11.186  0.00  0.00     0.061 A 
ATOM     13  C15 ZIN A   1      17.891  -4.755  10.410  0.00  0.00     0.077 A 
ATOM     14  C18 ZIN A   1      18.188  -4.635   9.062  0.00  0.00     0.000 A 
ATOM     15  C47 ZIN A   1      18.157  -3.403   8.422  0.00  0.00     0.021 A 
ATOM     16  N48 ZIN A   1      17.258  -1.166  11.104  0.00  0.00    -0.278 NA
ATOM     17  C49 ZIN A   1      16.083  -1.223  11.984  0.00  0.00     0.117 C 
ATOM     18  C50 ZIN A   1      17.055  -0.188  10.004  0.00  0.00     0.125 C 
ATOM     19  C52 ZIN A   1      17.768   1.101  10.401  0.00  0.00     0.190 C 
ATOM     20  C58 ZIN A   1      19.277   0.799  10.496  0.00  0.00     0.192 C 
ATOM     21  C64 ZIN A   1      18.956  -0.274   8.254  0.00  0.00     0.218 C 
ENDROOT
BRANCH  14  22
ATOM     22  C19 ZIN A   1      18.555  -5.868   8.275  0.00  0.00     0.121 C 
ATOM     23  C39 ZIN A   1      17.967  -5.840   6.878  0.00  0.00     0.040 A 
ATOM     24  C38 ZIN A   1      16.804  -5.365   6.392  0.00  0.00    -0.020 A 
ATOM     25  N40 ZIN A   1      18.686  -6.396   5.825  0.00  0.00    -0.357 N 
ATOM     26  C37 ZIN A   1      15.611  -4.723   7.078  0.00  0.00     0.069 C 
ATOM     27  C46 ZIN A   1      16.833  -5.546   4.940  0.00  0.00    -0.001 A 
ATOM     28  C36 ZIN A   1      14.402  -5.730   7.023  0.00  0.00     0.239 C 
ATOM     29  N28 ZIN A   1      15.054  -7.031   7.196  0.00  0.00    -0.068 N 
ATOM     30  C27 ZIN A   1      15.750  -6.885   8.518  0.00  0.00     0.239 C 
ATOM     31  H29 ZIN A   1      15.723  -7.180   6.449  0.00  0.00     0.280 HD
ATOM     32  C30 ZIN A   1      14.303  -8.260   7.374  0.00  0.00     0.272 C 
ATOM     33  C25 ZIN A   1      17.002  -7.739   8.135  0.00  0.00     0.016 C 
ATOM     34  C24 ZIN A   1      18.102  -7.169   9.024  0.00  0.00     0.037 C 
ATOM     35  C35 ZIN A   1      16.503  -9.154   8.407  0.00  0.00     0.045 C 
ATOM     36  C31 ZIN A   1      15.286  -9.437   7.511  0.00  0.00     0.082 C 
ATOM     37  C41 ZIN A   1      18.049  -6.197   4.643  0.00  0.00     0.043 A 
ATOM     38  C45 ZIN A   1      15.922  -5.199   3.939  0.00  0.00     0.014 A 
ATOM     39  C42 ZIN A   1      18.386  -6.502   3.325  0.00  0.00     0.030 A 
ATOM     40  C43 ZIN A   1      17.471  -6.145   2.349  0.00  0.00     0.002 A 
ATOM     41  C44 ZIN A   1      16.275  -5.515   2.650  0.00  0.00     0.001 A 
ATOM     42 4H10 ZIN A   1      19.517  -6.888   5.908  0.00  0.00     0.166 HD
BRANCH  36  43
ATOM     43  O32 ZIN A   1      15.752  -9.792   6.205  0.00  0.00    -0.388 OA
ATOM     44  H92 ZIN A   1      15.685  -9.078   5.556  0.00  0.00     0.210 HD
ENDBRANCH  36  43
BRANCH  36  45
ATOM     45  C33 ZIN A   1      14.524 -10.635   8.089  0.00  0.00     0.035 C 
ATOM     46  C34 ZIN A   1      13.048 -10.536   7.701  0.00  0.00     0.008 C 
ENDBRANCH  36  45
BRANCH  22  47
ATOM     47  C20 ZIN A   1      20.074  -5.890   8.172  0.00  0.00     0.278 C 
ATOM     48  O21 ZIN A   1      20.724  -6.538   8.958  0.00  0.00    -0.264 OA
BRANCH  47  49
ATOM     49  O22 ZIN A   1      20.692  -5.188   7.207  0.00  0.00    -0.325 OA
ATOM     50  C23 ZIN A   1      22.143  -5.225   7.193  0.00  0.00     0.213 C 
ENDBRANCH  47  49
ENDBRANCH  22  47
ENDBRANCH  14  22
BRANCH  13  51
ATOM     51  O16 ZIN A   1      17.930  -5.984  10.989  0.00  0.00    -0.355 OA
ATOM     52  C17 ZIN A   1      17.375  -6.101  12.301  0.00  0.00     0.210 C 
ENDBRANCH  13  51
BRANCH  19  53
ATOM     53  O53 ZIN A   1      17.543   2.101   9.404  0.00  0.00    -0.376 OA
ATOM     54 3H11 ZIN A   1      16.838   1.882   8.780  0.00  0.00     0.211 HD
ENDBRANCH  19  53
BRANCH  19  55
ATOM     55  C54 ZIN A   1      17.242   1.583  11.729  0.00  0.00     0.297 C 
ATOM     56  O55 ZIN A   1      16.932   2.742  11.871  0.00  0.00    -0.262 OA
BRANCH  55  57
ATOM     57  O56 ZIN A   1      17.118   0.725  12.752  0.00  0.00    -0.324 OA
ATOM     58  C57 ZIN A   1      17.290   1.264  14.089  0.00  0.00     0.213 C 
ENDBRANCH  55  57
ENDBRANCH  19  55
BRANCH   1  59
ATOM     59  C2  ZIN A   1      21.172  -0.088   9.211  0.00  0.00     0.014 C 
ATOM     60  C1  ZIN A   1      21.085  -1.173  10.285  0.00  0.00     0.006 C 
ENDBRANCH   1  59
BRANCH  20  61
ATOM     61  O60 ZIN A   1      19.959   1.905  11.142  0.00  0.00    -0.311 OA
BRANCH  61  62
ATOM     62  C61 ZIN A   1      20.224   1.778  12.452  0.00  0.00     0.255 C 
ATOM     63  C62 ZIN A   1      20.648   0.444  13.010  0.00  0.00     0.126 C 
ATOM     64  O63 ZIN A   1      20.121   2.734  13.184  0.00  0.00    -0.266 OA
ENDBRANCH  61  62
ENDBRANCH  20  61
TORSDOF 12
ENDMDL
