MODEL 1
REMARK VINA RESULT:      -7.0      0.000      0.000
REMARK  3 active torsions:
REMARK  status: ('A' for Active; 'I' for Inactive)
REMARK    1  A    between atoms: O1_1  and  C2_2 
REMARK    2  A    between atoms: C8_8  and  O9_9 
REMARK    3  A    between atoms: O9_9  and  C10_10 
ROOT
ATOM      1  C2  <0> d   1      19.795  -3.410  11.360  0.00  0.00     0.101 A 
ATOM      2  C3  <0> d   1      19.360  -4.627  10.860  0.00  0.00     0.063 A 
ATOM      3  C4  <0> d   1      18.005  -4.879  10.734  0.00  0.00     0.036 A 
ATOM      4 Cl5  <0> d   1      17.461  -6.404  10.108  0.00  0.00    -0.084 Cl
ATOM      5  C6  <0> d   1      17.083  -3.917  11.108  0.00  0.00     0.027 A 
ATOM      6  C7  <0> d   1      17.512  -2.701  11.607  0.00  0.00     0.042 A 
ATOM      7  C8  <0> d   1      18.866  -2.445  11.739  0.00  0.00     0.109 A 
ENDROOT
BRANCH   7   8
ATOM      8  O9  <0> d   1      19.290  -1.249  12.230  0.00  0.00    -0.306 OA
BRANCH   8   9
ATOM      9  C10 <0> d   1      18.862  -0.879  13.466  0.00  0.00     0.098 A 
ATOM     10  C16 <0> d   1      17.928   0.140  13.601  0.00  0.00     0.069 A 
ATOM     11  C15 <0> d   1      17.489   0.511  14.859  0.00  0.00     0.050 A 
ATOM     12 Cl17 <0> d   1      17.303   0.938  12.193  0.00  0.00    -0.081 Cl
ATOM     13  C13 <0> d   1      17.988  -0.126  15.982  0.00  0.00     0.035 A 
ATOM     14  C12 <0> d   1      18.922  -1.137  15.849  0.00  0.00     0.026 A 
ATOM     15 Cl14 <0> d   1      17.441   0.346  17.560  0.00  0.00    -0.084 Cl
ATOM     16  C11 <0> d   1      19.360  -1.515  14.593  0.00  0.00     0.041 A 
ENDBRANCH   8   9
ENDBRANCH   7   8
BRANCH   1  17
ATOM     17  O1  <0> d   1      21.126  -3.162  11.484  0.00  0.00    -0.358 OA
ATOM     18  H18 <0> d   1      21.332  -2.273  11.801  0.00  0.00     0.217 HD
ENDBRANCH   1  17
TORSDOF 3
ENDMDL
MODEL 2
REMARK VINA RESULT:      -6.9      3.264      3.476
REMARK  3 active torsions:
REMARK  status: ('A' for Active; 'I' for Inactive)
REMARK    1  A    between atoms: O1_1  and  C2_2 
REMARK    2  A    between atoms: C8_8  and  O9_9 
REMARK    3  A    between atoms: O9_9  and  C10_10 
ROOT
ATOM      1  C2  <0> d   1      20.355  -0.089  10.327  0.00  0.00     0.101 A 
ATOM      2  C3  <0> d   1      19.875  -0.334   9.051  0.00  0.00     0.063 A 
ATOM      3  C4  <0> d   1      18.686   0.242   8.636  0.00  0.00     0.036 A 
ATOM      4 Cl5  <0> d   1      18.086  -0.066   7.036  0.00  0.00    -0.084 Cl
ATOM      5  C6  <0> d   1      17.976   1.062   9.494  0.00  0.00     0.027 A 
ATOM      6  C7  <0> d   1      18.450   1.310  10.769  0.00  0.00     0.042 A 
ATOM      7  C8  <0> d   1      19.636   0.733  11.191  0.00  0.00     0.109 A 
ENDROOT
BRANCH   7   8
ATOM      8  O9  <0> d   1      20.104   0.976  12.445  0.00  0.00    -0.306 OA
BRANCH   8   9
ATOM      9  C10 <0> d   1      19.401   0.479  13.497  0.00  0.00     0.098 A 
ATOM     10  C16 <0> d   1      18.690   1.336  14.325  0.00  0.00     0.069 A 
ATOM     11  C15 <0> d   1      17.971   0.827  15.391  0.00  0.00     0.050 A 
ATOM     12 Cl17 <0> d   1      18.694   3.044  14.017  0.00  0.00    -0.081 Cl
ATOM     13  C13 <0> d   1      17.968  -0.535  15.636  0.00  0.00     0.035 A 
ATOM     14  C12 <0> d   1      18.680  -1.390  14.815  0.00  0.00     0.026 A 
ATOM     15 Cl14 <0> d   1      17.069  -1.171  16.978  0.00  0.00    -0.084 Cl
ATOM     16  C11 <0> d   1      19.396  -0.885  13.746  0.00  0.00     0.041 A 
ENDBRANCH   8   9
ENDBRANCH   7   8
BRANCH   1  17
ATOM     17  O1  <0> d   1      21.521  -0.653  10.736  0.00  0.00    -0.358 OA
ATOM     18  H18 <0> d   1      21.930  -1.233  10.078  0.00  0.00     0.217 HD
ENDBRANCH   1  17
TORSDOF 3
ENDMDL
MODEL 3
REMARK VINA RESULT:      -6.4      3.020      6.057
REMARK  3 active torsions:
REMARK  status: ('A' for Active; 'I' for Inactive)
REMARK    1  A    between atoms: O1_1  and  C2_2 
REMARK    2  A    between atoms: C8_8  and  O9_9 
REMARK    3  A    between atoms: O9_9  and  C10_10 
ROOT
ATOM      1  C2  <0> d   1      19.228   1.869   9.840  0.00  0.00     0.101 A 
ATOM      2  C3  <0> d   1      18.549   3.069   9.708  0.00  0.00     0.063 A 
ATOM      3  C4  <0> d   1      17.744   3.525  10.737  0.00  0.00     0.036 A 
ATOM      4 Cl5  <0> d   1      16.893   5.029  10.571  0.00  0.00    -0.084 Cl
ATOM      5  C6  <0> d   1      17.615   2.783  11.898  0.00  0.00     0.027 A 
ATOM      6  C7  <0> d   1      18.290   1.585  12.034  0.00  0.00     0.042 A 
ATOM      7  C8  <0> d   1      19.094   1.121  11.006  0.00  0.00     0.109 A 
ENDROOT
BRANCH   7   8
ATOM      8  O9  <0> d   1      19.759  -0.058  11.139  0.00  0.00    -0.306 OA
BRANCH   8   9
ATOM      9  C10 <0> d   1      19.037  -1.208  11.089  0.00  0.00     0.098 A 
ATOM     10  C16 <0> d   1      18.828  -1.949  12.244  0.00  0.00     0.069 A 
ATOM     11  C15 <0> d   1      18.087  -3.115  12.192  0.00  0.00     0.050 A 
ATOM     12 Cl17 <0> d   1      19.486  -1.405  13.756  0.00  0.00    -0.081 Cl
ATOM     13  C13 <0> d   1      17.562  -3.548  10.986  0.00  0.00     0.035 A 
ATOM     14  C12 <0> d   1      17.774  -2.814   9.834  0.00  0.00     0.026 A 
ATOM     15 Cl14 <0> d   1      16.638  -5.016  10.922  0.00  0.00    -0.084 Cl
ATOM     16  C11 <0> d   1      18.509  -1.645   9.883  0.00  0.00     0.041 A 
ENDBRANCH   8   9
ENDBRANCH   7   8
BRANCH   1  17
ATOM     17  O1  <0> d   1      20.019   1.420   8.830  0.00  0.00    -0.358 OA
ATOM     18  H18 <0> d   1      19.815   0.520   8.540  0.00  0.00     0.217 HD
ENDBRANCH   1  17
TORSDOF 3
ENDMDL
MODEL 4
REMARK VINA RESULT:      -6.3      4.100      7.282
REMARK  3 active torsions:
REMARK  status: ('A' for Active; 'I' for Inactive)
REMARK    1  A    between atoms: O1_1  and  C2_2 
REMARK    2  A    between atoms: C8_8  and  O9_9 
REMARK    3  A    between atoms: O9_9  and  C10_10 
ROOT
ATOM      1  C2  <0> d   1      17.201   0.913  10.912  0.00  0.00     0.101 A 
ATOM      2  C3  <0> d   1      17.800   1.830  11.761  0.00  0.00     0.063 A 
ATOM      3  C4  <0> d   1      18.806   2.655  11.291  0.00  0.00     0.036 A 
ATOM      4 Cl5  <0> d   1      19.554   3.804  12.356  0.00  0.00    -0.084 Cl
ATOM      5  C6  <0> d   1      19.217   2.566   9.973  0.00  0.00     0.027 A 
ATOM      6  C7  <0> d   1      18.624   1.652   9.121  0.00  0.00     0.042 A 
ATOM      7  C8  <0> d   1      17.619   0.821   9.587  0.00  0.00     0.109 A 
ENDROOT
BRANCH   7   8
ATOM      8  O9  <0> d   1      17.034  -0.078   8.751  0.00  0.00    -0.306 OA
BRANCH   8   9
ATOM      9  C10 <0> d   1      17.792  -1.108   8.289  0.00  0.00     0.098 A 
ATOM     10  C16 <0> d   1      18.211  -1.125   6.966  0.00  0.00     0.069 A 
ATOM     11  C15 <0> d   1      18.987  -2.170   6.501  0.00  0.00     0.050 A 
ATOM     12 Cl17 <0> d   1      17.771   0.171   5.899  0.00  0.00    -0.081 Cl
ATOM     13  C13 <0> d   1      19.338  -3.204   7.352  0.00  0.00     0.035 A 
ATOM     14  C12 <0> d   1      18.917  -3.191   8.669  0.00  0.00     0.026 A 
ATOM     15 Cl14 <0> d   1      20.307  -4.518   6.764  0.00  0.00    -0.084 Cl
ATOM     16  C11 <0> d   1      18.146  -2.145   9.139  0.00  0.00     0.041 A 
ENDBRANCH   8   9
ENDBRANCH   7   8
BRANCH   1  17
ATOM     17  O1  <0> d   1      16.213   0.102  11.373  0.00  0.00    -0.358 OA
ATOM     18  H18 <0> d   1      15.795  -0.438  10.689  0.00  0.00     0.217 HD
ENDBRANCH   1  17
TORSDOF 3
ENDMDL
MODEL 5
REMARK VINA RESULT:      -6.3      2.247      6.427
REMARK  3 active torsions:
REMARK  status: ('A' for Active; 'I' for Inactive)
REMARK    1  A    between atoms: O1_1  and  C2_2 
REMARK    2  A    between atoms: C8_8  and  O9_9 
REMARK    3  A    between atoms: O9_9  and  C10_10 
ROOT
ATOM      1  C2  <0> d   1      17.103  -0.359  12.262  0.00  0.00     0.101 A 
ATOM      2  C3  <0> d   1      17.692   0.589  13.084  0.00  0.00     0.063 A 
ATOM      3  C4  <0> d   1      18.754   0.235  13.897  0.00  0.00     0.036 A 
ATOM      4 Cl5  <0> d   1      19.492   1.423  14.925  0.00  0.00    -0.084 Cl
ATOM      5  C6  <0> d   1      19.229  -1.065  13.892  0.00  0.00     0.027 A 
ATOM      6  C7  <0> d   1      18.645  -2.014  13.074  0.00  0.00     0.042 A 
ATOM      7  C8  <0> d   1      17.578  -1.667  12.262  0.00  0.00     0.109 A 
ENDROOT
BRANCH   7   8
ATOM      8  O9  <0> d   1      17.002  -2.600  11.456  0.00  0.00    -0.306 OA
BRANCH   8   9
ATOM      9  C10 <0> d   1      17.765  -3.161  10.482  0.00  0.00     0.098 A 
ATOM     10  C16 <0> d   1      18.130  -4.498  10.568  0.00  0.00     0.069 A 
ATOM     11  C15 <0> d   1      18.902  -5.068   9.572  0.00  0.00     0.050 A 
ATOM     12 Cl17 <0> d   1      17.609  -5.456  11.918  0.00  0.00    -0.081 Cl
ATOM     13  C13 <0> d   1      19.318  -4.304   8.496  0.00  0.00     0.035 A 
ATOM     14  C12 <0> d   1      18.959  -2.971   8.411  0.00  0.00     0.026 A 
ATOM     15 Cl14 <0> d   1      20.291  -5.021   7.250  0.00  0.00    -0.084 Cl
ATOM     16  C11 <0> d   1      18.184  -2.399   9.402  0.00  0.00     0.041 A 
ENDBRANCH   8   9
ENDBRANCH   7   8
BRANCH   1  17
ATOM     17  O1  <0> d   1      16.059  -0.012  11.463  0.00  0.00    -0.358 OA
ATOM     18  H18 <0> d   1      15.301   0.350  11.941  0.00  0.00     0.217 HD
ENDBRANCH   1  17
TORSDOF 3
ENDMDL
MODEL 6
REMARK VINA RESULT:      -6.3      3.290      6.109
REMARK  3 active torsions:
REMARK  status: ('A' for Active; 'I' for Inactive)
REMARK    1  A    between atoms: O1_1  and  C2_2 
REMARK    2  A    between atoms: C8_8  and  O9_9 
REMARK    3  A    between atoms: O9_9  and  C10_10 
ROOT
ATOM      1  C2  <0> d   1      20.050   1.613  11.507  0.00  0.00     0.101 A 
ATOM      2  C3  <0> d   1      19.548   2.863  11.830  0.00  0.00     0.063 A 
ATOM      3  C4  <0> d   1      18.454   3.367  11.149  0.00  0.00     0.036 A 
ATOM      4 Cl5  <0> d   1      17.826   4.934  11.555  0.00  0.00    -0.084 Cl
ATOM      5  C6  <0> d   1      17.860   2.625  10.144  0.00  0.00     0.027 A 
ATOM      6  C7  <0> d   1      18.357   1.377   9.817  0.00  0.00     0.042 A 
ATOM      7  C8  <0> d   1      19.454   0.869  10.492  0.00  0.00     0.109 A 
ENDROOT
BRANCH   7   8
ATOM      8  O9  <0> d   1      19.944  -0.359  10.172  0.00  0.00    -0.306 OA
BRANCH   8   9
ATOM      9  C10 <0> d   1      19.141  -1.438  10.366  0.00  0.00     0.098 A 
ATOM     10  C16 <0> d   1      18.710  -2.189   9.282  0.00  0.00     0.069 A 
ATOM     11  C15 <0> d   1      17.898  -3.290   9.483  0.00  0.00     0.050 A 
ATOM     12 Cl17 <0> d   1      19.202  -1.755   7.675  0.00  0.00    -0.081 Cl
ATOM     13  C13 <0> d   1      17.506  -3.636  10.765  0.00  0.00     0.035 A 
ATOM     14  C12 <0> d   1      17.929  -2.885  11.846  0.00  0.00     0.026 A 
ATOM     15 Cl14 <0> d   1      16.481  -5.014  11.014  0.00  0.00    -0.084 Cl
ATOM     16  C11 <0> d   1      18.745  -1.787  11.649  0.00  0.00     0.041 A 
ENDBRANCH   8   9
ENDBRANCH   7   8
BRANCH   1  17
ATOM     17  O1  <0> d   1      21.124   1.117  12.175  0.00  0.00    -0.358 OA
ATOM     18  H18 <0> d   1      21.466   0.289  11.812  0.00  0.00     0.217 HD
ENDBRANCH   1  17
TORSDOF 3
ENDMDL
MODEL 7
REMARK VINA RESULT:      -6.2      3.706      6.323
REMARK  3 active torsions:
REMARK  status: ('A' for Active; 'I' for Inactive)
REMARK    1  A    between atoms: O1_1  and  C2_2 
REMARK    2  A    between atoms: C8_8  and  O9_9 
REMARK    3  A    between atoms: O9_9  and  C10_10 
ROOT
ATOM      1  C2  <0> d   1      20.118   0.510  12.207  0.00  0.00     0.101 A 
ATOM      2  C3  <0> d   1      19.430   0.605  13.407  0.00  0.00     0.063 A 
ATOM      3  C4  <0> d   1      18.321  -0.191  13.633  0.00  0.00     0.036 A 
ATOM      4 Cl5  <0> d   1      17.461  -0.070  15.137  0.00  0.00    -0.084 Cl
ATOM      5  C6  <0> d   1      17.896  -1.081  12.664  0.00  0.00     0.027 A 
ATOM      6  C7  <0> d   1      18.578  -1.180  11.465  0.00  0.00     0.042 A 
ATOM      7  C8  <0> d   1      19.686  -0.383  11.231  0.00  0.00     0.109 A 
ENDROOT
BRANCH   7   8
ATOM      8  O9  <0> d   1      20.358  -0.479  10.052  0.00  0.00    -0.306 OA
BRANCH   8   9
ATOM      9  C10 <0> d   1      19.631  -0.567   8.907  0.00  0.00     0.098 A 
ATOM     10  C16 <0> d   1      19.096   0.579   8.334  0.00  0.00     0.069 A 
ATOM     11  C15 <0> d   1      18.362   0.488   7.166  0.00  0.00     0.050 A 
ATOM     12 Cl17 <0> d   1      19.360   2.126   9.076  0.00  0.00    -0.081 Cl
ATOM     13  C13 <0> d   1      18.152  -0.746   6.575  0.00  0.00     0.035 A 
ATOM     14  C12 <0> d   1      18.679  -1.888   7.147  0.00  0.00     0.026 A 
ATOM     15 Cl14 <0> d   1      17.224  -0.858   5.112  0.00  0.00    -0.084 Cl
ATOM     16  C11 <0> d   1      19.418  -1.801   8.312  0.00  0.00     0.041 A 
ENDBRANCH   8   9
ENDBRANCH   7   8
BRANCH   1  17
ATOM     17  O1  <0> d   1      21.207   1.291  11.984  0.00  0.00    -0.358 OA
ATOM     18  H18 <0> d   1      21.309   2.015  12.616  0.00  0.00     0.217 HD
ENDBRANCH   1  17
TORSDOF 3
ENDMDL
MODEL 8
REMARK VINA RESULT:      -6.1      3.590      6.693
REMARK  3 active torsions:
REMARK  status: ('A' for Active; 'I' for Inactive)
REMARK    1  A    between atoms: O1_1  and  C2_2 
REMARK    2  A    between atoms: C8_8  and  O9_9 
REMARK    3  A    between atoms: O9_9  and  C10_10 
ROOT
ATOM      1  C2  <0> d   1      17.082  -0.233  12.002  0.00  0.00     0.101 A 
ATOM      2  C3  <0> d   1      17.552   0.388  13.148  0.00  0.00     0.063 A 
ATOM      3  C4  <0> d   1      18.780   0.030  13.676  0.00  0.00     0.036 A 
ATOM      4 Cl5  <0> d   1      19.367   0.809  15.112  0.00  0.00    -0.084 Cl
ATOM      5  C6  <0> d   1      19.540  -0.949  13.062  0.00  0.00     0.027 A 
ATOM      6  C7  <0> d   1      19.076  -1.573  11.918  0.00  0.00     0.042 A 
ATOM      7  C8  <0> d   1      17.846  -1.221  11.388  0.00  0.00     0.109 A 
ENDROOT
BRANCH   7   8
ATOM      8  O9  <0> d   1      17.388  -1.833  10.262  0.00  0.00    -0.306 OA
BRANCH   8   9
ATOM      9  C10 <0> d   1      17.907  -1.444   9.068  0.00  0.00     0.098 A 
ATOM     10  C16 <0> d   1      18.732  -2.302   8.355  0.00  0.00     0.069 A 
ATOM     11  C15 <0> d   1      19.253  -1.906   7.137  0.00  0.00     0.050 A 
ATOM     12 Cl17 <0> d   1      19.100  -3.877   8.985  0.00  0.00    -0.081 Cl
ATOM     13  C13 <0> d   1      18.959  -0.650   6.634  0.00  0.00     0.035 A 
ATOM     14  C12 <0> d   1      18.142   0.208   7.346  0.00  0.00     0.026 A 
ATOM     15 Cl14 <0> d   1      19.620  -0.153   5.108  0.00  0.00    -0.084 Cl
ATOM     16  C11 <0> d   1      17.615  -0.186   8.561  0.00  0.00     0.041 A 
ENDBRANCH   8   9
ENDBRANCH   7   8
BRANCH   1  17
ATOM     17  O1  <0> d   1      15.877   0.119  11.483  0.00  0.00    -0.358 OA
ATOM     18  H18 <0> d   1      15.875   0.213  10.520  0.00  0.00     0.217 HD
ENDBRANCH   1  17
TORSDOF 3
ENDMDL
MODEL 9
REMARK VINA RESULT:      -6.0      3.249      3.805
REMARK  3 active torsions:
REMARK  status: ('A' for Active; 'I' for Inactive)
REMARK    1  A    between atoms: O1_1  and  C2_2 
REMARK    2  A    between atoms: C8_8  and  O9_9 
REMARK    3  A    between atoms: O9_9  and  C10_10 
ROOT
ATOM      1  C2  <0> d   1      19.921   0.294  12.149  0.00  0.00     0.101 A 
ATOM      2  C3  <0> d   1      19.384   0.481  10.886  0.00  0.00     0.063 A 
ATOM      3  C4  <0> d   1      18.060   0.161  10.642  0.00  0.00     0.036 A 
ATOM      4 Cl5  <0> d   1      17.388   0.396   9.059  0.00  0.00    -0.084 Cl
ATOM      5  C6  <0> d   1      17.271  -0.347  11.659  0.00  0.00     0.027 A 
ATOM      6  C7  <0> d   1      17.802  -0.536  12.921  0.00  0.00     0.042 A 
ATOM      7  C8  <0> d   1      19.128  -0.222  13.170  0.00  0.00     0.109 A 
ENDROOT
BRANCH   7   8
ATOM      8  O9  <0> d   1      19.652  -0.407  14.411  0.00  0.00    -0.306 OA
BRANCH   8   9
ATOM      9  C10 <0> d   1      19.135   0.320  15.437  0.00  0.00     0.098 A 
ATOM     10  C16 <0> d   1      18.403  -0.309  16.435  0.00  0.00     0.069 A 
ATOM     11  C15 <0> d   1      17.883   0.431  17.481  0.00  0.00     0.050 A 
ATOM     12 Cl17 <0> d   1      18.150  -2.025  16.376  0.00  0.00    -0.081 Cl
ATOM     13  C13 <0> d   1      18.085   1.800  17.527  0.00  0.00     0.035 A 
ATOM     14  C12 <0> d   1      18.809   2.428  16.531  0.00  0.00     0.026 A 
ATOM     15 Cl14 <0> d   1      17.426   2.728  18.838  0.00  0.00    -0.084 Cl
ATOM     16  C11 <0> d   1      19.334   1.691  15.487  0.00  0.00     0.041 A 
ENDBRANCH   8   9
ENDBRANCH   7   8
BRANCH   1  17
ATOM     17  O1  <0> d   1      21.222   0.608  12.389  0.00  0.00    -0.358 OA
ATOM     18  H18 <0> d   1      21.483   0.521  13.316  0.00  0.00     0.217 HD
ENDBRANCH   1  17
TORSDOF 3
ENDMDL
