MODEL 1
REMARK VINA RESULT:      -7.1      0.000      0.000
REMARK  6 active torsions:
REMARK  status: ('A' for Active; 'I' for Inactive)
REMARK    1  A    between atoms: N2_2  and  C5_5 
REMARK    2  A    between atoms: C5_5  and  C6_6 
REMARK    3  A    between atoms: C6_6  and  O7_7 
REMARK    4  A    between atoms: O7_7  and  C8_8 
REMARK    5  A    between atoms: C8_8  and  C10_9 
REMARK    6  A    between atoms: C8_8  and  C17_16 
ROOT
ATOM      1  C8  ZIN A   1      18.638   1.604  11.237  0.00  0.00     0.206 C 
ENDROOT
BRANCH   1   2
ATOM      2  O7  ZIN A   1      20.031   1.687  11.546  0.00  0.00    -0.373 OA
BRANCH   2   3
ATOM      3  C6  ZIN A   1      20.573   0.491  12.111  0.00  0.00     0.197 C 
BRANCH   3   4
ATOM      4  C5  ZIN A   1      20.086   0.343  13.553  0.00  0.00     0.260 C 
BRANCH   4   5
ATOM      5  N2  ZIN A   1      19.934  -1.081  13.876  0.00  0.00    -0.077 N 
ATOM      6  C1  ZIN A   1      19.112  -1.224  15.086  0.00  0.00     0.269 C 
ATOM      7  H3  ZIN A   1      20.843  -1.488  14.036  0.00  0.00     0.279 HD
ATOM      8  C4  ZIN A   1      19.280  -1.771  12.755  0.00  0.00     0.269 C 
ENDBRANCH   4   5
ENDBRANCH   3   4
ENDBRANCH   2   3
ENDBRANCH   1   2
BRANCH   1   9
ATOM      9  C10 ZIN A   1      18.467   1.201   9.795  0.00  0.00    -0.024 A 
ATOM     10  C16 ZIN A   1      17.489   0.290   9.445  0.00  0.00     0.012 A 
ATOM     11  C15 ZIN A   1      17.327  -0.077   8.121  0.00  0.00     0.024 A 
ATOM     12  C13 ZIN A   1      18.151   0.462   7.149  0.00  0.00     0.034 A 
ATOM     13  C12 ZIN A   1      19.133   1.371   7.502  0.00  0.00     0.024 A 
ATOM     14 Cl14 ZIN A   1      17.952  -0.002   5.489  0.00  0.00    -0.084 Cl
ATOM     15  C11 ZIN A   1      19.290   1.740   8.825  0.00  0.00     0.012 A 
ENDBRANCH   1   9
BRANCH   1  16
ATOM     16  C17 ZIN A   1      17.993   2.946  11.464  0.00  0.00     0.067 A 
ATOM     17  N22 ZIN A   1      17.746   3.351  12.695  0.00  0.00    -0.263 NA
ATOM     18  C21 ZIN A   1      17.187   4.519  12.943  0.00  0.00     0.117 A 
ATOM     19  C20 ZIN A   1      16.828   5.363  11.909  0.00  0.00     0.019 A 
ATOM     20  C19 ZIN A   1      17.067   4.971  10.602  0.00  0.00     0.003 A 
ATOM     21  C18 ZIN A   1      17.661   3.737  10.381  0.00  0.00     0.030 A 
ENDBRANCH   1  16
TORSDOF 6
ENDMDL
MODEL 2
REMARK VINA RESULT:      -7.0      2.852      5.693
REMARK  6 active torsions:
REMARK  status: ('A' for Active; 'I' for Inactive)
REMARK    1  A    between atoms: N2_2  and  C5_5 
REMARK    2  A    between atoms: C5_5  and  C6_6 
REMARK    3  A    between atoms: C6_6  and  O7_7 
REMARK    4  A    between atoms: O7_7  and  C8_8 
REMARK    5  A    between atoms: C8_8  and  C10_9 
REMARK    6  A    between atoms: C8_8  and  C17_16 
ROOT
ATOM      1  C8  ZIN A   1      19.533  -1.063  12.749  0.00  0.00     0.206 C 
ENDROOT
BRANCH   1   2
ATOM      2  O7  ZIN A   1      19.230   0.028  11.877  0.00  0.00    -0.373 OA
BRANCH   2   3
ATOM      3  C6  ZIN A   1      20.150   0.178  10.793  0.00  0.00     0.197 C 
BRANCH   3   4
ATOM      4  C5  ZIN A   1      19.378   0.223   9.473  0.00  0.00     0.260 C 
BRANCH   4   5
ATOM      5  N2  ZIN A   1      19.617   1.512   8.809  0.00  0.00    -0.077 N 
ATOM      6  C1  ZIN A   1      19.136   1.444   7.422  0.00  0.00     0.269 C 
ATOM      7  H3  ZIN A   1      20.605   1.714   8.814  0.00  0.00     0.279 HD
ATOM      8  C4  ZIN A   1      18.896   2.573   9.526  0.00  0.00     0.269 C 
ENDBRANCH   4   5
ENDBRANCH   3   4
ENDBRANCH   2   3
ENDBRANCH   1   2
BRANCH   1   9
ATOM      9  C10 ZIN A   1      19.026  -2.346  12.144  0.00  0.00    -0.024 A 
ATOM     10  C16 ZIN A   1      17.680  -2.494  11.867  0.00  0.00     0.012 A 
ATOM     11  C15 ZIN A   1      17.215  -3.669  11.305  0.00  0.00     0.024 A 
ATOM     12  C13 ZIN A   1      18.096  -4.700  11.030  0.00  0.00     0.034 A 
ATOM     13  C12 ZIN A   1      19.442  -4.552  11.312  0.00  0.00     0.024 A 
ATOM     14 Cl14 ZIN A   1      17.512  -6.178  10.332  0.00  0.00    -0.084 Cl
ATOM     15  C11 ZIN A   1      19.906  -3.375  11.868  0.00  0.00     0.012 A 
ENDBRANCH   1   9
BRANCH   1  16
ATOM     16  C17 ZIN A   1      18.869  -0.839  14.082  0.00  0.00     0.067 A 
ATOM     17  N22 ZIN A   1      17.984   0.130  14.215  0.00  0.00    -0.263 NA
ATOM     18  C21 ZIN A   1      17.374   0.361  15.361  0.00  0.00     0.117 A 
ATOM     19  C20 ZIN A   1      17.653  -0.407  16.477  0.00  0.00     0.019 A 
ATOM     20  C19 ZIN A   1      18.581  -1.431  16.377  0.00  0.00     0.003 A 
ATOM     21  C18 ZIN A   1      19.198  -1.647  15.154  0.00  0.00     0.030 A 
ENDBRANCH   1  16
TORSDOF 6
ENDMDL
MODEL 3
REMARK VINA RESULT:      -7.0      1.873      2.688
REMARK  6 active torsions:
REMARK  status: ('A' for Active; 'I' for Inactive)
REMARK    1  A    between atoms: N2_2  and  C5_5 
REMARK    2  A    between atoms: C5_5  and  C6_6 
REMARK    3  A    between atoms: C6_6  and  O7_7 
REMARK    4  A    between atoms: O7_7  and  C8_8 
REMARK    5  A    between atoms: C8_8  and  C10_9 
REMARK    6  A    between atoms: C8_8  and  C17_16 
ROOT
ATOM      1  C8  ZIN A   1      17.581   0.756  10.438  0.00  0.00     0.206 C 
ENDROOT
BRANCH   1   2
ATOM      2  O7  ZIN A   1      18.285  -0.251  11.169  0.00  0.00    -0.373 OA
BRANCH   2   3
ATOM      3  C6  ZIN A   1      17.435  -1.158  11.875  0.00  0.00     0.197 C 
BRANCH   3   4
ATOM      4  C5  ZIN A   1      17.617  -2.569  11.313  0.00  0.00     0.260 C 
BRANCH   4   5
ATOM      5  N2  ZIN A   1      18.947  -2.685  10.700  0.00  0.00    -0.077 N 
ATOM      6  C1  ZIN A   1      19.821  -3.479  11.573  0.00  0.00     0.269 C 
ATOM      7  H3  ZIN A   1      19.341  -1.764  10.575  0.00  0.00     0.279 HD
ATOM      8  C4  ZIN A   1      18.829  -3.346   9.393  0.00  0.00     0.269 C 
ENDBRANCH   4   5
ENDBRANCH   3   4
ENDBRANCH   2   3
ENDBRANCH   1   2
BRANCH   1   9
ATOM      9  C10 ZIN A   1      17.916   0.639   8.974  0.00  0.00    -0.024 A 
ATOM     10  C16 ZIN A   1      18.891   1.447   8.422  0.00  0.00     0.012 A 
ATOM     11  C15 ZIN A   1      19.204   1.337   7.080  0.00  0.00     0.024 A 
ATOM     12  C13 ZIN A   1      18.532   0.424   6.287  0.00  0.00     0.034 A 
ATOM     13  C12 ZIN A   1      17.552  -0.381   6.839  0.00  0.00     0.024 A 
ATOM     14 Cl14 ZIN A   1      18.918   0.289   4.600  0.00  0.00    -0.084 Cl
ATOM     15  C11 ZIN A   1      17.244  -0.273   8.182  0.00  0.00     0.012 A 
ENDBRANCH   1   9
BRANCH   1  16
ATOM     16  C17 ZIN A   1      17.985   2.117  10.940  0.00  0.00     0.067 A 
ATOM     17  N22 ZIN A   1      17.136   3.122  10.853  0.00  0.00    -0.263 NA
ATOM     18  C21 ZIN A   1      17.444   4.330  11.283  0.00  0.00     0.117 A 
ATOM     19  C20 ZIN A   1      18.685   4.588  11.837  0.00  0.00     0.019 A 
ATOM     20  C19 ZIN A   1      19.605   3.557  11.940  0.00  0.00     0.003 A 
ATOM     21  C18 ZIN A   1      19.243   2.299  11.482  0.00  0.00     0.030 A 
ENDBRANCH   1  16
TORSDOF 6
ENDMDL
MODEL 4
REMARK VINA RESULT:      -6.9      1.429      4.177
REMARK  6 active torsions:
REMARK  status: ('A' for Active; 'I' for Inactive)
REMARK    1  A    between atoms: N2_2  and  C5_5 
REMARK    2  A    between atoms: C5_5  and  C6_6 
REMARK    3  A    between atoms: C6_6  and  O7_7 
REMARK    4  A    between atoms: O7_7  and  C8_8 
REMARK    5  A    between atoms: C8_8  and  C10_9 
REMARK    6  A    between atoms: C8_8  and  C17_16 
ROOT
ATOM      1  C8  ZIN A   1      18.410   1.722  10.472  0.00  0.00     0.206 C 
ENDROOT
BRANCH   1   2
ATOM      2  O7  ZIN A   1      17.241   2.486  10.777  0.00  0.00    -0.373 OA
BRANCH   2   3
ATOM      3  C6  ZIN A   1      17.437   3.901  10.711  0.00  0.00     0.197 C 
BRANCH   3   4
ATOM      4  C5  ZIN A   1      17.210   4.512  12.095  0.00  0.00     0.260 C 
BRANCH   4   5
ATOM      5  N2  ZIN A   1      18.231   4.013  13.025  0.00  0.00    -0.077 N 
ATOM      6  C1  ZIN A   1      19.487   4.743  12.811  0.00  0.00     0.269 C 
ATOM      7  H3  ZIN A   1      18.381   3.029  12.862  0.00  0.00     0.279 HD
ATOM      8  C4  ZIN A   1      17.776   4.216  14.407  0.00  0.00     0.269 C 
ENDBRANCH   4   5
ENDBRANCH   3   4
ENDBRANCH   2   3
ENDBRANCH   1   2
BRANCH   1   9
ATOM      9  C10 ZIN A   1      18.319   1.210   9.058  0.00  0.00    -0.024 A 
ATOM     10  C16 ZIN A   1      17.399   0.230   8.736  0.00  0.00     0.012 A 
ATOM     11  C15 ZIN A   1      17.310  -0.236   7.437  0.00  0.00     0.024 A 
ATOM     12  C13 ZIN A   1      18.151   0.271   6.462  0.00  0.00     0.034 A 
ATOM     13  C12 ZIN A   1      19.076   1.247   6.787  0.00  0.00     0.024 A 
ATOM     14 Cl14 ZIN A   1      18.046  -0.320   4.834  0.00  0.00    -0.084 Cl
ATOM     15  C11 ZIN A   1      19.159   1.716   8.084  0.00  0.00     0.012 A 
ENDBRANCH   1   9
BRANCH   1  16
ATOM     16  C17 ZIN A   1      18.512   0.559  11.423  0.00  0.00     0.067 A 
ATOM     17  N22 ZIN A   1      19.481  -0.323  11.272  0.00  0.00    -0.263 NA
ATOM     18  C21 ZIN A   1      19.613  -1.355  12.082  0.00  0.00     0.117 A 
ATOM     19  C20 ZIN A   1      18.725  -1.553  13.123  0.00  0.00     0.019 A 
ATOM     20  C19 ZIN A   1      17.691  -0.649  13.311  0.00  0.00     0.003 A 
ATOM     21  C18 ZIN A   1      17.587   0.425  12.442  0.00  0.00     0.030 A 
ENDBRANCH   1  16
TORSDOF 6
ENDMDL
MODEL 5
REMARK VINA RESULT:      -6.8      3.657      7.020
REMARK  6 active torsions:
REMARK  status: ('A' for Active; 'I' for Inactive)
REMARK    1  A    between atoms: N2_2  and  C5_5 
REMARK    2  A    between atoms: C5_5  and  C6_6 
REMARK    3  A    between atoms: C6_6  and  O7_7 
REMARK    4  A    between atoms: O7_7  and  C8_8 
REMARK    5  A    between atoms: C8_8  and  C10_9 
REMARK    6  A    between atoms: C8_8  and  C17_16 
ROOT
ATOM      1  C8  ZIN A   1      18.793  -1.091  12.044  0.00  0.00     0.206 C 
ENDROOT
BRANCH   1   2
ATOM      2  O7  ZIN A   1      20.156  -0.804  11.724  0.00  0.00    -0.373 OA
BRANCH   2   3
ATOM      3  C6  ZIN A   1      20.424   0.583  11.509  0.00  0.00     0.197 C 
BRANCH   3   4
ATOM      4  C5  ZIN A   1      19.424   1.145  10.497  0.00  0.00     0.260 C 
BRANCH   4   5
ATOM      5  N2  ZIN A   1      19.616   2.595  10.372  0.00  0.00    -0.077 N 
ATOM      6  C1  ZIN A   1      18.377   3.212   9.880  0.00  0.00     0.269 C 
ATOM      7  H3  ZIN A   1      20.365   2.780   9.721  0.00  0.00     0.279 HD
ATOM      8  C4  ZIN A   1      19.958   3.160  11.684  0.00  0.00     0.269 C 
ENDBRANCH   4   5
ENDBRANCH   3   4
ENDBRANCH   2   3
ENDBRANCH   1   2
BRANCH   1   9
ATOM      9  C10 ZIN A   1      18.554  -0.821  13.507  0.00  0.00    -0.024 A 
ATOM     10  C16 ZIN A   1      19.242  -1.541  14.464  0.00  0.00     0.012 A 
ATOM     11  C15 ZIN A   1      19.028  -1.289  15.807  0.00  0.00     0.024 A 
ATOM     12  C13 ZIN A   1      18.116  -0.322  16.191  0.00  0.00     0.034 A 
ATOM     13  C12 ZIN A   1      17.423   0.395  15.232  0.00  0.00     0.024 A 
ATOM     14 Cl14 ZIN A   1      17.841  -0.011  17.877  0.00  0.00    -0.084 Cl
ATOM     15  C11 ZIN A   1      17.643   0.145  13.891  0.00  0.00     0.012 A 
ENDBRANCH   1   9
BRANCH   1  16
ATOM     16  C17 ZIN A   1      18.500  -2.538  11.745  0.00  0.00     0.067 A 
ATOM     17  N22 ZIN A   1      17.249  -2.943  11.646  0.00  0.00    -0.263 NA
ATOM     18  C21 ZIN A   1      16.944  -4.198  11.382  0.00  0.00     0.117 A 
ATOM     19  C20 ZIN A   1      17.937  -5.144  11.208  0.00  0.00     0.019 A 
ATOM     20  C19 ZIN A   1      19.264  -4.757  11.310  0.00  0.00     0.003 A 
ATOM     21  C18 ZIN A   1      19.545  -3.428  11.584  0.00  0.00     0.030 A 
ENDBRANCH   1  16
TORSDOF 6
ENDMDL
MODEL 6
REMARK VINA RESULT:      -6.8      1.353      2.084
REMARK  6 active torsions:
REMARK  status: ('A' for Active; 'I' for Inactive)
REMARK    1  A    between atoms: N2_2  and  C5_5 
REMARK    2  A    between atoms: C5_5  and  C6_6 
REMARK    3  A    between atoms: C6_6  and  O7_7 
REMARK    4  A    between atoms: O7_7  and  C8_8 
REMARK    5  A    between atoms: C8_8  and  C10_9 
REMARK    6  A    between atoms: C8_8  and  C17_16 
ROOT
ATOM      1  C8  ZIN A   1      17.755   0.863  11.009  0.00  0.00     0.206 C 
ENDROOT
BRANCH   1   2
ATOM      2  O7  ZIN A   1      18.667   0.022  11.718  0.00  0.00    -0.373 OA
BRANCH   2   3
ATOM      3  C6  ZIN A   1      18.035  -0.921  12.586  0.00  0.00     0.197 C 
BRANCH   3   4
ATOM      4  C5  ZIN A   1      18.877  -1.093  13.851  0.00  0.00     0.260 C 
BRANCH   4   5
ATOM      5  N2  ZIN A   1      18.028  -0.903  15.035  0.00  0.00    -0.077 N 
ATOM      6  C1  ZIN A   1      18.766  -1.310  16.238  0.00  0.00     0.269 C 
ATOM      7  H3  ZIN A   1      17.195  -1.465  14.944  0.00  0.00     0.279 HD
ATOM      8  C4  ZIN A   1      17.651   0.513  15.146  0.00  0.00     0.269 C 
ENDBRANCH   4   5
ENDBRANCH   3   4
ENDBRANCH   2   3
ENDBRANCH   1   2
BRANCH   1   9
ATOM      9  C10 ZIN A   1      18.011   0.747   9.529  0.00  0.00    -0.024 A 
ATOM     10  C16 ZIN A   1      19.005   1.505   8.939  0.00  0.00     0.012 A 
ATOM     11  C15 ZIN A   1      19.245   1.394   7.581  0.00  0.00     0.024 A 
ATOM     12  C13 ZIN A   1      18.483   0.532   6.813  0.00  0.00     0.034 A 
ATOM     13  C12 ZIN A   1      17.485  -0.222   7.404  0.00  0.00     0.024 A 
ATOM     14 Cl14 ZIN A   1      18.779   0.399   5.108  0.00  0.00    -0.084 Cl
ATOM     15  C11 ZIN A   1      17.250  -0.115   8.761  0.00  0.00     0.012 A 
ENDBRANCH   1   9
BRANCH   1  16
ATOM     16  C17 ZIN A   1      17.948   2.292  11.443  0.00  0.00     0.067 A 
ATOM     17  N22 ZIN A   1      17.035   3.194  11.140  0.00  0.00    -0.263 NA
ATOM     18  C21 ZIN A   1      17.159   4.456  11.502  0.00  0.00     0.117 A 
ATOM     19  C20 ZIN A   1      18.268   4.882  12.211  0.00  0.00     0.019 A 
ATOM     20  C19 ZIN A   1      19.251   3.963  12.543  0.00  0.00     0.003 A 
ATOM     21  C18 ZIN A   1      19.083   2.644  12.149  0.00  0.00     0.030 A 
ENDBRANCH   1  16
TORSDOF 6
ENDMDL
MODEL 7
REMARK VINA RESULT:      -6.5      2.227      5.287
REMARK  6 active torsions:
REMARK  status: ('A' for Active; 'I' for Inactive)
REMARK    1  A    between atoms: N2_2  and  C5_5 
REMARK    2  A    between atoms: C5_5  and  C6_6 
REMARK    3  A    between atoms: C6_6  and  O7_7 
REMARK    4  A    between atoms: O7_7  and  C8_8 
REMARK    5  A    between atoms: C8_8  and  C10_9 
REMARK    6  A    between atoms: C8_8  and  C17_16 
ROOT
ATOM      1  C8  ZIN A   1      18.392  -0.688  10.146  0.00  0.00     0.206 C 
ENDROOT
BRANCH   1   2
ATOM      2  O7  ZIN A   1      17.214  -0.080  10.679  0.00  0.00    -0.373 OA
BRANCH   2   3
ATOM      3  C6  ZIN A   1      17.416   0.582  11.930  0.00  0.00     0.197 C 
BRANCH   3   4
ATOM      4  C5  ZIN A   1      18.303   1.810  11.719  0.00  0.00     0.260 C 
BRANCH   4   5
ATOM      5  N2  ZIN A   1      17.653   2.729  10.775  0.00  0.00    -0.077 N 
ATOM      6  C1  ZIN A   1      17.327   3.986  11.462  0.00  0.00     0.269 C 
ATOM      7  H3  ZIN A   1      16.807   2.306  10.425  0.00  0.00     0.279 HD
ATOM      8  C4  ZIN A   1      18.562   3.004   9.655  0.00  0.00     0.269 C 
ENDBRANCH   4   5
ENDBRANCH   3   4
ENDBRANCH   2   3
ENDBRANCH   1   2
BRANCH   1   9
ATOM      9  C10 ZIN A   1      18.311  -0.706   8.642  0.00  0.00    -0.024 A 
ATOM     10  C16 ZIN A   1      17.249  -0.099   8.000  0.00  0.00     0.012 A 
ATOM     11  C15 ZIN A   1      17.177  -0.109   6.619  0.00  0.00     0.024 A 
ATOM     12  C13 ZIN A   1      18.165  -0.737   5.880  0.00  0.00     0.034 A 
ATOM     13  C12 ZIN A   1      19.225  -1.349   6.524  0.00  0.00     0.024 A 
ATOM     14 Cl14 ZIN A   1      18.072  -0.756   4.147  0.00  0.00    -0.084 Cl
ATOM     15  C11 ZIN A   1      19.298  -1.332   7.904  0.00  0.00     0.012 A 
ENDBRANCH   1   9
BRANCH   1  16
ATOM     16  C17 ZIN A   1      18.506  -2.099  10.661  0.00  0.00     0.067 A 
ATOM     17  N22 ZIN A   1      17.452  -2.892  10.627  0.00  0.00    -0.263 NA
ATOM     18  C21 ZIN A   1      17.504  -4.135  11.063  0.00  0.00     0.117 A 
ATOM     19  C20 ZIN A   1      18.677  -4.652  11.583  0.00  0.00     0.019 A 
ATOM     20  C19 ZIN A   1      19.804  -3.848  11.639  0.00  0.00     0.003 A 
ATOM     21  C18 ZIN A   1      19.711  -2.547  11.167  0.00  0.00     0.030 A 
ENDBRANCH   1  16
TORSDOF 6
ENDMDL
MODEL 8
REMARK VINA RESULT:      -6.5      2.545      4.627
REMARK  6 active torsions:
REMARK  status: ('A' for Active; 'I' for Inactive)
REMARK    1  A    between atoms: N2_2  and  C5_5 
REMARK    2  A    between atoms: C5_5  and  C6_6 
REMARK    3  A    between atoms: C6_6  and  O7_7 
REMARK    4  A    between atoms: O7_7  and  C8_8 
REMARK    5  A    between atoms: C8_8  and  C10_9 
REMARK    6  A    between atoms: C8_8  and  C17_16 
ROOT
ATOM      1  C8  ZIN A   1      19.729  -0.703  10.315  0.00  0.00     0.206 C 
ENDROOT
BRANCH   1   2
ATOM      2  O7  ZIN A   1      19.127   0.356  11.061  0.00  0.00    -0.373 OA
BRANCH   2   3
ATOM      3  C6  ZIN A   1      20.034   1.049  11.923  0.00  0.00     0.197 C 
BRANCH   3   4
ATOM      4  C5  ZIN A   1      19.942   0.466  13.334  0.00  0.00     0.260 C 
BRANCH   4   5
ATOM      5  N2  ZIN A   1      18.545   0.123  13.633  0.00  0.00    -0.077 N 
ATOM      6  C1  ZIN A   1      18.499  -1.152  14.360  0.00  0.00     0.269 C 
ATOM      7  H3  ZIN A   1      18.028   0.039  12.771  0.00  0.00     0.279 HD
ATOM      8  C4  ZIN A   1      17.947   1.181  14.460  0.00  0.00     0.269 C 
ENDBRANCH   4   5
ENDBRANCH   3   4
ENDBRANCH   2   3
ENDBRANCH   1   2
BRANCH   1   9
ATOM      9  C10 ZIN A   1      19.428  -0.519   8.850  0.00  0.00    -0.024 A 
ATOM     10  C16 ZIN A   1      19.164   0.743   8.352  0.00  0.00     0.012 A 
ATOM     11  C15 ZIN A   1      18.894   0.913   7.007  0.00  0.00     0.024 A 
ATOM     12  C13 ZIN A   1      18.877  -0.182   6.161  0.00  0.00     0.034 A 
ATOM     13  C12 ZIN A   1      19.135  -1.445   6.662  0.00  0.00     0.024 A 
ATOM     14 Cl14 ZIN A   1      18.530   0.031   4.474  0.00  0.00    -0.084 Cl
ATOM     15  C11 ZIN A   1      19.411  -1.613   8.005  0.00  0.00     0.012 A 
ENDBRANCH   1   9
BRANCH   1  16
ATOM     16  C17 ZIN A   1      19.176  -2.024  10.781  0.00  0.00     0.067 A 
ATOM     17  N22 ZIN A   1      20.002  -3.002  11.097  0.00  0.00    -0.263 NA
ATOM     18  C21 ZIN A   1      19.563  -4.174  11.514  0.00  0.00     0.117 A 
ATOM     19  C20 ZIN A   1      18.207  -4.422  11.624  0.00  0.00     0.019 A 
ATOM     20  C19 ZIN A   1      17.308  -3.419  11.295  0.00  0.00     0.003 A 
ATOM     21  C18 ZIN A   1      17.807  -2.199  10.866  0.00  0.00     0.030 A 
ENDBRANCH   1  16
TORSDOF 6
ENDMDL
MODEL 9
REMARK VINA RESULT:      -6.4      2.215      4.970
REMARK  6 active torsions:
REMARK  status: ('A' for Active; 'I' for Inactive)
REMARK    1  A    between atoms: N2_2  and  C5_5 
REMARK    2  A    between atoms: C5_5  and  C6_6 
REMARK    3  A    between atoms: C6_6  and  O7_7 
REMARK    4  A    between atoms: O7_7  and  C8_8 
REMARK    5  A    between atoms: C8_8  and  C10_9 
REMARK    6  A    between atoms: C8_8  and  C17_16 
ROOT
ATOM      1  C8  ZIN A   1      18.408  -0.689  11.377  0.00  0.00     0.206 C 
ENDROOT
BRANCH   1   2
ATOM      2  O7  ZIN A   1      17.198  -0.208  11.967  0.00  0.00    -0.373 OA
BRANCH   2   3
ATOM      3  C6  ZIN A   1      17.377   0.925  12.819  0.00  0.00     0.197 C 
BRANCH   3   4
ATOM      4  C5  ZIN A   1      18.753   0.853  13.483  0.00  0.00     0.260 C 
BRANCH   4   5
ATOM      5  N2  ZIN A   1      19.257   2.212  13.717  0.00  0.00    -0.077 N 
ATOM      6  C1  ZIN A   1      19.265   2.956  12.450  0.00  0.00     0.269 C 
ATOM      7  H3  ZIN A   1      20.195   2.164  14.085  0.00  0.00     0.279 HD
ATOM      8  C4  ZIN A   1      18.387   2.898  14.682  0.00  0.00     0.269 C 
ENDBRANCH   4   5
ENDBRANCH   3   4
ENDBRANCH   2   3
ENDBRANCH   1   2
BRANCH   1   9
ATOM      9  C10 ZIN A   1      18.494  -0.211   9.951  0.00  0.00    -0.024 A 
ATOM     10  C16 ZIN A   1      17.541  -0.606   9.031  0.00  0.00     0.012 A 
ATOM     11  C15 ZIN A   1      17.617  -0.163   7.723  0.00  0.00     0.024 A 
ATOM     12  C13 ZIN A   1      18.652   0.667   7.334  0.00  0.00     0.034 A 
ATOM     13  C12 ZIN A   1      19.609   1.058   8.254  0.00  0.00     0.024 A 
ATOM     14 Cl14 ZIN A   1      18.751   1.217   5.690  0.00  0.00    -0.084 Cl
ATOM     15  C11 ZIN A   1      19.529   0.618   9.562  0.00  0.00     0.012 A 
ENDBRANCH   1   9
BRANCH   1  16
ATOM     16  C17 ZIN A   1      18.417  -2.194  11.405  0.00  0.00     0.067 A 
ATOM     17  N22 ZIN A   1      17.276  -2.852  11.482  0.00  0.00    -0.263 NA
ATOM     18  C21 ZIN A   1      17.235  -4.170  11.505  0.00  0.00     0.117 A 
ATOM     19  C20 ZIN A   1      18.400  -4.914  11.459  0.00  0.00     0.019 A 
ATOM     20  C19 ZIN A   1      19.618  -4.258  11.384  0.00  0.00     0.003 A 
ATOM     21  C18 ZIN A   1      19.621  -2.872  11.357  0.00  0.00     0.030 A 
ENDBRANCH   1  16
TORSDOF 6
ENDMDL
