MODEL 1
REMARK VINA RESULT:      -8.7      0.000      0.000
REMARK  11 active torsions:
REMARK  status: ('A' for Active; 'I' for Inactive)
REMARK    1  A    between atoms: O2_2  and  C3_3 
REMARK    2  A    between atoms: C3_3  and  C5_5 
REMARK    3  A    between atoms: C11_11  and  C12_12 
REMARK    4  A    between atoms: C12_12  and  O14_14 
REMARK    5  A    between atoms: O14_14  and  C15_15 
REMARK    6  A    between atoms: C15_15  and  C16_16 
REMARK    7  A    between atoms: C16_16  and  N17_17 
REMARK    8  A    between atoms: N17_17  and  C19_19 
REMARK    9  A    between atoms: C19_19  and  C20_20 
REMARK   10  A    between atoms: C26_26  and  C28_27 
REMARK   11  A    between atoms: C32_31  and  N33_32 
ROOT
ATOM      1  C5  ZIN A   1      18.367  -2.532  10.665  0.00  0.00     0.052 C 
ATOM      2  C6  ZIN A   1      19.608  -2.821  11.095  0.00  0.00     0.018 C 
ATOM      3  C7  ZIN A   1      19.971  -4.249  11.416  0.00  0.00     0.069 C 
ATOM      4  N8  ZIN A   1      20.545  -1.835  11.246  0.00  0.00    -0.362 N 
ATOM      5  C9  ZIN A   1      20.162  -0.524  11.315  0.00  0.00     0.018 C 
ATOM      6  C10 ZIN A   1      21.117   0.502  11.870  0.00  0.00     0.069 C 
ATOM      7  C11 ZIN A   1      18.944  -0.139  10.894  0.00  0.00     0.052 C 
ATOM      8  C26 ZIN A   1      17.966  -1.126  10.321  0.00  0.00     0.101 C 
ATOM      9  H43 ZIN A   1      21.485  -2.068  11.304  0.00  0.00     0.165 HD
ENDROOT
BRANCH   7  10
ATOM     10  C12 ZIN A   1      18.580   1.225  10.987  0.00  0.00     0.292 C 
ATOM     11  O13 ZIN A   1      18.884   1.997  10.097  0.00  0.00    -0.259 OA
BRANCH  10  12
ATOM     12  O14 ZIN A   1      17.898   1.668  12.063  0.00  0.00    -0.316 OA
BRANCH  12  13
ATOM     13  C15 ZIN A   1      18.094   3.033  12.438  0.00  0.00     0.209 C 
BRANCH  13  14
ATOM     14  C16 ZIN A   1      17.671   3.228  13.896  0.00  0.00     0.299 C 
BRANCH  14  15
ATOM     15  N17 ZIN A   1      18.856   3.170  14.761  0.00  0.00     0.090 N 
ATOM     16  C18 ZIN A   1      19.455   4.500  14.924  0.00  0.00     0.310 C 
BRANCH  15  17
ATOM     17  C19 ZIN A   1      18.528   2.577  16.064  0.00  0.00     0.310 C 
BRANCH  17  18
ATOM     18  C20 ZIN A   1      18.471   1.077  15.934  0.00  0.00    -0.030 A 
ATOM     19  C25 ZIN A   1      17.643   0.342  16.762  0.00  0.00     0.009 A 
ATOM     20  C24 ZIN A   1      17.587  -1.033  16.639  0.00  0.00     0.001 A 
ATOM     21  C23 ZIN A   1      18.365  -1.675  15.694  0.00  0.00     0.000 A 
ATOM     22  C22 ZIN A   1      19.196  -0.941  14.869  0.00  0.00     0.001 A 
ATOM     23  C21 ZIN A   1      19.250   0.435  14.990  0.00  0.00     0.009 A 
ENDBRANCH  17  18
ENDBRANCH  15  17
ENDBRANCH  14  15
ENDBRANCH  13  14
ENDBRANCH  12  13
ENDBRANCH  10  12
ENDBRANCH   7  10
BRANCH   8  24
ATOM     24  C28 ZIN A   1      17.921  -0.967   8.822  0.00  0.00    -0.042 A 
ATOM     25  C36 ZIN A   1      18.785  -1.694   8.024  0.00  0.00     0.044 A 
ATOM     26  C32 ZIN A   1      18.742  -1.551   6.650  0.00  0.00     0.103 A 
ATOM     27  C31 ZIN A   1      17.840  -0.675   6.075  0.00  0.00     0.036 A 
ATOM     28  C30 ZIN A   1      16.980   0.056   6.873  0.00  0.00     0.003 A 
ATOM     29  C29 ZIN A   1      17.021  -0.090   8.248  0.00  0.00     0.008 A 
BRANCH  26  30
ATOM     30  N33 ZIN A   1      19.661  -2.334   5.795  0.00  0.00    -0.116 N 
ATOM     31  O34 ZIN A   1      19.835  -2.013   4.633  0.00  0.00    -0.532 OA
ATOM     32  O35 ZIN A   1      20.245  -3.300   6.253  0.00  0.00    -0.532 OA
ENDBRANCH  26  30
ENDBRANCH   8  24
BRANCH   1  33
ATOM     33  C3  ZIN A   1      17.422  -3.574  10.529  0.00  0.00     0.291 C 
ATOM     34  O4  ZIN A   1      16.701  -3.868  11.463  0.00  0.00    -0.260 OA
BRANCH  33  35
ATOM     35  O2  ZIN A   1      17.320  -4.245   9.361  0.00  0.00    -0.323 OA
ATOM     36  C1  ZIN A   1      16.305  -5.246   9.275  0.00  0.00     0.213 C 
ENDBRANCH  33  35
ENDBRANCH   1  33
TORSDOF 11
ENDMDL
MODEL 2
REMARK VINA RESULT:      -8.4      2.466      8.242
REMARK  11 active torsions:
REMARK  status: ('A' for Active; 'I' for Inactive)
REMARK    1  A    between atoms: O2_2  and  C3_3 
REMARK    2  A    between atoms: C3_3  and  C5_5 
REMARK    3  A    between atoms: C11_11  and  C12_12 
REMARK    4  A    between atoms: C12_12  and  O14_14 
REMARK    5  A    between atoms: O14_14  and  C15_15 
REMARK    6  A    between atoms: C15_15  and  C16_16 
REMARK    7  A    between atoms: C16_16  and  N17_17 
REMARK    8  A    between atoms: N17_17  and  C19_19 
REMARK    9  A    between atoms: C19_19  and  C20_20 
REMARK   10  A    between atoms: C26_26  and  C28_27 
REMARK   11  A    between atoms: C32_31  and  N33_32 
ROOT
ATOM      1  C5  ZIN A   1      18.464   2.440  12.556  0.00  0.00     0.052 C 
ATOM      2  C6  ZIN A   1      19.704   2.688  12.099  0.00  0.00     0.018 C 
ATOM      3  C7  ZIN A   1      20.102   4.101  11.754  0.00  0.00     0.069 C 
ATOM      4  N8  ZIN A   1      20.610   1.674  11.943  0.00  0.00    -0.362 N 
ATOM      5  C9  ZIN A   1      20.189   0.373  11.897  0.00  0.00     0.018 C 
ATOM      6  C10 ZIN A   1      21.103  -0.685  11.337  0.00  0.00     0.069 C 
ATOM      7  C11 ZIN A   1      18.969   0.028  12.345  0.00  0.00     0.052 C 
ATOM      8  C26 ZIN A   1      18.030   1.050  12.924  0.00  0.00     0.101 C 
ATOM      9  H43 ZIN A   1      21.555   1.879  11.865  0.00  0.00     0.165 HD
ENDROOT
BRANCH   7  10
ATOM     10  C12 ZIN A   1      18.564  -1.325  12.276  0.00  0.00     0.292 C 
ATOM     11  O13 ZIN A   1      19.079  -2.152  13.005  0.00  0.00    -0.259 OA
BRANCH  10  12
ATOM     12  O14 ZIN A   1      17.609  -1.699  11.399  0.00  0.00    -0.316 OA
BRANCH  12  13
ATOM     13  C15 ZIN A   1      17.381  -3.102  11.248  0.00  0.00     0.209 C 
BRANCH  13  14
ATOM     14  C16 ZIN A   1      17.356  -3.456   9.759  0.00  0.00     0.299 C 
BRANCH  14  15
ATOM     15  N17 ZIN A   1      18.633  -3.074   9.143  0.00  0.00     0.090 N 
ATOM     16  C18 ZIN A   1      19.656  -4.103   9.368  0.00  0.00     0.310 C 
BRANCH  15  17
ATOM     17  C19 ZIN A   1      18.466  -2.801   7.710  0.00  0.00     0.310 C 
BRANCH  17  18
ATOM     18  C20 ZIN A   1      18.664  -1.330   7.451  0.00  0.00    -0.030 A 
ATOM     19  C25 ZIN A   1      18.696  -0.854   6.154  0.00  0.00     0.009 A 
ATOM     20  C24 ZIN A   1      18.873   0.496   5.917  0.00  0.00     0.001 A 
ATOM     21  C23 ZIN A   1      19.028   1.370   6.977  0.00  0.00     0.000 A 
ATOM     22  C22 ZIN A   1      19.001   0.893   8.275  0.00  0.00     0.001 A 
ATOM     23  C21 ZIN A   1      18.820  -0.457   8.512  0.00  0.00     0.009 A 
ENDBRANCH  17  18
ENDBRANCH  15  17
ENDBRANCH  14  15
ENDBRANCH  13  14
ENDBRANCH  12  13
ENDBRANCH  10  12
ENDBRANCH   7  10
BRANCH   8  24
ATOM     24  C28 ZIN A   1      18.008   0.910  14.425  0.00  0.00    -0.042 A 
ATOM     25  C36 ZIN A   1      18.794   1.736  15.207  0.00  0.00     0.044 A 
ATOM     26  C32 ZIN A   1      18.772   1.610  16.584  0.00  0.00     0.103 A 
ATOM     27  C31 ZIN A   1      17.970   0.653  17.177  0.00  0.00     0.036 A 
ATOM     28  C30 ZIN A   1      17.188  -0.177  16.395  0.00  0.00     0.003 A 
ATOM     29  C29 ZIN A   1      17.209  -0.048  15.018  0.00  0.00     0.008 A 
BRANCH  26  30
ATOM     30  N33 ZIN A   1      19.607   2.498  17.422  0.00  0.00    -0.116 N 
ATOM     31  O34 ZIN A   1      19.756   2.256  18.606  0.00  0.00    -0.532 OA
ATOM     32  O35 ZIN A   1      20.147   3.472  16.927  0.00  0.00    -0.532 OA
ENDBRANCH  26  30
ENDBRANCH   8  24
BRANCH   1  33
ATOM     33  C3  ZIN A   1      17.552   3.510  12.696  0.00  0.00     0.291 C 
ATOM     34  O4  ZIN A   1      17.504   4.137  13.737  0.00  0.00    -0.260 OA
BRANCH  33  35
ATOM     35  O2  ZIN A   1      16.732   3.836  11.674  0.00  0.00    -0.323 OA
ATOM     36  C1  ZIN A   1      16.636   5.221  11.335  0.00  0.00     0.213 C 
ENDBRANCH  33  35
ENDBRANCH   1  33
TORSDOF 11
ENDMDL
MODEL 3
REMARK VINA RESULT:      -7.9      2.291      5.171
REMARK  11 active torsions:
REMARK  status: ('A' for Active; 'I' for Inactive)
REMARK    1  A    between atoms: O2_2  and  C3_3 
REMARK    2  A    between atoms: C3_3  and  C5_5 
REMARK    3  A    between atoms: C11_11  and  C12_12 
REMARK    4  A    between atoms: C12_12  and  O14_14 
REMARK    5  A    between atoms: O14_14  and  C15_15 
REMARK    6  A    between atoms: C15_15  and  C16_16 
REMARK    7  A    between atoms: C16_16  and  N17_17 
REMARK    8  A    between atoms: N17_17  and  C19_19 
REMARK    9  A    between atoms: C19_19  and  C20_20 
REMARK   10  A    between atoms: C26_26  and  C28_27 
REMARK   11  A    between atoms: C32_31  and  N33_32 
ROOT
ATOM      1  C5  ZIN A   1      18.746  -1.696   6.906  0.00  0.00     0.052 C 
ATOM      2  C6  ZIN A   1      17.684  -0.874   6.840  0.00  0.00     0.018 C 
ATOM      3  C7  ZIN A   1      17.238  -0.339   5.503  0.00  0.00     0.069 C 
ATOM      4  N8  ZIN A   1      17.003  -0.518   7.972  0.00  0.00    -0.362 N 
ATOM      5  C9  ZIN A   1      17.577  -0.681   9.203  0.00  0.00     0.018 C 
ATOM      6  C10 ZIN A   1      17.017   0.060  10.390  0.00  0.00     0.069 C 
ATOM      7  C11 ZIN A   1      18.635  -1.494   9.367  0.00  0.00     0.052 C 
ATOM      8  C26 ZIN A   1      19.217  -2.264   8.214  0.00  0.00     0.101 C 
ATOM      9  H43 ZIN A   1      16.110  -0.147   7.901  0.00  0.00     0.165 HD
ENDROOT
BRANCH   7  10
ATOM     10  C12 ZIN A   1      19.206  -1.634  10.653  0.00  0.00     0.292 C 
ATOM     11  O13 ZIN A   1      18.612  -2.246  11.521  0.00  0.00    -0.259 OA
BRANCH  10  12
ATOM     12  O14 ZIN A   1      20.410  -1.086  10.919  0.00  0.00    -0.316 OA
BRANCH  12  13
ATOM     13  C15 ZIN A   1      20.437   0.314  11.208  0.00  0.00     0.209 C 
BRANCH  13  14
ATOM     14  C16 ZIN A   1      20.221   0.529  12.707  0.00  0.00     0.299 C 
BRANCH  14  15
ATOM     15  N17 ZIN A   1      18.927   1.190  12.926  0.00  0.00     0.090 N 
ATOM     16  C18 ZIN A   1      18.128   0.468  13.923  0.00  0.00     0.310 C 
BRANCH  15  17
ATOM     17  C19 ZIN A   1      19.112   2.594  13.315  0.00  0.00     0.310 C 
BRANCH  17  18
ATOM     18  C20 ZIN A   1      18.332   3.482  12.380  0.00  0.00    -0.030 A 
ATOM     19  C25 ZIN A   1      17.391   4.359  12.885  0.00  0.00     0.009 A 
ATOM     20  C24 ZIN A   1      16.678   5.177  12.029  0.00  0.00     0.001 A 
ATOM     21  C23 ZIN A   1      16.899   5.110  10.665  0.00  0.00     0.000 A 
ATOM     22  C22 ZIN A   1      17.836   4.228  10.160  0.00  0.00     0.001 A 
ATOM     23  C21 ZIN A   1      18.552   3.414  11.017  0.00  0.00     0.009 A 
ENDBRANCH  17  18
ENDBRANCH  15  17
ENDBRANCH  14  15
ENDBRANCH  13  14
ENDBRANCH  12  13
ENDBRANCH  10  12
ENDBRANCH   7  10
BRANCH   8  24
ATOM     24  C28 ZIN A   1      18.797  -3.708   8.318  0.00  0.00    -0.042 A 
ATOM     25  C36 ZIN A   1      17.480  -4.062   8.087  0.00  0.00     0.044 A 
ATOM     26  C32 ZIN A   1      17.095  -5.387   8.179  0.00  0.00     0.103 A 
ATOM     27  C31 ZIN A   1      18.025  -6.355   8.509  0.00  0.00     0.036 A 
ATOM     28  C30 ZIN A   1      19.340  -6.000   8.745  0.00  0.00     0.003 A 
ATOM     29  C29 ZIN A   1      19.725  -4.675   8.650  0.00  0.00     0.008 A 
BRANCH  26  30
ATOM     30  N33 ZIN A   1      15.688  -5.768   7.925  0.00  0.00    -0.116 N 
ATOM     31  O34 ZIN A   1      15.353  -6.162   6.823  0.00  0.00    -0.532 OA
ATOM     32  O35 ZIN A   1      14.864  -5.687   8.819  0.00  0.00    -0.532 OA
ENDBRANCH  26  30
ENDBRANCH   8  24
BRANCH   1  33
ATOM     33  C3  ZIN A   1      19.432  -2.037   5.717  0.00  0.00     0.291 C 
ATOM     34  O4  ZIN A   1      19.982  -1.173   5.062  0.00  0.00    -0.260 OA
BRANCH  33  35
ATOM     35  O2  ZIN A   1      19.475  -3.324   5.309  0.00  0.00    -0.323 OA
ATOM     36  C1  ZIN A   1      18.394  -3.782   4.494  0.00  0.00     0.213 C 
ENDBRANCH  33  35
ENDBRANCH   1  33
TORSDOF 11
ENDMDL
MODEL 4
REMARK VINA RESULT:      -7.9      2.109      4.392
REMARK  11 active torsions:
REMARK  status: ('A' for Active; 'I' for Inactive)
REMARK    1  A    between atoms: O2_2  and  C3_3 
REMARK    2  A    between atoms: C3_3  and  C5_5 
REMARK    3  A    between atoms: C11_11  and  C12_12 
REMARK    4  A    between atoms: C12_12  and  O14_14 
REMARK    5  A    between atoms: O14_14  and  C15_15 
REMARK    6  A    between atoms: C15_15  and  C16_16 
REMARK    7  A    between atoms: C16_16  and  N17_17 
REMARK    8  A    between atoms: N17_17  and  C19_19 
REMARK    9  A    between atoms: C19_19  and  C20_20 
REMARK   10  A    between atoms: C26_26  and  C28_27 
REMARK   11  A    between atoms: C32_31  and  N33_32 
ROOT
ATOM      1  C5  ZIN A   1      18.766  -1.590   6.777  0.00  0.00     0.052 C 
ATOM      2  C6  ZIN A   1      17.674  -0.808   6.714  0.00  0.00     0.018 C 
ATOM      3  C7  ZIN A   1      17.163  -0.350   5.372  0.00  0.00     0.069 C 
ATOM      4  N8  ZIN A   1      17.022  -0.423   7.853  0.00  0.00    -0.362 N 
ATOM      5  C9  ZIN A   1      17.643  -0.510   9.068  0.00  0.00     0.018 C 
ATOM      6  C10 ZIN A   1      17.100   0.266  10.240  0.00  0.00     0.069 C 
ATOM      7  C11 ZIN A   1      18.734  -1.279   9.230  0.00  0.00     0.052 C 
ATOM      8  C26 ZIN A   1      19.302  -2.081   8.092  0.00  0.00     0.101 C 
ATOM      9  H43 ZIN A   1      16.113  -0.085   7.799  0.00  0.00     0.165 HD
ENDROOT
BRANCH   7  10
ATOM     10  C12 ZIN A   1      19.355  -1.340  10.499  0.00  0.00     0.292 C 
ATOM     11  O13 ZIN A   1      18.941  -2.113  11.343  0.00  0.00    -0.259 OA
BRANCH  10  12
ATOM     12  O14 ZIN A   1      20.406  -0.540  10.774  0.00  0.00    -0.316 OA
BRANCH  12  13
ATOM     13  C15 ZIN A   1      20.425   0.089  12.057  0.00  0.00     0.209 C 
BRANCH  13  14
ATOM     14  C16 ZIN A   1      19.897   1.519  11.931  0.00  0.00     0.299 C 
BRANCH  14  15
ATOM     15  N17 ZIN A   1      19.291   1.932  13.204  0.00  0.00     0.090 N 
ATOM     16  C18 ZIN A   1      18.862   3.335  13.154  0.00  0.00     0.310 C 
BRANCH  15  17
ATOM     17  C19 ZIN A   1      18.171   1.051  13.564  0.00  0.00     0.310 C 
BRANCH  17  18
ATOM     18  C20 ZIN A   1      18.437   0.426  14.909  0.00  0.00    -0.030 A 
ATOM     19  C25 ZIN A   1      18.716   1.228  16.000  0.00  0.00     0.009 A 
ATOM     20  C24 ZIN A   1      18.954   0.655  17.236  0.00  0.00     0.001 A 
ATOM     21  C23 ZIN A   1      18.922  -0.720  17.378  0.00  0.00     0.000 A 
ATOM     22  C22 ZIN A   1      18.648  -1.522  16.285  0.00  0.00     0.001 A 
ATOM     23  C21 ZIN A   1      18.406  -0.948  15.051  0.00  0.00     0.009 A 
ENDBRANCH  17  18
ENDBRANCH  15  17
ENDBRANCH  14  15
ENDBRANCH  13  14
ENDBRANCH  12  13
ENDBRANCH  10  12
ENDBRANCH   7  10
BRANCH   8  24
ATOM     24  C28 ZIN A   1      18.936  -3.532   8.275  0.00  0.00    -0.042 A 
ATOM     25  C36 ZIN A   1      17.631  -3.945   8.079  0.00  0.00     0.044 A 
ATOM     26  C32 ZIN A   1      17.296  -5.277   8.244  0.00  0.00     0.103 A 
ATOM     27  C31 ZIN A   1      18.264  -6.192   8.613  0.00  0.00     0.036 A 
ATOM     28  C30 ZIN A   1      19.567  -5.778   8.814  0.00  0.00     0.003 A 
ATOM     29  C29 ZIN A   1      19.903  -4.447   8.646  0.00  0.00     0.008 A 
BRANCH  26  30
ATOM     30  N33 ZIN A   1      15.901  -5.721   8.027  0.00  0.00    -0.116 N 
ATOM     31  O34 ZIN A   1      15.094  -5.659   8.937  0.00  0.00    -0.532 OA
ATOM     32  O35 ZIN A   1      15.559  -6.147   6.939  0.00  0.00    -0.532 OA
ENDBRANCH  26  30
ENDBRANCH   8  24
BRANCH   1  33
ATOM     33  C3  ZIN A   1      19.420  -1.963   5.581  0.00  0.00     0.291 C 
ATOM     34  O4  ZIN A   1      19.968  -1.118   4.898  0.00  0.00    -0.260 OA
BRANCH  33  35
ATOM     35  O2  ZIN A   1      19.437  -3.257   5.195  0.00  0.00    -0.323 OA
ATOM     36  C1  ZIN A   1      18.384  -3.689   4.331  0.00  0.00     0.213 C 
ENDBRANCH  33  35
ENDBRANCH   1  33
TORSDOF 11
ENDMDL
MODEL 5
REMARK VINA RESULT:      -7.9      2.281      6.735
REMARK  11 active torsions:
REMARK  status: ('A' for Active; 'I' for Inactive)
REMARK    1  A    between atoms: O2_2  and  C3_3 
REMARK    2  A    between atoms: C3_3  and  C5_5 
REMARK    3  A    between atoms: C11_11  and  C12_12 
REMARK    4  A    between atoms: C12_12  and  O14_14 
REMARK    5  A    between atoms: O14_14  and  C15_15 
REMARK    6  A    between atoms: C15_15  and  C16_16 
REMARK    7  A    between atoms: C16_16  and  N17_17 
REMARK    8  A    between atoms: N17_17  and  C19_19 
REMARK    9  A    between atoms: C19_19  and  C20_20 
REMARK   10  A    between atoms: C26_26  and  C28_27 
REMARK   11  A    between atoms: C32_31  and  N33_32 
ROOT
ATOM      1  C5  ZIN A   1      18.286   1.260  15.298  0.00  0.00     0.052 C 
ATOM      2  C6  ZIN A   1      19.102   2.030  16.040  0.00  0.00     0.018 C 
ATOM      3  C7  ZIN A   1      19.382   1.652  17.472  0.00  0.00     0.069 C 
ATOM      4  N8  ZIN A   1      19.680   3.151  15.511  0.00  0.00    -0.362 N 
ATOM      5  C9  ZIN A   1      19.180   3.712  14.368  0.00  0.00     0.018 C 
ATOM      6  C10 ZIN A   1      19.543   5.131  14.015  0.00  0.00     0.069 C 
ATOM      7  C11 ZIN A   1      18.366   3.013  13.556  0.00  0.00     0.052 C 
ATOM      8  C26 ZIN A   1      17.989   1.591  13.863  0.00  0.00     0.101 C 
ATOM      9  H43 ZIN A   1      20.448   3.550  15.948  0.00  0.00     0.165 HD
ENDROOT
BRANCH   7  10
ATOM     10  C12 ZIN A   1      17.863   3.628  12.387  0.00  0.00     0.292 C 
ATOM     11  O13 ZIN A   1      16.711   4.020  12.353  0.00  0.00    -0.259 OA
BRANCH  10  12
ATOM     12  O14 ZIN A   1      18.659   3.777  11.308  0.00  0.00    -0.316 OA
BRANCH  12  13
ATOM     13  C15 ZIN A   1      18.081   3.495  10.031  0.00  0.00     0.209 C 
BRANCH  13  14
ATOM     14  C16 ZIN A   1      17.722   2.010   9.951  0.00  0.00     0.299 C 
BRANCH  14  15
ATOM     15  N17 ZIN A   1      18.219   1.453   8.686  0.00  0.00     0.090 N 
ATOM     16  C18 ZIN A   1      19.680   1.567   8.598  0.00  0.00     0.310 C 
BRANCH  15  17
ATOM     17  C19 ZIN A   1      17.788   0.059   8.519  0.00  0.00     0.310 C 
BRANCH  17  18
ATOM     18  C20 ZIN A   1      18.220  -0.441   7.165  0.00  0.00    -0.030 A 
ATOM     19  C25 ZIN A   1      18.961  -1.603   7.062  0.00  0.00     0.009 A 
ATOM     20  C24 ZIN A   1      19.353  -2.065   5.819  0.00  0.00     0.001 A 
ATOM     21  C23 ZIN A   1      19.012  -1.360   4.680  0.00  0.00     0.000 A 
ATOM     22  C22 ZIN A   1      18.275  -0.195   4.784  0.00  0.00     0.001 A 
ATOM     23  C21 ZIN A   1      17.879   0.265   6.026  0.00  0.00     0.009 A 
ENDBRANCH  17  18
ENDBRANCH  15  17
ENDBRANCH  14  15
ENDBRANCH  13  14
ENDBRANCH  12  13
ENDBRANCH  10  12
ENDBRANCH   7  10
BRANCH   8  24
ATOM     24  C28 ZIN A   1      18.766   0.665  12.961  0.00  0.00    -0.042 A 
ATOM     25  C36 ZIN A   1      18.183  -0.500  12.498  0.00  0.00     0.044 A 
ATOM     26  C32 ZIN A   1      18.894  -1.346  11.668  0.00  0.00     0.103 A 
ATOM     27  C31 ZIN A   1      20.191  -1.031  11.309  0.00  0.00     0.036 A 
ATOM     28  C30 ZIN A   1      20.777   0.130  11.776  0.00  0.00     0.003 A 
ATOM     29  C29 ZIN A   1      20.063   0.979  12.603  0.00  0.00     0.008 A 
BRANCH  26  30
ATOM     30  N33 ZIN A   1      18.267  -2.589  11.167  0.00  0.00    -0.116 N 
ATOM     31  O34 ZIN A   1      18.947  -3.432  10.611  0.00  0.00    -0.532 OA
ATOM     32  O35 ZIN A   1      17.072  -2.770  11.310  0.00  0.00    -0.532 OA
ENDBRANCH  26  30
ENDBRANCH   8  24
BRANCH   1  33
ATOM     33  C3  ZIN A   1      17.699   0.113  15.879  0.00  0.00     0.291 C 
ATOM     34  O4  ZIN A   1      16.744   0.228  16.625  0.00  0.00    -0.260 OA
BRANCH  33  35
ATOM     35  O2  ZIN A   1      18.198  -1.112  15.608  0.00  0.00    -0.323 OA
ATOM     36  C1  ZIN A   1      19.101  -1.671  16.564  0.00  0.00     0.213 C 
ENDBRANCH  33  35
ENDBRANCH   1  33
TORSDOF 11
ENDMDL
MODEL 6
REMARK VINA RESULT:      -7.8      3.110      7.969
REMARK  11 active torsions:
REMARK  status: ('A' for Active; 'I' for Inactive)
REMARK    1  A    between atoms: O2_2  and  C3_3 
REMARK    2  A    between atoms: C3_3  and  C5_5 
REMARK    3  A    between atoms: C11_11  and  C12_12 
REMARK    4  A    between atoms: C12_12  and  O14_14 
REMARK    5  A    between atoms: O14_14  and  C15_15 
REMARK    6  A    between atoms: C15_15  and  C16_16 
REMARK    7  A    between atoms: C16_16  and  N17_17 
REMARK    8  A    between atoms: N17_17  and  C19_19 
REMARK    9  A    between atoms: C19_19  and  C20_20 
REMARK   10  A    between atoms: C26_26  and  C28_27 
REMARK   11  A    between atoms: C32_31  and  N33_32 
ROOT
ATOM      1  C5  ZIN A   1      18.742   1.556  16.554  0.00  0.00     0.052 C 
ATOM      2  C6  ZIN A   1      17.659   0.759  16.528  0.00  0.00     0.018 C 
ATOM      3  C7  ZIN A   1      17.089   0.236  17.822  0.00  0.00     0.069 C 
ATOM      4  N8  ZIN A   1      17.069   0.418  15.342  0.00  0.00    -0.362 N 
ATOM      5  C9  ZIN A   1      17.748   0.567  14.164  0.00  0.00     0.018 C 
ATOM      6  C10 ZIN A   1      17.274  -0.162  12.934  0.00  0.00     0.069 C 
ATOM      7  C11 ZIN A   1      18.836   1.355  14.092  0.00  0.00     0.052 C 
ATOM      8  C26 ZIN A   1      19.336   2.111  15.291  0.00  0.00     0.101 C 
ATOM      9  H43 ZIN A   1      16.164   0.069  15.336  0.00  0.00     0.165 HD
ENDROOT
BRANCH   7  10
ATOM     10  C12 ZIN A   1      19.517   1.480  12.859  0.00  0.00     0.292 C 
ATOM     11  O13 ZIN A   1      20.543   0.855  12.664  0.00  0.00    -0.259 OA
BRANCH  10  12
ATOM     12  O14 ZIN A   1      19.031   2.294  11.899  0.00  0.00    -0.316 OA
BRANCH  12  13
ATOM     13  C15 ZIN A   1      19.381   1.986  10.548  0.00  0.00     0.209 C 
BRANCH  13  14
ATOM     14  C16 ZIN A   1      18.140   1.500   9.798  0.00  0.00     0.299 C 
BRANCH  14  15
ATOM     15  N17 ZIN A   1      18.487   0.326   8.985  0.00  0.00     0.090 N 
ATOM     16  C18 ZIN A   1      18.715   0.703   7.585  0.00  0.00     0.310 C 
BRANCH  15  17
ATOM     17  C19 ZIN A   1      19.655  -0.371   9.540  0.00  0.00     0.310 C 
BRANCH  17  18
ATOM     18  C20 ZIN A   1      19.204  -1.627  10.240  0.00  0.00    -0.030 A 
ATOM     19  C25 ZIN A   1      19.995  -2.190  11.225  0.00  0.00     0.009 A 
ATOM     20  C24 ZIN A   1      19.579  -3.339  11.871  0.00  0.00     0.001 A 
ATOM     21  C23 ZIN A   1      18.378  -3.931  11.526  0.00  0.00     0.000 A 
ATOM     22  C22 ZIN A   1      17.591  -3.371  10.538  0.00  0.00     0.001 A 
ATOM     23  C21 ZIN A   1      18.005  -2.219   9.894  0.00  0.00     0.009 A 
ENDBRANCH  17  18
ENDBRANCH  15  17
ENDBRANCH  14  15
ENDBRANCH  13  14
ENDBRANCH  12  13
ENDBRANCH  10  12
ENDBRANCH   7  10
BRANCH   8  24
ATOM     24  C28 ZIN A   1      18.959   3.565  15.154  0.00  0.00    -0.042 A 
ATOM     25  C36 ZIN A   1      17.682   3.913  14.754  0.00  0.00     0.044 A 
ATOM     26  C32 ZIN A   1      17.336   5.246  14.632  0.00  0.00     0.103 A 
ATOM     27  C31 ZIN A   1      18.270   6.229  14.901  0.00  0.00     0.036 A 
ATOM     28  C30 ZIN A   1      19.548   5.881  15.296  0.00  0.00     0.003 A 
ATOM     29  C29 ZIN A   1      19.893   4.547  15.421  0.00  0.00     0.008 A 
BRANCH  26  30
ATOM     30  N33 ZIN A   1      15.968   5.619  14.210  0.00  0.00    -0.116 N 
ATOM     31  O34 ZIN A   1      15.127   5.895  15.047  0.00  0.00    -0.532 OA
ATOM     32  O35 ZIN A   1      15.682   5.652  13.027  0.00  0.00    -0.532 OA
ENDBRANCH  26  30
ENDBRANCH   8  24
BRANCH   1  33
ATOM     33  C3  ZIN A   1      19.332   1.881  17.797  0.00  0.00     0.291 C 
ATOM     34  O4  ZIN A   1      19.934   1.032  18.426  0.00  0.00    -0.260 OA
BRANCH  33  35
ATOM     35  O2  ZIN A   1      19.225   3.135  18.287  0.00  0.00    -0.323 OA
ATOM     36  C1  ZIN A   1      17.954   3.519  18.816  0.00  0.00     0.213 C 
ENDBRANCH  33  35
ENDBRANCH   1  33
TORSDOF 11
ENDMDL
MODEL 7
REMARK VINA RESULT:      -7.8      2.503      7.698
REMARK  11 active torsions:
REMARK  status: ('A' for Active; 'I' for Inactive)
REMARK    1  A    between atoms: O2_2  and  C3_3 
REMARK    2  A    between atoms: C3_3  and  C5_5 
REMARK    3  A    between atoms: C11_11  and  C12_12 
REMARK    4  A    between atoms: C12_12  and  O14_14 
REMARK    5  A    between atoms: O14_14  and  C15_15 
REMARK    6  A    between atoms: C15_15  and  C16_16 
REMARK    7  A    between atoms: C16_16  and  N17_17 
REMARK    8  A    between atoms: N17_17  and  C19_19 
REMARK    9  A    between atoms: C19_19  and  C20_20 
REMARK   10  A    between atoms: C26_26  and  C28_27 
REMARK   11  A    between atoms: C32_31  and  N33_32 
ROOT
ATOM      1  C5  ZIN A   1      19.128  -0.863  11.215  0.00  0.00     0.052 C 
ATOM      2  C6  ZIN A   1      18.186  -0.978  12.168  0.00  0.00     0.018 C 
ATOM      3  C7  ZIN A   1      18.057   0.094  13.220  0.00  0.00     0.069 C 
ATOM      4  N8  ZIN A   1      17.343  -2.056  12.194  0.00  0.00    -0.362 N 
ATOM      5  C9  ZIN A   1      17.654  -3.193  11.500  0.00  0.00     0.018 C 
ATOM      6  C10 ZIN A   1      16.959  -4.486  11.839  0.00  0.00     0.069 C 
ATOM      7  C11 ZIN A   1      18.575  -3.171  10.520  0.00  0.00     0.052 C 
ATOM      8  C26 ZIN A   1      19.283  -1.901  10.140  0.00  0.00     0.101 C 
ATOM      9  H43 ZIN A   1      16.521  -2.013  12.707  0.00  0.00     0.165 HD
ENDROOT
BRANCH   7  10
ATOM     10  C12 ZIN A   1      18.876  -4.367   9.828  0.00  0.00     0.292 C 
ATOM     11  O13 ZIN A   1      19.928  -4.942  10.036  0.00  0.00    -0.259 OA
BRANCH  10  12
ATOM     12  O14 ZIN A   1      17.997  -4.869   8.936  0.00  0.00    -0.316 OA
BRANCH  12  13
ATOM     13  C15 ZIN A   1      18.514  -5.765   7.950  0.00  0.00     0.209 C 
BRANCH  13  14
ATOM     14  C16 ZIN A   1      18.096  -5.286   6.558  0.00  0.00     0.299 C 
BRANCH  14  15
ATOM     15  N17 ZIN A   1      16.797  -5.874   6.207  0.00  0.00     0.090 N 
ATOM     16  C18 ZIN A   1      16.684  -6.078   4.758  0.00  0.00     0.310 C 
BRANCH  15  17
ATOM     17  C19 ZIN A   1      16.573  -7.130   6.935  0.00  0.00     0.310 C 
BRANCH  17  18
ATOM     18  C20 ZIN A   1      15.119  -7.240   7.313  0.00  0.00    -0.030 A 
ATOM     19  C25 ZIN A   1      14.459  -8.447   7.177  0.00  0.00     0.009 A 
ATOM     20  C24 ZIN A   1      13.126  -8.549   7.529  0.00  0.00     0.001 A 
ATOM     21  C23 ZIN A   1      12.450  -7.442   8.007  0.00  0.00     0.000 A 
ATOM     22  C22 ZIN A   1      13.109  -6.234   8.138  0.00  0.00     0.001 A 
ATOM     23  C21 ZIN A   1      14.443  -6.133   7.790  0.00  0.00     0.009 A 
ENDBRANCH  17  18
ENDBRANCH  15  17
ENDBRANCH  14  15
ENDBRANCH  13  14
ENDBRANCH  12  13
ENDBRANCH  10  12
ENDBRANCH   7  10
BRANCH   8  24
ATOM     24  C28 ZIN A   1      18.707  -1.378   8.848  0.00  0.00    -0.042 A 
ATOM     25  C36 ZIN A   1      19.334  -1.658   7.648  0.00  0.00     0.044 A 
ATOM     26  C32 ZIN A   1      18.803  -1.182   6.464  0.00  0.00     0.103 A 
ATOM     27  C31 ZIN A   1      17.651  -0.419   6.481  0.00  0.00     0.036 A 
ATOM     28  C30 ZIN A   1      17.027  -0.134   7.681  0.00  0.00     0.003 A 
ATOM     29  C29 ZIN A   1      17.556  -0.614   8.866  0.00  0.00     0.008 A 
BRANCH  26  30
ATOM     30  N33 ZIN A   1      19.470  -1.488   5.179  0.00  0.00    -0.116 N 
ATOM     31  O34 ZIN A   1      19.499  -2.633   4.765  0.00  0.00    -0.532 OA
ATOM     32  O35 ZIN A   1      19.989  -0.595   4.534  0.00  0.00    -0.532 OA
ENDBRANCH  26  30
ENDBRANCH   8  24
BRANCH   1  33
ATOM     33  C3  ZIN A   1      19.987   0.259  11.224  0.00  0.00     0.291 C 
ATOM     34  O4  ZIN A   1      21.036   0.218  11.838  0.00  0.00    -0.260 OA
BRANCH  33  35
ATOM     35  O2  ZIN A   1      19.642   1.377  10.550  0.00  0.00    -0.323 OA
ATOM     36  C1  ZIN A   1      19.642   2.603  11.285  0.00  0.00     0.213 C 
ENDBRANCH  33  35
ENDBRANCH   1  33
TORSDOF 11
ENDMDL
MODEL 8
REMARK VINA RESULT:      -7.7      1.931      3.614
REMARK  11 active torsions:
REMARK  status: ('A' for Active; 'I' for Inactive)
REMARK    1  A    between atoms: O2_2  and  C3_3 
REMARK    2  A    between atoms: C3_3  and  C5_5 
REMARK    3  A    between atoms: C11_11  and  C12_12 
REMARK    4  A    between atoms: C12_12  and  O14_14 
REMARK    5  A    between atoms: O14_14  and  C15_15 
REMARK    6  A    between atoms: C15_15  and  C16_16 
REMARK    7  A    between atoms: C16_16  and  N17_17 
REMARK    8  A    between atoms: N17_17  and  C19_19 
REMARK    9  A    between atoms: C19_19  and  C20_20 
REMARK   10  A    between atoms: C26_26  and  C28_27 
REMARK   11  A    between atoms: C32_31  and  N33_32 
ROOT
ATOM      1  C5  ZIN A   1      18.394  -3.092  10.422  0.00  0.00     0.052 C 
ATOM      2  C6  ZIN A   1      19.411  -3.582  11.153  0.00  0.00     0.018 C 
ATOM      3  C7  ZIN A   1      19.983  -4.936  10.818  0.00  0.00     0.069 C 
ATOM      4  N8  ZIN A   1      19.932  -2.867  12.196  0.00  0.00    -0.362 N 
ATOM      5  C9  ZIN A   1      19.227  -1.832  12.745  0.00  0.00     0.018 C 
ATOM      6  C10 ZIN A   1      19.601  -1.317  14.111  0.00  0.00     0.069 C 
ATOM      7  C11 ZIN A   1      18.202  -1.269  12.081  0.00  0.00     0.052 C 
ATOM      8  C26 ZIN A   1      17.803  -1.742  10.711  0.00  0.00     0.101 C 
ATOM      9  H43 ZIN A   1      20.807  -3.096  12.549  0.00  0.00     0.165 HD
ENDROOT
BRANCH   7  10
ATOM     10  C12 ZIN A   1      17.490  -0.205  12.682  0.00  0.00     0.292 C 
ATOM     11  O13 ZIN A   1      16.273  -0.213  12.689  0.00  0.00    -0.259 OA
BRANCH  10  12
ATOM     12  O14 ZIN A   1      18.161   0.821  13.247  0.00  0.00    -0.316 OA
BRANCH  12  13
ATOM     13  C15 ZIN A   1      17.678   1.299  14.504  0.00  0.00     0.209 C 
BRANCH  13  14
ATOM     14  C16 ZIN A   1      18.750   2.167  15.166  0.00  0.00     0.299 C 
BRANCH  14  15
ATOM     15  N17 ZIN A   1      18.351   3.579  15.092  0.00  0.00     0.090 N 
ATOM     16  C18 ZIN A   1      18.412   4.213  16.415  0.00  0.00     0.310 C 
BRANCH  15  17
ATOM     17  C19 ZIN A   1      19.175   4.309  14.119  0.00  0.00     0.310 C 
BRANCH  17  18
ATOM     18  C20 ZIN A   1      18.414   4.458  12.828  0.00  0.00    -0.030 A 
ATOM     19  C25 ZIN A   1      18.908   3.896  11.666  0.00  0.00     0.009 A 
ATOM     20  C24 ZIN A   1      18.207   4.029  10.481  0.00  0.00     0.001 A 
ATOM     21  C23 ZIN A   1      17.017   4.732  10.458  0.00  0.00     0.000 A 
ATOM     22  C22 ZIN A   1      16.526   5.298  11.619  0.00  0.00     0.001 A 
ATOM     23  C21 ZIN A   1      17.225   5.162  12.804  0.00  0.00     0.009 A 
ENDBRANCH  17  18
ENDBRANCH  15  17
ENDBRANCH  14  15
ENDBRANCH  13  14
ENDBRANCH  12  13
ENDBRANCH  10  12
ENDBRANCH   7  10
BRANCH   8  24
ATOM     24  C28 ZIN A   1      18.285  -0.750   9.683  0.00  0.00    -0.042 A 
ATOM     25  C36 ZIN A   1      17.717  -0.729   8.423  0.00  0.00     0.044 A 
ATOM     26  C32 ZIN A   1      18.157   0.184   7.482  0.00  0.00     0.103 A 
ATOM     27  C31 ZIN A   1      19.170   1.068   7.799  0.00  0.00     0.036 A 
ATOM     28  C30 ZIN A   1      19.743   1.044   9.057  0.00  0.00     0.003 A 
ATOM     29  C29 ZIN A   1      19.300   0.133   9.999  0.00  0.00     0.008 A 
BRANCH  26  30
ATOM     30  N33 ZIN A   1      17.544   0.211   6.135  0.00  0.00    -0.116 N 
ATOM     31  O34 ZIN A   1      16.349   0.012   6.006  0.00  0.00    -0.532 OA
ATOM     32  O35 ZIN A   1      18.233   0.434   5.156  0.00  0.00    -0.532 OA
ENDBRANCH  26  30
ENDBRANCH   8  24
BRANCH   1  33
ATOM     33  C3  ZIN A   1      17.874  -3.861   9.356  0.00  0.00     0.291 C 
ATOM     34  O4  ZIN A   1      16.830  -4.469   9.497  0.00  0.00    -0.260 OA
BRANCH  33  35
ATOM     35  O2  ZIN A   1      18.538  -3.923   8.182  0.00  0.00    -0.323 OA
ATOM     36  C1  ZIN A   1      17.977  -4.753   7.163  0.00  0.00     0.213 C 
ENDBRANCH  33  35
ENDBRANCH   1  33
TORSDOF 11
ENDMDL
MODEL 9
REMARK VINA RESULT:      -7.6      2.623      5.398
REMARK  11 active torsions:
REMARK  status: ('A' for Active; 'I' for Inactive)
REMARK    1  A    between atoms: O2_2  and  C3_3 
REMARK    2  A    between atoms: C3_3  and  C5_5 
REMARK    3  A    between atoms: C11_11  and  C12_12 
REMARK    4  A    between atoms: C12_12  and  O14_14 
REMARK    5  A    between atoms: O14_14  and  C15_15 
REMARK    6  A    between atoms: C15_15  and  C16_16 
REMARK    7  A    between atoms: C16_16  and  N17_17 
REMARK    8  A    between atoms: N17_17  and  C19_19 
REMARK    9  A    between atoms: C19_19  and  C20_20 
REMARK   10  A    between atoms: C26_26  and  C28_27 
REMARK   11  A    between atoms: C32_31  and  N33_32 
ROOT
ATOM      1  C5  ZIN A   1      18.417  -1.417  12.071  0.00  0.00     0.052 C 
ATOM      2  C6  ZIN A   1      19.360  -2.233  12.575  0.00  0.00     0.018 C 
ATOM      3  C7  ZIN A   1      19.854  -3.396  11.752  0.00  0.00     0.069 C 
ATOM      4  N8  ZIN A   1      19.876  -2.020  13.823  0.00  0.00    -0.362 N 
ATOM      5  C9  ZIN A   1      19.216  -1.222  14.717  0.00  0.00     0.018 C 
ATOM      6  C10 ZIN A   1      19.556  -1.305  16.182  0.00  0.00     0.069 C 
ATOM      7  C11 ZIN A   1      18.266  -0.364  14.303  0.00  0.00     0.052 C 
ATOM      8  C26 ZIN A   1      17.905  -0.238  12.849  0.00  0.00     0.101 C 
ATOM      9  H43 ZIN A   1      20.714  -2.437  14.077  0.00  0.00     0.165 HD
ENDROOT
BRANCH   7  10
ATOM     10  C12 ZIN A   1      17.599   0.441  15.255  0.00  0.00     0.292 C 
ATOM     11  O13 ZIN A   1      16.824  -0.065  16.045  0.00  0.00    -0.259 OA
BRANCH  10  12
ATOM     12  O14 ZIN A   1      17.822   1.771  15.287  0.00  0.00    -0.316 OA
BRANCH  12  13
ATOM     13  C15 ZIN A   1      19.097   2.205  15.766  0.00  0.00     0.209 C 
BRANCH  13  14
ATOM     14  C16 ZIN A   1      18.977   2.614  17.236  0.00  0.00     0.299 C 
BRANCH  14  15
ATOM     15  N17 ZIN A   1      18.228   3.874  17.333  0.00  0.00     0.090 N 
ATOM     16  C18 ZIN A   1      17.792   4.123  18.713  0.00  0.00     0.310 C 
BRANCH  15  17
ATOM     17  C19 ZIN A   1      19.020   4.999  16.820  0.00  0.00     0.310 C 
BRANCH  17  18
ATOM     18  C20 ZIN A   1      18.176   5.819  15.877  0.00  0.00    -0.030 A 
ATOM     19  C25 ZIN A   1      18.399   7.177  15.755  0.00  0.00     0.009 A 
ATOM     20  C24 ZIN A   1      17.629   7.928  14.887  0.00  0.00     0.001 A 
ATOM     21  C23 ZIN A   1      16.629   7.322  14.148  0.00  0.00     0.000 A 
ATOM     22  C22 ZIN A   1      16.403   5.964  14.275  0.00  0.00     0.001 A 
ATOM     23  C21 ZIN A   1      17.176   5.213  15.140  0.00  0.00     0.009 A 
ENDBRANCH  17  18
ENDBRANCH  15  17
ENDBRANCH  14  15
ENDBRANCH  13  14
ENDBRANCH  12  13
ENDBRANCH  10  12
ENDBRANCH   7  10
BRANCH   8  24
ATOM     24  C28 ZIN A   1      18.505   1.030  12.296  0.00  0.00    -0.042 A 
ATOM     25  C36 ZIN A   1      17.686   1.996  11.741  0.00  0.00     0.044 A 
ATOM     26  C32 ZIN A   1      18.236   3.160  11.238  0.00  0.00     0.103 A 
ATOM     27  C31 ZIN A   1      19.604   3.353  11.281  0.00  0.00     0.036 A 
ATOM     28  C30 ZIN A   1      20.423   2.385  11.831  0.00  0.00     0.003 A 
ATOM     29  C29 ZIN A   1      19.872   1.222  12.338  0.00  0.00     0.008 A 
BRANCH  26  30
ATOM     30  N33 ZIN A   1      17.360   4.198  10.650  0.00  0.00    -0.116 N 
ATOM     31  O34 ZIN A   1      17.725   4.818   9.667  0.00  0.00    -0.532 OA
ATOM     32  O35 ZIN A   1      16.274   4.433  11.148  0.00  0.00    -0.532 OA
ENDBRANCH  26  30
ENDBRANCH   8  24
BRANCH   1  33
ATOM     33  C3  ZIN A   1      17.899  -1.672  10.780  0.00  0.00     0.291 C 
ATOM     34  O4  ZIN A   1      16.998  -2.475  10.633  0.00  0.00    -0.260 OA
BRANCH  33  35
ATOM     35  O2  ZIN A   1      18.406  -1.023   9.710  0.00  0.00    -0.323 OA
ATOM     36  C1  ZIN A   1      17.471  -0.404   8.824  0.00  0.00     0.213 C 
ENDBRANCH  33  35
ENDBRANCH   1  33
TORSDOF 11
ENDMDL
