MODEL 1
REMARK VINA RESULT:      -9.1      0.000      0.000
REMARK  7 active torsions:
REMARK  status: ('A' for Active; 'I' for Inactive)
REMARK    1  A    between atoms: C8_8  and  O9_9 
REMARK    2  A    between atoms: O9_9  and  C10_10 
REMARK    3  A    between atoms: C10_10  and  C11_11 
REMARK    4  A    between atoms: C11_11  and  C12_12 
REMARK    5  A    between atoms: C12_12  and  C13_13 
REMARK    6  A    between atoms: C13_13  and  N14_14 
REMARK    7  A    between atoms: N18_18  and  C19_19 
ROOT
ATOM      1  C13 ZIN A   1      19.262   2.009   9.015  0.00  0.00     0.235 C 
ENDROOT
BRANCH   1   2
ATOM      2  C12 ZIN A   1      18.463   3.148   9.652  0.00  0.00     0.030 C 
BRANCH   2   3
ATOM      3  C11 ZIN A   1      18.933   3.356  11.093  0.00  0.00     0.028 C 
BRANCH   3   4
ATOM      4  C10 ZIN A   1      17.746   3.196  12.044  0.00  0.00     0.175 C 
BRANCH   4   5
ATOM      5  O9  ZIN A   1      17.348   1.824  12.083  0.00  0.00    -0.351 OA
BRANCH   5   6
ATOM      6  C8  ZIN A   1      17.710   1.107  13.177  0.00  0.00     0.070 A 
ATOM      7  C7  ZIN A   1      17.643  -0.285  13.144  0.00  0.00     0.038 A 
ATOM      8  C6  ZIN A   1      18.002  -1.022  14.234  0.00  0.00     0.016 A 
ATOM      9  C5  ZIN A   1      18.442  -0.377  15.396  0.00  0.00    -0.009 A 
ATOM     10  C4  ZIN A   1      18.834  -1.139  16.581  0.00  0.00     0.019 A 
ATOM     11  C31 ZIN A   1      18.512   1.030  15.435  0.00  0.00     0.048 A 
ATOM     12  C3  ZIN A   1      19.253  -0.462  17.679  0.00  0.00     0.075 A 
ATOM     13  C2  ZIN A   1      19.305   0.947  17.668  0.00  0.00     0.245 A 
ATOM     14  O1  ZIN A   1      19.684   1.536  18.665  0.00  0.00    -0.268 OA
ATOM     15  N32 ZIN A   1      18.942   1.659  16.585  0.00  0.00    -0.323 N 
ATOM     16  H59 ZIN A   1      18.985   2.627  16.613  0.00  0.00     0.169 HD
ATOM     17  C30 ZIN A   1      18.142   1.764  14.316  0.00  0.00     0.067 A 
ENDBRANCH   5   6
ENDBRANCH   4   5
ENDBRANCH   3   4
ENDBRANCH   2   3
ENDBRANCH   1   2
BRANCH   1  18
ATOM     18  N14 ZIN A   1      18.852   0.731   9.610  0.00  0.00    -0.069 N 
ATOM     19  H15 ZIN A   1      18.535   0.886  10.556  0.00  0.00     0.280 HD
ATOM     20  C29 ZIN A   1      17.761   0.148   8.819  0.00  0.00     0.249 C 
ATOM     21  C28 ZIN A   1      17.320  -1.174   9.451  0.00  0.00     0.123 C 
ATOM     22  N18 ZIN A   1      18.463  -2.097   9.493  0.00  0.00    -0.280 NA
ATOM     23  C17 ZIN A   1      19.574  -1.517  10.263  0.00  0.00     0.123 C 
ATOM     24  C16 ZIN A   1      19.996  -0.191   9.624  0.00  0.00     0.249 C 
BRANCH  22  25
ATOM     25  C19 ZIN A   1      18.087  -3.336  10.016  0.00  0.00     0.022 A 
ATOM     26  C27 ZIN A   1      17.942  -3.492  11.377  0.00  0.00     0.024 A 
ATOM     27  C26 ZIN A   1      17.562  -4.717  11.906  0.00  0.00     0.003 A 
ATOM     28  C25 ZIN A   1      17.337  -5.790  11.076  0.00  0.00     0.020 A 
ATOM     29  C24 ZIN A   1      17.485  -5.659   9.690  0.00  0.00     0.016 A 
ATOM     30  C20 ZIN A   1      17.860  -4.429   9.144  0.00  0.00     0.003 A 
ATOM     31  S23 ZIN A   1      17.269  -6.837   8.402  0.00  0.00    -0.101 SA
ATOM     32  C21 ZIN A   1      17.961  -4.488   7.695  0.00  0.00     0.021 A 
ATOM     33  C22 ZIN A   1      17.686  -5.665   7.168  0.00  0.00     0.051 A 
ENDBRANCH  22  25
ENDBRANCH   1  18
TORSDOF 7
ENDMDL
MODEL 2
REMARK VINA RESULT:      -9.0      3.844      6.493
REMARK  7 active torsions:
REMARK  status: ('A' for Active; 'I' for Inactive)
REMARK    1  A    between atoms: C8_8  and  O9_9 
REMARK    2  A    between atoms: O9_9  and  C10_10 
REMARK    3  A    between atoms: C10_10  and  C11_11 
REMARK    4  A    between atoms: C11_11  and  C12_12 
REMARK    5  A    between atoms: C12_12  and  C13_13 
REMARK    6  A    between atoms: C13_13  and  N14_14 
REMARK    7  A    between atoms: N18_18  and  C19_19 
ROOT
ATOM      1  C13 ZIN A   1      19.947  -0.151   9.553  0.00  0.00     0.235 C 
ENDROOT
BRANCH   1   2
ATOM      2  C12 ZIN A   1      18.661   0.416   8.949  0.00  0.00     0.030 C 
BRANCH   2   3
ATOM      3  C11 ZIN A   1      18.960   1.758   8.278  0.00  0.00     0.028 C 
BRANCH   3   4
ATOM      4  C10 ZIN A   1      19.122   2.838   9.348  0.00  0.00     0.175 C 
BRANCH   4   5
ATOM      5  O9  ZIN A   1      17.899   2.976  10.074  0.00  0.00    -0.351 OA
BRANCH   5   6
ATOM      6  C8  ZIN A   1      17.902   3.826  11.133  0.00  0.00     0.070 A 
ATOM      7  C7  ZIN A   1      16.721   4.462  11.512  0.00  0.00     0.038 A 
ATOM      8  C6  ZIN A   1      16.705   5.320  12.573  0.00  0.00     0.016 A 
ATOM      9  C5  ZIN A   1      17.884   5.565  13.287  0.00  0.00    -0.009 A 
ATOM     10  C4  ZIN A   1      17.900   6.479  14.428  0.00  0.00     0.019 A 
ATOM     11  C31 ZIN A   1      19.081   4.925  12.908  0.00  0.00     0.048 A 
ATOM     12  C3  ZIN A   1      19.071   6.679  15.084  0.00  0.00     0.075 A 
ATOM     13  C2  ZIN A   1      20.242   6.015  14.665  0.00  0.00     0.245 A 
ATOM     14  O1  ZIN A   1      21.283   6.208  15.267  0.00  0.00    -0.268 OA
ATOM     15  N32 ZIN A   1      20.240   5.175  13.613  0.00  0.00    -0.323 N 
ATOM     16  H59 ZIN A   1      21.064   4.738  13.349  0.00  0.00     0.169 HD
ATOM     17  C30 ZIN A   1      19.078   4.055  11.826  0.00  0.00     0.067 A 
ENDBRANCH   5   6
ENDBRANCH   4   5
ENDBRANCH   3   4
ENDBRANCH   2   3
ENDBRANCH   1   2
BRANCH   1  18
ATOM     18  N14 ZIN A   1      19.732  -0.443  10.976  0.00  0.00    -0.069 N 
ATOM     19  H15 ZIN A   1      20.030  -1.387  11.175  0.00  0.00     0.280 HD
ATOM     20  C29 ZIN A   1      20.511   0.497  11.793  0.00  0.00     0.249 C 
ATOM     21  C28 ZIN A   1      20.304   0.179  13.275  0.00  0.00     0.123 C 
ATOM     22  N18 ZIN A   1      18.875   0.290  13.601  0.00  0.00    -0.280 NA
ATOM     23  C17 ZIN A   1      18.078  -0.628  12.774  0.00  0.00     0.123 C 
ATOM     24  C16 ZIN A   1      18.305  -0.305  11.295  0.00  0.00     0.249 C 
BRANCH  22  25
ATOM     25  C19 ZIN A   1      18.652   0.060  14.959  0.00  0.00     0.022 A 
ATOM     26  C27 ZIN A   1      18.291  -1.198  15.393  0.00  0.00     0.024 A 
ATOM     27  C26 ZIN A   1      18.074  -1.439  16.742  0.00  0.00     0.003 A 
ATOM     28  C25 ZIN A   1      18.205  -0.421  17.657  0.00  0.00     0.020 A 
ATOM     29  C24 ZIN A   1      18.563   0.866  17.241  0.00  0.00     0.016 A 
ATOM     30  C20 ZIN A   1      18.792   1.121  15.887  0.00  0.00     0.003 A 
ATOM     31  S23 ZIN A   1      18.801   2.341  18.170  0.00  0.00    -0.101 SA
ATOM     32  C21 ZIN A   1      19.152   2.509  15.651  0.00  0.00     0.021 A 
ATOM     33  C22 ZIN A   1      19.198   3.262  16.732  0.00  0.00     0.051 A 
ENDBRANCH  22  25
ENDBRANCH   1  18
TORSDOF 7
ENDMDL
MODEL 3
REMARK VINA RESULT:      -9.0      3.416      6.306
REMARK  7 active torsions:
REMARK  status: ('A' for Active; 'I' for Inactive)
REMARK    1  A    between atoms: C8_8  and  O9_9 
REMARK    2  A    between atoms: O9_9  and  C10_10 
REMARK    3  A    between atoms: C10_10  and  C11_11 
REMARK    4  A    between atoms: C11_11  and  C12_12 
REMARK    5  A    between atoms: C12_12  and  C13_13 
REMARK    6  A    between atoms: C13_13  and  N14_14 
REMARK    7  A    between atoms: N18_18  and  C19_19 
ROOT
ATOM      1  C13 ZIN A   1      18.123  -1.122   9.320  0.00  0.00     0.235 C 
ENDROOT
BRANCH   1   2
ATOM      2  C12 ZIN A   1      17.847  -0.200   8.132  0.00  0.00     0.030 C 
BRANCH   2   3
ATOM      3  C11 ZIN A   1      19.084   0.655   7.851  0.00  0.00     0.028 C 
BRANCH   3   4
ATOM      4  C10 ZIN A   1      18.869   2.063   8.410  0.00  0.00     0.175 C 
BRANCH   4   5
ATOM      5  O9  ZIN A   1      19.562   2.194   9.652  0.00  0.00    -0.351 OA
BRANCH   5   6
ATOM      6  C8  ZIN A   1      19.050   3.068  10.555  0.00  0.00     0.070 A 
ATOM      7  C7  ZIN A   1      17.702   3.416  10.492  0.00  0.00     0.038 A 
ATOM      8  C6  ZIN A   1      17.169   4.294  11.391  0.00  0.00     0.016 A 
ATOM      9  C5  ZIN A   1      17.982   4.850  12.385  0.00  0.00    -0.009 A 
ATOM     10  C4  ZIN A   1      17.441   5.794  13.363  0.00  0.00     0.019 A 
ATOM     11  C31 ZIN A   1      19.346   4.503  12.454  0.00  0.00     0.048 A 
ATOM     12  C3  ZIN A   1      18.276   6.302  14.305  0.00  0.00     0.075 A 
ATOM     13  C2  ZIN A   1      19.633   5.922  14.330  0.00  0.00     0.245 A 
ATOM     14  O1  ZIN A   1      20.365   6.391  15.185  0.00  0.00    -0.268 OA
ATOM     15  N32 ZIN A   1      20.142   5.059  13.433  0.00  0.00    -0.323 N 
ATOM     16  H59 ZIN A   1      21.082   4.823  13.477  0.00  0.00     0.169 HD
ATOM     17  C30 ZIN A   1      19.871   3.608  11.530  0.00  0.00     0.067 A 
ENDBRANCH   5   6
ENDBRANCH   4   5
ENDBRANCH   3   4
ENDBRANCH   2   3
ENDBRANCH   1   2
BRANCH   1  18
ATOM     18  N14 ZIN A   1      18.284  -0.317  10.538  0.00  0.00    -0.069 N 
ATOM     19  H15 ZIN A   1      18.528   0.629  10.286  0.00  0.00     0.280 HD
ATOM     20  C29 ZIN A   1      17.025  -0.314  11.294  0.00  0.00     0.249 C 
ATOM     21  C28 ZIN A   1      17.187   0.541  12.552  0.00  0.00     0.123 C 
ATOM     22  N18 ZIN A   1      18.271  -0.009  13.378  0.00  0.00    -0.280 NA
ATOM     23  C17 ZIN A   1      19.534  -0.042  12.627  0.00  0.00     0.123 C 
ATOM     24  C16 ZIN A   1      19.353  -0.892  11.366  0.00  0.00     0.249 C 
BRANCH  22  25
ATOM     25  C19 ZIN A   1      18.413   0.714  14.563  0.00  0.00     0.022 A 
ATOM     26  C27 ZIN A   1      18.235   2.080  14.560  0.00  0.00     0.024 A 
ATOM     27  C26 ZIN A   1      18.368   2.808  15.734  0.00  0.00     0.003 A 
ATOM     28  C25 ZIN A   1      18.691   2.172  16.910  0.00  0.00     0.020 A 
ATOM     29  C24 ZIN A   1      18.884   0.786  16.938  0.00  0.00     0.016 A 
ATOM     30  C20 ZIN A   1      18.747   0.041  15.765  0.00  0.00     0.003 A 
ATOM     31  S23 ZIN A   1      19.298  -0.283  18.273  0.00  0.00    -0.101 SA
ATOM     32  C21 ZIN A   1      18.984  -1.375  15.991  0.00  0.00     0.021 A 
ATOM     33  C22 ZIN A   1      19.279  -1.695  17.236  0.00  0.00     0.051 A 
ENDBRANCH  22  25
ENDBRANCH   1  18
TORSDOF 7
ENDMDL
MODEL 4
REMARK VINA RESULT:      -8.9      2.910      6.138
REMARK  7 active torsions:
REMARK  status: ('A' for Active; 'I' for Inactive)
REMARK    1  A    between atoms: C8_8  and  O9_9 
REMARK    2  A    between atoms: O9_9  and  C10_10 
REMARK    3  A    between atoms: C10_10  and  C11_11 
REMARK    4  A    between atoms: C11_11  and  C12_12 
REMARK    5  A    between atoms: C12_12  and  C13_13 
REMARK    6  A    between atoms: C13_13  and  N14_14 
REMARK    7  A    between atoms: N18_18  and  C19_19 
ROOT
ATOM      1  C13 ZIN A   1      17.827   1.650  12.627  0.00  0.00     0.235 C 
ENDROOT
BRANCH   1   2
ATOM      2  C12 ZIN A   1      19.100   1.128  13.295  0.00  0.00     0.030 C 
BRANCH   2   3
ATOM      3  C11 ZIN A   1      18.730   0.348  14.558  0.00  0.00     0.028 C 
BRANCH   3   4
ATOM      4  C10 ZIN A   1      18.710  -1.149  14.245  0.00  0.00     0.175 C 
BRANCH   4   5
ATOM      5  O9  ZIN A   1      19.469  -1.398  13.059  0.00  0.00    -0.351 OA
BRANCH   5   6
ATOM      6  C8  ZIN A   1      19.076  -2.440  12.283  0.00  0.00     0.070 A 
ATOM      7  C7  ZIN A   1      17.753  -2.879  12.334  0.00  0.00     0.038 A 
ATOM      8  C6  ZIN A   1      17.340  -3.925  11.562  0.00  0.00     0.016 A 
ATOM      9  C5  ZIN A   1      18.250  -4.563  10.710  0.00  0.00    -0.009 A 
ATOM     10  C4  ZIN A   1      17.838  -5.687   9.870  0.00  0.00     0.019 A 
ATOM     11  C31 ZIN A   1      19.588  -4.124  10.655  0.00  0.00     0.048 A 
ATOM     12  C3  ZIN A   1      18.762  -6.268   9.064  0.00  0.00     0.075 A 
ATOM     13  C2  ZIN A   1      20.089  -5.791   9.046  0.00  0.00     0.245 A 
ATOM     14  O1  ZIN A   1      20.903  -6.327   8.314  0.00  0.00    -0.268 OA
ATOM     15  N32 ZIN A   1      20.480  -4.761   9.818  0.00  0.00    -0.323 N 
ATOM     16  H59 ZIN A   1      21.402  -4.461   9.783  0.00  0.00     0.169 HD
ATOM     17  C30 ZIN A   1      19.991  -3.058  11.448  0.00  0.00     0.067 A 
ENDBRANCH   5   6
ENDBRANCH   4   5
ENDBRANCH   3   4
ENDBRANCH   2   3
ENDBRANCH   1   2
BRANCH   1  18
ATOM     18  N14 ZIN A   1      17.960   1.541  11.168  0.00  0.00    -0.069 N 
ATOM     19  H15 ZIN A   1      17.613   2.384  10.734  0.00  0.00     0.280 HD
ATOM     20  C29 ZIN A   1      19.374   1.357  10.816  0.00  0.00     0.249 C 
ATOM     21  C28 ZIN A   1      19.515   1.264   9.296  0.00  0.00     0.123 C 
ATOM     22  N18 ZIN A   1      18.719   0.130   8.802  0.00  0.00    -0.280 NA
ATOM     23  C17 ZIN A   1      17.304   0.289   9.167  0.00  0.00     0.123 C 
ATOM     24  C16 ZIN A   1      17.181   0.391  10.690  0.00  0.00     0.249 C 
BRANCH  22  25
ATOM     25  C19 ZIN A   1      18.865  -0.020   7.422  0.00  0.00     0.022 A 
ATOM     26  C27 ZIN A   1      19.053   1.089   6.626  0.00  0.00     0.024 A 
ATOM     27  C26 ZIN A   1      19.206   0.950   5.254  0.00  0.00     0.003 A 
ATOM     28  C25 ZIN A   1      19.158  -0.297   4.675  0.00  0.00     0.020 A 
ATOM     29  C24 ZIN A   1      18.961  -1.438   5.461  0.00  0.00     0.016 A 
ATOM     30  C20 ZIN A   1      18.813  -1.312   6.844  0.00  0.00     0.003 A 
ATOM     31  S23 ZIN A   1      18.857  -3.134   5.006  0.00  0.00    -0.101 SA
ATOM     32  C21 ZIN A   1      18.619  -2.601   7.487  0.00  0.00     0.021 A 
ATOM     33  C22 ZIN A   1      18.617  -3.635   6.668  0.00  0.00     0.051 A 
ENDBRANCH  22  25
ENDBRANCH   1  18
TORSDOF 7
ENDMDL
MODEL 5
REMARK VINA RESULT:      -8.6      3.397      7.412
REMARK  7 active torsions:
REMARK  status: ('A' for Active; 'I' for Inactive)
REMARK    1  A    between atoms: C8_8  and  O9_9 
REMARK    2  A    between atoms: O9_9  and  C10_10 
REMARK    3  A    between atoms: C10_10  and  C11_11 
REMARK    4  A    between atoms: C11_11  and  C12_12 
REMARK    5  A    between atoms: C12_12  and  C13_13 
REMARK    6  A    between atoms: C13_13  and  N14_14 
REMARK    7  A    between atoms: N18_18  and  C19_19 
ROOT
ATOM      1  C13 ZIN A   1      18.726   2.577   9.346  0.00  0.00     0.235 C 
ENDROOT
BRANCH   1   2
ATOM      2  C12 ZIN A   1      19.550   1.923   8.235  0.00  0.00     0.030 C 
BRANCH   2   3
ATOM      3  C11 ZIN A   1      18.631   1.082   7.346  0.00  0.00     0.028 C 
BRANCH   3   4
ATOM      4  C10 ZIN A   1      19.054  -0.386   7.420  0.00  0.00     0.175 C 
BRANCH   4   5
ATOM      5  O9  ZIN A   1      19.567  -0.669   8.723  0.00  0.00    -0.351 OA
BRANCH   5   6
ATOM      6  C8  ZIN A   1      19.124  -1.802   9.327  0.00  0.00     0.070 A 
ATOM      7  C7  ZIN A   1      19.534  -2.097  10.627  0.00  0.00     0.038 A 
ATOM      8  C6  ZIN A   1      19.101  -3.231  11.250  0.00  0.00     0.016 A 
ATOM      9  C5  ZIN A   1      18.236  -4.105  10.580  0.00  0.00    -0.009 A 
ATOM     10  C4  ZIN A   1      17.754  -5.328  11.221  0.00  0.00     0.019 A 
ATOM     11  C31 ZIN A   1      17.819  -3.812   9.267  0.00  0.00     0.048 A 
ATOM     12  C3  ZIN A   1      16.918  -6.139  10.525  0.00  0.00     0.075 A 
ATOM     13  C2  ZIN A   1      16.530  -5.801   9.213  0.00  0.00     0.245 A 
ATOM     14  O1  ZIN A   1      15.778  -6.543   8.605  0.00  0.00    -0.268 OA
ATOM     15  N32 ZIN A   1      16.971  -4.681   8.612  0.00  0.00    -0.323 N 
ATOM     16  H59 ZIN A   1      16.688  -4.481   7.706  0.00  0.00     0.169 HD
ATOM     17  C30 ZIN A   1      18.271  -2.654   8.648  0.00  0.00     0.067 A 
ENDBRANCH   5   6
ENDBRANCH   4   5
ENDBRANCH   3   4
ENDBRANCH   2   3
ENDBRANCH   1   2
BRANCH   1  18
ATOM     18  N14 ZIN A   1      18.728   1.710  10.532  0.00  0.00    -0.069 N 
ATOM     19  H15 ZIN A   1      18.663   0.745  10.244  0.00  0.00     0.280 HD
ATOM     20  C29 ZIN A   1      19.973   1.913  11.285  0.00  0.00     0.249 C 
ATOM     21  C28 ZIN A   1      19.984   0.996  12.510  0.00  0.00     0.123 C 
ATOM     22  N18 ZIN A   1      18.824   1.303  13.358  0.00  0.00    -0.280 NA
ATOM     23  C17 ZIN A   1      17.570   1.128  12.611  0.00  0.00     0.123 C 
ATOM     24  C16 ZIN A   1      17.579   2.044  11.384  0.00  0.00     0.249 C 
BRANCH  22  25
ATOM     25  C19 ZIN A   1      18.829   0.522  14.515  0.00  0.00     0.022 A 
ATOM     26  C27 ZIN A   1      18.730  -0.849  14.418  0.00  0.00     0.024 A 
ATOM     27  C26 ZIN A   1      18.741  -1.635  15.562  0.00  0.00     0.003 A 
ATOM     28  C25 ZIN A   1      18.839  -1.051  16.803  0.00  0.00     0.020 A 
ATOM     29  C24 ZIN A   1      18.934   0.340  16.928  0.00  0.00     0.016 A 
ATOM     30  C20 ZIN A   1      18.931   1.142  15.785  0.00  0.00     0.003 A 
ATOM     31  S23 ZIN A   1      19.068   1.351  18.361  0.00  0.00    -0.101 SA
ATOM     32  C21 ZIN A   1      19.037   2.554  16.114  0.00  0.00     0.021 A 
ATOM     33  C22 ZIN A   1      19.116   2.818  17.403  0.00  0.00     0.051 A 
ENDBRANCH  22  25
ENDBRANCH   1  18
TORSDOF 7
ENDMDL
MODEL 6
REMARK VINA RESULT:      -8.6      2.474      5.805
REMARK  7 active torsions:
REMARK  status: ('A' for Active; 'I' for Inactive)
REMARK    1  A    between atoms: C8_8  and  O9_9 
REMARK    2  A    between atoms: O9_9  and  C10_10 
REMARK    3  A    between atoms: C10_10  and  C11_11 
REMARK    4  A    between atoms: C11_11  and  C12_12 
REMARK    5  A    between atoms: C12_12  and  C13_13 
REMARK    6  A    between atoms: C13_13  and  N14_14 
REMARK    7  A    between atoms: N18_18  and  C19_19 
ROOT
ATOM      1  C13 ZIN A   1      18.662  -1.153  16.068  0.00  0.00     0.235 C 
ENDROOT
BRANCH   1   2
ATOM      2  C12 ZIN A   1      17.429  -0.545  16.738  0.00  0.00     0.030 C 
BRANCH   2   3
ATOM      3  C11 ZIN A   1      17.822   0.037  18.098  0.00  0.00     0.028 C 
BRANCH   3   4
ATOM      4  C10 ZIN A   1      19.341   0.204  18.161  0.00  0.00     0.175 C 
BRANCH   4   5
ATOM      5  O9  ZIN A   1      19.657   1.527  18.598  0.00  0.00    -0.351 OA
BRANCH   5   6
ATOM      6  C8  ZIN A   1      19.201   2.554  17.836  0.00  0.00     0.070 A 
ATOM      7  C7  ZIN A   1      18.396   3.537  18.410  0.00  0.00     0.038 A 
ATOM      8  C6  ZIN A   1      17.928   4.575  17.659  0.00  0.00     0.016 A 
ATOM      9  C5  ZIN A   1      18.259   4.656  16.301  0.00  0.00    -0.009 A 
ATOM     10  C4  ZIN A   1      17.773   5.757  15.470  0.00  0.00     0.019 A 
ATOM     11  C31 ZIN A   1      19.072   3.665  15.715  0.00  0.00     0.048 A 
ATOM     12  C3  ZIN A   1      18.124   5.785  14.159  0.00  0.00     0.075 A 
ATOM     13  C2  ZIN A   1      18.940   4.769  13.621  0.00  0.00     0.245 A 
ATOM     14  O1  ZIN A   1      19.244   4.813  12.442  0.00  0.00    -0.268 OA
ATOM     15  N32 ZIN A   1      19.388   3.749  14.375  0.00  0.00    -0.323 N 
ATOM     16  H59 ZIN A   1      19.944   3.064  13.972  0.00  0.00     0.169 HD
ATOM     17  C30 ZIN A   1      19.538   2.615  16.495  0.00  0.00     0.067 A 
ENDBRANCH   5   6
ENDBRANCH   4   5
ENDBRANCH   3   4
ENDBRANCH   2   3
ENDBRANCH   1   2
BRANCH   1  18
ATOM     18  N14 ZIN A   1      18.901  -0.484  14.783  0.00  0.00    -0.069 N 
ATOM     19  H15 ZIN A   1      19.581   0.251  14.907  0.00  0.00     0.280 HD
ATOM     20  C29 ZIN A   1      19.407  -1.460  13.808  0.00  0.00     0.249 C 
ATOM     21  C28 ZIN A   1      19.675  -0.758  12.475  0.00  0.00     0.123 C 
ATOM     22  N18 ZIN A   1      18.428  -0.154  11.984  0.00  0.00    -0.280 NA
ATOM     23  C17 ZIN A   1      17.896   0.808  12.960  0.00  0.00     0.123 C 
ATOM     24  C16 ZIN A   1      17.643   0.094  14.291  0.00  0.00     0.249 C 
BRANCH  22  25
ATOM     25  C19 ZIN A   1      18.621   0.451  10.741  0.00  0.00     0.022 A 
ATOM     26  C27 ZIN A   1      18.895   1.799  10.668  0.00  0.00     0.024 A 
ATOM     27  C26 ZIN A   1      19.094   2.408   9.437  0.00  0.00     0.003 A 
ATOM     28  C25 ZIN A   1      19.008   1.673   8.278  0.00  0.00     0.020 A 
ATOM     29  C24 ZIN A   1      18.724   0.303   8.326  0.00  0.00     0.016 A 
ATOM     30  C20 ZIN A   1      18.527  -0.324   9.558  0.00  0.00     0.003 A 
ATOM     31  S23 ZIN A   1      18.553  -0.873   7.029  0.00  0.00    -0.101 SA
ATOM     32  C21 ZIN A   1      18.244  -1.741   9.406  0.00  0.00     0.021 A 
ATOM     33  C22 ZIN A   1      18.224  -2.172   8.160  0.00  0.00     0.051 A 
ENDBRANCH  22  25
ENDBRANCH   1  18
TORSDOF 7
ENDMDL
MODEL 7
REMARK VINA RESULT:      -8.5      3.333      7.734
REMARK  7 active torsions:
REMARK  status: ('A' for Active; 'I' for Inactive)
REMARK    1  A    between atoms: C8_8  and  O9_9 
REMARK    2  A    between atoms: O9_9  and  C10_10 
REMARK    3  A    between atoms: C10_10  and  C11_11 
REMARK    4  A    between atoms: C11_11  and  C12_12 
REMARK    5  A    between atoms: C12_12  and  C13_13 
REMARK    6  A    between atoms: C13_13  and  N14_14 
REMARK    7  A    between atoms: N18_18  and  C19_19 
ROOT
ATOM      1  C13 ZIN A   1      19.917  -2.454  11.309  0.00  0.00     0.235 C 
ENDROOT
BRANCH   1   2
ATOM      2  C12 ZIN A   1      19.300  -3.850  11.409  0.00  0.00     0.030 C 
BRANCH   2   3
ATOM      3  C11 ZIN A   1      18.916  -4.340  10.011  0.00  0.00     0.028 C 
BRANCH   3   4
ATOM      4  C10 ZIN A   1      17.634  -3.639   9.559  0.00  0.00     0.175 C 
BRANCH   4   5
ATOM      5  O9  ZIN A   1      17.879  -2.936   8.340  0.00  0.00    -0.351 OA
BRANCH   5   6
ATOM      6  C8  ZIN A   1      18.130  -1.605   8.435  0.00  0.00     0.070 A 
ATOM      7  C7  ZIN A   1      18.907  -0.977   7.462  0.00  0.00     0.038 A 
ATOM      8  C6  ZIN A   1      19.171   0.359   7.542  0.00  0.00     0.016 A 
ATOM      9  C5  ZIN A   1      18.657   1.107   8.608  0.00  0.00    -0.009 A 
ATOM     10  C4  ZIN A   1      18.921   2.541   8.721  0.00  0.00     0.019 A 
ATOM     11  C31 ZIN A   1      17.871   0.478   9.594  0.00  0.00     0.048 A 
ATOM     12  C3  ZIN A   1      18.399   3.216   9.775  0.00  0.00     0.075 A 
ATOM     13  C2  ZIN A   1      17.619   2.540  10.736  0.00  0.00     0.245 A 
ATOM     14  O1  ZIN A   1      17.159   3.165  11.675  0.00  0.00    -0.268 OA
ATOM     15  N32 ZIN A   1      17.373   1.220  10.644  0.00  0.00    -0.323 N 
ATOM     16  H59 ZIN A   1      16.837   0.786  11.325  0.00  0.00     0.169 HD
ATOM     17  C30 ZIN A   1      17.614  -0.883   9.497  0.00  0.00     0.067 A 
ENDBRANCH   5   6
ENDBRANCH   4   5
ENDBRANCH   3   4
ENDBRANCH   2   3
ENDBRANCH   1   2
BRANCH   1  18
ATOM     18  N14 ZIN A   1      19.935  -1.830  12.639  0.00  0.00    -0.069 N 
ATOM     19  H15 ZIN A   1      20.689  -2.223  13.184  0.00  0.00     0.280 HD
ATOM     20  C29 ZIN A   1      20.135  -0.382  12.498  0.00  0.00     0.249 C 
ATOM     21  C28 ZIN A   1      20.174   0.265  13.884  0.00  0.00     0.123 C 
ATOM     22  N18 ZIN A   1      18.910  -0.005  14.583  0.00  0.00    -0.280 NA
ATOM     23  C17 ZIN A   1      18.683  -1.452  14.710  0.00  0.00     0.123 C 
ATOM     24  C16 ZIN A   1      18.657  -2.086  13.316  0.00  0.00     0.249 C 
BRANCH  22  25
ATOM     25  C19 ZIN A   1      18.886   0.616  15.832  0.00  0.00     0.022 A 
ATOM     26  C27 ZIN A   1      19.050  -0.135  16.976  0.00  0.00     0.024 A 
ATOM     27  C26 ZIN A   1      19.034   0.473  18.223  0.00  0.00     0.003 A 
ATOM     28  C25 ZIN A   1      18.843   1.831  18.329  0.00  0.00     0.020 A 
ATOM     29  C24 ZIN A   1      18.669   2.615  17.182  0.00  0.00     0.016 A 
ATOM     30  C20 ZIN A   1      18.689   2.016  15.921  0.00  0.00     0.003 A 
ATOM     31  S23 ZIN A   1      18.408   4.346  17.011  0.00  0.00    -0.101 SA
ATOM     32  C21 ZIN A   1      18.491   2.987  14.857  0.00  0.00     0.021 A 
ATOM     33  C22 ZIN A   1      18.332   4.231  15.264  0.00  0.00     0.051 A 
ENDBRANCH  22  25
ENDBRANCH   1  18
TORSDOF 7
ENDMDL
MODEL 8
REMARK VINA RESULT:      -8.3      2.517      4.114
REMARK  7 active torsions:
REMARK  status: ('A' for Active; 'I' for Inactive)
REMARK    1  A    between atoms: C8_8  and  O9_9 
REMARK    2  A    between atoms: O9_9  and  C10_10 
REMARK    3  A    between atoms: C10_10  and  C11_11 
REMARK    4  A    between atoms: C11_11  and  C12_12 
REMARK    5  A    between atoms: C12_12  and  C13_13 
REMARK    6  A    between atoms: C13_13  and  N14_14 
REMARK    7  A    between atoms: N18_18  and  C19_19 
ROOT
ATOM      1  C13 ZIN A   1      17.776   3.023  11.785  0.00  0.00     0.235 C 
ENDROOT
BRANCH   1   2
ATOM      2  C12 ZIN A   1      17.001   4.341  11.748  0.00  0.00     0.030 C 
BRANCH   2   3
ATOM      3  C11 ZIN A   1      17.510   5.263  12.857  0.00  0.00     0.028 C 
BRANCH   3   4
ATOM      4  C10 ZIN A   1      18.782   4.674  13.468  0.00  0.00     0.175 C 
BRANCH   4   5
ATOM      5  O9  ZIN A   1      18.858   5.032  14.849  0.00  0.00    -0.351 OA
BRANCH   5   6
ATOM      6  C8  ZIN A   1      18.863   4.017  15.751  0.00  0.00     0.070 A 
ATOM      7  C7  ZIN A   1      18.868   4.305  17.115  0.00  0.00     0.038 A 
ATOM      8  C6  ZIN A   1      18.874   3.298  18.036  0.00  0.00     0.016 A 
ATOM      9  C5  ZIN A   1      18.874   1.965  17.608  0.00  0.00    -0.009 A 
ATOM     10  C4  ZIN A   1      18.880   0.863  18.570  0.00  0.00     0.019 A 
ATOM     11  C31 ZIN A   1      18.868   1.668  16.231  0.00  0.00     0.048 A 
ATOM     12  C3  ZIN A   1      18.879  -0.410  18.100  0.00  0.00     0.075 A 
ATOM     13  C2  ZIN A   1      18.874  -0.653  16.711  0.00  0.00     0.245 A 
ATOM     14  O1  ZIN A   1      18.874  -1.804  16.310  0.00  0.00    -0.268 OA
ATOM     15  N32 ZIN A   1      18.874   0.352  15.817  0.00  0.00    -0.323 N 
ATOM     16  H59 ZIN A   1      18.874   0.148  14.869  0.00  0.00     0.169 HD
ATOM     17  C30 ZIN A   1      18.863   2.706  15.308  0.00  0.00     0.067 A 
ENDBRANCH   5   6
ENDBRANCH   4   5
ENDBRANCH   3   4
ENDBRANCH   2   3
ENDBRANCH   1   2
BRANCH   1  18
ATOM     18  N14 ZIN A   1      17.831   2.448  10.434  0.00  0.00    -0.069 N 
ATOM     19  H15 ZIN A   1      17.208   2.958   9.826  0.00  0.00     0.280 HD
ATOM     20  C29 ZIN A   1      19.203   2.541   9.918  0.00  0.00     0.249 C 
ATOM     21  C28 ZIN A   1      19.256   1.961   8.503  0.00  0.00     0.123 C 
ATOM     22  N18 ZIN A   1      18.822   0.557   8.536  0.00  0.00    -0.280 NA
ATOM     23  C17 ZIN A   1      17.458   0.446   9.074  0.00  0.00     0.123 C 
ATOM     24  C16 ZIN A   1      17.420   1.039  10.485  0.00  0.00     0.249 C 
BRANCH  22  25
ATOM     25  C19 ZIN A   1      18.908  -0.023   7.269  0.00  0.00     0.022 A 
ATOM     26  C27 ZIN A   1      18.876   0.773   6.145  0.00  0.00     0.024 A 
ATOM     27  C26 ZIN A   1      18.967   0.207   4.882  0.00  0.00     0.003 A 
ATOM     28  C25 ZIN A   1      19.079  -1.156   4.740  0.00  0.00     0.020 A 
ATOM     29  C24 ZIN A   1      19.108  -1.987   5.866  0.00  0.00     0.016 A 
ATOM     30  C20 ZIN A   1      19.023  -1.429   7.144  0.00  0.00     0.003 A 
ATOM     31  S23 ZIN A   1      19.240  -3.737   5.991  0.00  0.00    -0.101 SA
ATOM     32  C21 ZIN A   1      19.068  -2.446   8.182  0.00  0.00     0.021 A 
ATOM     33  C22 ZIN A   1      19.179  -3.683   7.742  0.00  0.00     0.051 A 
ENDBRANCH  22  25
ENDBRANCH   1  18
TORSDOF 7
ENDMDL
MODEL 9
REMARK VINA RESULT:      -8.3      0.942      2.016
REMARK  7 active torsions:
REMARK  status: ('A' for Active; 'I' for Inactive)
REMARK    1  A    between atoms: C8_8  and  O9_9 
REMARK    2  A    between atoms: O9_9  and  C10_10 
REMARK    3  A    between atoms: C10_10  and  C11_11 
REMARK    4  A    between atoms: C11_11  and  C12_12 
REMARK    5  A    between atoms: C12_12  and  C13_13 
REMARK    6  A    between atoms: C13_13  and  N14_14 
REMARK    7  A    between atoms: N18_18  and  C19_19 
ROOT
ATOM      1  C13 ZIN A   1      19.595   2.628   9.899  0.00  0.00     0.235 C 
ENDROOT
BRANCH   1   2
ATOM      2  C12 ZIN A   1      18.254   3.246   9.502  0.00  0.00     0.030 C 
BRANCH   2   3
ATOM      3  C11 ZIN A   1      17.698   4.056  10.675  0.00  0.00     0.028 C 
BRANCH   3   4
ATOM      4  C10 ZIN A   1      18.096   3.386  11.992  0.00  0.00     0.175 C 
BRANCH   4   5
ATOM      5  O9  ZIN A   1      17.274   2.238  12.209  0.00  0.00    -0.351 OA
BRANCH   5   6
ATOM      6  C8  ZIN A   1      17.608   1.427  13.246  0.00  0.00     0.070 A 
ATOM      7  C7  ZIN A   1      17.457   0.047  13.120  0.00  0.00     0.038 A 
ATOM      8  C6  ZIN A   1      17.786  -0.784  14.151  0.00  0.00     0.016 A 
ATOM      9  C5  ZIN A   1      18.281  -0.247  15.346  0.00  0.00    -0.009 A 
ATOM     10  C4  ZIN A   1      18.643  -1.110  16.469  0.00  0.00     0.019 A 
ATOM     11  C31 ZIN A   1      18.436   1.148  15.479  0.00  0.00     0.048 A 
ATOM     12  C3  ZIN A   1      19.117  -0.536  17.603  0.00  0.00     0.075 A 
ATOM     13  C2  ZIN A   1      19.253   0.865  17.686  0.00  0.00     0.245 A 
ATOM     14  O1  ZIN A   1      19.681   1.361  18.714  0.00  0.00    -0.268 OA
ATOM     15  N32 ZIN A   1      18.918   1.670  16.661  0.00  0.00    -0.323 N 
ATOM     16  H59 ZIN A   1      19.020   2.629  16.753  0.00  0.00     0.169 HD
ATOM     17  C30 ZIN A   1      18.094   1.977  14.419  0.00  0.00     0.067 A 
ENDBRANCH   5   6
ENDBRANCH   4   5
ENDBRANCH   3   4
ENDBRANCH   2   3
ENDBRANCH   1   2
BRANCH   1  18
ATOM     18  N14 ZIN A   1      19.678   1.258   9.376  0.00  0.00    -0.069 N 
ATOM     19  H15 ZIN A   1      20.522   1.156   8.831  0.00  0.00     0.280 HD
ATOM     20  C29 ZIN A   1      19.699   0.306  10.494  0.00  0.00     0.249 C 
ATOM     21  C28 ZIN A   1      19.805  -1.120   9.949  0.00  0.00     0.123 C 
ATOM     22  N18 ZIN A   1      18.656  -1.393   9.074  0.00  0.00    -0.280 NA
ATOM     23  C17 ZIN A   1      18.607  -0.432   7.962  0.00  0.00     0.123 C 
ATOM     24  C16 ZIN A   1      18.512   0.989   8.524  0.00  0.00     0.249 C 
BRANCH  22  25
ATOM     25  C19 ZIN A   1      18.690  -2.705   8.599  0.00  0.00     0.022 A 
ATOM     26  C27 ZIN A   1      19.288  -2.983   7.389  0.00  0.00     0.024 A 
ATOM     27  C26 ZIN A   1      19.332  -4.285   6.911  0.00  0.00     0.003 A 
ATOM     28  C25 ZIN A   1      18.768  -5.309   7.636  0.00  0.00     0.020 A 
ATOM     29  C24 ZIN A   1      18.149  -5.051   8.865  0.00  0.00     0.016 A 
ATOM     30  C20 ZIN A   1      18.103  -3.746   9.360  0.00  0.00     0.003 A 
ATOM     31  S23 ZIN A   1      17.355  -6.142   9.994  0.00  0.00    -0.101 SA
ATOM     32  C21 ZIN A   1      17.423  -3.678  10.643  0.00  0.00     0.021 A 
ATOM     33  C22 ZIN A   1      16.981  -4.833  11.099  0.00  0.00     0.051 A 
ENDBRANCH  22  25
ENDBRANCH   1  18
TORSDOF 7
ENDMDL
