MODEL 1
REMARK VINA RESULT:      -8.3      0.000      0.000
REMARK  1 active torsions:
REMARK  status: ('A' for Active; 'I' for Inactive)
REMARK    1  A    between atoms: C8_8  and  C9_9 
ROOT
ATOM      1  C1  ZIN A   1      17.131   0.221   9.306  0.00  0.00     0.091 C 
ATOM      2  C2  ZIN A   1      18.465  -0.027   9.962  0.00  0.00     0.107 A 
ATOM      3  N3  ZIN A   1      19.315  -0.966   9.637  0.00  0.00    -0.245 NA
ATOM      4  C4  ZIN A   1      20.386  -0.896  10.445  0.00  0.00     0.145 A 
ATOM      5  C5  ZIN A   1      20.193   0.119  11.301  0.00  0.00     0.056 A 
ATOM      6  C6  ZIN A   1      21.095   0.552  12.429  0.00  0.00     0.208 C 
ATOM      7  N7  ZIN A   1      20.336   0.432  13.679  0.00  0.00    -0.282 NA
ATOM      8  C8  ZIN A   1      19.257   1.102  13.886  0.00  0.00     0.077 C 
ATOM      9  C16 ZIN A   1      18.591   2.043  12.980  0.00  0.00     0.022 A 
ATOM     10  C17 ZIN A   1      18.083   3.234  13.523  0.00  0.00     0.040 A 
ATOM     11  C18 ZIN A   1      17.421   4.140  12.725  0.00  0.00     0.035 A 
ATOM     12 Cl19 ZIN A   1      16.805   5.610  13.415  0.00  0.00    -0.084 Cl
ATOM     13  C20 ZIN A   1      17.246   3.884  11.375  0.00  0.00     0.026 A 
ATOM     14  C21 ZIN A   1      17.749   2.725  10.824  0.00  0.00     0.032 A 
ATOM     15  C22 ZIN A   1      18.434   1.807  11.613  0.00  0.00     0.053 A 
ATOM     16  N23 ZIN A   1      18.992   0.690  10.988  0.00  0.00    -0.300 N 
ENDROOT
BRANCH   8  17
ATOM     17  C9  ZIN A   1      18.610   0.901  15.202  0.00  0.00     0.032 A 
ATOM     18  C14 ZIN A   1      18.981   1.689  16.295  0.00  0.00     0.129 A 
ATOM     19  C13 ZIN A   1      18.368   1.499  17.519  0.00  0.00     0.043 A 
ATOM     20  F15 ZIN A   1      19.927   2.643  16.152  0.00  0.00    -0.205 F 
ATOM     21  C12 ZIN A   1      17.399   0.524  17.666  0.00  0.00     0.003 A 
ATOM     22  C11 ZIN A   1      17.032  -0.265  16.589  0.00  0.00     0.001 A 
ATOM     23  C10 ZIN A   1      17.632  -0.081  15.360  0.00  0.00     0.017 A 
ENDBRANCH   8  17
TORSDOF 1
ENDMDL
MODEL 2
REMARK VINA RESULT:      -8.0      3.442      5.943
REMARK  1 active torsions:
REMARK  status: ('A' for Active; 'I' for Inactive)
REMARK    1  A    between atoms: C8_8  and  C9_9 
ROOT
ATOM      1  C1  ZIN A   1      20.524   2.994  11.513  0.00  0.00     0.091 C 
ATOM      2  C2  ZIN A   1      19.281   2.336  12.053  0.00  0.00     0.107 A 
ATOM      3  N3  ZIN A   1      18.793   2.494  13.256  0.00  0.00    -0.245 NA
ATOM      4  C4  ZIN A   1      17.688   1.742  13.391  0.00  0.00     0.145 A 
ATOM      5  C5  ZIN A   1      17.486   1.093  12.233  0.00  0.00     0.056 A 
ATOM      6  C6  ZIN A   1      16.402   0.094  11.920  0.00  0.00     0.208 C 
ATOM      7  N7  ZIN A   1      17.052  -1.174  11.570  0.00  0.00    -0.282 NA
ATOM      8  C8  ZIN A   1      17.849  -1.274  10.564  0.00  0.00     0.077 C 
ATOM      9  C16 ZIN A   1      18.267  -0.219   9.635  0.00  0.00     0.022 A 
ATOM     10  C17 ZIN A   1      18.335  -0.534   8.268  0.00  0.00     0.040 A 
ATOM     11  C18 ZIN A   1      18.750   0.408   7.354  0.00  0.00     0.035 A 
ATOM     12 Cl19 ZIN A   1      18.821   0.002   5.667  0.00  0.00    -0.084 Cl
ATOM     13  C20 ZIN A   1      19.109   1.678   7.774  0.00  0.00     0.026 A 
ATOM     14  C21 ZIN A   1      19.038   2.007   9.111  0.00  0.00     0.032 A 
ATOM     15  C22 ZIN A   1      18.604   1.072  10.046  0.00  0.00     0.053 A 
ATOM     16  N23 ZIN A   1      18.474   1.482  11.374  0.00  0.00    -0.300 N 
ENDROOT
BRANCH   8  17
ATOM     17  C9  ZIN A   1      18.412  -2.620  10.314  0.00  0.00     0.032 A 
ATOM     18  C14 ZIN A   1      19.492  -3.081  11.071  0.00  0.00     0.129 A 
ATOM     19  C13 ZIN A   1      20.008  -4.342  10.835  0.00  0.00     0.043 A 
ATOM     20  F15 ZIN A   1      20.022  -2.303  12.039  0.00  0.00    -0.205 F 
ATOM     21  C12 ZIN A   1      19.465  -5.140   9.845  0.00  0.00     0.003 A 
ATOM     22  C11 ZIN A   1      18.400  -4.685   9.087  0.00  0.00     0.001 A 
ATOM     23  C10 ZIN A   1      17.871  -3.432   9.316  0.00  0.00     0.017 A 
ENDBRANCH   8  17
TORSDOF 1
ENDMDL
MODEL 3
REMARK VINA RESULT:      -7.8      3.259      6.551
REMARK  1 active torsions:
REMARK  status: ('A' for Active; 'I' for Inactive)
REMARK    1  A    between atoms: C8_8  and  C9_9 
ROOT
ATOM      1  C1  ZIN A   1      17.078   0.647  14.835  0.00  0.00     0.091 C 
ATOM      2  C2  ZIN A   1      17.907   1.682  14.119  0.00  0.00     0.107 A 
ATOM      3  N3  ZIN A   1      17.910   2.966  14.370  0.00  0.00    -0.245 NA
ATOM      4  C4  ZIN A   1      18.756   3.582  13.527  0.00  0.00     0.145 A 
ATOM      5  C5  ZIN A   1      19.294   2.648  12.725  0.00  0.00     0.056 A 
ATOM      6  C6  ZIN A   1      20.258   2.863  11.587  0.00  0.00     0.208 C 
ATOM      7  N7  ZIN A   1      19.617   2.372  10.362  0.00  0.00    -0.282 NA
ATOM      8  C8  ZIN A   1      19.264   1.142  10.225  0.00  0.00     0.077 C 
ATOM      9  C16 ZIN A   1      19.394   0.052  11.198  0.00  0.00     0.022 A 
ATOM     10  C17 ZIN A   1      19.814  -1.203  10.729  0.00  0.00     0.040 A 
ATOM     11  C18 ZIN A   1      19.924  -2.270  11.591  0.00  0.00     0.035 A 
ATOM     12 Cl19 ZIN A   1      20.450  -3.813  10.993  0.00  0.00    -0.084 Cl
ATOM     13  C20 ZIN A   1      19.618  -2.117  12.933  0.00  0.00     0.026 A 
ATOM     14  C21 ZIN A   1      19.215  -0.889  13.412  0.00  0.00     0.032 A 
ATOM     15  C22 ZIN A   1      19.115   0.204  12.557  0.00  0.00     0.053 A 
ATOM     16  N23 ZIN A   1      18.781   1.442  13.109  0.00  0.00    -0.300 N 
ENDROOT
BRANCH   8  17
ATOM     17  C9  ZIN A   1      18.653   0.783   8.926  0.00  0.00     0.032 A 
ATOM     18  C14 ZIN A   1      17.413   0.138   8.887  0.00  0.00     0.129 A 
ATOM     19  C13 ZIN A   1      16.847  -0.189   7.669  0.00  0.00     0.043 A 
ATOM     20  F15 ZIN A   1      16.766  -0.154  10.035  0.00  0.00    -0.205 F 
ATOM     21  C12 ZIN A   1      17.509   0.111   6.493  0.00  0.00     0.003 A 
ATOM     22  C11 ZIN A   1      18.739   0.743   6.525  0.00  0.00     0.001 A 
ATOM     23  C10 ZIN A   1      19.313   1.081   7.733  0.00  0.00     0.017 A 
ENDBRANCH   8  17
TORSDOF 1
ENDMDL
MODEL 4
REMARK VINA RESULT:      -7.8      4.020      7.309
REMARK  1 active torsions:
REMARK  status: ('A' for Active; 'I' for Inactive)
REMARK    1  A    between atoms: C8_8  and  C9_9 
ROOT
ATOM      1  C1  ZIN A   1      16.999  -0.077  13.473  0.00  0.00     0.091 C 
ATOM      2  C2  ZIN A   1      18.361   0.138  12.866  0.00  0.00     0.107 A 
ATOM      3  N3  ZIN A   1      19.203   1.083  13.192  0.00  0.00    -0.245 NA
ATOM      4  C4  ZIN A   1      20.308   0.977  12.434  0.00  0.00     0.145 A 
ATOM      5  C5  ZIN A   1      20.143  -0.069  11.608  0.00  0.00     0.056 A 
ATOM      6  C6  ZIN A   1      21.089  -0.549  10.538  0.00  0.00     0.208 C 
ATOM      7  N7  ZIN A   1      20.385  -0.472   9.253  0.00  0.00    -0.282 NA
ATOM      8  C8  ZIN A   1      19.311  -1.143   9.024  0.00  0.00     0.077 C 
ATOM      9  C16 ZIN A   1      18.600  -2.045   9.936  0.00  0.00     0.022 A 
ATOM     10  C17 ZIN A   1      18.106  -3.253   9.416  0.00  0.00     0.040 A 
ATOM     11  C18 ZIN A   1      17.404  -4.124  10.219  0.00  0.00     0.035 A 
ATOM     12 Cl19 ZIN A   1      16.807  -5.615   9.559  0.00  0.00    -0.084 Cl
ATOM     13  C20 ZIN A   1      17.174  -3.816  11.549  0.00  0.00     0.026 A 
ATOM     14  C21 ZIN A   1      17.661  -2.640  12.078  0.00  0.00     0.032 A 
ATOM     15  C22 ZIN A   1      18.387  -1.756  11.285  0.00  0.00     0.053 A 
ATOM     16  N23 ZIN A   1      18.925  -0.620  11.892  0.00  0.00    -0.300 N 
ENDROOT
BRANCH   8  17
ATOM     17  C9  ZIN A   1      18.723  -0.988   7.675  0.00  0.00     0.032 A 
ATOM     18  C14 ZIN A   1      17.552  -0.246   7.501  0.00  0.00     0.129 A 
ATOM     19  C13 ZIN A   1      17.012  -0.101   6.236  0.00  0.00     0.043 A 
ATOM     20  F15 ZIN A   1      16.955   0.337   8.563  0.00  0.00    -0.205 F 
ATOM     21  C12 ZIN A   1      17.623  -0.697   5.149  0.00  0.00     0.003 A 
ATOM     22  C11 ZIN A   1      18.779  -1.438   5.316  0.00  0.00     0.001 A 
ATOM     23  C10 ZIN A   1      19.332  -1.586   6.571  0.00  0.00     0.017 A 
ENDBRANCH   8  17
TORSDOF 1
ENDMDL
MODEL 5
REMARK VINA RESULT:      -7.7      4.691      6.830
REMARK  1 active torsions:
REMARK  status: ('A' for Active; 'I' for Inactive)
REMARK    1  A    between atoms: C8_8  and  C9_9 
ROOT
ATOM      1  C1  ZIN A   1      15.808  -5.485   9.030  0.00  0.00     0.091 C 
ATOM      2  C2  ZIN A   1      16.920  -5.197  10.005  0.00  0.00     0.107 A 
ATOM      3  N3  ZIN A   1      17.033  -5.700  11.206  0.00  0.00    -0.245 NA
ATOM      4  C4  ZIN A   1      18.138  -5.208  11.793  0.00  0.00     0.145 A 
ATOM      5  C5  ZIN A   1      18.727  -4.370  10.926  0.00  0.00     0.056 A 
ATOM      6  C6  ZIN A   1      19.964  -3.539  11.151  0.00  0.00     0.208 C 
ATOM      7  N7  ZIN A   1      19.590  -2.129  10.996  0.00  0.00    -0.282 NA
ATOM      8  C8  ZIN A   1      19.120  -1.669   9.890  0.00  0.00     0.077 C 
ATOM      9  C16 ZIN A   1      18.855  -2.401   8.647  0.00  0.00     0.022 A 
ATOM     10  C17 ZIN A   1      19.206  -1.788   7.434  0.00  0.00     0.040 A 
ATOM     11  C18 ZIN A   1      18.954  -2.415   6.235  0.00  0.00     0.035 A 
ATOM     12 Cl19 ZIN A   1      19.400  -1.643   4.745  0.00  0.00    -0.084 Cl
ATOM     13  C20 ZIN A   1      18.346  -3.660   6.213  0.00  0.00     0.026 A 
ATOM     14  C21 ZIN A   1      18.006  -4.281   7.396  0.00  0.00     0.032 A 
ATOM     15  C22 ZIN A   1      18.269  -3.667   8.616  0.00  0.00     0.053 A 
ATOM     16  N23 ZIN A   1      17.977  -4.376   9.784  0.00  0.00    -0.300 N 
ENDROOT
BRANCH   8  17
ATOM     17  C9  ZIN A   1      18.809  -0.222   9.869  0.00  0.00     0.032 A 
ATOM     18  C14 ZIN A   1      17.655   0.258  10.493  0.00  0.00     0.129 A 
ATOM     19  C13 ZIN A   1      17.375   1.612  10.474  0.00  0.00     0.043 A 
ATOM     20  F15 ZIN A   1      16.820  -0.597  11.123  0.00  0.00    -0.205 F 
ATOM     21  C12 ZIN A   1      18.229   2.488   9.831  0.00  0.00     0.003 A 
ATOM     22  C11 ZIN A   1      19.371   2.018   9.205  0.00  0.00     0.001 A 
ATOM     23  C10 ZIN A   1      19.665   0.670   9.222  0.00  0.00     0.017 A 
ENDBRANCH   8  17
TORSDOF 1
ENDMDL
MODEL 6
REMARK VINA RESULT:      -7.7      3.088      5.915
REMARK  1 active torsions:
REMARK  status: ('A' for Active; 'I' for Inactive)
REMARK    1  A    between atoms: C8_8  and  C9_9 
ROOT
ATOM      1  C1  ZIN A   1      17.002  -0.687  16.994  0.00  0.00     0.091 C 
ATOM      2  C2  ZIN A   1      17.738   0.603  17.250  0.00  0.00     0.107 A 
ATOM      3  N3  ZIN A   1      17.692   1.303  18.354  0.00  0.00    -0.245 NA
ATOM      4  C4  ZIN A   1      18.459   2.398  18.218  0.00  0.00     0.145 A 
ATOM      5  C5  ZIN A   1      18.997   2.376  16.988  0.00  0.00     0.056 A 
ATOM      6  C6  ZIN A   1      19.885   3.418  16.358  0.00  0.00     0.208 C 
ATOM      7  N7  ZIN A   1      19.204   3.920  15.160  0.00  0.00    -0.282 NA
ATOM      8  C8  ZIN A   1      18.905   3.148  14.174  0.00  0.00     0.077 C 
ATOM      9  C16 ZIN A   1      19.141   1.705  14.054  0.00  0.00     0.022 A 
ATOM     10  C17 ZIN A   1      19.596   1.214  12.820  0.00  0.00     0.040 A 
ATOM     11  C18 ZIN A   1      19.807  -0.135  12.639  0.00  0.00     0.035 A 
ATOM     12 Cl19 ZIN A   1      20.375  -0.723  11.108  0.00  0.00    -0.084 Cl
ATOM     13  C20 ZIN A   1      19.568  -1.023  13.675  0.00  0.00     0.026 A 
ATOM     14  C21 ZIN A   1      19.132  -0.555  14.896  0.00  0.00     0.032 A 
ATOM     15  C22 ZIN A   1      18.930   0.806  15.100  0.00  0.00     0.053 A 
ATOM     16  N23 ZIN A   1      18.566   1.232  16.379  0.00  0.00    -0.300 N 
ENDROOT
BRANCH   8  17
ATOM     17  C9  ZIN A   1      18.242   3.795  13.020  0.00  0.00     0.032 A 
ATOM     18  C14 ZIN A   1      17.097   4.573  13.214  0.00  0.00     0.129 A 
ATOM     19  C13 ZIN A   1      16.487   5.179  12.131  0.00  0.00     0.043 A 
ATOM     20  F15 ZIN A   1      16.594   4.741  14.456  0.00  0.00    -0.205 F 
ATOM     21  C12 ZIN A   1      17.002   5.008  10.859  0.00  0.00     0.003 A 
ATOM     22  C11 ZIN A   1      18.132   4.234  10.660  0.00  0.00     0.001 A 
ATOM     23  C10 ZIN A   1      18.754   3.629  11.733  0.00  0.00     0.017 A 
ENDBRANCH   8  17
TORSDOF 1
ENDMDL
MODEL 7
REMARK VINA RESULT:      -7.6      2.276      2.807
REMARK  1 active torsions:
REMARK  status: ('A' for Active; 'I' for Inactive)
REMARK    1  A    between atoms: C8_8  and  C9_9 
ROOT
ATOM      1  C1  ZIN A   1      16.979  -0.318   8.167  0.00  0.00     0.091 C 
ATOM      2  C2  ZIN A   1      17.848  -1.378   8.791  0.00  0.00     0.107 A 
ATOM      3  N3  ZIN A   1      17.872  -2.643   8.458  0.00  0.00    -0.245 NA
ATOM      4  C4  ZIN A   1      18.753  -3.292   9.237  0.00  0.00     0.145 A 
ATOM      5  C5  ZIN A   1      19.293  -2.400  10.083  0.00  0.00     0.056 A 
ATOM      6  C6  ZIN A   1      20.293  -2.665  11.179  0.00  0.00     0.208 C 
ATOM      7  N7  ZIN A   1      19.676  -2.268  12.450  0.00  0.00    -0.282 NA
ATOM      8  C8  ZIN A   1      19.301  -1.058  12.675  0.00  0.00     0.077 C 
ATOM      9  C16 ZIN A   1      19.382   0.095  11.772  0.00  0.00     0.022 A 
ATOM     10  C17 ZIN A   1      19.788   1.326  12.310  0.00  0.00     0.040 A 
ATOM     11  C18 ZIN A   1      19.853   2.449  11.515  0.00  0.00     0.035 A 
ATOM     12 Cl19 ZIN A   1      20.363   3.962  12.197  0.00  0.00    -0.084 Cl
ATOM     13  C20 ZIN A   1      19.513   2.376  10.174  0.00  0.00     0.026 A 
ATOM     14  C21 ZIN A   1      19.122   1.171   9.628  0.00  0.00     0.032 A 
ATOM     15  C22 ZIN A   1      19.068   0.024  10.414  0.00  0.00     0.053 A 
ATOM     16  N23 ZIN A   1      18.745  -1.183   9.791  0.00  0.00    -0.300 N 
ENDROOT
BRANCH   8  17
ATOM     17  C9  ZIN A   1      18.719  -0.796  14.011  0.00  0.00     0.032 A 
ATOM     18  C14 ZIN A   1      17.510  -0.105  14.127  0.00  0.00     0.129 A 
ATOM     19  C13 ZIN A   1      16.971   0.130  15.378  0.00  0.00     0.043 A 
ATOM     20  F15 ZIN A   1      16.865   0.322  13.020  0.00  0.00    -0.205 F 
ATOM     21  C12 ZIN A   1      17.630  -0.307  16.511  0.00  0.00     0.003 A 
ATOM     22  C11 ZIN A   1      18.831  -0.987  16.403  0.00  0.00     0.001 A 
ATOM     23  C10 ZIN A   1      19.377  -1.234  15.161  0.00  0.00     0.017 A 
ENDBRANCH   8  17
TORSDOF 1
ENDMDL
MODEL 8
REMARK VINA RESULT:      -7.5      2.520      4.484
REMARK  1 active torsions:
REMARK  status: ('A' for Active; 'I' for Inactive)
REMARK    1  A    between atoms: C8_8  and  C9_9 
ROOT
ATOM      1  C1  ZIN A   1      20.373  -2.796  11.858  0.00  0.00     0.091 C 
ATOM      2  C2  ZIN A   1      19.204  -2.098  11.214  0.00  0.00     0.107 A 
ATOM      3  N3  ZIN A   1      18.820  -2.236   9.971  0.00  0.00    -0.245 NA
ATOM      4  C4  ZIN A   1      17.755  -1.449   9.745  0.00  0.00     0.145 A 
ATOM      5  C5  ZIN A   1      17.470  -0.800  10.885  0.00  0.00     0.056 A 
ATOM      6  C6  ZIN A   1      16.394   0.231  11.108  0.00  0.00     0.208 C 
ATOM      7  N7  ZIN A   1      17.048   1.477  11.523  0.00  0.00    -0.282 NA
ATOM      8  C8  ZIN A   1      17.756   1.548  12.596  0.00  0.00     0.077 C 
ATOM      9  C16 ZIN A   1      18.057   0.477  13.551  0.00  0.00     0.022 A 
ATOM     10  C17 ZIN A   1      18.013   0.783  14.921  0.00  0.00     0.040 A 
ATOM     11  C18 ZIN A   1      18.317  -0.175  15.862  0.00  0.00     0.035 A 
ATOM     12 Cl19 ZIN A   1      18.251   0.222  17.551  0.00  0.00    -0.084 Cl
ATOM     13  C20 ZIN A   1      18.673  -1.453  15.466  0.00  0.00     0.026 A 
ATOM     14  C21 ZIN A   1      18.711  -1.774  14.125  0.00  0.00     0.032 A 
ATOM     15  C22 ZIN A   1      18.391  -0.822  13.163  0.00  0.00     0.053 A 
ATOM     16  N23 ZIN A   1      18.366  -1.223  11.825  0.00  0.00    -0.300 N 
ENDROOT
BRANCH   8  17
ATOM     17  C9  ZIN A   1      18.335   2.875  12.905  0.00  0.00     0.032 A 
ATOM     18  C14 ZIN A   1      19.471   3.320  12.224  0.00  0.00     0.129 A 
ATOM     19  C13 ZIN A   1      20.002   4.563  12.515  0.00  0.00     0.043 A 
ATOM     20  F15 ZIN A   1      20.042   2.544  11.278  0.00  0.00    -0.205 F 
ATOM     21  C12 ZIN A   1      19.418   5.359  13.483  0.00  0.00     0.003 A 
ATOM     22  C11 ZIN A   1      18.296   4.920  14.164  0.00  0.00     0.001 A 
ATOM     23  C10 ZIN A   1      17.752   3.685  13.880  0.00  0.00     0.017 A 
ENDBRANCH   8  17
TORSDOF 1
ENDMDL
MODEL 9
REMARK VINA RESULT:      -7.1      2.574      4.071
REMARK  1 active torsions:
REMARK  status: ('A' for Active; 'I' for Inactive)
REMARK    1  A    between atoms: C8_8  and  C9_9 
ROOT
ATOM      1  C1  ZIN A   1      20.604  -0.509  10.733  0.00  0.00     0.091 C 
ATOM      2  C2  ZIN A   1      19.687   0.616  10.329  0.00  0.00     0.107 A 
ATOM      3  N3  ZIN A   1      19.627   1.167   9.145  0.00  0.00    -0.245 NA
ATOM      4  C4  ZIN A   1      18.708   2.147   9.155  0.00  0.00     0.145 A 
ATOM      5  C5  ZIN A   1      18.183   2.207  10.389  0.00  0.00     0.056 A 
ATOM      6  C6  ZIN A   1      17.153   3.182  10.900  0.00  0.00     0.208 C 
ATOM      7  N7  ZIN A   1      17.757   3.928  12.009  0.00  0.00    -0.282 NA
ATOM      8  C8  ZIN A   1      18.168   3.342  13.079  0.00  0.00     0.077 C 
ATOM      9  C16 ZIN A   1      18.145   1.909  13.388  0.00  0.00     0.022 A 
ATOM     10  C17 ZIN A   1      17.770   1.520  14.684  0.00  0.00     0.040 A 
ATOM     11  C18 ZIN A   1      17.759   0.190  15.040  0.00  0.00     0.035 A 
ATOM     12 Cl19 ZIN A   1      17.287  -0.271  16.646  0.00  0.00    -0.084 Cl
ATOM     13  C20 ZIN A   1      18.123  -0.781  14.121  0.00  0.00     0.026 A 
ATOM     14  C21 ZIN A   1      18.483  -0.417  12.841  0.00  0.00     0.032 A 
ATOM     15  C22 ZIN A   1      18.483   0.921  12.461  0.00  0.00     0.053 A 
ATOM     16  N23 ZIN A   1      18.778   1.226  11.131  0.00  0.00    -0.300 N 
ENDROOT
BRANCH   8  17
ATOM     17  C9  ZIN A   1      18.732   4.223  14.126  0.00  0.00     0.032 A 
ATOM     18  C14 ZIN A   1      19.830   5.039  13.841  0.00  0.00     0.129 A 
ATOM     19  C13 ZIN A   1      20.347   5.863  14.823  0.00  0.00     0.043 A 
ATOM     20  F15 ZIN A   1      20.377   5.031  12.607  0.00  0.00    -0.205 F 
ATOM     21  C12 ZIN A   1      19.786   5.873  16.087  0.00  0.00     0.003 A 
ATOM     22  C11 ZIN A   1      18.703   5.062  16.377  0.00  0.00     0.001 A 
ATOM     23  C10 ZIN A   1      18.173   4.239  15.404  0.00  0.00     0.017 A 
ENDBRANCH   8  17
TORSDOF 1
ENDMDL
