MODEL 1
REMARK VINA RESULT:      -7.2      0.000      0.000
REMARK  5 active torsions:
REMARK  status: ('A' for Active; 'I' for Inactive)
REMARK    1  A    between atoms: C3_3  and  C5_4 
REMARK    2  A    between atoms: C5_4  and  O6_5 
REMARK    3  A    between atoms: C7_6  and  O9_7 
REMARK    4  A    between atoms: C11_9  and  N13_10 
REMARK    5  A    between atoms: C19_16  and  N20_17 
ROOT
ATOM      1  N13 <0> d   1      18.390  -1.861   8.645  0.00  0.00    -0.314 N 
ATOM      2  C14 <0> d   1      18.615  -0.558   8.311  0.00  0.00     0.212 A 
ATOM      3  N15 <0> d   1      18.979  -0.479   7.064  0.00  0.00    -0.234 NA
ATOM      4  C16 <0> d   1      19.008  -1.723   6.526  0.00  0.00     0.173 A 
ATOM      5  C17 <0> d   1      18.637  -2.620   7.533  0.00  0.00     0.185 A 
ATOM      6  N18 <0> d   1      18.584  -3.930   7.267  0.00  0.00    -0.044 NA
ATOM      7  C19 <0> d   1      18.874  -4.393   6.072  0.00  0.00     0.703 A 
ATOM      8  N21 <0> d   1      19.241  -3.569   5.050  0.00  0.00    -0.152 N 
ATOM      9  C22 <0> d   1      19.322  -2.233   5.245  0.00  0.00     0.292 A 
ATOM     10  O23 <0> d   1      19.649  -1.488   4.337  0.00  0.00    -0.265 OA
ATOM     11  H35 <0> d   1      19.449  -3.943   4.179  0.00  0.00     0.187 HD
ENDROOT
BRANCH   1  12
ATOM     12  C11 <0> d   1      17.966  -2.358   9.957  0.00  0.00     0.123 C 
ATOM     13  C2  <0> d   1      18.100  -1.265  11.002  0.00  0.00    -0.057 C 
ATOM     14  C1  <0> d   1      17.217  -0.336  11.272  0.00  0.00     0.017 C 
ATOM     15  C3  <0> d   1      19.443  -1.450  11.678  0.00  0.00     0.068 C 
ATOM     16  C7  <0> d   1      20.108  -2.677  11.021  0.00  0.00     0.130 C 
ATOM     17  C10 <0> d   1      18.915  -3.479  10.442  0.00  0.00     0.062 C 
BRANCH  15  18
ATOM     18  C5  <0> d   1      20.310  -0.208  11.468  0.00  0.00     0.175 C 
BRANCH  18  19
ATOM     19  O6  <0> d   1      21.602  -0.602  11.002  0.00  0.00    -0.400 OA
ATOM     20  H28 <0> d   1      22.327  -0.063  11.349  0.00  0.00     0.209 HD
ENDBRANCH  18  19
ENDBRANCH  15  18
BRANCH  16  21
ATOM     21  O9  <0> d   1      20.810  -3.451  11.997  0.00  0.00    -0.395 OA
ATOM     22  H29 <0> d   1      20.762  -3.090  12.893  0.00  0.00     0.210 HD
ENDBRANCH  16  21
ENDBRANCH   1  12
BRANCH   7  23
ATOM     23  N20 <0> d   1      18.804  -5.744   5.846  0.00  0.00    -0.233 N 
ATOM     24  H33 <0> d   1      18.684  -6.355   6.589  0.00  0.00     0.174 HD
ATOM     25  H34 <0> d   1      18.874  -6.089   4.941  0.00  0.00     0.174 HD
ENDBRANCH   7  23
TORSDOF 5
ENDMDL
MODEL 2
REMARK VINA RESULT:      -7.0      5.604      8.865
REMARK  5 active torsions:
REMARK  status: ('A' for Active; 'I' for Inactive)
REMARK    1  A    between atoms: C3_3  and  C5_4 
REMARK    2  A    between atoms: C5_4  and  O6_5 
REMARK    3  A    between atoms: C7_6  and  O9_7 
REMARK    4  A    between atoms: C11_9  and  N13_10 
REMARK    5  A    between atoms: C19_16  and  N20_17 
ROOT
ATOM      1  N13 <0> d   1      18.191   0.769  14.331  0.00  0.00    -0.314 N 
ATOM      2  C14 <0> d   1      18.264  -0.590  14.433  0.00  0.00     0.212 A 
ATOM      3  N15 <0> d   1      18.606  -0.924  15.644  0.00  0.00    -0.234 NA
ATOM      4  C16 <0> d   1      18.773   0.197  16.387  0.00  0.00     0.173 A 
ATOM      5  C17 <0> d   1      18.515   1.291  15.554  0.00  0.00     0.185 A 
ATOM      6  N18 <0> d   1      18.610   2.534  16.042  0.00  0.00    -0.044 NA
ATOM      7  C19 <0> d   1      18.942   2.747  17.295  0.00  0.00     0.703 A 
ATOM      8  N21 <0> d   1      19.205   1.724  18.156  0.00  0.00    -0.152 N 
ATOM      9  C22 <0> d   1      19.134   0.441  17.733  0.00  0.00     0.292 A 
ATOM     10  O23 <0> d   1      19.367  -0.482  18.495  0.00  0.00    -0.265 OA
ATOM     11  H35 <0> d   1      19.448   1.915  19.075  0.00  0.00     0.187 HD
ENDROOT
BRANCH   1  12
ATOM     12  C11 <0> d   1      17.837   1.530  13.130  0.00  0.00     0.123 C 
ATOM     13  C2  <0> d   1      17.962   0.652  11.897  0.00  0.00    -0.057 C 
ATOM     14  C1  <0> d   1      17.049  -0.162  11.428  0.00  0.00     0.017 C 
ATOM     15  C3  <0> d   1      19.335   0.898  11.306  0.00  0.00     0.068 C 
ATOM     16  C7  <0> d   1      20.028   1.941  12.206  0.00  0.00     0.130 C 
ATOM     17  C10 <0> d   1      18.851   2.674  12.897  0.00  0.00     0.062 C 
BRANCH  15  18
ATOM     18  C5  <0> d   1      20.139  -0.403  11.295  0.00  0.00     0.175 C 
BRANCH  18  19
ATOM     19  O6  <0> d   1      21.531  -0.104  11.410  0.00  0.00    -0.400 OA
ATOM     20  H28 <0> d   1      22.014  -0.147  10.574  0.00  0.00     0.209 HD
ENDBRANCH  18  19
ENDBRANCH  15  18
BRANCH  16  21
ATOM     21  O9  <0> d   1      20.798   2.852  11.418  0.00  0.00    -0.395 OA
ATOM     22  H29 <0> d   1      20.269   3.396  10.818  0.00  0.00     0.210 HD
ENDBRANCH  16  21
ENDBRANCH   1  12
BRANCH   7  23
ATOM     23  N20 <0> d   1      19.025   4.039  17.751  0.00  0.00    -0.233 N 
ATOM     24  H33 <0> d   1      18.232   4.595  17.781  0.00  0.00     0.174 HD
ATOM     25  H34 <0> d   1      19.879   4.395  18.044  0.00  0.00     0.174 HD
ENDBRANCH   7  23
TORSDOF 5
ENDMDL
MODEL 3
REMARK VINA RESULT:      -6.9      2.972      5.209
REMARK  5 active torsions:
REMARK  status: ('A' for Active; 'I' for Inactive)
REMARK    1  A    between atoms: C3_3  and  C5_4 
REMARK    2  A    between atoms: C5_4  and  O6_5 
REMARK    3  A    between atoms: C7_6  and  O9_7 
REMARK    4  A    between atoms: C11_9  and  N13_10 
REMARK    5  A    between atoms: C19_16  and  N20_17 
ROOT
ATOM      1  N13 <0> d   1      19.081  -2.867   9.787  0.00  0.00    -0.314 N 
ATOM      2  C14 <0> d   1      18.079  -2.703   8.875  0.00  0.00     0.212 A 
ATOM      3  N15 <0> d   1      17.836  -1.435   8.711  0.00  0.00    -0.234 NA
ATOM      4  C16 <0> d   1      18.664  -0.713   9.504  0.00  0.00     0.173 A 
ATOM      5  C17 <0> d   1      19.465  -1.622  10.205  0.00  0.00     0.185 A 
ATOM      6  N18 <0> d   1      20.381  -1.169  11.069  0.00  0.00    -0.044 NA
ATOM      7  C19 <0> d   1      20.544   0.119  11.273  0.00  0.00     0.703 A 
ATOM      8  N21 <0> d   1      19.795   1.052  10.621  0.00  0.00    -0.152 N 
ATOM      9  C22 <0> d   1      18.846   0.670   9.736  0.00  0.00     0.292 A 
ATOM     10  O23 <0> d   1      18.171   1.497   9.148  0.00  0.00    -0.265 OA
ATOM     11  H35 <0> d   1      19.940   1.996  10.795  0.00  0.00     0.187 HD
ENDROOT
BRANCH   1  12
ATOM     12  C11 <0> d   1      19.640  -4.144  10.239  0.00  0.00     0.123 C 
ATOM     13  C2  <0> d   1      19.101  -5.283   9.392  0.00  0.00    -0.057 C 
ATOM     14  C1  <0> d   1      19.581  -5.690   8.243  0.00  0.00     0.017 C 
ATOM     15  C3  <0> d   1      17.910  -5.866  10.124  0.00  0.00     0.068 C 
ATOM     16  C7  <0> d   1      17.748  -5.057  11.428  0.00  0.00     0.130 C 
ATOM     17  C10 <0> d   1      19.159  -4.466  11.674  0.00  0.00     0.062 C 
BRANCH  15  18
ATOM     18  C5  <0> d   1      16.652  -5.733   9.264  0.00  0.00     0.175 C 
BRANCH  18  19
ATOM     19  O6  <0> d   1      15.580  -5.230  10.063  0.00  0.00    -0.400 OA
ATOM     20  H28 <0> d   1      15.176  -4.423   9.716  0.00  0.00     0.209 HD
ENDBRANCH  18  19
ENDBRANCH  15  18
BRANCH  16  21
ATOM     21  O9  <0> d   1      17.364  -5.913  12.506  0.00  0.00    -0.395 OA
ATOM     22  H29 <0> d   1      18.086  -6.453  12.854  0.00  0.00     0.210 HD
ENDBRANCH  16  21
ENDBRANCH   1  12
BRANCH   7  23
ATOM     23  N20 <0> d   1      21.497   0.536  12.168  0.00  0.00    -0.233 N 
ATOM     24  H33 <0> d   1      21.302   1.260  12.782  0.00  0.00     0.174 HD
ATOM     25  H34 <0> d   1      22.367   0.105  12.186  0.00  0.00     0.174 HD
ENDBRANCH   7  23
TORSDOF 5
ENDMDL
MODEL 4
REMARK VINA RESULT:      -6.7      1.998      3.151
REMARK  5 active torsions:
REMARK  status: ('A' for Active; 'I' for Inactive)
REMARK    1  A    between atoms: C3_3  and  C5_4 
REMARK    2  A    between atoms: C5_4  and  O6_5 
REMARK    3  A    between atoms: C7_6  and  O9_7 
REMARK    4  A    between atoms: C11_9  and  N13_10 
REMARK    5  A    between atoms: C19_16  and  N20_17 
ROOT
ATOM      1  N13 <0> d   1      18.102  -0.888   9.147  0.00  0.00    -0.314 N 
ATOM      2  C14 <0> d   1      18.253  -2.113   9.727  0.00  0.00     0.212 A 
ATOM      3  N15 <0> d   1      18.781  -2.943   8.875  0.00  0.00    -0.234 NA
ATOM      4  C16 <0> d   1      18.999  -2.301   7.701  0.00  0.00     0.173 A 
ATOM      5  C17 <0> d   1      18.562  -0.982   7.861  0.00  0.00     0.185 A 
ATOM      6  N18 <0> d   1      18.664  -0.121   6.841  0.00  0.00    -0.044 NA
ATOM      7  C19 <0> d   1      19.169  -0.493   5.687  0.00  0.00     0.703 A 
ATOM      8  N21 <0> d   1      19.612  -1.764   5.470  0.00  0.00    -0.152 N 
ATOM      9  C22 <0> d   1      19.538  -2.690   6.452  0.00  0.00     0.292 A 
ATOM     10  O23 <0> d   1      19.932  -3.829   6.269  0.00  0.00    -0.265 OA
ATOM     11  H35 <0> d   1      19.980  -2.006   4.606  0.00  0.00     0.187 HD
ENDROOT
BRANCH   1  12
ATOM     12  C11 <0> d   1      17.544   0.309   9.782  0.00  0.00     0.123 C 
ATOM     13  C2  <0> d   1      18.658   1.258  10.185  0.00  0.00    -0.057 C 
ATOM     14  C1  <0> d   1      19.229   2.155   9.419  0.00  0.00     0.017 C 
ATOM     15  C3  <0> d   1      18.984   0.982  11.638  0.00  0.00     0.068 C 
ATOM     16  C7  <0> d   1      18.041  -0.149  12.099  0.00  0.00     0.130 C 
ATOM     17  C10 <0> d   1      16.849  -0.061  11.114  0.00  0.00     0.062 C 
BRANCH  15  18
ATOM     18  C5  <0> d   1      20.441   0.536  11.771  0.00  0.00     0.175 C 
BRANCH  18  19
ATOM     19  O6  <0> d   1      20.777   0.410  13.154  0.00  0.00    -0.400 OA
ATOM     20  H28 <0> d   1      20.267   0.989  13.737  0.00  0.00     0.209 HD
ENDBRANCH  18  19
ENDBRANCH  15  18
BRANCH  16  21
ATOM     21  O9  <0> d   1      17.605   0.077  13.441  0.00  0.00    -0.395 OA
ATOM     22  H29 <0> d   1      16.816   0.631  13.510  0.00  0.00     0.210 HD
ENDBRANCH  16  21
ENDBRANCH   1  12
BRANCH   7  23
ATOM     23  N20 <0> d   1      19.254   0.425   4.671  0.00  0.00    -0.233 N 
ATOM     24  H33 <0> d   1      18.524   1.043   4.512  0.00  0.00     0.174 HD
ATOM     25  H34 <0> d   1      20.045   0.454   4.109  0.00  0.00     0.174 HD
ENDBRANCH   7  23
TORSDOF 5
ENDMDL
MODEL 5
REMARK VINA RESULT:      -6.6      1.664      2.104
REMARK  5 active torsions:
REMARK  status: ('A' for Active; 'I' for Inactive)
REMARK    1  A    between atoms: C3_3  and  C5_4 
REMARK    2  A    between atoms: C5_4  and  O6_5 
REMARK    3  A    between atoms: C7_6  and  O9_7 
REMARK    4  A    between atoms: C11_9  and  N13_10 
REMARK    5  A    between atoms: C19_16  and  N20_17 
ROOT
ATOM      1  N13 <0> d   1      18.389  -1.163   9.915  0.00  0.00    -0.314 N 
ATOM      2  C14 <0> d   1      19.190  -0.288   9.239  0.00  0.00     0.212 A 
ATOM      3  N15 <0> d   1      19.589  -0.826   8.124  0.00  0.00    -0.234 NA
ATOM      4  C16 <0> d   1      19.069  -2.073   8.017  0.00  0.00     0.173 A 
ATOM      5  C17 <0> d   1      18.302  -2.303   9.163  0.00  0.00     0.185 A 
ATOM      6  N18 <0> d   1      17.670  -3.474   9.315  0.00  0.00    -0.044 NA
ATOM      7  C19 <0> d   1      17.757  -4.415   8.403  0.00  0.00     0.703 A 
ATOM      8  N21 <0> d   1      18.488  -4.250   7.264  0.00  0.00    -0.152 N 
ATOM      9  C22 <0> d   1      19.158  -3.096   7.044  0.00  0.00     0.292 A 
ATOM     10  O23 <0> d   1      19.815  -2.939   6.029  0.00  0.00    -0.265 OA
ATOM     11  H35 <0> d   1      18.532  -4.966   6.610  0.00  0.00     0.187 HD
ENDROOT
BRANCH   1  12
ATOM     12  C11 <0> d   1      17.746  -0.926  11.210  0.00  0.00     0.123 C 
ATOM     13  C2  <0> d   1      18.040   0.484  11.692  0.00  0.00    -0.057 C 
ATOM     14  C1  <0> d   1      17.378   1.568  11.371  0.00  0.00     0.017 C 
ATOM     15  C3  <0> d   1      19.236   0.404  12.618  0.00  0.00     0.068 C 
ATOM     16  C7  <0> d   1      19.651  -1.081  12.684  0.00  0.00     0.130 C 
ATOM     17  C10 <0> d   1      18.359  -1.843  12.293  0.00  0.00     0.062 C 
BRANCH  15  18
ATOM     18  C5  <0> d   1      20.385   1.245  12.061  0.00  0.00     0.175 C 
BRANCH  18  19
ATOM     19  O6  <0> d   1      21.609   0.518  12.177  0.00  0.00    -0.400 OA
ATOM     20  H28 <0> d   1      22.008   0.557  13.057  0.00  0.00     0.209 HD
ENDBRANCH  18  19
ENDBRANCH  15  18
BRANCH  16  21
ATOM     21  O9  <0> d   1      20.062  -1.429  14.008  0.00  0.00    -0.395 OA
ATOM     22  H29 <0> d   1      19.475  -1.100  14.701  0.00  0.00     0.210 HD
ENDBRANCH  16  21
ENDBRANCH   1  12
BRANCH   7  23
ATOM     23  N20 <0> d   1      17.091  -5.598   8.601  0.00  0.00    -0.233 N 
ATOM     24  H33 <0> d   1      17.561  -6.365   8.963  0.00  0.00     0.174 HD
ATOM     25  H34 <0> d   1      16.148  -5.667   8.378  0.00  0.00     0.174 HD
ENDBRANCH   7  23
TORSDOF 5
ENDMDL
MODEL 6
REMARK VINA RESULT:      -6.6      5.160      8.329
REMARK  5 active torsions:
REMARK  status: ('A' for Active; 'I' for Inactive)
REMARK    1  A    between atoms: C3_3  and  C5_4 
REMARK    2  A    between atoms: C5_4  and  O6_5 
REMARK    3  A    between atoms: C7_6  and  O9_7 
REMARK    4  A    between atoms: C11_9  and  N13_10 
REMARK    5  A    between atoms: C19_16  and  N20_17 
ROOT
ATOM      1  N13 <0> d   1      18.214   1.215  13.424  0.00  0.00    -0.314 N 
ATOM      2  C14 <0> d   1      18.863   0.271  14.166  0.00  0.00     0.212 A 
ATOM      3  N15 <0> d   1      19.311   0.803  15.265  0.00  0.00    -0.234 NA
ATOM      4  C16 <0> d   1      18.977   2.117  15.295  0.00  0.00     0.173 A 
ATOM      5  C17 <0> d   1      18.278   2.395  14.116  0.00  0.00     0.185 A 
ATOM      6  N18 <0> d   1      17.828   3.635  13.888  0.00  0.00    -0.044 NA
ATOM      7  C19 <0> d   1      18.030   4.600  14.756  0.00  0.00     0.703 A 
ATOM      8  N21 <0> d   1      18.704   4.391  15.922  0.00  0.00    -0.152 N 
ATOM      9  C22 <0> d   1      19.192   3.166  16.219  0.00  0.00     0.292 A 
ATOM     10  O23 <0> d   1      19.796   2.969  17.260  0.00  0.00    -0.265 OA
ATOM     11  H35 <0> d   1      18.837   5.126  16.542  0.00  0.00     0.187 HD
ENDROOT
BRANCH   1  12
ATOM     12  C11 <0> d   1      17.573   1.006  12.124  0.00  0.00     0.123 C 
ATOM     13  C2  <0> d   1      17.895  -0.381  11.596  0.00  0.00    -0.057 C 
ATOM     14  C1  <0> d   1      17.257  -1.489  11.884  0.00  0.00     0.017 C 
ATOM     15  C3  <0> d   1      19.087  -0.246  10.671  0.00  0.00     0.068 C 
ATOM     16  C7  <0> d   1      19.470   1.249  10.652  0.00  0.00     0.130 C 
ATOM     17  C10 <0> d   1      18.164   1.970  11.069  0.00  0.00     0.062 C 
BRANCH  15  18
ATOM     18  C5  <0> d   1      20.255  -1.080  11.199  0.00  0.00     0.175 C 
BRANCH  18  19
ATOM     19  O6  <0> d   1      21.488  -0.489  10.786  0.00  0.00    -0.400 OA
ATOM     20  H28 <0> d   1      22.146  -1.126  10.474  0.00  0.00     0.209 HD
ENDBRANCH  18  19
ENDBRANCH  15  18
BRANCH  16  21
ATOM     21  O9  <0> d   1      19.871   1.647   9.339  0.00  0.00    -0.395 OA
ATOM     22  H29 <0> d   1      20.251   2.535   9.297  0.00  0.00     0.210 HD
ENDBRANCH  16  21
ENDBRANCH   1  12
BRANCH   7  23
ATOM     23  N20 <0> d   1      17.549   5.855  14.480  0.00  0.00    -0.233 N 
ATOM     24  H33 <0> d   1      17.530   6.178  13.566  0.00  0.00     0.174 HD
ATOM     25  H34 <0> d   1      17.228   6.421  15.201  0.00  0.00     0.174 HD
ENDBRANCH   7  23
TORSDOF 5
ENDMDL
MODEL 7
REMARK VINA RESULT:      -6.6      4.257      7.014
REMARK  5 active torsions:
REMARK  status: ('A' for Active; 'I' for Inactive)
REMARK    1  A    between atoms: C3_3  and  C5_4 
REMARK    2  A    between atoms: C5_4  and  O6_5 
REMARK    3  A    between atoms: C7_6  and  O9_7 
REMARK    4  A    between atoms: C11_9  and  N13_10 
REMARK    5  A    between atoms: C19_16  and  N20_17 
ROOT
ATOM      1  N13 <0> d   1      17.603   0.975  11.940  0.00  0.00    -0.314 N 
ATOM      2  C14 <0> d   1      18.077   0.609  13.167  0.00  0.00     0.212 A 
ATOM      3  N15 <0> d   1      18.320   1.670  13.880  0.00  0.00    -0.234 NA
ATOM      4  C16 <0> d   1      18.017   2.776  13.156  0.00  0.00     0.173 A 
ATOM      5  C17 <0> d   1      17.562   2.342  11.906  0.00  0.00     0.185 A 
ATOM      6  N18 <0> d   1      17.193   3.242  10.987  0.00  0.00    -0.044 NA
ATOM      7  C19 <0> d   1      17.250   4.530  11.236  0.00  0.00     0.703 A 
ATOM      8  N21 <0> d   1      17.684   5.014  12.434  0.00  0.00    -0.152 N 
ATOM      9  C22 <0> d   1      18.078   4.166  13.411  0.00  0.00     0.292 A 
ATOM     10  O23 <0> d   1      18.468   4.588  14.486  0.00  0.00    -0.265 OA
ATOM     11  H35 <0> d   1      17.714   5.972  12.586  0.00  0.00     0.187 HD
ENDROOT
BRANCH   1  12
ATOM     12  C11 <0> d   1      17.216   0.068  10.856  0.00  0.00     0.123 C 
ATOM     13  C2  <0> d   1      17.885  -1.283  11.036  0.00  0.00    -0.057 C 
ATOM     14  C1  <0> d   1      17.448  -2.273  11.774  0.00  0.00     0.017 C 
ATOM     15  C3  <0> d   1      19.148  -1.275  10.200  0.00  0.00     0.068 C 
ATOM     16  C7  <0> d   1      19.221   0.104   9.513  0.00  0.00     0.130 C 
ATOM     17  C10 <0> d   1      17.749   0.589   9.501  0.00  0.00     0.062 C 
BRANCH  15  18
ATOM     18  C5  <0> d   1      20.370  -1.480  11.098  0.00  0.00     0.175 C 
BRANCH  18  19
ATOM     19  O6  <0> d   1      21.415  -0.595  10.689  0.00  0.00    -0.400 OA
ATOM     20  H28 <0> d   1      21.991  -0.307  11.410  0.00  0.00     0.209 HD
ENDBRANCH  18  19
ENDBRANCH  15  18
BRANCH  16  21
ATOM     21  O9  <0> d   1      19.722  -0.024   8.181  0.00  0.00    -0.395 OA
ATOM     22  H29 <0> d   1      20.686   0.014   8.118  0.00  0.00     0.210 HD
ENDBRANCH  16  21
ENDBRANCH   1  12
BRANCH   7  23
ATOM     23  N20 <0> d   1      16.859   5.415  10.262  0.00  0.00    -0.233 N 
ATOM     24  H33 <0> d   1      16.646   5.095   9.373  0.00  0.00     0.174 HD
ATOM     25  H34 <0> d   1      16.797   6.362  10.465  0.00  0.00     0.174 HD
ENDBRANCH   7  23
TORSDOF 5
ENDMDL
MODEL 8
REMARK VINA RESULT:      -6.5      5.318      7.772
REMARK  5 active torsions:
REMARK  status: ('A' for Active; 'I' for Inactive)
REMARK    1  A    between atoms: C3_3  and  C5_4 
REMARK    2  A    between atoms: C5_4  and  O6_5 
REMARK    3  A    between atoms: C7_6  and  O9_7 
REMARK    4  A    between atoms: C11_9  and  N13_10 
REMARK    5  A    between atoms: C19_16  and  N20_17 
ROOT
ATOM      1  N13 <0> d   1      19.219   2.780  13.255  0.00  0.00    -0.314 N 
ATOM      2  C14 <0> d   1      18.738   2.625  14.522  0.00  0.00     0.212 A 
ATOM      3  N15 <0> d   1      18.798   1.372  14.867  0.00  0.00    -0.234 NA
ATOM      4  C16 <0> d   1      19.319   0.650  13.845  0.00  0.00     0.173 A 
ATOM      5  C17 <0> d   1      19.588   1.542  12.801  0.00  0.00     0.185 A 
ATOM      6  N18 <0> d   1      20.114   1.086  11.658  0.00  0.00    -0.044 NA
ATOM      7  C19 <0> d   1      20.383  -0.190  11.496  0.00  0.00     0.703 A 
ATOM      8  N21 <0> d   1      20.144  -1.107  12.476  0.00  0.00    -0.152 N 
ATOM      9  C22 <0> d   1      19.609  -0.721  13.657  0.00  0.00     0.292 A 
ATOM     10  O23 <0> d   1      19.391  -1.534  14.539  0.00  0.00    -0.265 OA
ATOM     11  H35 <0> d   1      20.354  -2.042  12.324  0.00  0.00     0.187 HD
ENDROOT
BRANCH   1  12
ATOM     12  C11 <0> d   1      19.318   4.040  12.512  0.00  0.00     0.123 C 
ATOM     13  C2  <0> d   1      18.866   5.198  13.384  0.00  0.00    -0.057 C 
ATOM     14  C1  <0> d   1      19.604   5.859  14.241  0.00  0.00     0.017 C 
ATOM     15  C3  <0> d   1      17.406   5.454  13.072  0.00  0.00     0.068 C 
ATOM     16  C7  <0> d   1      16.992   4.429  11.996  0.00  0.00     0.130 C 
ATOM     17  C10 <0> d   1      18.332   4.042  11.321  0.00  0.00     0.062 C 
BRANCH  15  18
ATOM     18  C5  <0> d   1      16.561   5.261  14.332  0.00  0.00     0.175 C 
BRANCH  18  19
ATOM     19  O6  <0> d   1      15.232   5.726  14.091  0.00  0.00    -0.400 OA
ATOM     20  H28 <0> d   1      15.057   6.614  14.432  0.00  0.00     0.209 HD
ENDBRANCH  18  19
ENDBRANCH  15  18
BRANCH  16  21
ATOM     21  O9  <0> d   1      16.103   5.026  11.049  0.00  0.00    -0.395 OA
ATOM     22  H29 <0> d   1      15.289   4.525  10.905  0.00  0.00     0.210 HD
ENDBRANCH  16  21
ENDBRANCH   1  12
BRANCH   7  23
ATOM     23  N20 <0> d   1      20.923  -0.611  10.307  0.00  0.00    -0.233 N 
ATOM     24  H33 <0> d   1      21.239  -1.522  10.213  0.00  0.00     0.174 HD
ATOM     25  H34 <0> d   1      20.989   0.005   9.559  0.00  0.00     0.174 HD
ENDBRANCH   7  23
TORSDOF 5
ENDMDL
MODEL 9
REMARK VINA RESULT:      -6.5      2.553      3.377
REMARK  5 active torsions:
REMARK  status: ('A' for Active; 'I' for Inactive)
REMARK    1  A    between atoms: C3_3  and  C5_4 
REMARK    2  A    between atoms: C5_4  and  O6_5 
REMARK    3  A    between atoms: C7_6  and  O9_7 
REMARK    4  A    between atoms: C11_9  and  N13_10 
REMARK    5  A    between atoms: C19_16  and  N20_17 
ROOT
ATOM      1  N13 <0> d   1      18.603  -2.967  10.845  0.00  0.00    -0.314 N 
ATOM      2  C14 <0> d   1      19.512  -3.557  11.675  0.00  0.00     0.212 A 
ATOM      3  N15 <0> d   1      20.058  -4.577  11.079  0.00  0.00    -0.234 NA
ATOM      4  C16 <0> d   1      19.534  -4.702   9.835  0.00  0.00     0.173 A 
ATOM      5  C17 <0> d   1      18.594  -3.677   9.675  0.00  0.00     0.185 A 
ATOM      6  N18 <0> d   1      17.921  -3.569   8.523  0.00  0.00    -0.044 NA
ATOM      7  C19 <0> d   1      18.127  -4.410   7.535  0.00  0.00     0.703 A 
ATOM      8  N21 <0> d   1      19.028  -5.428   7.631  0.00  0.00    -0.152 N 
ATOM      9  C22 <0> d   1      19.743  -5.603   8.765  0.00  0.00     0.292 A 
ATOM     10  O23 <0> d   1      20.552  -6.510   8.861  0.00  0.00    -0.265 OA
ATOM     11  H35 <0> d   1      19.156  -6.032   6.882  0.00  0.00     0.187 HD
ENDROOT
BRANCH   1  12
ATOM     12  C11 <0> d   1      17.783  -1.792  11.152  0.00  0.00     0.123 C 
ATOM     13  C2  <0> d   1      18.397  -0.548  10.536  0.00  0.00    -0.057 C 
ATOM     14  C1  <0> d   1      18.222  -0.121   9.310  0.00  0.00     0.017 C 
ATOM     15  C3  <0> d   1      19.244   0.113  11.604  0.00  0.00     0.068 C 
ATOM     16  C7  <0> d   1      19.123  -0.757  12.872  0.00  0.00     0.130 C 
ATOM     17  C10 <0> d   1      17.787  -1.515  12.674  0.00  0.00     0.062 C 
BRANCH  15  18
ATOM     18  C5  <0> d   1      20.703   0.177  11.148  0.00  0.00     0.175 C 
BRANCH  18  19
ATOM     19  O6  <0> d   1      21.523   0.615  12.233  0.00  0.00    -0.400 OA
ATOM     20  H28 <0> d   1      21.751   1.554  12.200  0.00  0.00     0.209 HD
ENDBRANCH  18  19
ENDBRANCH  15  18
BRANCH  16  21
ATOM     21  O9  <0> d   1      19.071   0.063  14.041  0.00  0.00    -0.395 OA
ATOM     22  H29 <0> d   1      19.292  -0.403  14.858  0.00  0.00     0.210 HD
ENDBRANCH  16  21
ENDBRANCH   1  12
BRANCH   7  23
ATOM     23  N20 <0> d   1      17.413  -4.259   6.373  0.00  0.00    -0.233 N 
ATOM     24  H33 <0> d   1      17.284  -5.016   5.781  0.00  0.00     0.174 HD
ATOM     25  H34 <0> d   1      17.039  -3.394   6.143  0.00  0.00     0.174 HD
ENDBRANCH   7  23
TORSDOF 5
ENDMDL
