MODEL 1
REMARK VINA RESULT:      -3.2      0.000      0.000
REMARK  3 active torsions:
REMARK  status: ('A' for Active; 'I' for Inactive)
REMARK    1  A    between atoms: N2_2  and  C5_5 
REMARK    2  A    between atoms: C5_5  and  C6_6 
REMARK    3  A    between atoms: C6_6  and  O7_7 
ROOT
ATOM      1  C1  <0> d   1      17.735  -2.939  11.419  0.00  0.00     0.271 C 
ATOM      2  N2  <0> d   1      19.118  -2.503  11.661  0.00  0.00    -0.077 N 
ATOM      3  C3  <0> d   1      19.207  -1.864  12.980  0.00  0.00     0.271 C 
ATOM      4  C4  <0> d   1      20.011  -3.669  11.620  0.00  0.00     0.271 C 
ENDROOT
BRANCH   2   5
ATOM      5  C5  <0> d   1      19.518  -1.544  10.623  0.00  0.00     0.262 C 
BRANCH   5   6
ATOM      6  C6  <0> d   1      20.358  -0.431  11.254  0.00  0.00     0.192 C 
BRANCH   6   7
ATOM      7  O7  <0> d   1      21.729  -0.606  10.890  0.00  0.00    -0.399 OA
ATOM      8  H21 <0> d   1      22.354  -0.394  11.598  0.00  0.00     0.209 HD
ENDBRANCH   6   7
ENDBRANCH   5   6
ENDBRANCH   2   5
TORSDOF 3
ENDMDL
MODEL 2
REMARK VINA RESULT:      -3.2      2.759      3.891
REMARK  3 active torsions:
REMARK  status: ('A' for Active; 'I' for Inactive)
REMARK    1  A    between atoms: N2_2  and  C5_5 
REMARK    2  A    between atoms: C5_5  and  C6_6 
REMARK    3  A    between atoms: C6_6  and  O7_7 
ROOT
ATOM      1  C1  <0> d   1      18.088   0.860  10.187  0.00  0.00     0.271 C 
ATOM      2  N2  <0> d   1      18.840   0.531   8.968  0.00  0.00    -0.077 N 
ATOM      3  C3  <0> d   1      17.929  -0.040   7.969  0.00  0.00     0.271 C 
ATOM      4  C4  <0> d   1      19.455   1.752   8.429  0.00  0.00     0.271 C 
ENDROOT
BRANCH   2   5
ATOM      5  C5  <0> d   1      19.890  -0.444   9.289  0.00  0.00     0.262 C 
BRANCH   5   6
ATOM      6  C6  <0> d   1      20.278  -0.310  10.763  0.00  0.00     0.192 C 
BRANCH   6   7
ATOM      7  O7  <0> d   1      21.672  -0.584  10.915  0.00  0.00    -0.399 OA
ATOM      8  H21 <0> d   1      22.018  -0.388  11.797  0.00  0.00     0.209 HD
ENDBRANCH   6   7
ENDBRANCH   5   6
ENDBRANCH   2   5
TORSDOF 3
ENDMDL
MODEL 3
REMARK VINA RESULT:      -3.2      5.370      6.147
REMARK  3 active torsions:
REMARK  status: ('A' for Active; 'I' for Inactive)
REMARK    1  A    between atoms: N2_2  and  C5_5 
REMARK    2  A    between atoms: C5_5  and  C6_6 
REMARK    3  A    between atoms: C6_6  and  O7_7 
ROOT
ATOM      1  C1  <0> d   1      17.701   0.461  14.750  0.00  0.00     0.271 C 
ATOM      2  N2  <0> d   1      18.168  -0.001  16.065  0.00  0.00    -0.077 N 
ATOM      3  C3  <0> d   1      17.012  -0.261  16.932  0.00  0.00     0.271 C 
ATOM      4  C4  <0> d   1      18.945  -1.237  15.900  0.00  0.00     0.271 C 
ENDROOT
BRANCH   2   5
ATOM      5  C5  <0> d   1      19.016   1.031  16.674  0.00  0.00     0.262 C 
BRANCH   5   6
ATOM      6  C6  <0> d   1      19.307   0.658  18.130  0.00  0.00     0.192 C 
BRANCH   6   7
ATOM      7  O7  <0> d   1      19.649   1.835  18.864  0.00  0.00    -0.399 OA
ATOM      8  H21 <0> d   1      18.888   2.376  19.116  0.00  0.00     0.209 HD
ENDBRANCH   6   7
ENDBRANCH   5   6
ENDBRANCH   2   5
TORSDOF 3
ENDMDL
MODEL 4
REMARK VINA RESULT:      -3.1      4.814      5.673
REMARK  3 active torsions:
REMARK  status: ('A' for Active; 'I' for Inactive)
REMARK    1  A    between atoms: N2_2  and  C5_5 
REMARK    2  A    between atoms: C5_5  and  C6_6 
REMARK    3  A    between atoms: C6_6  and  O7_7 
ROOT
ATOM      1  C1  <0> d   1      19.621  -0.414   8.666  0.00  0.00     0.271 C 
ATOM      2  N2  <0> d   1      18.785  -0.229   7.471  0.00  0.00    -0.077 N 
ATOM      3  C3  <0> d   1      17.368  -0.321   7.845  0.00  0.00     0.271 C 
ATOM      4  C4  <0> d   1      19.054   1.092   6.888  0.00  0.00     0.271 C 
ENDROOT
BRANCH   2   5
ATOM      5  C5  <0> d   1      19.101  -1.272   6.486  0.00  0.00     0.262 C 
BRANCH   5   6
ATOM      6  C6  <0> d   1      19.333  -0.627   5.117  0.00  0.00     0.192 C 
BRANCH   6   7
ATOM      7  O7  <0> d   1      19.639  -1.642   4.159  0.00  0.00    -0.399 OA
ATOM      8  H21 <0> d   1      20.531  -1.578   3.790  0.00  0.00     0.209 HD
ENDBRANCH   6   7
ENDBRANCH   5   6
ENDBRANCH   2   5
TORSDOF 3
ENDMDL
MODEL 5
REMARK VINA RESULT:      -3.1      2.055      2.603
REMARK  3 active torsions:
REMARK  status: ('A' for Active; 'I' for Inactive)
REMARK    1  A    between atoms: N2_2  and  C5_5 
REMARK    2  A    between atoms: C5_5  and  C6_6 
REMARK    3  A    between atoms: C6_6  and  O7_7 
ROOT
ATOM      1  C1  <0> d   1      17.724   0.030  12.795  0.00  0.00     0.271 C 
ATOM      2  N2  <0> d   1      18.742  -0.653  13.605  0.00  0.00    -0.077 N 
ATOM      3  C3  <0> d   1      18.218  -0.884  14.958  0.00  0.00     0.271 C 
ATOM      4  C4  <0> d   1      19.077  -1.941  12.983  0.00  0.00     0.271 C 
ENDROOT
BRANCH   2   5
ATOM      5  C5  <0> d   1      19.948   0.181  13.682  0.00  0.00     0.262 C 
BRANCH   5   6
ATOM      6  C6  <0> d   1      20.347   0.632  12.275  0.00  0.00     0.192 C 
BRANCH   6   7
ATOM      7  O7  <0> d   1      21.771   0.626  12.159  0.00  0.00    -0.399 OA
ATOM      8  H21 <0> d   1      22.229   0.313  12.951  0.00  0.00     0.209 HD
ENDBRANCH   6   7
ENDBRANCH   5   6
ENDBRANCH   2   5
TORSDOF 3
ENDMDL
MODEL 6
REMARK VINA RESULT:      -3.1      3.226      4.249
REMARK  3 active torsions:
REMARK  status: ('A' for Active; 'I' for Inactive)
REMARK    1  A    between atoms: N2_2  and  C5_5 
REMARK    2  A    between atoms: C5_5  and  C6_6 
REMARK    3  A    between atoms: C6_6  and  O7_7 
ROOT
ATOM      1  C1  <0> d   1      17.709   3.069  10.870  0.00  0.00     0.271 C 
ATOM      2  N2  <0> d   1      18.609   1.931  10.641  0.00  0.00    -0.077 N 
ATOM      3  C3  <0> d   1      17.886   0.677  10.890  0.00  0.00     0.271 C 
ATOM      4  C4  <0> d   1      19.084   1.955   9.251  0.00  0.00     0.271 C 
ENDROOT
BRANCH   2   5
ATOM      5  C5  <0> d   1      19.758   2.024  11.552  0.00  0.00     0.262 C 
BRANCH   5   6
ATOM      6  C6  <0> d   1      20.264   0.617  11.880  0.00  0.00     0.192 C 
BRANCH   6   7
ATOM      7  O7  <0> d   1      21.665   0.667  12.152  0.00  0.00    -0.399 OA
ATOM      8  H21 <0> d   1      22.181  -0.004  11.683  0.00  0.00     0.209 HD
ENDBRANCH   6   7
ENDBRANCH   5   6
ENDBRANCH   2   5
TORSDOF 3
ENDMDL
MODEL 7
REMARK VINA RESULT:      -3.0      3.453      4.362
REMARK  3 active torsions:
REMARK  status: ('A' for Active; 'I' for Inactive)
REMARK    1  A    between atoms: N2_2  and  C5_5 
REMARK    2  A    between atoms: C5_5  and  C6_6 
REMARK    3  A    between atoms: C6_6  and  O7_7 
ROOT
ATOM      1  C1  <0> d   1      17.537   1.000  12.322  0.00  0.00     0.271 C 
ATOM      2  N2  <0> d   1      18.410   2.180  12.268  0.00  0.00    -0.077 N 
ATOM      3  C3  <0> d   1      17.748   3.245  11.503  0.00  0.00     0.271 C 
ATOM      4  C4  <0> d   1      18.678   2.652  13.633  0.00  0.00     0.271 C 
ENDROOT
BRANCH   2   5
ATOM      5  C5  <0> d   1      19.677   1.824  11.616  0.00  0.00     0.262 C 
BRANCH   5   6
ATOM      6  C6  <0> d   1      20.298   0.622  12.333  0.00  0.00     0.192 C 
BRANCH   6   7
ATOM      7  O7  <0> d   1      21.717   0.649  12.164  0.00  0.00    -0.399 OA
ATOM      8  H21 <0> d   1      22.117   1.512  12.333  0.00  0.00     0.209 HD
ENDBRANCH   6   7
ENDBRANCH   5   6
ENDBRANCH   2   5
TORSDOF 3
ENDMDL
MODEL 8
REMARK VINA RESULT:      -2.9      1.268      2.227
REMARK  3 active torsions:
REMARK  status: ('A' for Active; 'I' for Inactive)
REMARK    1  A    between atoms: N2_2  and  C5_5 
REMARK    2  A    between atoms: C5_5  and  C6_6 
REMARK    3  A    between atoms: C6_6  and  O7_7 
ROOT
ATOM      1  C1  <0> d   1      18.959  -1.412  13.093  0.00  0.00     0.271 C 
ATOM      2  N2  <0> d   1      18.271  -1.251  11.804  0.00  0.00    -0.077 N 
ATOM      3  C3  <0> d   1      17.785  -2.557  11.342  0.00  0.00     0.271 C 
ATOM      4  C4  <0> d   1      17.134  -0.335  11.969  0.00  0.00     0.271 C 
ENDROOT
BRANCH   2   5
ATOM      5  C5  <0> d   1      19.206  -0.698  10.816  0.00  0.00     0.262 C 
BRANCH   5   6
ATOM      6  C6  <0> d   1      20.407  -0.083  11.539  0.00  0.00     0.192 C 
BRANCH   6   7
ATOM      7  O7  <0> d   1      21.616  -0.578  10.959  0.00  0.00    -0.399 OA
ATOM      8  H21 <0> d   1      21.488  -1.040  10.119  0.00  0.00     0.209 HD
ENDBRANCH   6   7
ENDBRANCH   5   6
ENDBRANCH   2   5
TORSDOF 3
ENDMDL
MODEL 9
REMARK VINA RESULT:      -2.8      2.036      2.550
REMARK  3 active torsions:
REMARK  status: ('A' for Active; 'I' for Inactive)
REMARK    1  A    between atoms: N2_2  and  C5_5 
REMARK    2  A    between atoms: C5_5  and  C6_6 
REMARK    3  A    between atoms: C6_6  and  O7_7 
ROOT
ATOM      1  C1  <0> d   1      17.846   0.620   9.699  0.00  0.00     0.271 C 
ATOM      2  N2  <0> d   1      18.562  -0.622  10.022  0.00  0.00    -0.077 N 
ATOM      3  C3  <0> d   1      18.017  -1.195  11.259  0.00  0.00     0.271 C 
ATOM      4  C4  <0> d   1      18.397  -1.582   8.922  0.00  0.00     0.271 C 
ENDROOT
BRANCH   2   5
ATOM      5  C5  <0> d   1      19.990  -0.329  10.205  0.00  0.00     0.262 C 
BRANCH   5   6
ATOM      6  C6  <0> d   1      20.220   0.228  11.612  0.00  0.00     0.192 C 
BRANCH   6   7
ATOM      7  O7  <0> d   1      21.624   0.323  11.862  0.00  0.00    -0.399 OA
ATOM      8  H21 <0> d   1      21.888   0.014  12.740  0.00  0.00     0.209 HD
ENDBRANCH   6   7
ENDBRANCH   5   6
ENDBRANCH   2   5
TORSDOF 3
ENDMDL
