MODEL 1
REMARK VINA RESULT:      -9.9      0.000      0.000
REMARK  11 active torsions:
REMARK  status: ('A' for Active; 'I' for Inactive)
REMARK    1  A    between atoms: C4_4  and  C5_5 
REMARK    2  A    between atoms: C8_8  and  N9_9 
REMARK    3  A    between atoms: N9_9  and  N10_10 
REMARK    4  A    between atoms: C15_15  and  N16_16 
REMARK    5  A    between atoms: C18_18  and  S19_19 
REMARK    6  A    between atoms: C26_26  and  S27_27 
REMARK    7  A    between atoms: C36_36  and  N37_37 
REMARK    8  A    between atoms: N37_37  and  N38_38 
REMARK    9  A    between atoms: C43_43  and  N44_44 
REMARK   10  A    between atoms: C46_46  and  S47_47 
REMARK   11  A    between atoms: C54_54  and  S55_55 
ROOT
ATOM      1  C1  ZIN A   1      19.051   2.339   7.731  0.00  0.00     0.050 C 
ATOM      2  C2  ZIN A   1      18.475   2.209   9.117  0.00  0.00    -0.033 A 
ATOM      3  C3  ZIN A   1      18.514   3.281   9.982  0.00  0.00     0.021 A 
ATOM      4  C4  ZIN A   1      17.980   3.161  11.265  0.00  0.00    -0.025 A 
ATOM      5  C34 ZIN A   1      17.407   1.956  11.671  0.00  0.00     0.014 A 
ATOM      6  C35 ZIN A   1      17.370   0.886  10.803  0.00  0.00     0.032 A 
ATOM      7  C36 ZIN A   1      17.897   1.009   9.521  0.00  0.00     0.056 A 
ENDROOT
BRANCH   4   8
ATOM      8  C5  ZIN A   1      18.021   4.313  12.196  0.00  0.00    -0.025 A 
ATOM      9  C33 ZIN A   1      16.846   4.775  12.790  0.00  0.00     0.021 A 
ATOM     10  C31 ZIN A   1      16.886   5.842  13.658  0.00  0.00    -0.033 A 
ATOM     11  C8  ZIN A   1      18.098   6.469  13.936  0.00  0.00     0.056 A 
ATOM     12  C32 ZIN A   1      15.618   6.338  14.304  0.00  0.00     0.050 C 
ATOM     13  C7  ZIN A   1      19.271   6.014  13.342  0.00  0.00     0.032 A 
ATOM     14  C6  ZIN A   1      19.235   4.942  12.476  0.00  0.00     0.014 A 
BRANCH  11  15
ATOM     15  N9  ZIN A   1      18.137   7.552  14.810  0.00  0.00    -0.277 N 
ATOM     16  H65 ZIN A   1      18.567   8.379  14.541  0.00  0.00     0.189 HD
BRANCH  15  17
ATOM     17  N10 ZIN A   1      17.601   7.456  15.981  0.00  0.00    -0.169 NA
ATOM     18  C11 ZIN A   1      17.980   6.494  16.806  0.00  0.00     0.152 C 
ATOM     19  C26 ZIN A   1      17.395   6.350  18.147  0.00  0.00     0.116 C 
ATOM     20  C12 ZIN A   1      19.019   5.507  16.427  0.00  0.00     0.217 C 
ATOM     21  C25 ZIN A   1      17.417   5.140  18.752  0.00  0.00     0.041 C 
ATOM     22  C24 ZIN A   1      18.022   3.980  18.104  0.00  0.00    -0.017 A 
ATOM     23  C14 ZIN A   1      18.824   4.147  16.951  0.00  0.00     0.053 A 
ATOM     24  C23 ZIN A   1      17.821   2.692  18.612  0.00  0.00     0.038 A 
ATOM     25  C15 ZIN A   1      19.411   3.034  16.336  0.00  0.00     0.042 A 
ATOM     26  C17 ZIN A   1      19.194   1.770  16.865  0.00  0.00     0.056 A 
ATOM     27  C18 ZIN A   1      18.405   1.608  17.992  0.00  0.00     0.083 A 
ATOM     28  O13 ZIN A   1      19.974   5.803  15.727  0.00  0.00    -0.285 OA
BRANCH  19  29
ATOM     29  S27 ZIN A   1      16.662   7.734  18.955  0.00  0.00     0.140 S 
ATOM     30  O28 ZIN A   1      17.658   8.795  18.956  0.00  0.00    -0.591 OA
ATOM     31  O29 ZIN A   1      15.483   8.094  18.183  0.00  0.00    -0.591 OA
ATOM     32  O30 ZIN A   1      16.323   7.302  20.302  0.00  0.00    -0.591 OA
ENDBRANCH  19  29
BRANCH  25  33
ATOM     33  N16 ZIN A   1      20.203   3.195  15.205  0.00  0.00    -0.398 N 
ATOM     34  H66 ZIN A   1      20.955   3.807  15.222  0.00  0.00     0.156 HD
ATOM     35  H67 ZIN A   1      20.004   2.694  14.398  0.00  0.00     0.156 HD
ENDBRANCH  25  33
BRANCH  27  36
ATOM     36  S19 ZIN A   1      18.143  -0.008  18.643  0.00  0.00     0.137 S 
ATOM     37  O20 ZIN A   1      19.439  -0.667  18.664  0.00  0.00    -0.591 OA
ATOM     38  O21 ZIN A   1      17.594   0.160  19.979  0.00  0.00    -0.591 OA
ATOM     39  O22 ZIN A   1      17.208  -0.673  17.748  0.00  0.00    -0.591 OA
ENDBRANCH  27  36
ENDBRANCH  15  17
ENDBRANCH  11  15
ENDBRANCH   4   8
BRANCH   7  40
ATOM     40  N37 ZIN A   1      17.859  -0.074   8.646  0.00  0.00    -0.277 N 
ATOM     41  H77 ZIN A   1      17.867   0.077   7.688  0.00  0.00     0.189 HD
BRANCH  40  42
ATOM     42  N38 ZIN A   1      17.811  -1.276   9.110  0.00  0.00    -0.169 NA
ATOM     43  C39 ZIN A   1      18.217  -2.290   8.363  0.00  0.00     0.152 C 
ATOM     44  C54 ZIN A   1      18.180  -3.676   8.854  0.00  0.00     0.116 C 
ATOM     45  C40 ZIN A   1      18.740  -2.087   6.990  0.00  0.00     0.217 C 
ATOM     46  C53 ZIN A   1      18.122  -4.693   7.961  0.00  0.00     0.041 C 
ATOM     47  C52 ZIN A   1      18.111  -4.438   6.523  0.00  0.00    -0.017 A 
ATOM     48  C42 ZIN A   1      18.421  -3.150   6.026  0.00  0.00     0.053 A 
ATOM     49  C51 ZIN A   1      17.798  -5.459   5.619  0.00  0.00     0.038 A 
ATOM     50  C43 ZIN A   1      18.418  -2.910   4.646  0.00  0.00     0.042 A 
ATOM     51  C45 ZIN A   1      18.106  -3.945   3.775  0.00  0.00     0.056 A 
ATOM     52  C46 ZIN A   1      17.800  -5.204   4.265  0.00  0.00     0.083 A 
ATOM     53  O41 ZIN A   1      19.392  -1.103   6.681  0.00  0.00    -0.285 OA
BRANCH  44  54
ATOM     54  S55 ZIN A   1      18.197  -4.013  10.582  0.00  0.00     0.140 S 
ATOM     55  O56 ZIN A   1      19.445  -3.474  11.102  0.00  0.00    -0.591 OA
ATOM     56  O57 ZIN A   1      17.037  -3.346  11.151  0.00  0.00    -0.591 OA
ATOM     57  O58 ZIN A   1      18.124  -5.458  10.730  0.00  0.00    -0.591 OA
ENDBRANCH  44  54
BRANCH  50  58
ATOM     58  N44 ZIN A   1      18.726  -1.648   4.154  0.00  0.00    -0.398 N 
ATOM     59  H78 ZIN A   1      19.603  -1.265   4.313  0.00  0.00     0.156 HD
ATOM     60  H79 ZIN A   1      18.064  -1.148   3.651  0.00  0.00     0.156 HD
ENDBRANCH  50  58
BRANCH  52  61
ATOM     61  S47 ZIN A   1      17.404  -6.499   3.138  0.00  0.00     0.137 S 
ATOM     62  O48 ZIN A   1      18.110  -7.685   3.597  0.00  0.00    -0.591 OA
ATOM     63  O49 ZIN A   1      15.960  -6.671   3.186  0.00  0.00    -0.591 OA
ATOM     64  O50 ZIN A   1      17.858  -6.067   1.825  0.00  0.00    -0.591 OA
ENDBRANCH  52  61
ENDBRANCH  40  42
ENDBRANCH   7  40
TORSDOF 11
ENDMDL
MODEL 2
REMARK VINA RESULT:      -9.6      3.003      6.228
REMARK  11 active torsions:
REMARK  status: ('A' for Active; 'I' for Inactive)
REMARK    1  A    between atoms: C4_4  and  C5_5 
REMARK    2  A    between atoms: C8_8  and  N9_9 
REMARK    3  A    between atoms: N9_9  and  N10_10 
REMARK    4  A    between atoms: C15_15  and  N16_16 
REMARK    5  A    between atoms: C18_18  and  S19_19 
REMARK    6  A    between atoms: C26_26  and  S27_27 
REMARK    7  A    between atoms: C36_36  and  N37_37 
REMARK    8  A    between atoms: N37_37  and  N38_38 
REMARK    9  A    between atoms: C43_43  and  N44_44 
REMARK   10  A    between atoms: C46_46  and  S47_47 
REMARK   11  A    between atoms: C54_54  and  S55_55 
ROOT
ATOM      1  C1  ZIN A   1      15.493  -5.787   9.075  0.00  0.00     0.050 C 
ATOM      2  C2  ZIN A   1      16.754  -5.385   9.795  0.00  0.00    -0.033 A 
ATOM      3  C3  ZIN A   1      16.770  -4.248  10.573  0.00  0.00     0.021 A 
ATOM      4  C4  ZIN A   1      17.938  -3.876  11.239  0.00  0.00    -0.025 A 
ATOM      5  C34 ZIN A   1      19.087  -4.657  11.118  0.00  0.00     0.014 A 
ATOM      6  C35 ZIN A   1      19.067  -5.793  10.339  0.00  0.00     0.032 A 
ATOM      7  C36 ZIN A   1      17.901  -6.166   9.679  0.00  0.00     0.056 A 
ENDROOT
BRANCH   4   8
ATOM      8  C5  ZIN A   1      17.956  -2.653  12.076  0.00  0.00    -0.025 A 
ATOM      9  C33 ZIN A   1      18.575  -2.671  13.326  0.00  0.00     0.021 A 
ATOM     10  C31 ZIN A   1      18.596  -1.533  14.101  0.00  0.00    -0.033 A 
ATOM     11  C8  ZIN A   1      17.990  -0.367  13.642  0.00  0.00     0.056 A 
ATOM     12  C32 ZIN A   1      19.270  -1.551  15.449  0.00  0.00     0.050 C 
ATOM     13  C7  ZIN A   1      17.367  -0.348  12.399  0.00  0.00     0.032 A 
ATOM     14  C6  ZIN A   1      17.349  -1.483  11.618  0.00  0.00     0.014 A 
BRANCH  11  15
ATOM     15  N9  ZIN A   1      18.007   0.781  14.430  0.00  0.00    -0.277 N 
ATOM     16  H65 ZIN A   1      18.200   0.717  15.378  0.00  0.00     0.189 HD
BRANCH  15  17
ATOM     17  N10 ZIN A   1      17.764   1.932  13.898  0.00  0.00    -0.169 NA
ATOM     18  C11 ZIN A   1      18.045   3.041  14.562  0.00  0.00     0.152 C 
ATOM     19  C26 ZIN A   1      17.784   4.371  13.992  0.00  0.00     0.116 C 
ATOM     20  C12 ZIN A   1      18.644   3.007  15.918  0.00  0.00     0.217 C 
ATOM     21  C25 ZIN A   1      17.611   5.425  14.824  0.00  0.00     0.041 C 
ATOM     22  C24 ZIN A   1      17.694   5.267  16.273  0.00  0.00    -0.017 A 
ATOM     23  C14 ZIN A   1      18.209   4.074  16.831  0.00  0.00     0.053 A 
ATOM     24  C23 ZIN A   1      17.269   6.290  17.128  0.00  0.00     0.038 A 
ATOM     25  C15 ZIN A   1      18.296   3.928  18.221  0.00  0.00     0.042 A 
ATOM     26  C17 ZIN A   1      17.867   4.962  19.042  0.00  0.00     0.056 A 
ATOM     27  C18 ZIN A   1      17.359   6.128  18.494  0.00  0.00     0.083 A 
ATOM     28  O13 ZIN A   1      19.446   2.151  16.253  0.00  0.00    -0.285 OA
BRANCH  19  29
ATOM     29  S27 ZIN A   1      17.684   4.591  12.247  0.00  0.00     0.140 S 
ATOM     30  O28 ZIN A   1      16.949   5.826  12.021  0.00  0.00    -0.591 OA
ATOM     31  O29 ZIN A   1      19.050   4.669  11.755  0.00  0.00    -0.591 OA
ATOM     32  O30 ZIN A   1      16.978   3.433  11.718  0.00  0.00    -0.591 OA
ENDBRANCH  19  29
BRANCH  25  33
ATOM     33  N16 ZIN A   1      18.805   2.759  18.773  0.00  0.00    -0.398 N 
ATOM     34  H66 ZIN A   1      18.758   1.927  18.276  0.00  0.00     0.156 HD
ATOM     35  H67 ZIN A   1      19.207   2.774  19.656  0.00  0.00     0.156 HD
ENDBRANCH  25  33
BRANCH  27  36
ATOM     36  S19 ZIN A   1      16.820   7.424  19.559  0.00  0.00     0.137 S 
ATOM     37  O20 ZIN A   1      16.939   6.925  20.920  0.00  0.00    -0.591 OA
ATOM     38  O21 ZIN A   1      17.696   8.559  19.315  0.00  0.00    -0.591 OA
ATOM     39  O22 ZIN A   1      15.440   7.712  19.203  0.00  0.00    -0.591 OA
ENDBRANCH  27  36
ENDBRANCH  15  17
ENDBRANCH  11  15
ENDBRANCH   4   8
BRANCH   7  40
ATOM     40  N37 ZIN A   1      17.883  -7.315   8.892  0.00  0.00    -0.277 N 
ATOM     41  H77 ZIN A   1      18.265  -8.140   9.230  0.00  0.00     0.189 HD
BRANCH  40  42
ATOM     42  N38 ZIN A   1      17.359  -7.282   7.714  0.00  0.00    -0.169 NA
ATOM     43  C39 ZIN A   1      17.795  -6.410   6.820  0.00  0.00     0.152 C 
ATOM     44  C54 ZIN A   1      17.226  -6.339   5.466  0.00  0.00     0.116 C 
ATOM     45  C40 ZIN A   1      18.889  -5.457   7.130  0.00  0.00     0.217 C 
ATOM     46  C53 ZIN A   1      17.320  -5.182   4.769  0.00  0.00     0.041 C 
ATOM     47  C52 ZIN A   1      17.989  -4.012   5.330  0.00  0.00    -0.017 A 
ATOM     48  C42 ZIN A   1      18.776  -4.134   6.499  0.00  0.00     0.053 A 
ATOM     49  C51 ZIN A   1      17.865  -2.758   4.721  0.00  0.00     0.038 A 
ATOM     50  C43 ZIN A   1      19.424  -3.012   7.031  0.00  0.00     0.042 A 
ATOM     51  C45 ZIN A   1      19.283  -1.782   6.402  0.00  0.00     0.056 A 
ATOM     52  C46 ZIN A   1      18.509  -1.665   5.260  0.00  0.00     0.083 A 
ATOM     53  O41 ZIN A   1      19.822  -5.752   7.859  0.00  0.00    -0.285 OA
BRANCH  44  54
ATOM     54  S55 ZIN A   1      16.418  -7.737   4.763  0.00  0.00     0.140 S 
ATOM     55  O56 ZIN A   1      17.383  -8.825   4.767  0.00  0.00    -0.591 OA
ATOM     56  O57 ZIN A   1      15.268  -8.024   5.605  0.00  0.00    -0.591 OA
ATOM     57  O58 ZIN A   1      16.026  -7.361   3.413  0.00  0.00    -0.591 OA
ENDBRANCH  44  54
BRANCH  50  58
ATOM     58  N44 ZIN A   1      20.201  -3.129   8.177  0.00  0.00    -0.398 N 
ATOM     59  H78 ZIN A   1      19.810  -3.472   8.995  0.00  0.00     0.156 HD
ATOM     60  H79 ZIN A   1      21.134  -2.867   8.158  0.00  0.00     0.156 HD
ENDBRANCH  50  58
BRANCH  52  61
ATOM     61  S47 ZIN A   1      18.343  -0.092   4.483  0.00  0.00     0.137 S 
ATOM     62  O48 ZIN A   1      19.687   0.444   4.330  0.00  0.00    -0.591 OA
ATOM     63  O49 ZIN A   1      17.698  -0.323   3.200  0.00  0.00    -0.591 OA
ATOM     64  O50 ZIN A   1      17.525   0.727   5.365  0.00  0.00    -0.591 OA
ENDBRANCH  52  61
ENDBRANCH  40  42
ENDBRANCH   7  40
TORSDOF 11
ENDMDL
MODEL 3
REMARK VINA RESULT:      -9.3      2.694      6.314
REMARK  11 active torsions:
REMARK  status: ('A' for Active; 'I' for Inactive)
REMARK    1  A    between atoms: C4_4  and  C5_5 
REMARK    2  A    between atoms: C8_8  and  N9_9 
REMARK    3  A    between atoms: N9_9  and  N10_10 
REMARK    4  A    between atoms: C15_15  and  N16_16 
REMARK    5  A    between atoms: C18_18  and  S19_19 
REMARK    6  A    between atoms: C26_26  and  S27_27 
REMARK    7  A    between atoms: C36_36  and  N37_37 
REMARK    8  A    between atoms: N37_37  and  N38_38 
REMARK    9  A    between atoms: C43_43  and  N44_44 
REMARK   10  A    between atoms: C46_46  and  S47_47 
REMARK   11  A    between atoms: C54_54  and  S55_55 
ROOT
ATOM      1  C1  ZIN A   1      15.636  -5.388   9.296  0.00  0.00     0.050 C 
ATOM      2  C2  ZIN A   1      17.032  -5.169   9.820  0.00  0.00    -0.033 A 
ATOM      3  C3  ZIN A   1      17.336  -4.015  10.509  0.00  0.00     0.021 A 
ATOM      4  C4  ZIN A   1      18.628  -3.813  10.993  0.00  0.00    -0.025 A 
ATOM      5  C34 ZIN A   1      19.611  -4.779  10.780  0.00  0.00     0.014 A 
ATOM      6  C35 ZIN A   1      19.304  -5.931  10.090  0.00  0.00     0.032 A 
ATOM      7  C36 ZIN A   1      18.013  -6.135   9.612  0.00  0.00     0.056 A 
ENDROOT
BRANCH   4   8
ATOM      8  C5  ZIN A   1      18.956  -2.572  11.735  0.00  0.00    -0.025 A 
ATOM      9  C33 ZIN A   1      19.156  -1.377  11.043  0.00  0.00     0.021 A 
ATOM     10  C31 ZIN A   1      19.456  -0.224  11.733  0.00  0.00    -0.033 A 
ATOM     11  C8  ZIN A   1      19.571  -0.252  13.120  0.00  0.00     0.056 A 
ATOM     12  C32 ZIN A   1      19.667   1.069  10.986  0.00  0.00     0.050 C 
ATOM     13  C7  ZIN A   1      19.378  -1.443  13.811  0.00  0.00     0.032 A 
ATOM     14  C6  ZIN A   1      19.072  -2.598  13.125  0.00  0.00     0.014 A 
BRANCH  11  15
ATOM     15  N9  ZIN A   1      19.880   0.914  13.816  0.00  0.00    -0.277 N 
ATOM     16  H65 ZIN A   1      20.298   1.659  13.355  0.00  0.00     0.189 HD
BRANCH  15  17
ATOM     17  N10 ZIN A   1      19.612   1.005  15.075  0.00  0.00    -0.169 NA
ATOM     18  C11 ZIN A   1      18.789   1.944  15.511  0.00  0.00     0.152 C 
ATOM     19  C26 ZIN A   1      18.457   2.081  16.937  0.00  0.00     0.116 C 
ATOM     20  C12 ZIN A   1      18.150   2.911  14.586  0.00  0.00     0.217 C 
ATOM     21  C25 ZIN A   1      18.043   3.280  17.407  0.00  0.00     0.041 C 
ATOM     22  C24 ZIN A   1      17.908   4.435  16.524  0.00  0.00    -0.017 A 
ATOM     23  C14 ZIN A   1      17.954   4.266  15.121  0.00  0.00     0.053 A 
ATOM     24  C23 ZIN A   1      17.729   5.719  17.049  0.00  0.00     0.038 A 
ATOM     25  C15 ZIN A   1      17.814   5.373  14.274  0.00  0.00     0.042 A 
ATOM     26  C17 ZIN A   1      17.637   6.634  14.826  0.00  0.00     0.056 A 
ATOM     27  C18 ZIN A   1      17.596   6.798  16.201  0.00  0.00     0.083 A 
ATOM     28  O13 ZIN A   1      17.807   2.601  13.456  0.00  0.00    -0.285 OA
BRANCH  19  29
ATOM     29  S27 ZIN A   1      18.607   0.703  18.025  0.00  0.00     0.140 S 
ATOM     30  O28 ZIN A   1      17.690   0.939  19.129  0.00  0.00    -0.591 OA
ATOM     31  O29 ZIN A   1      18.247  -0.479  17.257  0.00  0.00    -0.591 OA
ATOM     32  O30 ZIN A   1      19.994   0.666  18.465  0.00  0.00    -0.591 OA
ENDBRANCH  19  29
BRANCH  25  33
ATOM     33  N16 ZIN A   1      17.855   5.211  12.894  0.00  0.00    -0.398 N 
ATOM     34  H66 ZIN A   1      17.607   5.945  12.312  0.00  0.00     0.156 HD
ATOM     35  H67 ZIN A   1      18.131   4.362  12.514  0.00  0.00     0.156 HD
ENDBRANCH  25  33
BRANCH  27  36
ATOM     36  S19 ZIN A   1      17.372   8.410  16.876  0.00  0.00     0.137 S 
ATOM     37  O20 ZIN A   1      17.803   8.348  18.263  0.00  0.00    -0.591 OA
ATOM     38  O21 ZIN A   1      18.195   9.313  16.087  0.00  0.00    -0.591 OA
ATOM     39  O22 ZIN A   1      15.955   8.720  16.759  0.00  0.00    -0.591 OA
ENDBRANCH  27  36
ENDBRANCH  15  17
ENDBRANCH  11  15
ENDBRANCH   4   8
BRANCH   7  40
ATOM     40  N37 ZIN A   1      17.705  -7.301   8.915  0.00  0.00    -0.277 N 
ATOM     41  H77 ZIN A   1      18.008  -8.160   9.249  0.00  0.00     0.189 HD
BRANCH  40  42
ATOM     42  N38 ZIN A   1      17.017  -7.238   7.826  0.00  0.00    -0.169 NA
ATOM     43  C39 ZIN A   1      17.395  -6.427   6.851  0.00  0.00     0.152 C 
ATOM     44  C54 ZIN A   1      16.640  -6.326   5.593  0.00  0.00     0.116 C 
ATOM     45  C40 ZIN A   1      18.606  -5.579   6.968  0.00  0.00     0.217 C 
ATOM     46  C53 ZIN A   1      16.736  -5.196   4.853  0.00  0.00     0.041 C 
ATOM     47  C52 ZIN A   1      17.586  -4.085   5.273  0.00  0.00    -0.017 A 
ATOM     48  C42 ZIN A   1      18.524  -4.262   6.319  0.00  0.00     0.053 A 
ATOM     49  C51 ZIN A   1      17.490  -2.836   4.651  0.00  0.00     0.038 A 
ATOM     50  C43 ZIN A   1      19.344  -3.198   6.715  0.00  0.00     0.042 A 
ATOM     51  C45 ZIN A   1      19.225  -1.972   6.075  0.00  0.00     0.056 A 
ATOM     52  C46 ZIN A   1      18.305  -1.801   5.055  0.00  0.00     0.083 A 
ATOM     53  O41 ZIN A   1      19.606  -5.950   7.562  0.00  0.00    -0.285 OA
BRANCH  44  54
ATOM     54  S55 ZIN A   1      15.611  -7.651   5.059  0.00  0.00     0.140 S 
ATOM     55  O56 ZIN A   1      14.446  -7.655   5.931  0.00  0.00    -0.591 OA
ATOM     56  O57 ZIN A   1      15.256  -7.377   3.676  0.00  0.00    -0.591 OA
ATOM     57  O58 ZIN A   1      16.394  -8.870   5.191  0.00  0.00    -0.591 OA
ENDBRANCH  44  54
BRANCH  50  58
ATOM     58  N44 ZIN A   1      20.267  -3.369   7.738  0.00  0.00    -0.398 N 
ATOM     59  H78 ZIN A   1      20.674  -2.597   8.160  0.00  0.00     0.156 HD
ATOM     60  H79 ZIN A   1      20.508  -4.263   8.031  0.00  0.00     0.156 HD
ENDBRANCH  50  58
BRANCH  52  61
ATOM     61  S47 ZIN A   1      18.172  -0.233   4.261  0.00  0.00     0.137 S 
ATOM     62  O48 ZIN A   1      17.562  -0.470   2.962  0.00  0.00    -0.591 OA
ATOM     63  O49 ZIN A   1      17.337   0.599   5.113  0.00  0.00    -0.591 OA
ATOM     64  O50 ZIN A   1      19.524   0.292   4.142  0.00  0.00    -0.591 OA
ENDBRANCH  52  61
ENDBRANCH  40  42
ENDBRANCH   7  40
TORSDOF 11
ENDMDL
MODEL 4
REMARK VINA RESULT:      -9.1      0.253     12.747
REMARK  11 active torsions:
REMARK  status: ('A' for Active; 'I' for Inactive)
REMARK    1  A    between atoms: C4_4  and  C5_5 
REMARK    2  A    between atoms: C8_8  and  N9_9 
REMARK    3  A    between atoms: N9_9  and  N10_10 
REMARK    4  A    between atoms: C15_15  and  N16_16 
REMARK    5  A    between atoms: C18_18  and  S19_19 
REMARK    6  A    between atoms: C26_26  and  S27_27 
REMARK    7  A    between atoms: C36_36  and  N37_37 
REMARK    8  A    between atoms: N37_37  and  N38_38 
REMARK    9  A    between atoms: C43_43  and  N44_44 
REMARK   10  A    between atoms: C46_46  and  S47_47 
REMARK   11  A    between atoms: C54_54  and  S55_55 
ROOT
ATOM      1  C1  ZIN A   1      20.660   6.675  13.581  0.00  0.00     0.050 C 
ATOM      2  C2  ZIN A   1      19.354   5.964  13.337  0.00  0.00    -0.033 A 
ATOM      3  C3  ZIN A   1      19.301   4.901  12.462  0.00  0.00     0.021 A 
ATOM      4  C4  ZIN A   1      18.092   4.243  12.237  0.00  0.00    -0.025 A 
ATOM      5  C34 ZIN A   1      16.938   4.661  12.898  0.00  0.00     0.014 A 
ATOM      6  C35 ZIN A   1      16.995   5.724  13.773  0.00  0.00     0.032 A 
ATOM      7  C36 ZIN A   1      18.202   6.377  14.001  0.00  0.00     0.056 A 
ENDROOT
BRANCH   4   8
ATOM      8  C5  ZIN A   1      18.034   3.100  11.295  0.00  0.00    -0.025 A 
ATOM      9  C33 ZIN A   1      18.642   3.194  10.043  0.00  0.00     0.021 A 
ATOM     10  C31 ZIN A   1      18.592   2.130   9.170  0.00  0.00    -0.033 A 
ATOM     11  C8  ZIN A   1      17.925   0.964   9.533  0.00  0.00     0.056 A 
ATOM     12  C32 ZIN A   1      19.253   2.230   7.820  0.00  0.00     0.050 C 
ATOM     13  C7  ZIN A   1      17.313   0.868  10.779  0.00  0.00     0.032 A 
ATOM     14  C6  ZIN A   1      17.366   1.929  11.657  0.00  0.00     0.014 A 
BRANCH  11  15
ATOM     15  N9  ZIN A   1      17.870  -0.110   8.648  0.00  0.00    -0.277 N 
ATOM     16  H65 ZIN A   1      17.873   0.049   7.691  0.00  0.00     0.189 HD
BRANCH  15  17
ATOM     17  N10 ZIN A   1      17.813  -1.317   9.100  0.00  0.00    -0.169 NA
ATOM     18  C11 ZIN A   1      18.221  -2.326   8.347  0.00  0.00     0.152 C 
ATOM     19  C26 ZIN A   1      18.173  -3.716   8.824  0.00  0.00     0.116 C 
ATOM     20  C12 ZIN A   1      18.754  -2.112   6.980  0.00  0.00     0.217 C 
ATOM     21  C25 ZIN A   1      18.118  -4.723   7.922  0.00  0.00     0.041 C 
ATOM     22  C24 ZIN A   1      18.119  -4.456   6.486  0.00  0.00    -0.017 A 
ATOM     23  C14 ZIN A   1      18.438  -3.166   6.004  0.00  0.00     0.053 A 
ATOM     24  C23 ZIN A   1      17.809  -5.467   5.571  0.00  0.00     0.038 A 
ATOM     25  C15 ZIN A   1      18.447  -2.913   4.626  0.00  0.00     0.042 A 
ATOM     26  C17 ZIN A   1      18.136  -3.938   3.744  0.00  0.00     0.056 A 
ATOM     27  C18 ZIN A   1      17.821  -5.200   4.219  0.00  0.00     0.083 A 
ATOM     28  O13 ZIN A   1      19.413  -1.129   6.685  0.00  0.00    -0.285 OA
BRANCH  19  29
ATOM     29  S27 ZIN A   1      18.175  -4.068  10.550  0.00  0.00     0.140 S 
ATOM     30  O28 ZIN A   1      16.914  -3.572  11.081  0.00  0.00    -0.591 OA
ATOM     31  O29 ZIN A   1      18.295  -5.511  10.685  0.00  0.00    -0.591 OA
ATOM     32  O30 ZIN A   1      19.319  -3.370  11.119  0.00  0.00    -0.591 OA
ENDBRANCH  19  29
BRANCH  25  33
ATOM     33  N16 ZIN A   1      18.764  -1.647   4.148  0.00  0.00    -0.398 N 
ATOM     34  H66 ZIN A   1      19.676  -1.322   4.200  0.00  0.00     0.156 HD
ATOM     35  H67 ZIN A   1      18.071  -1.088   3.760  0.00  0.00     0.156 HD
ENDBRANCH  25  33
BRANCH  27  36
ATOM     36  S19 ZIN A   1      17.428  -6.483   3.077  0.00  0.00     0.137 S 
ATOM     37  O20 ZIN A   1      17.968  -6.079   1.789  0.00  0.00    -0.591 OA
ATOM     38  O21 ZIN A   1      18.055  -7.696   3.577  0.00  0.00    -0.591 OA
ATOM     39  O22 ZIN A   1      15.977  -6.590   3.050  0.00  0.00    -0.591 OA
ENDBRANCH  27  36
ENDBRANCH  15  17
ENDBRANCH  11  15
ENDBRANCH   4   8
BRANCH   7  40
ATOM     40  N37 ZIN A   1      18.257   7.451  14.886  0.00  0.00    -0.277 N 
ATOM     41  H77 ZIN A   1      18.741   8.255  14.642  0.00  0.00     0.189 HD
BRANCH  40  42
ATOM     42  N38 ZIN A   1      17.664   7.375  16.029  0.00  0.00    -0.169 NA
ATOM     43  C39 ZIN A   1      17.993   6.419  16.883  0.00  0.00     0.152 C 
ATOM     44  C54 ZIN A   1      17.343   6.298  18.196  0.00  0.00     0.116 C 
ATOM     45  C40 ZIN A   1      19.041   5.418  16.567  0.00  0.00     0.217 C 
ATOM     46  C53 ZIN A   1      17.323   5.095  18.816  0.00  0.00     0.041 C 
ATOM     47  C52 ZIN A   1      17.949   3.921  18.212  0.00  0.00    -0.017 A 
ATOM     48  C42 ZIN A   1      18.808   4.067  17.098  0.00  0.00     0.053 A 
ATOM     49  C51 ZIN A   1      17.711   2.641  18.725  0.00  0.00     0.038 A 
ATOM     50  C43 ZIN A   1      19.414   2.941  16.524  0.00  0.00     0.042 A 
ATOM     51  C45 ZIN A   1      19.159   1.686  17.058  0.00  0.00     0.056 A 
ATOM     52  C46 ZIN A   1      18.315   1.545  18.147  0.00  0.00     0.083 A 
ATOM     53  O41 ZIN A   1      20.031   5.698  15.911  0.00  0.00    -0.285 OA
BRANCH  44  54
ATOM     54  S55 ZIN A   1      16.585   7.697  18.950  0.00  0.00     0.140 S 
ATOM     55  O56 ZIN A   1      16.254   7.311  20.313  0.00  0.00    -0.591 OA
ATOM     56  O57 ZIN A   1      17.560   8.775  18.911  0.00  0.00    -0.591 OA
ATOM     57  O58 ZIN A   1      15.398   8.006  18.168  0.00  0.00    -0.591 OA
ENDBRANCH  44  54
BRANCH  50  58
ATOM     58  N44 ZIN A   1      20.261   3.081  15.433  0.00  0.00    -0.398 N 
ATOM     59  H78 ZIN A   1      21.168   3.401  15.560  0.00  0.00     0.156 HD
ATOM     60  H79 ZIN A   1      19.947   2.860  14.543  0.00  0.00     0.156 HD
ENDBRANCH  50  58
BRANCH  52  61
ATOM     61  S47 ZIN A   1      18.006  -0.061  18.804  0.00  0.00     0.137 S 
ATOM     62  O48 ZIN A   1      19.267  -0.784  18.756  0.00  0.00    -0.591 OA
ATOM     63  O49 ZIN A   1      17.535   0.126  20.167  0.00  0.00    -0.591 OA
ATOM     64  O50 ZIN A   1      16.993  -0.672  17.956  0.00  0.00    -0.591 OA
ENDBRANCH  52  61
ENDBRANCH  40  42
ENDBRANCH   7  40
TORSDOF 11
ENDMDL
MODEL 5
REMARK VINA RESULT:      -8.7      3.303     13.391
REMARK  11 active torsions:
REMARK  status: ('A' for Active; 'I' for Inactive)
REMARK    1  A    between atoms: C4_4  and  C5_5 
REMARK    2  A    between atoms: C8_8  and  N9_9 
REMARK    3  A    between atoms: N9_9  and  N10_10 
REMARK    4  A    between atoms: C15_15  and  N16_16 
REMARK    5  A    between atoms: C18_18  and  S19_19 
REMARK    6  A    between atoms: C26_26  and  S27_27 
REMARK    7  A    between atoms: C36_36  and  N37_37 
REMARK    8  A    between atoms: N37_37  and  N38_38 
REMARK    9  A    between atoms: C43_43  and  N44_44 
REMARK   10  A    between atoms: C46_46  and  S47_47 
REMARK   11  A    between atoms: C54_54  and  S55_55 
ROOT
ATOM      1  C1  ZIN A   1      19.260   1.400   7.736  0.00  0.00     0.050 C 
ATOM      2  C2  ZIN A   1      18.474   0.733   8.835  0.00  0.00    -0.033 A 
ATOM      3  C3  ZIN A   1      18.325  -0.636   8.841  0.00  0.00     0.021 A 
ATOM      4  C4  ZIN A   1      17.597  -1.254   9.859  0.00  0.00    -0.025 A 
ATOM      5  C34 ZIN A   1      17.023  -0.483  10.870  0.00  0.00     0.014 A 
ATOM      6  C35 ZIN A   1      17.174   0.886  10.860  0.00  0.00     0.032 A 
ATOM      7  C36 ZIN A   1      17.905   1.500   9.848  0.00  0.00     0.056 A 
ENDROOT
BRANCH   4   8
ATOM      8  C5  ZIN A   1      17.436  -2.727   9.866  0.00  0.00    -0.025 A 
ATOM      9  C33 ZIN A   1      17.685  -3.452  11.032  0.00  0.00     0.021 A 
ATOM     10  C31 ZIN A   1      17.530  -4.820  11.039  0.00  0.00    -0.033 A 
ATOM     11  C8  ZIN A   1      17.135  -5.482   9.881  0.00  0.00     0.056 A 
ATOM     12  C32 ZIN A   1      17.794  -5.602  12.300  0.00  0.00     0.050 C 
ATOM     13  C7  ZIN A   1      16.891  -4.762   8.715  0.00  0.00     0.032 A 
ATOM     14  C6  ZIN A   1      17.039  -3.393   8.706  0.00  0.00     0.014 A 
BRANCH  11  15
ATOM     15  N9  ZIN A   1      16.984  -6.866   9.888  0.00  0.00    -0.277 N 
ATOM     16  H65 ZIN A   1      17.553  -7.414  10.451  0.00  0.00     0.189 HD
BRANCH  15  17
ATOM     17  N10 ZIN A   1      16.089  -7.422   9.143  0.00  0.00    -0.169 NA
ATOM     18  C11 ZIN A   1      16.298  -7.555   7.843  0.00  0.00     0.152 C 
ATOM     19  C26 ZIN A   1      15.304  -8.182   6.959  0.00  0.00     0.116 C 
ATOM     20  C12 ZIN A   1      17.549  -7.083   7.203  0.00  0.00     0.217 C 
ATOM     21  C25 ZIN A   1      15.304  -7.876   5.642  0.00  0.00     0.041 C 
ATOM     22  C24 ZIN A   1      16.280  -6.947   5.079  0.00  0.00    -0.017 A 
ATOM     23  C14 ZIN A   1      17.403  -6.548   5.841  0.00  0.00     0.053 A 
ATOM     24  C23 ZIN A   1      16.123  -6.442   3.784  0.00  0.00     0.038 A 
ATOM     25  C15 ZIN A   1      18.343  -5.664   5.297  0.00  0.00     0.042 A 
ATOM     26  C17 ZIN A   1      18.159  -5.181   4.009  0.00  0.00     0.056 A 
ATOM     27  C18 ZIN A   1      17.057  -5.571   3.266  0.00  0.00     0.083 A 
ATOM     28  O13 ZIN A   1      18.630  -7.136   7.768  0.00  0.00    -0.285 OA
BRANCH  19  29
ATOM     29  S27 ZIN A   1      14.117  -9.310   7.610  0.00  0.00     0.140 S 
ATOM     30  O28 ZIN A   1      13.199  -8.529   8.424  0.00  0.00    -0.591 OA
ATOM     31  O29 ZIN A   1      13.452  -9.923   6.471  0.00  0.00    -0.591 OA
ATOM     32  O30 ZIN A   1      14.854 -10.285   8.401  0.00  0.00    -0.591 OA
ENDBRANCH  19  29
BRANCH  25  33
ATOM     33  N16 ZIN A   1      19.450  -5.272   6.042  0.00  0.00    -0.398 N 
ATOM     34  H66 ZIN A   1      19.740  -4.347   6.029  0.00  0.00     0.156 HD
ATOM     35  H67 ZIN A   1      19.932  -5.925   6.574  0.00  0.00     0.156 HD
ENDBRANCH  25  33
BRANCH  27  36
ATOM     36  S19 ZIN A   1      16.845  -4.942   1.634  0.00  0.00     0.137 S 
ATOM     37  O20 ZIN A   1      15.857  -5.787   0.983  0.00  0.00    -0.591 OA
ATOM     38  O21 ZIN A   1      16.386  -3.568   1.770  0.00  0.00    -0.591 OA
ATOM     39  O22 ZIN A   1      18.144  -5.021   0.983  0.00  0.00    -0.591 OA
ENDBRANCH  27  36
ENDBRANCH  15  17
ENDBRANCH  11  15
ENDBRANCH   4   8
BRANCH   7  40
ATOM     40  N37 ZIN A   1      18.057   2.885   9.840  0.00  0.00    -0.277 N 
ATOM     41  H77 ZIN A   1      18.549   3.314   9.124  0.00  0.00     0.189 HD
BRANCH  40  42
ATOM     42  N38 ZIN A   1      17.543   3.594  10.787  0.00  0.00    -0.169 NA
ATOM     43  C39 ZIN A   1      18.043   3.528  12.010  0.00  0.00     0.152 C 
ATOM     44  C54 ZIN A   1      17.489   4.321  13.117  0.00  0.00     0.116 C 
ATOM     45  C40 ZIN A   1      19.197   2.654  12.333  0.00  0.00     0.217 C 
ATOM     46  C53 ZIN A   1      17.665   3.894  14.390  0.00  0.00     0.041 C 
ATOM     47  C52 ZIN A   1      18.408   2.671  14.683  0.00  0.00    -0.017 A 
ATOM     48  C42 ZIN A   1      19.178   2.048  13.672  0.00  0.00     0.053 A 
ATOM     49  C51 ZIN A   1      18.373   2.103  15.960  0.00  0.00     0.038 A 
ATOM     50  C43 ZIN A   1      19.897   0.879  13.957  0.00  0.00     0.042 A 
ATOM     51  C45 ZIN A   1      19.844   0.342  15.236  0.00  0.00     0.056 A 
ATOM     52  C46 ZIN A   1      19.086   0.953  16.222  0.00  0.00     0.083 A 
ATOM     53  O41 ZIN A   1      20.104   2.453  11.541  0.00  0.00    -0.285 OA
BRANCH  44  54
ATOM     54  S55 ZIN A   1      16.592   5.802  12.794  0.00  0.00     0.140 S 
ATOM     55  O56 ZIN A   1      16.847   6.151  11.405  0.00  0.00    -0.591 OA
ATOM     56  O57 ZIN A   1      15.189   5.504  13.032  0.00  0.00    -0.591 OA
ATOM     57  O58 ZIN A   1      17.099   6.809  13.711  0.00  0.00    -0.591 OA
ENDBRANCH  44  54
BRANCH  50  58
ATOM     58  N44 ZIN A   1      20.657   0.267  12.970  0.00  0.00    -0.398 N 
ATOM     59  H78 ZIN A   1      21.227  -0.486  13.192  0.00  0.00     0.156 HD
ATOM     60  H79 ZIN A   1      20.619   0.591  12.056  0.00  0.00     0.156 HD
ENDBRANCH  50  58
BRANCH  52  61
ATOM     61  S47 ZIN A   1      19.033   0.247  17.836  0.00  0.00     0.137 S 
ATOM     62  O48 ZIN A   1      19.720  -1.032  17.758  0.00  0.00    -0.591 OA
ATOM     63  O49 ZIN A   1      19.710   1.179  18.724  0.00  0.00    -0.591 OA
ATOM     64  O50 ZIN A   1      17.627   0.092  18.179  0.00  0.00    -0.591 OA
ENDBRANCH  52  61
ENDBRANCH  40  42
ENDBRANCH   7  40
TORSDOF 11
ENDMDL
MODEL 6
REMARK VINA RESULT:      -8.3      1.815      3.160
REMARK  11 active torsions:
REMARK  status: ('A' for Active; 'I' for Inactive)
REMARK    1  A    between atoms: C4_4  and  C5_5 
REMARK    2  A    between atoms: C8_8  and  N9_9 
REMARK    3  A    between atoms: N9_9  and  N10_10 
REMARK    4  A    between atoms: C15_15  and  N16_16 
REMARK    5  A    between atoms: C18_18  and  S19_19 
REMARK    6  A    between atoms: C26_26  and  S27_27 
REMARK    7  A    between atoms: C36_36  and  N37_37 
REMARK    8  A    between atoms: N37_37  and  N38_38 
REMARK    9  A    between atoms: C43_43  and  N44_44 
REMARK   10  A    between atoms: C46_46  and  S47_47 
REMARK   11  A    between atoms: C54_54  and  S55_55 
ROOT
ATOM      1  C1  ZIN A   1      19.994  -0.999  12.100  0.00  0.00     0.050 C 
ATOM      2  C2  ZIN A   1      19.673   0.291  11.390  0.00  0.00    -0.033 A 
ATOM      3  C3  ZIN A   1      19.358   1.418  12.118  0.00  0.00     0.021 A 
ATOM      4  C4  ZIN A   1      19.061   2.612  11.461  0.00  0.00    -0.025 A 
ATOM      5  C34 ZIN A   1      19.084   2.664  10.068  0.00  0.00     0.014 A 
ATOM      6  C35 ZIN A   1      19.399   1.535   9.343  0.00  0.00     0.032 A 
ATOM      7  C36 ZIN A   1      19.701   0.346   9.999  0.00  0.00     0.056 A 
ENDROOT
BRANCH   4   8
ATOM      8  C5  ZIN A   1      18.722   3.824  12.243  0.00  0.00    -0.025 A 
ATOM      9  C33 ZIN A   1      19.720   4.737  12.585  0.00  0.00     0.021 A 
ATOM     10  C31 ZIN A   1      19.403   5.866  13.308  0.00  0.00    -0.033 A 
ATOM     11  C8  ZIN A   1      18.088   6.091  13.707  0.00  0.00     0.056 A 
ATOM     12  C32 ZIN A   1      20.480   6.855  13.673  0.00  0.00     0.050 C 
ATOM     13  C7  ZIN A   1      17.092   5.179  13.372  0.00  0.00     0.032 A 
ATOM     14  C6  ZIN A   1      17.405   4.052  12.644  0.00  0.00     0.014 A 
BRANCH  11  15
ATOM     15  N9  ZIN A   1      17.770   7.229  14.443  0.00  0.00    -0.277 N 
ATOM     16  H65 ZIN A   1      18.132   8.091  14.184  0.00  0.00     0.189 HD
BRANCH  15  17
ATOM     17  N10 ZIN A   1      16.995   7.138  15.470  0.00  0.00    -0.169 NA
ATOM     18  C11 ZIN A   1      17.306   6.323  16.465  0.00  0.00     0.152 C 
ATOM     19  C26 ZIN A   1      16.451   6.189  17.653  0.00  0.00     0.116 C 
ATOM     20  C12 ZIN A   1      18.539   5.499  16.440  0.00  0.00     0.217 C 
ATOM     21  C25 ZIN A   1      16.508   5.053  18.385  0.00  0.00     0.041 C 
ATOM     22  C24 ZIN A   1      17.413   3.964  18.025  0.00  0.00    -0.017 A 
ATOM     23  C14 ZIN A   1      18.429   4.173  17.065  0.00  0.00     0.053 A 
ATOM     24  C23 ZIN A   1      17.290   2.706  18.624  0.00  0.00     0.038 A 
ATOM     25  C15 ZIN A   1      19.302   3.131  16.727  0.00  0.00     0.042 A 
ATOM     26  C17 ZIN A   1      19.155   1.894  17.339  0.00  0.00     0.056 A 
ATOM     27  C18 ZIN A   1      18.156   1.691  18.277  0.00  0.00     0.083 A 
ATOM     28  O13 ZIN A   1      19.577   5.897  15.937  0.00  0.00    -0.285 OA
BRANCH  19  29
ATOM     29  S27 ZIN A   1      15.353   7.489  18.113  0.00  0.00     0.140 S 
ATOM     30  O28 ZIN A   1      16.104   8.730  18.004  0.00  0.00    -0.591 OA
ATOM     31  O29 ZIN A   1      14.235   7.442  17.184  0.00  0.00    -0.591 OA
ATOM     32  O30 ZIN A   1      14.937   7.221  19.482  0.00  0.00    -0.591 OA
ENDBRANCH  19  29
BRANCH  25  33
ATOM     33  N16 ZIN A   1      20.305   3.333  15.786  0.00  0.00    -0.398 N 
ATOM     34  H66 ZIN A   1      20.195   4.007  15.097  0.00  0.00     0.156 HD
ATOM     35  H67 ZIN A   1      21.115   2.799  15.818  0.00  0.00     0.156 HD
ENDBRANCH  25  33
BRANCH  27  36
ATOM     36  S19 ZIN A   1      17.990   0.110  19.039  0.00  0.00     0.137 S 
ATOM     37  O20 ZIN A   1      17.439   0.339  20.365  0.00  0.00    -0.591 OA
ATOM     38  O21 ZIN A   1      17.090  -0.667  18.200  0.00  0.00    -0.591 OA
ATOM     39  O22 ZIN A   1      19.322  -0.470  19.094  0.00  0.00    -0.591 OA
ENDBRANCH  27  36
ENDBRANCH  15  17
ENDBRANCH  11  15
ENDBRANCH   4   8
BRANCH   7  40
ATOM     40  N37 ZIN A   1      20.020  -0.793   9.265  0.00  0.00    -0.277 N 
ATOM     41  H77 ZIN A   1      20.474  -1.535   9.694  0.00  0.00     0.189 HD
BRANCH  40  42
ATOM     42  N38 ZIN A   1      19.711  -0.861   8.014  0.00  0.00    -0.169 NA
ATOM     43  C39 ZIN A   1      18.860  -1.782   7.592  0.00  0.00     0.152 C 
ATOM     44  C54 ZIN A   1      18.481  -1.893   6.176  0.00  0.00     0.116 C 
ATOM     45  C40 ZIN A   1      18.233  -2.750   8.524  0.00  0.00     0.217 C 
ATOM     46  C53 ZIN A   1      18.033  -3.080   5.702  0.00  0.00     0.041 C 
ATOM     47  C52 ZIN A   1      17.906  -4.244   6.574  0.00  0.00    -0.017 A 
ATOM     48  C42 ZIN A   1      17.997  -4.095   7.978  0.00  0.00     0.053 A 
ATOM     49  C51 ZIN A   1      17.690  -5.518   6.038  0.00  0.00     0.038 A 
ATOM     50  C43 ZIN A   1      17.867  -5.211   8.814  0.00  0.00     0.042 A 
ATOM     51  C45 ZIN A   1      17.651  -6.461   8.251  0.00  0.00     0.056 A 
ATOM     52  C46 ZIN A   1      17.564  -6.605   6.876  0.00  0.00     0.083 A 
ATOM     53  O41 ZIN A   1      17.931  -2.451   9.668  0.00  0.00    -0.285 OA
BRANCH  44  54
ATOM     54  S55 ZIN A   1      18.620  -0.504   5.102  0.00  0.00     0.140 S 
ATOM     55  O56 ZIN A   1      18.174   0.656   5.858  0.00  0.00    -0.591 OA
ATOM     56  O57 ZIN A   1      20.020  -0.404   4.724  0.00  0.00    -0.591 OA
ATOM     57  O58 ZIN A   1      17.762  -0.770   3.957  0.00  0.00    -0.591 OA
ENDBRANCH  44  54
BRANCH  50  58
ATOM     58  N44 ZIN A   1      17.952  -5.068  10.193  0.00  0.00    -0.398 N 
ATOM     59  H78 ZIN A   1      17.431  -5.643  10.774  0.00  0.00     0.156 HD
ATOM     60  H79 ZIN A   1      18.534  -4.392  10.575  0.00  0.00     0.156 HD
ENDBRANCH  50  58
BRANCH  52  61
ATOM     61  S47 ZIN A   1      17.293  -8.204   6.187  0.00  0.00     0.137 S 
ATOM     62  O48 ZIN A   1      18.086  -9.139   6.969  0.00  0.00    -0.591 OA
ATOM     63  O49 ZIN A   1      15.867  -8.472   6.296  0.00  0.00    -0.591 OA
ATOM     64  O50 ZIN A   1      17.731  -8.143   4.800  0.00  0.00    -0.591 OA
ENDBRANCH  52  61
ENDBRANCH  40  42
ENDBRANCH   7  40
TORSDOF 11
ENDMDL
MODEL 7
REMARK VINA RESULT:      -8.0      2.067     13.291
REMARK  11 active torsions:
REMARK  status: ('A' for Active; 'I' for Inactive)
REMARK    1  A    between atoms: C4_4  and  C5_5 
REMARK    2  A    between atoms: C8_8  and  N9_9 
REMARK    3  A    between atoms: N9_9  and  N10_10 
REMARK    4  A    between atoms: C15_15  and  N16_16 
REMARK    5  A    between atoms: C18_18  and  S19_19 
REMARK    6  A    between atoms: C26_26  and  S27_27 
REMARK    7  A    between atoms: C36_36  and  N37_37 
REMARK    8  A    between atoms: N37_37  and  N38_38 
REMARK    9  A    between atoms: C43_43  and  N44_44 
REMARK   10  A    between atoms: C46_46  and  S47_47 
REMARK   11  A    between atoms: C54_54  and  S55_55 
ROOT
ATOM      1  C1  ZIN A   1      17.605   6.238   9.369  0.00  0.00     0.050 C 
ATOM      2  C2  ZIN A   1      17.526   5.004  10.230  0.00  0.00    -0.033 A 
ATOM      3  C3  ZIN A   1      17.902   3.782   9.718  0.00  0.00     0.021 A 
ATOM      4  C4  ZIN A   1      17.830   2.639  10.516  0.00  0.00    -0.025 A 
ATOM      5  C34 ZIN A   1      17.377   2.737  11.831  0.00  0.00     0.014 A 
ATOM      6  C35 ZIN A   1      17.002   3.961  12.340  0.00  0.00     0.032 A 
ATOM      7  C36 ZIN A   1      17.080   5.100  11.546  0.00  0.00     0.056 A 
ENDROOT
BRANCH   4   8
ATOM      8  C5  ZIN A   1      18.234   1.324   9.965  0.00  0.00    -0.025 A 
ATOM      9  C33 ZIN A   1      18.361   1.152   8.587  0.00  0.00     0.021 A 
ATOM     10  C31 ZIN A   1      18.741  -0.069   8.077  0.00  0.00    -0.033 A 
ATOM     11  C8  ZIN A   1      18.988  -1.136   8.936  0.00  0.00     0.056 A 
ATOM     12  C32 ZIN A   1      18.884  -0.253   6.588  0.00  0.00     0.050 C 
ATOM     13  C7  ZIN A   1      18.857  -0.969  10.310  0.00  0.00     0.032 A 
ATOM     14  C6  ZIN A   1      18.483   0.253  10.825  0.00  0.00     0.014 A 
BRANCH  11  15
ATOM     15  N9  ZIN A   1      19.367  -2.372   8.418  0.00  0.00    -0.277 N 
ATOM     16  H65 ZIN A   1      20.190  -2.455   7.911  0.00  0.00     0.189 HD
BRANCH  15  17
ATOM     17  N10 ZIN A   1      18.622  -3.408   8.612  0.00  0.00    -0.169 NA
ATOM     18  C11 ZIN A   1      18.314  -4.201   7.598  0.00  0.00     0.152 C 
ATOM     19  C26 ZIN A   1      17.469  -5.391   7.776  0.00  0.00     0.116 C 
ATOM     20  C12 ZIN A   1      18.805  -3.936   6.224  0.00  0.00     0.217 C 
ATOM     21  C25 ZIN A   1      16.783  -5.879   6.717  0.00  0.00     0.041 C 
ATOM     22  C24 ZIN A   1      16.877  -5.255   5.400  0.00  0.00    -0.017 A 
ATOM     23  C14 ZIN A   1      17.879  -4.292   5.139  0.00  0.00     0.053 A 
ATOM     24  C23 ZIN A   1      15.983  -5.600   4.380  0.00  0.00     0.038 A 
ATOM     25  C15 ZIN A   1      17.974  -3.701   3.873  0.00  0.00     0.042 A 
ATOM     26  C17 ZIN A   1      17.073  -4.065   2.882  0.00  0.00     0.056 A 
ATOM     27  C18 ZIN A   1      16.090  -5.006   3.141  0.00  0.00     0.083 A 
ATOM     28  O13 ZIN A   1      19.907  -3.457   6.009  0.00  0.00    -0.285 OA
BRANCH  19  29
ATOM     29  S27 ZIN A   1      17.340  -6.167   9.352  0.00  0.00     0.140 S 
ATOM     30  O28 ZIN A   1      16.867  -7.522   9.115  0.00  0.00    -0.591 OA
ATOM     31  O29 ZIN A   1      18.670  -6.147   9.940  0.00  0.00    -0.591 OA
ATOM     32  O30 ZIN A   1      16.388  -5.385  10.128  0.00  0.00    -0.591 OA
ENDBRANCH  19  29
BRANCH  25  33
ATOM     33  N16 ZIN A   1      18.961  -2.757   3.612  0.00  0.00    -0.398 N 
ATOM     34  H66 ZIN A   1      18.812  -2.072   2.941  0.00  0.00     0.156 HD
ATOM     35  H67 ZIN A   1      19.798  -2.783   4.102  0.00  0.00     0.156 HD
ENDBRANCH  25  33
BRANCH  27  36
ATOM     36  S19 ZIN A   1      14.958  -5.449   1.866  0.00  0.00     0.137 S 
ATOM     37  O20 ZIN A   1      15.578  -6.525   1.109  0.00  0.00    -0.591 OA
ATOM     38  O21 ZIN A   1      13.733  -5.878   2.522  0.00  0.00    -0.591 OA
ATOM     39  O22 ZIN A   1      14.754  -4.259   1.054  0.00  0.00    -0.591 OA
ENDBRANCH  27  36
ENDBRANCH  15  17
ENDBRANCH  11  15
ENDBRANCH   4   8
BRANCH   7  40
ATOM     40  N37 ZIN A   1      16.700   6.336  12.062  0.00  0.00    -0.277 N 
ATOM     41  H77 ZIN A   1      17.006   7.154  11.638  0.00  0.00     0.189 HD
BRANCH  40  42
ATOM     42  N38 ZIN A   1      15.942   6.394  13.104  0.00  0.00    -0.169 NA
ATOM     43  C39 ZIN A   1      16.453   6.183  14.306  0.00  0.00     0.152 C 
ATOM     44  C54 ZIN A   1      15.624   6.241  15.520  0.00  0.00     0.116 C 
ATOM     45  C40 ZIN A   1      17.892   5.883  14.500  0.00  0.00     0.217 C 
ATOM     46  C53 ZIN A   1      16.021   5.567  16.625  0.00  0.00     0.041 C 
ATOM     47  C52 ZIN A   1      17.263   4.798  16.638  0.00  0.00    -0.017 A 
ATOM     48  C42 ZIN A   1      18.204   4.949  15.591  0.00  0.00     0.053 A 
ATOM     49  C51 ZIN A   1      17.542   3.908  17.680  0.00  0.00     0.038 A 
ATOM     50  C43 ZIN A   1      19.399   4.217  15.609  0.00  0.00     0.042 A 
ATOM     51  C45 ZIN A   1      19.646   3.344  16.659  0.00  0.00     0.056 A 
ATOM     52  C46 ZIN A   1      18.722   3.195  17.680  0.00  0.00     0.083 A 
ATOM     53  O41 ZIN A   1      18.761   6.380  13.801  0.00  0.00    -0.285 OA
BRANCH  44  54
ATOM     54  S55 ZIN A   1      14.124   7.164  15.534  0.00  0.00     0.140 S 
ATOM     55  O56 ZIN A   1      14.474   8.537  15.205  0.00  0.00    -0.591 OA
ATOM     56  O57 ZIN A   1      13.255   6.567  14.533  0.00  0.00    -0.591 OA
ATOM     57  O58 ZIN A   1      13.573   7.048  16.875  0.00  0.00    -0.591 OA
ENDBRANCH  44  54
BRANCH  50  58
ATOM     58  N44 ZIN A   1      20.327   4.366  14.587  0.00  0.00    -0.398 N 
ATOM     59  H78 ZIN A   1      20.961   3.657  14.399  0.00  0.00     0.156 HD
ATOM     60  H79 ZIN A   1      20.341   5.180  14.060  0.00  0.00     0.156 HD
ENDBRANCH  50  58
BRANCH  52  61
ATOM     61  S47 ZIN A   1      19.059   2.077  18.999  0.00  0.00     0.137 S 
ATOM     62  O48 ZIN A   1      19.626   2.864  20.083  0.00  0.00    -0.591 OA
ATOM     63  O49 ZIN A   1      17.790   1.471  19.371  0.00  0.00    -0.591 OA
ATOM     64  O50 ZIN A   1      20.002   1.095  18.486  0.00  0.00    -0.591 OA
ENDBRANCH  52  61
ENDBRANCH  40  42
ENDBRANCH   7  40
TORSDOF 11
ENDMDL
MODEL 8
REMARK VINA RESULT:      -7.8      2.079      3.067
REMARK  11 active torsions:
REMARK  status: ('A' for Active; 'I' for Inactive)
REMARK    1  A    between atoms: C4_4  and  C5_5 
REMARK    2  A    between atoms: C8_8  and  N9_9 
REMARK    3  A    between atoms: N9_9  and  N10_10 
REMARK    4  A    between atoms: C15_15  and  N16_16 
REMARK    5  A    between atoms: C18_18  and  S19_19 
REMARK    6  A    between atoms: C26_26  and  S27_27 
REMARK    7  A    between atoms: C36_36  and  N37_37 
REMARK    8  A    between atoms: N37_37  and  N38_38 
REMARK    9  A    between atoms: C43_43  and  N44_44 
REMARK   10  A    between atoms: C46_46  and  S47_47 
REMARK   11  A    between atoms: C54_54  and  S55_55 
ROOT
ATOM      1  C1  ZIN A   1      18.943  -2.166  11.271  0.00  0.00     0.050 C 
ATOM      2  C2  ZIN A   1      18.836  -0.976  10.351  0.00  0.00    -0.033 A 
ATOM      3  C3  ZIN A   1      18.443   0.246  10.850  0.00  0.00     0.021 A 
ATOM      4  C4  ZIN A   1      18.344   1.347   9.999  0.00  0.00    -0.025 A 
ATOM      5  C34 ZIN A   1      18.643   1.208   8.644  0.00  0.00     0.014 A 
ATOM      6  C35 ZIN A   1      19.036  -0.016   8.149  0.00  0.00     0.032 A 
ATOM      7  C36 ZIN A   1      19.140  -1.112   9.000  0.00  0.00     0.056 A 
ENDROOT
BRANCH   4   8
ATOM      8  C5  ZIN A   1      17.922   2.663  10.535  0.00  0.00    -0.025 A 
ATOM      9  C33 ZIN A   1      18.032   3.807   9.744  0.00  0.00     0.021 A 
ATOM     10  C31 ZIN A   1      17.635   5.028  10.241  0.00  0.00    -0.033 A 
ATOM     11  C8  ZIN A   1      17.133   5.124  11.536  0.00  0.00     0.056 A 
ATOM     12  C32 ZIN A   1      17.749   6.264   9.385  0.00  0.00     0.050 C 
ATOM     13  C7  ZIN A   1      17.028   3.985  12.328  0.00  0.00     0.032 A 
ATOM     14  C6  ZIN A   1      17.418   2.761  11.833  0.00  0.00     0.014 A 
BRANCH  11  15
ATOM     15  N9  ZIN A   1      16.738   6.361  12.039  0.00  0.00    -0.277 N 
ATOM     16  H65 ZIN A   1      17.036   7.178  11.610  0.00  0.00     0.189 HD
BRANCH  15  17
ATOM     17  N10 ZIN A   1      15.975   6.420  13.078  0.00  0.00    -0.169 NA
ATOM     18  C11 ZIN A   1      16.480   6.209  14.283  0.00  0.00     0.152 C 
ATOM     19  C26 ZIN A   1      15.646   6.268  15.493  0.00  0.00     0.116 C 
ATOM     20  C12 ZIN A   1      17.917   5.903  14.483  0.00  0.00     0.217 C 
ATOM     21  C25 ZIN A   1      16.036   5.593  16.599  0.00  0.00     0.041 C 
ATOM     22  C24 ZIN A   1      17.275   4.820  16.617  0.00  0.00    -0.017 A 
ATOM     23  C14 ZIN A   1      18.220   4.968  15.576  0.00  0.00     0.053 A 
ATOM     24  C23 ZIN A   1      17.546   3.929  17.661  0.00  0.00     0.038 A 
ATOM     25  C15 ZIN A   1      19.412   4.233  15.600  0.00  0.00     0.042 A 
ATOM     26  C17 ZIN A   1      19.652   3.357  16.650  0.00  0.00     0.056 A 
ATOM     27  C18 ZIN A   1      18.723   3.212  17.667  0.00  0.00     0.083 A 
ATOM     28  O13 ZIN A   1      18.790   6.397  13.788  0.00  0.00    -0.285 OA
BRANCH  19  29
ATOM     29  S27 ZIN A   1      14.148   7.196  15.500  0.00  0.00     0.140 S 
ATOM     30  O28 ZIN A   1      13.194   6.459  14.686  0.00  0.00    -0.591 OA
ATOM     31  O29 ZIN A   1      13.722   7.295  16.887  0.00  0.00    -0.591 OA
ATOM     32  O30 ZIN A   1      14.459   8.499  14.931  0.00  0.00    -0.591 OA
ENDBRANCH  19  29
BRANCH  25  33
ATOM     33  N16 ZIN A   1      20.346   4.377  14.580  0.00  0.00    -0.398 N 
ATOM     34  H66 ZIN A   1      20.790   3.597  14.215  0.00  0.00     0.156 HD
ATOM     35  H67 ZIN A   1      20.553   5.260  14.234  0.00  0.00     0.156 HD
ENDBRANCH  25  33
BRANCH  27  36
ATOM     36  S19 ZIN A   1      19.050   2.093  18.988  0.00  0.00     0.137 S 
ATOM     37  O20 ZIN A   1      19.627   2.876  20.069  0.00  0.00    -0.591 OA
ATOM     38  O21 ZIN A   1      17.776   1.500  19.362  0.00  0.00    -0.591 OA
ATOM     39  O22 ZIN A   1      19.984   1.102  18.475  0.00  0.00    -0.591 OA
ENDBRANCH  27  36
ENDBRANCH  15  17
ENDBRANCH  11  15
ENDBRANCH   4   8
BRANCH   7  40
ATOM     40  N37 ZIN A   1      19.536  -2.349   8.497  0.00  0.00    -0.277 N 
ATOM     41  H77 ZIN A   1      20.366  -2.426   8.000  0.00  0.00     0.189 HD
BRANCH  40  42
ATOM     42  N38 ZIN A   1      18.800  -3.390   8.691  0.00  0.00    -0.169 NA
ATOM     43  C39 ZIN A   1      18.439  -4.145   7.667  0.00  0.00     0.152 C 
ATOM     44  C54 ZIN A   1      17.601  -5.341   7.845  0.00  0.00     0.116 C 
ATOM     45  C40 ZIN A   1      18.863  -3.834   6.281  0.00  0.00     0.217 C 
ATOM     46  C53 ZIN A   1      16.861  -5.792   6.805  0.00  0.00     0.041 C 
ATOM     47  C52 ZIN A   1      16.892  -5.122   5.507  0.00  0.00    -0.017 A 
ATOM     48  C42 ZIN A   1      17.884  -4.151   5.231  0.00  0.00     0.053 A 
ATOM     49  C51 ZIN A   1      15.948  -5.429   4.522  0.00  0.00     0.038 A 
ATOM     50  C43 ZIN A   1      17.917  -3.515   3.983  0.00  0.00     0.042 A 
ATOM     51  C45 ZIN A   1      16.967  -3.845   3.026  0.00  0.00     0.056 A 
ATOM     52  C46 ZIN A   1      15.996  -4.793   3.300  0.00  0.00     0.083 A 
ATOM     53  O41 ZIN A   1      19.954  -3.348   6.027  0.00  0.00    -0.285 OA
BRANCH  44  54
ATOM     54  S55 ZIN A   1      17.549  -6.172   9.397  0.00  0.00     0.140 S 
ATOM     55  O56 ZIN A   1      17.077  -7.522   9.134  0.00  0.00    -0.591 OA
ATOM     56  O57 ZIN A   1      18.903  -6.161   9.926  0.00  0.00    -0.591 OA
ATOM     57  O58 ZIN A   1      16.627  -5.427  10.241  0.00  0.00    -0.591 OA
ENDBRANCH  44  54
BRANCH  50  58
ATOM     58  N44 ZIN A   1      18.891  -2.565   3.707  0.00  0.00    -0.398 N 
ATOM     59  H78 ZIN A   1      19.567  -2.744   3.035  0.00  0.00     0.156 HD
ATOM     60  H79 ZIN A   1      18.897  -1.722   4.186  0.00  0.00     0.156 HD
ENDBRANCH  50  58
BRANCH  52  61
ATOM     61  S47 ZIN A   1      14.800  -5.191   2.069  0.00  0.00     0.137 S 
ATOM     62  O48 ZIN A   1      13.493  -5.061   2.694  0.00  0.00    -0.591 OA
ATOM     63  O49 ZIN A   1      14.983  -4.241   0.983  0.00  0.00    -0.591 OA
ATOM     64  O50 ZIN A   1      15.070  -6.558   1.648  0.00  0.00    -0.591 OA
ENDBRANCH  52  61
ENDBRANCH  40  42
ENDBRANCH   7  40
TORSDOF 11
ENDMDL
MODEL 9
REMARK VINA RESULT:      -7.6      2.591     13.078
REMARK  11 active torsions:
REMARK  status: ('A' for Active; 'I' for Inactive)
REMARK    1  A    between atoms: C4_4  and  C5_5 
REMARK    2  A    between atoms: C8_8  and  N9_9 
REMARK    3  A    between atoms: N9_9  and  N10_10 
REMARK    4  A    between atoms: C15_15  and  N16_16 
REMARK    5  A    between atoms: C18_18  and  S19_19 
REMARK    6  A    between atoms: C26_26  and  S27_27 
REMARK    7  A    between atoms: C36_36  and  N37_37 
REMARK    8  A    between atoms: N37_37  and  N38_38 
REMARK    9  A    between atoms: C43_43  and  N44_44 
REMARK   10  A    between atoms: C46_46  and  S47_47 
REMARK   11  A    between atoms: C54_54  and  S55_55 
ROOT
ATOM      1  C1  ZIN A   1      18.520   5.763   8.851  0.00  0.00     0.050 C 
ATOM      2  C2  ZIN A   1      18.139   4.456   9.496  0.00  0.00    -0.033 A 
ATOM      3  C3  ZIN A   1      18.300   3.275   8.805  0.00  0.00     0.021 A 
ATOM      4  C4  ZIN A   1      17.947   2.064   9.402  0.00  0.00    -0.025 A 
ATOM      5  C34 ZIN A   1      17.431   2.052  10.698  0.00  0.00     0.014 A 
ATOM      6  C35 ZIN A   1      17.271   3.235  11.385  0.00  0.00     0.032 A 
ATOM      7  C36 ZIN A   1      17.629   4.441  10.791  0.00  0.00     0.056 A 
ENDROOT
BRANCH   4   8
ATOM      8  C5  ZIN A   1      18.121   0.793   8.660  0.00  0.00    -0.025 A 
ATOM      9  C33 ZIN A   1      18.637   0.805   7.364  0.00  0.00     0.021 A 
ATOM     10  C31 ZIN A   1      18.802  -0.377   6.678  0.00  0.00    -0.033 A 
ATOM     11  C8  ZIN A   1      18.444  -1.584   7.272  0.00  0.00     0.056 A 
ATOM     12  C32 ZIN A   1      19.365  -0.365   5.280  0.00  0.00     0.050 C 
ATOM     13  C7  ZIN A   1      17.923  -1.598   8.562  0.00  0.00     0.032 A 
ATOM     14  C6  ZIN A   1      17.762  -0.418   9.255  0.00  0.00     0.014 A 
BRANCH  11  15
ATOM     15  N9  ZIN A   1      18.606  -2.778   6.574  0.00  0.00    -0.277 N 
ATOM     16  H65 ZIN A   1      19.079  -2.785   5.727  0.00  0.00     0.189 HD
BRANCH  15  17
ATOM     17  N10 ZIN A   1      18.124  -3.875   7.053  0.00  0.00    -0.169 NA
ATOM     18  C11 ZIN A   1      17.629  -4.792   6.237  0.00  0.00     0.152 C 
ATOM     19  C26 ZIN A   1      17.072  -6.056   6.741  0.00  0.00     0.116 C 
ATOM     20  C12 ZIN A   1      17.612  -4.600   4.767  0.00  0.00     0.217 C 
ATOM     21  C25 ZIN A   1      16.164  -6.724   5.993  0.00  0.00     0.041 C 
ATOM     22  C24 ZIN A   1      15.739  -6.220   4.689  0.00  0.00    -0.017 A 
ATOM     23  C14 ZIN A   1      16.451  -5.170   4.066  0.00  0.00     0.053 A 
ATOM     24  C23 ZIN A   1      14.628  -6.769   4.039  0.00  0.00     0.038 A 
ATOM     25  C15 ZIN A   1      16.048  -4.694   2.812  0.00  0.00     0.042 A 
ATOM     26  C17 ZIN A   1      14.943  -5.259   2.193  0.00  0.00     0.056 A 
ATOM     27  C18 ZIN A   1      14.244  -6.286   2.806  0.00  0.00     0.083 A 
ATOM     28  O13 ZIN A   1      18.502  -4.010   4.177  0.00  0.00    -0.285 OA
BRANCH  19  29
ATOM     29  S27 ZIN A   1      17.570  -6.689   8.308  0.00  0.00     0.140 S 
ATOM     30  O28 ZIN A   1      16.923  -7.983   8.463  0.00  0.00    -0.591 OA
ATOM     31  O29 ZIN A   1      19.019  -6.804   8.274  0.00  0.00    -0.591 OA
ATOM     32  O30 ZIN A   1      17.122  -5.732   9.309  0.00  0.00    -0.591 OA
ENDBRANCH  19  29
BRANCH  25  33
ATOM     33  N16 ZIN A   1      16.748  -3.664   2.195  0.00  0.00    -0.398 N 
ATOM     34  H66 ZIN A   1      17.272  -3.842   1.399  0.00  0.00     0.156 HD
ATOM     35  H67 ZIN A   1      16.712  -2.765   2.561  0.00  0.00     0.156 HD
ENDBRANCH  25  33
BRANCH  27  36
ATOM     36  S19 ZIN A   1      12.843  -6.986   1.999  0.00  0.00     0.137 S 
ATOM     37  O20 ZIN A   1      13.354  -7.897   0.987  0.00  0.00    -0.591 OA
ATOM     38  O21 ZIN A   1      12.073  -7.678   3.019  0.00  0.00    -0.591 OA
ATOM     39  O22 ZIN A   1      12.103  -5.879   1.412  0.00  0.00    -0.591 OA
ENDBRANCH  27  36
ENDBRANCH  15  17
ENDBRANCH  11  15
ENDBRANCH   4   8
BRANCH   7  40
ATOM     40  N37 ZIN A   1      17.466   5.636  11.488  0.00  0.00    -0.277 N 
ATOM     41  H77 ZIN A   1      17.743   6.474  11.085  0.00  0.00     0.189 HD
BRANCH  40  42
ATOM     42  N38 ZIN A   1      16.947   5.628  12.669  0.00  0.00    -0.169 NA
ATOM     43  C39 ZIN A   1      17.504   4.911  13.631  0.00  0.00     0.152 C 
ATOM     44  C54 ZIN A   1      16.946   4.875  14.991  0.00  0.00     0.116 C 
ATOM     45  C40 ZIN A   1      18.729   4.109  13.396  0.00  0.00     0.217 C 
ATOM     46  C53 ZIN A   1      17.208   3.811  15.786  0.00  0.00     0.041 C 
ATOM     47  C52 ZIN A   1      18.046   2.708  15.323  0.00  0.00    -0.017 A 
ATOM     48  C42 ZIN A   1      18.812   2.844  14.141  0.00  0.00     0.053 A 
ATOM     49  C51 ZIN A   1      18.107   1.508  16.039  0.00  0.00     0.038 A 
ATOM     50  C43 ZIN A   1      19.621   1.788  13.702  0.00  0.00     0.042 A 
ATOM     51  C45 ZIN A   1      19.662   0.611  14.437  0.00  0.00     0.056 A 
ATOM     52  C46 ZIN A   1      18.909   0.480  15.592  0.00  0.00     0.083 A 
ATOM     53  O41 ZIN A   1      19.611   4.474  12.636  0.00  0.00    -0.285 OA
BRANCH  44  54
ATOM     54  S55 ZIN A   1      15.936   6.194  15.577  0.00  0.00     0.140 S 
ATOM     55  O56 ZIN A   1      14.597   5.957  15.061  0.00  0.00    -0.591 OA
ATOM     56  O57 ZIN A   1      15.977   6.140  17.030  0.00  0.00    -0.591 OA
ATOM     57  O58 ZIN A   1      16.510   7.425  15.059  0.00  0.00    -0.591 OA
ENDBRANCH  44  54
BRANCH  50  58
ATOM     58  N44 ZIN A   1      20.377   1.919  12.545  0.00  0.00    -0.398 N 
ATOM     59  H78 ZIN A   1      20.650   2.798  12.240  0.00  0.00     0.156 HD
ATOM     60  H79 ZIN A   1      20.632   1.131  12.040  0.00  0.00     0.156 HD
ENDBRANCH  50  58
BRANCH  52  61
ATOM     61  S47 ZIN A   1      18.976  -1.027  16.504  0.00  0.00     0.137 S 
ATOM     62  O48 ZIN A   1      19.746  -1.967  15.706  0.00  0.00    -0.591 OA
ATOM     63  O49 ZIN A   1      19.626  -0.723  17.769  0.00  0.00    -0.591 OA
ATOM     64  O50 ZIN A   1      17.601  -1.466  16.690  0.00  0.00    -0.591 OA
ENDBRANCH  52  61
ENDBRANCH  40  42
ENDBRANCH   7  40
TORSDOF 11
ENDMDL
