MODEL 1
REMARK VINA RESULT:      -4.9      0.000      0.000
REMARK  12 active torsions:
REMARK  status: ('A' for Active; 'I' for Inactive)
REMARK    1  A    between atoms: C2_2  and  C3_3 
REMARK    2  A    between atoms: C15_15  and  O16_16 
REMARK    3  A    between atoms: C18_18  and  C19_19 
REMARK    4  A    between atoms: C19_19  and  C20_20 
REMARK    5  A    between atoms: C20_20  and  O22_22 
REMARK    6  A    between atoms: C31_30  and  O32_31 
REMARK    7  A    between atoms: C31_30  and  C33_32 
REMARK    8  A    between atoms: C52_50  and  O53_51 
REMARK    9  A    between atoms: C52_50  and  C54_52 
REMARK   10  A    between atoms: C54_52  and  O56_54 
REMARK   11  A    between atoms: C58_56  and  O60_57 
REMARK   12  A    between atoms: O60_57  and  C61_58 
ROOT
ATOM      1  C3  ZIN A   1      17.407   0.095  12.189  0.00  0.00     0.037 C 
ATOM      2  C4  ZIN A   1      17.189   0.551  13.600  0.00  0.00    -0.015 C 
ATOM      3  C5  ZIN A   1      17.779  -0.009  14.614  0.00  0.00    -0.003 C 
ATOM      4  C6  ZIN A   1      18.739  -1.146  14.432  0.00  0.00     0.262 C 
ATOM      5  N7  ZIN A   1      18.379  -1.955  13.264  0.00  0.00    -0.061 N 
ATOM      6  H8  ZIN A   1      17.543  -2.488  13.450  0.00  0.00     0.280 HD
ATOM      7  C9  ZIN A   1      19.526  -2.867  12.986  0.00  0.00     0.237 C 
ATOM      8  C10 ZIN A   1      20.472  -2.023  12.099  0.00  0.00     0.046 C 
ATOM      9  C11 ZIN A   1      19.485  -1.168  11.255  0.00  0.00     0.040 C 
ATOM     10  C12 ZIN A   1      19.305  -1.842   9.922  0.00  0.00    -0.024 A 
ATOM     11  C13 ZIN A   1      19.603  -0.913   8.921  0.00  0.00     0.020 A 
ATOM     12  C14 ZIN A   1      19.537  -1.279   7.574  0.00  0.00     0.061 A 
ATOM     13  C15 ZIN A   1      19.155  -2.585   7.289  0.00  0.00     0.077 A 
ATOM     14  C18 ZIN A   1      18.851  -3.492   8.291  0.00  0.00     0.000 A 
ATOM     15  C47 ZIN A   1      18.922  -3.138   9.633  0.00  0.00     0.021 A 
ATOM     16  N48 ZIN A   1      19.917   0.324   9.461  0.00  0.00    -0.278 NA
ATOM     17  C49 ZIN A   1      21.097   0.902   8.802  0.00  0.00     0.117 C 
ATOM     18  C50 ZIN A   1      20.147   0.164  10.921  0.00  0.00     0.125 C 
ATOM     19  C52 ZIN A   1      19.482   1.345  11.620  0.00  0.00     0.190 C 
ATOM     20  C58 ZIN A   1      17.964   1.256  11.363  0.00  0.00     0.192 C 
ATOM     21  C64 ZIN A   1      18.232  -1.133  12.075  0.00  0.00     0.218 C 
ENDROOT
BRANCH  14  22
ATOM     22  C19 ZIN A   1      18.433  -4.907   7.916  0.00  0.00     0.121 C 
ATOM     23  C39 ZIN A   1      17.885  -4.899   6.503  0.00  0.00     0.040 A 
ATOM     24  C38 ZIN A   1      17.819  -5.849   5.548  0.00  0.00    -0.020 A 
ATOM     25  N40 ZIN A   1      17.304  -3.737   6.004  0.00  0.00    -0.357 N 
ATOM     26  C37 ZIN A   1      18.233  -7.309   5.553  0.00  0.00     0.069 C 
ATOM     27  C46 ZIN A   1      17.247  -5.226   4.355  0.00  0.00    -0.001 A 
ATOM     28  C36 ZIN A   1      16.934  -8.198   5.520  0.00  0.00     0.239 C 
ATOM     29  N28 ZIN A   1      15.998  -7.439   6.356  0.00  0.00    -0.068 N 
ATOM     30  C27 ZIN A   1      16.716  -7.352   7.671  0.00  0.00     0.239 C 
ATOM     31  H29 ZIN A   1      15.859  -6.519   5.956  0.00  0.00     0.280 HD
ATOM     32  C30 ZIN A   1      14.705  -7.969   6.741  0.00  0.00     0.272 C 
ATOM     33  C25 ZIN A   1      16.214  -5.913   8.022  0.00  0.00     0.016 C 
ATOM     34  C24 ZIN A   1      17.320  -5.368   8.922  0.00  0.00     0.037 C 
ATOM     35  C35 ZIN A   1      14.854  -6.200   8.641  0.00  0.00     0.045 C 
ATOM     36  C31 ZIN A   1      13.971  -6.973   7.651  0.00  0.00     0.082 C 
ATOM     37  C41 ZIN A   1      16.947  -3.892   4.704  0.00  0.00     0.043 A 
ATOM     38  C45 ZIN A   1      16.992  -5.724   3.074  0.00  0.00     0.014 A 
ATOM     39  C42 ZIN A   1      16.393  -3.021   3.766  0.00  0.00     0.030 A 
ATOM     40  C43 ZIN A   1      16.151  -3.534   2.503  0.00  0.00     0.002 A 
ATOM     41  C44 ZIN A   1      16.442  -4.846   2.171  0.00  0.00     0.001 A 
ATOM     42 4H10 ZIN A   1      17.145  -2.925   6.508  0.00  0.00     0.166 HD
BRANCH  36  43
ATOM     43  O32 ZIN A   1      12.998  -7.709   8.410  0.00  0.00    -0.388 OA
ATOM     44  H92 ZIN A   1      13.352  -8.500   8.841  0.00  0.00     0.210 HD
ENDBRANCH  36  43
BRANCH  36  45
ATOM     45  C33 ZIN A   1      13.212  -5.971   6.774  0.00  0.00     0.035 C 
ATOM     46  C34 ZIN A   1      13.499  -6.263   5.300  0.00  0.00     0.008 C 
ENDBRANCH  36  45
BRANCH  22  47
ATOM     47  C20 ZIN A   1      19.662  -5.772   8.034  0.00  0.00     0.278 C 
ATOM     48  O21 ZIN A   1      19.733  -6.603   8.908  0.00  0.00    -0.264 OA
BRANCH  47  49
ATOM     49  O22 ZIN A   1      20.677  -5.618   7.170  0.00  0.00    -0.325 OA
ATOM     50  C23 ZIN A   1      22.020  -5.638   7.720  0.00  0.00     0.213 C 
ENDBRANCH  47  49
ENDBRANCH  22  47
ENDBRANCH  14  22
BRANCH  13  51
ATOM     51  O16 ZIN A   1      19.079  -2.983   5.992  0.00  0.00    -0.355 OA
ATOM     52  C17 ZIN A   1      19.600  -2.089   5.008  0.00  0.00     0.210 C 
ENDBRANCH  13  51
BRANCH  19  53
ATOM     53  O53 ZIN A   1      19.734   1.274  13.025  0.00  0.00    -0.376 OA
ATOM     54 3H11 ZIN A   1      19.382   0.479  13.448  0.00  0.00     0.211 HD
ENDBRANCH  19  53
BRANCH  19  55
ATOM     55  C54 ZIN A   1      20.033   2.635  11.072  0.00  0.00     0.297 C 
ATOM     56  O55 ZIN A   1      19.833   2.937   9.919  0.00  0.00    -0.262 OA
BRANCH  55  57
ATOM     57  O56 ZIN A   1      20.746   3.451  11.864  0.00  0.00    -0.324 OA
ATOM     58  C57 ZIN A   1      20.053   4.597  12.425  0.00  0.00     0.213 C 
ENDBRANCH  55  57
ENDBRANCH  19  55
BRANCH   1  59
ATOM     59  C2  ZIN A   1      16.029  -0.236  11.612  0.00  0.00     0.014 C 
ATOM     60  C1  ZIN A   1      16.111  -0.275  10.085  0.00  0.00     0.006 C 
ENDBRANCH   1  59
BRANCH  20  61
ATOM     61  O60 ZIN A   1      17.325   2.497  11.761  0.00  0.00    -0.311 OA
BRANCH  61  62
ATOM     62  C61 ZIN A   1      17.112   3.409  10.798  0.00  0.00     0.255 C 
ATOM     63  C62 ZIN A   1      16.644   4.793  11.163  0.00  0.00     0.126 C 
ATOM     64  O63 ZIN A   1      17.297   3.118   9.640  0.00  0.00    -0.266 OA
ENDBRANCH  61  62
ENDBRANCH  20  61
TORSDOF 12
ENDMDL
MODEL 2
REMARK VINA RESULT:      -3.9      4.550     12.001
REMARK  12 active torsions:
REMARK  status: ('A' for Active; 'I' for Inactive)
REMARK    1  A    between atoms: C2_2  and  C3_3 
REMARK    2  A    between atoms: C15_15  and  O16_16 
REMARK    3  A    between atoms: C18_18  and  C19_19 
REMARK    4  A    between atoms: C19_19  and  C20_20 
REMARK    5  A    between atoms: C20_20  and  O22_22 
REMARK    6  A    between atoms: C31_30  and  O32_31 
REMARK    7  A    between atoms: C31_30  and  C33_32 
REMARK    8  A    between atoms: C52_50  and  O53_51 
REMARK    9  A    between atoms: C52_50  and  C54_52 
REMARK   10  A    between atoms: C54_52  and  O56_54 
REMARK   11  A    between atoms: C58_56  and  O60_57 
REMARK   12  A    between atoms: O60_57  and  C61_58 
ROOT
ATOM      1  C3  ZIN A   1      17.296   0.165  10.850  0.00  0.00     0.037 C 
ATOM      2  C4  ZIN A   1      17.030  -0.275   9.442  0.00  0.00    -0.015 C 
ATOM      3  C5  ZIN A   1      17.549   0.324   8.413  0.00  0.00    -0.003 C 
ATOM      4  C6  ZIN A   1      18.474   1.494   8.572  0.00  0.00     0.262 C 
ATOM      5  N7  ZIN A   1      18.139   2.269   9.770  0.00  0.00    -0.061 N 
ATOM      6  H8  ZIN A   1      17.275   2.772   9.634  0.00  0.00     0.280 HD
ATOM      7  C9  ZIN A   1      19.262   3.219  10.012  0.00  0.00     0.237 C 
ATOM      8  C10 ZIN A   1      20.279   2.397  10.839  0.00  0.00     0.046 C 
ATOM      9  C11 ZIN A   1      19.366   1.490  11.711  0.00  0.00     0.040 C 
ATOM     10  C12 ZIN A   1      19.224   2.133  13.063  0.00  0.00    -0.024 A 
ATOM     11  C13 ZIN A   1      19.603   1.199  14.032  0.00  0.00     0.020 A 
ATOM     12  C14 ZIN A   1      19.587   1.539  15.387  0.00  0.00     0.061 A 
ATOM     13  C15 ZIN A   1      19.169   2.825  15.714  0.00  0.00     0.077 A 
ATOM     14  C18 ZIN A   1      18.785   3.736  14.744  0.00  0.00     0.000 A 
ATOM     15  C47 ZIN A   1      18.806   3.408  13.395  0.00  0.00     0.021 A 
ATOM     16  N48 ZIN A   1      19.938  -0.016  13.454  0.00  0.00    -0.278 NA
ATOM     17  C49 ZIN A   1      21.168  -0.558  14.046  0.00  0.00     0.117 C 
ATOM     18  C50 ZIN A   1      20.092   0.179  11.989  0.00  0.00     0.125 C 
ATOM     19  C52 ZIN A   1      19.440  -1.014  11.298  0.00  0.00     0.190 C 
ATOM     20  C58 ZIN A   1      17.935  -0.988  11.627  0.00  0.00     0.192 C 
ATOM     21  C64 ZIN A   1      18.078   1.421  10.949  0.00  0.00     0.218 C 
ENDROOT
BRANCH  14  22
ATOM     22  C19 ZIN A   1      18.332   5.128  15.166  0.00  0.00     0.121 C 
ATOM     23  C39 ZIN A   1      17.791   5.061  16.580  0.00  0.00     0.040 A 
ATOM     24  C38 ZIN A   1      17.706   5.978  17.564  0.00  0.00    -0.020 A 
ATOM     25  N40 ZIN A   1      17.244   3.870  17.045  0.00  0.00    -0.357 N 
ATOM     26  C37 ZIN A   1      18.081   7.449  17.604  0.00  0.00     0.069 C 
ATOM     27  C46 ZIN A   1      17.156   5.304  18.740  0.00  0.00    -0.001 A 
ATOM     28  C36 ZIN A   1      16.760   8.302  17.670  0.00  0.00     0.239 C 
ATOM     29  N28 ZIN A   1      15.839   7.545  16.815  0.00  0.00    -0.068 N 
ATOM     30  C27 ZIN A   1      16.553   7.517  15.494  0.00  0.00     0.239 C 
ATOM     31  H29 ZIN A   1      15.727   6.610  17.186  0.00  0.00     0.280 HD
ATOM     32  C30 ZIN A   1      14.531   8.053  16.452  0.00  0.00     0.272 C 
ATOM     33  C25 ZIN A   1      16.087   6.077  15.101  0.00  0.00     0.016 C 
ATOM     34  C24 ZIN A   1      17.202   5.590  14.180  0.00  0.00     0.037 C 
ATOM     35  C35 ZIN A   1      14.716   6.348  14.497  0.00  0.00     0.045 C 
ATOM     36  C31 ZIN A   1      13.819   7.066  15.514  0.00  0.00     0.082 C 
ATOM     37  C41 ZIN A   1      16.889   3.975  18.351  0.00  0.00     0.043 A 
ATOM     38  C45 ZIN A   1      16.895   5.755  20.037  0.00  0.00     0.014 A 
ATOM     39  C42 ZIN A   1      16.363   3.060  19.263  0.00  0.00     0.030 A 
ATOM     40  C43 ZIN A   1      16.114   3.527  20.543  0.00  0.00     0.002 A 
ATOM     41  C44 ZIN A   1      16.372   4.835  20.915  0.00  0.00     0.001 A 
ATOM     42 4H10 ZIN A   1      17.103   3.069  16.517  0.00  0.00     0.166 HD
BRANCH  36  43
ATOM     43  O32 ZIN A   1      12.823   7.800  14.783  0.00  0.00    -0.388 OA
ATOM     44  H92 ZIN A   1      13.130   8.133  13.927  0.00  0.00     0.210 HD
ENDBRANCH  36  43
BRANCH  36  45
ATOM     45  C33 ZIN A   1      13.091   6.018  16.363  0.00  0.00     0.035 C 
ATOM     46  C34 ZIN A   1      12.645   6.650  17.682  0.00  0.00     0.008 C 
ENDBRANCH  36  45
BRANCH  22  47
ATOM     47  C20 ZIN A   1      19.537   6.028  15.069  0.00  0.00     0.278 C 
ATOM     48  O21 ZIN A   1      19.594   6.870  14.205  0.00  0.00    -0.264 OA
BRANCH  47  49
ATOM     49  O22 ZIN A   1      20.548   5.893  15.942  0.00  0.00    -0.325 OA
ATOM     50  C23 ZIN A   1      21.893   5.873  15.397  0.00  0.00     0.213 C 
ENDBRANCH  47  49
ENDBRANCH  22  47
ENDBRANCH  14  22
BRANCH  13  51
ATOM     51  O16 ZIN A   1      19.139   3.197  17.021  0.00  0.00    -0.355 OA
ATOM     52  C17 ZIN A   1      19.644   2.261  17.974  0.00  0.00     0.210 C 
ENDBRANCH  13  51
BRANCH  19  53
ATOM     53  O53 ZIN A   1      19.623  -0.910   9.885  0.00  0.00    -0.376 OA
ATOM     54 3H11 ZIN A   1      20.226  -0.202   9.618  0.00  0.00     0.211 HD
ENDBRANCH  19  53
BRANCH  19  55
ATOM     55  C54 ZIN A   1      20.065  -2.292  11.796  0.00  0.00     0.297 C 
ATOM     56  O55 ZIN A   1      20.060  -2.548  12.977  0.00  0.00    -0.262 OA
BRANCH  55  57
ATOM     57  O56 ZIN A   1      20.627  -3.147  10.928  0.00  0.00    -0.324 OA
ATOM     58  C57 ZIN A   1      20.230  -4.541  11.023  0.00  0.00     0.213 C 
ENDBRANCH  55  57
ENDBRANCH  19  55
BRANCH   1  59
ATOM     59  C2  ZIN A   1      15.935   0.432  11.496  0.00  0.00     0.014 C 
ATOM     60  C1  ZIN A   1      16.077   0.396  13.019  0.00  0.00     0.006 C 
ENDBRANCH   1  59
BRANCH  20  61
ATOM     61  O60 ZIN A   1      17.324  -2.246  11.235  0.00  0.00    -0.311 OA
BRANCH  61  62
ATOM     62  C61 ZIN A   1      17.158  -3.168  12.198  0.00  0.00     0.255 C 
ATOM     63  C62 ZIN A   1      16.760  -4.574  11.832  0.00  0.00     0.126 C 
ATOM     64  O63 ZIN A   1      17.328  -2.870  13.356  0.00  0.00    -0.266 OA
ENDBRANCH  61  62
ENDBRANCH  20  61
TORSDOF 12
ENDMDL
MODEL 3
REMARK VINA RESULT:      -2.8      1.716      3.806
REMARK  12 active torsions:
REMARK  status: ('A' for Active; 'I' for Inactive)
REMARK    1  A    between atoms: C2_2  and  C3_3 
REMARK    2  A    between atoms: C15_15  and  O16_16 
REMARK    3  A    between atoms: C18_18  and  C19_19 
REMARK    4  A    between atoms: C19_19  and  C20_20 
REMARK    5  A    between atoms: C20_20  and  O22_22 
REMARK    6  A    between atoms: C31_30  and  O32_31 
REMARK    7  A    between atoms: C31_30  and  C33_32 
REMARK    8  A    between atoms: C52_50  and  O53_51 
REMARK    9  A    between atoms: C52_50  and  C54_52 
REMARK   10  A    between atoms: C54_52  and  O56_54 
REMARK   11  A    between atoms: C58_56  and  O60_57 
REMARK   12  A    between atoms: O60_57  and  C61_58 
ROOT
ATOM      1  C3  ZIN A   1      19.790   0.637   8.855  0.00  0.00     0.037 C 
ATOM      2  C4  ZIN A   1      20.236   1.892   8.169  0.00  0.00    -0.015 C 
ATOM      3  C5  ZIN A   1      19.696   2.314   7.065  0.00  0.00    -0.003 C 
ATOM      4  C6  ZIN A   1      18.566   1.575   6.412  0.00  0.00     0.262 C 
ATOM      5  N7  ZIN A   1      18.665   0.135   6.667  0.00  0.00    -0.061 N 
ATOM      6  H8  ZIN A   1      19.431  -0.263   6.146  0.00  0.00     0.280 HD
ATOM      7  C9  ZIN A   1      17.374  -0.479   6.245  0.00  0.00     0.237 C 
ATOM      8  C10 ZIN A   1      16.462  -0.332   7.486  0.00  0.00     0.046 C 
ATOM      9  C11 ZIN A   1      17.456  -0.504   8.670  0.00  0.00     0.040 C 
ATOM     10  C12 ZIN A   1      17.378  -1.930   9.140  0.00  0.00    -0.024 A 
ATOM     11  C13 ZIN A   1      17.102  -1.922  10.510  0.00  0.00     0.020 A 
ATOM     12  C14 ZIN A   1      16.954  -3.123  11.209  0.00  0.00     0.061 A 
ATOM     13  C15 ZIN A   1      17.107  -4.302  10.487  0.00  0.00     0.077 A 
ATOM     14  C18 ZIN A   1      17.392  -4.295   9.131  0.00  0.00     0.000 A 
ATOM     15  C47 ZIN A   1      17.533  -3.105   8.428  0.00  0.00     0.021 A 
ATOM     16  N48 ZIN A   1      17.036  -0.628  11.002  0.00  0.00    -0.278 NA
ATOM     17  C49 ZIN A   1      15.882  -0.463  11.897  0.00  0.00     0.117 C 
ATOM     18  C50 ZIN A   1      16.959   0.315   9.855  0.00  0.00     0.125 C 
ATOM     19  C52 ZIN A   1      17.866   1.498  10.176  0.00  0.00     0.190 C 
ATOM     20  C58 ZIN A   1      19.313   0.976  10.269  0.00  0.00     0.192 C 
ATOM     21  C64 ZIN A   1      18.789  -0.144   8.088  0.00  0.00     0.218 C 
ENDROOT
BRANCH  14  22
ATOM     22  C19 ZIN A   1      17.555  -5.618   8.396  0.00  0.00     0.121 C 
ATOM     23  C39 ZIN A   1      17.425  -5.373   6.907  0.00  0.00     0.040 A 
ATOM     24  C38 ZIN A   1      17.917  -6.023   5.833  0.00  0.00    -0.020 A 
ATOM     25  N40 ZIN A   1      16.663  -4.300   6.457  0.00  0.00    -0.357 N 
ATOM     26  C37 ZIN A   1      18.752  -7.286   5.717  0.00  0.00     0.069 C 
ATOM     27  C46 ZIN A   1      17.515  -5.268   4.646  0.00  0.00    -0.001 A 
ATOM     28  C36 ZIN A   1      17.856  -8.425   5.102  0.00  0.00     0.239 C 
ATOM     29  N28 ZIN A   1      16.543  -8.167   5.703  0.00  0.00    -0.068 N 
ATOM     30  C27 ZIN A   1      16.823  -8.256   7.175  0.00  0.00     0.239 C 
ATOM     31  H29 ZIN A   1      16.233  -7.238   5.448  0.00  0.00     0.280 HD
ATOM     32  C30 ZIN A   1      15.429  -9.080   5.541  0.00  0.00     0.272 C 
ATOM     33  C25 ZIN A   1      15.820  -7.129   7.588  0.00  0.00     0.016 C 
ATOM     34  C24 ZIN A   1      16.420  -6.586   8.883  0.00  0.00     0.037 C 
ATOM     35  C35 ZIN A   1      14.507  -7.894   7.664  0.00  0.00     0.045 C 
ATOM     36  C31 ZIN A   1      14.207  -8.570   6.319  0.00  0.00     0.082 C 
ATOM     37  C41 ZIN A   1      16.729  -4.190   5.105  0.00  0.00     0.043 A 
ATOM     38  C45 ZIN A   1      17.777  -5.457   3.286  0.00  0.00     0.014 A 
ATOM     39  C42 ZIN A   1      16.197  -3.265   4.206  0.00  0.00     0.030 A 
ATOM     40  C43 ZIN A   1      16.473  -3.471   2.865  0.00  0.00     0.002 A 
ATOM     41  C44 ZIN A   1      17.238  -4.536   2.422  0.00  0.00     0.001 A 
ATOM     42 4H10 ZIN A   1      16.129  -3.714   7.014  0.00  0.00     0.166 HD
BRANCH  36  43
ATOM     43  O32 ZIN A   1      13.351  -9.696   6.573  0.00  0.00    -0.388 OA
ATOM     44  H92 ZIN A   1      13.630 -10.241   7.323  0.00  0.00     0.210 HD
ENDBRANCH  36  43
BRANCH  36  45
ATOM     45  C33 ZIN A   1      13.432  -7.591   5.431  0.00  0.00     0.035 C 
ATOM     46  C34 ZIN A   1      12.917  -8.324   4.191  0.00  0.00     0.008 C 
ENDBRANCH  36  45
BRANCH  22  47
ATOM     47  C20 ZIN A   1      18.916  -6.155   8.759  0.00  0.00     0.278 C 
ATOM     48  O21 ZIN A   1      19.061  -7.333   8.982  0.00  0.00    -0.264 OA
BRANCH  47  49
ATOM     49  O22 ZIN A   1      19.967  -5.323   8.836  0.00  0.00    -0.325 OA
ATOM     50  C23 ZIN A   1      21.011  -5.486   7.840  0.00  0.00     0.213 C 
ENDBRANCH  47  49
ENDBRANCH  22  47
ENDBRANCH  14  22
BRANCH  13  51
ATOM     51  O16 ZIN A   1      16.972  -5.492  11.128  0.00  0.00    -0.355 OA
ATOM     52  C17 ZIN A   1      17.670  -5.646  12.364  0.00  0.00     0.210 C 
ENDBRANCH  13  51
BRANCH  19  53
ATOM     53  O53 ZIN A   1      17.774   2.470   9.132  0.00  0.00    -0.376 OA
ATOM     54 3H11 ZIN A   1      16.870   2.640   8.831  0.00  0.00     0.211 HD
ENDBRANCH  19  53
BRANCH  19  55
ATOM     55  C54 ZIN A   1      17.445   2.119  11.483  0.00  0.00     0.297 C 
ATOM     56  O55 ZIN A   1      17.503   1.476  12.504  0.00  0.00    -0.262 OA
BRANCH  55  57
ATOM     57  O56 ZIN A   1      17.009   3.388  11.514  0.00  0.00    -0.324 OA
ATOM     58  C57 ZIN A   1      17.386   4.188  12.666  0.00  0.00     0.213 C 
ENDBRANCH  55  57
ENDBRANCH  19  55
BRANCH   1  59
ATOM     59  C2  ZIN A   1      21.028  -0.250   9.007  0.00  0.00     0.014 C 
ATOM     60  C1  ZIN A   1      20.792  -1.267  10.126  0.00  0.00     0.006 C 
ENDBRANCH   1  59
BRANCH  20  61
ATOM     61  O60 ZIN A   1      20.168   1.997  10.846  0.00  0.00    -0.311 OA
BRANCH  61  62
ATOM     62  C61 ZIN A   1      20.406   1.917  12.166  0.00  0.00     0.255 C 
ATOM     63  C62 ZIN A   1      20.666   0.577  12.804  0.00  0.00     0.126 C 
ATOM     64  O63 ZIN A   1      20.412   2.920  12.840  0.00  0.00    -0.266 OA
ENDBRANCH  61  62
ENDBRANCH  20  61
TORSDOF 12
ENDMDL
MODEL 4
REMARK VINA RESULT:      -2.4      3.350     10.864
REMARK  12 active torsions:
REMARK  status: ('A' for Active; 'I' for Inactive)
REMARK    1  A    between atoms: C2_2  and  C3_3 
REMARK    2  A    between atoms: C15_15  and  O16_16 
REMARK    3  A    between atoms: C18_18  and  C19_19 
REMARK    4  A    between atoms: C19_19  and  C20_20 
REMARK    5  A    between atoms: C20_20  and  O22_22 
REMARK    6  A    between atoms: C31_30  and  O32_31 
REMARK    7  A    between atoms: C31_30  and  C33_32 
REMARK    8  A    between atoms: C52_50  and  O53_51 
REMARK    9  A    between atoms: C52_50  and  C54_52 
REMARK   10  A    between atoms: C54_52  and  O56_54 
REMARK   11  A    between atoms: C58_56  and  O60_57 
REMARK   12  A    between atoms: O60_57  and  C61_58 
ROOT
ATOM      1  C3  ZIN A   1      20.229  -1.749  11.028  0.00  0.00     0.037 C 
ATOM      2  C4  ZIN A   1      20.794  -3.110  11.302  0.00  0.00    -0.015 C 
ATOM      3  C5  ZIN A   1      20.532  -3.768  12.391  0.00  0.00    -0.003 C 
ATOM      4  C6  ZIN A   1      19.622  -3.211  13.445  0.00  0.00     0.262 C 
ATOM      5  N7  ZIN A   1      19.698  -1.747  13.482  0.00  0.00    -0.061 N 
ATOM      6  H8  ZIN A   1      20.582  -1.451  13.868  0.00  0.00     0.280 HD
ATOM      7  C9  ZIN A   1      18.572  -1.267  14.332  0.00  0.00     0.237 C 
ATOM      8  C10 ZIN A   1      17.376  -1.170  13.354  0.00  0.00     0.046 C 
ATOM      9  C11 ZIN A   1      18.050  -0.728  12.024  0.00  0.00     0.040 C 
ATOM     10  C12 ZIN A   1      17.901   0.763  11.899  0.00  0.00    -0.024 A 
ATOM     11  C13 ZIN A   1      17.293   1.039  10.671  0.00  0.00     0.020 A 
ATOM     12  C14 ZIN A   1      17.014   2.356  10.299  0.00  0.00     0.061 A 
ATOM     13  C15 ZIN A   1      17.377   3.359  11.192  0.00  0.00     0.077 A 
ATOM     14  C18 ZIN A   1      17.989   3.072  12.401  0.00  0.00     0.000 A 
ATOM     15  C47 ZIN A   1      18.263   1.764  12.781  0.00  0.00     0.021 A 
ATOM     16  N48 ZIN A   1      17.069  -0.124   9.950  0.00  0.00    -0.278 NA
ATOM     17  C49 ZIN A   1      15.724  -0.122   9.356  0.00  0.00     0.117 C 
ATOM     18  C50 ZIN A   1      17.250  -1.289  10.855  0.00  0.00     0.125 C 
ATOM     19  C52 ZIN A   1      18.012  -2.357  10.077  0.00  0.00     0.190 C 
ATOM     20  C58 ZIN A   1      19.406  -1.793   9.739  0.00  0.00     0.192 C 
ATOM     21  C64 ZIN A   1      19.474  -1.171  12.167  0.00  0.00     0.218 C 
ENDROOT
BRANCH  14  22
ATOM     22  C19 ZIN A   1      18.369   4.214  13.334  0.00  0.00     0.121 C 
ATOM     23  C39 ZIN A   1      18.470   3.680  14.748  0.00  0.00     0.040 A 
ATOM     24  C38 ZIN A   1      19.180   4.082  15.823  0.00  0.00    -0.020 A 
ATOM     25  N40 ZIN A   1      17.716   2.571  15.114  0.00  0.00    -0.357 N 
ATOM     26  C37 ZIN A   1      20.114   5.261  16.027  0.00  0.00     0.069 C 
ATOM     27  C46 ZIN A   1      18.925   3.121  16.896  0.00  0.00    -0.001 A 
ATOM     28  C36 ZIN A   1      19.420   6.289  16.996  0.00  0.00     0.239 C 
ATOM     29  N28 ZIN A   1      18.010   6.209  16.600  0.00  0.00    -0.068 N 
ATOM     30  C27 ZIN A   1      18.047   6.580  15.146  0.00  0.00     0.239 C 
ATOM     31  H29 ZIN A   1      17.678   5.261  16.724  0.00  0.00     0.280 HD
ATOM     32  C30 ZIN A   1      17.009   7.116  17.127  0.00  0.00     0.272 C 
ATOM     33  C25 ZIN A   1      16.910   5.600  14.710  0.00  0.00     0.016 C 
ATOM     34  C24 ZIN A   1      17.244   5.304  13.251  0.00  0.00     0.037 C 
ATOM     35  C35 ZIN A   1      15.662   6.416  15.016  0.00  0.00     0.045 C 
ATOM     36  C31 ZIN A   1      15.640   6.821  16.496  0.00  0.00     0.082 C 
ATOM     37  C41 ZIN A   1      17.997   2.189  16.386  0.00  0.00     0.043 A 
ATOM     38  C45 ZIN A   1      19.423   3.023  18.198  0.00  0.00     0.014 A 
ATOM     39  C42 ZIN A   1      17.555   1.125  17.172  0.00  0.00     0.030 A 
ATOM     40  C43 ZIN A   1      18.063   1.046  18.458  0.00  0.00     0.002 A 
ATOM     41  C44 ZIN A   1      18.968   1.969  18.953  0.00  0.00     0.001 A 
ATOM     42 4H10 ZIN A   1      17.055   2.130  14.559  0.00  0.00     0.166 HD
BRANCH  36  43
ATOM     43  O32 ZIN A   1      14.839   8.008  16.617  0.00  0.00    -0.388 OA
ATOM     44  H92 ZIN A   1      14.218   8.139  15.886  0.00  0.00     0.210 HD
ENDBRANCH  36  43
BRANCH  36  45
ATOM     45  C33 ZIN A   1      14.952   5.716  17.304  0.00  0.00     0.035 C 
ATOM     46  C34 ZIN A   1      15.226   5.927  18.794  0.00  0.00     0.008 C 
ENDBRANCH  36  45
BRANCH  22  47
ATOM     47  C20 ZIN A   1      19.687   4.757  12.845  0.00  0.00     0.278 C 
ATOM     48  O21 ZIN A   1      19.812   5.941  12.634  0.00  0.00    -0.264 OA
BRANCH  47  49
ATOM     49  O22 ZIN A   1      20.722   3.927  12.642  0.00  0.00    -0.325 OA
ATOM     50  C23 ZIN A   1      21.075   3.637  11.264  0.00  0.00     0.213 C 
ENDBRANCH  47  49
ENDBRANCH  22  47
ENDBRANCH  14  22
BRANCH  13  51
ATOM     51  O16 ZIN A   1      17.123   4.654  10.870  0.00  0.00    -0.355 OA
ATOM     52  C17 ZIN A   1      17.725   5.156   9.676  0.00  0.00     0.210 C 
ENDBRANCH  13  51
BRANCH  19  53
ATOM     53  O53 ZIN A   1      18.153  -3.529  10.882  0.00  0.00    -0.376 OA
ATOM     54 3H11 ZIN A   1      19.063  -3.848  10.957  0.00  0.00     0.211 HD
ENDBRANCH  19  53
BRANCH  19  55
ATOM     55  C54 ZIN A   1      17.262  -2.697   8.815  0.00  0.00     0.297 C 
ATOM     56  O55 ZIN A   1      17.207  -1.898   7.910  0.00  0.00    -0.262 OA
BRANCH  55  57
ATOM     57  O56 ZIN A   1      16.658  -3.889   8.694  0.00  0.00    -0.324 OA
ATOM     58  C57 ZIN A   1      17.405  -4.945   8.035  0.00  0.00     0.213 C 
ENDBRANCH  55  57
ENDBRANCH  19  55
BRANCH   1  59
ATOM     59  C2  ZIN A   1      21.417  -0.821  10.763  0.00  0.00     0.014 C 
ATOM     60  C1  ZIN A   1      21.374   0.355  11.741  0.00  0.00     0.006 C 
ENDBRANCH   1  59
BRANCH  20  61
ATOM     61  O60 ZIN A   1      20.060  -2.649   8.765  0.00  0.00    -0.311 OA
BRANCH  61  62
ATOM     62  C61 ZIN A   1      19.943  -2.301   7.473  0.00  0.00     0.255 C 
ATOM     63  C62 ZIN A   1      19.993  -3.359   6.402  0.00  0.00     0.126 C 
ATOM     64  O63 ZIN A   1      19.798  -1.140   7.171  0.00  0.00    -0.266 OA
ENDBRANCH  61  62
ENDBRANCH  20  61
TORSDOF 12
ENDMDL
