MODEL 1
REMARK VINA RESULT:      -8.7      0.000      0.000
REMARK  8 active torsions:
REMARK  status: ('A' for Active; 'I' for Inactive)
REMARK    1  A    between atoms: C3_3  and  C4_4 
REMARK    2  A    between atoms: C4_4  and  C5_5 
REMARK    3  A    between atoms: C5_5  and  N6_6 
REMARK    4  A    between atoms: N6_6  and  C9_9 
REMARK    5  A    between atoms: C9_9  and  C10_10 
REMARK    6  A    between atoms: C13_13  and  C14_14 
REMARK    7  A    between atoms: C15_15  and  C16_16 
REMARK       I    between atoms: C16_16  and  N18_18 
REMARK    8  A    between atoms: N18_18  and  O19_19 
ROOT
ATOM      1  N6  ZIN A   1      19.405   3.972  13.824  0.00  0.00    -0.071 N 
ATOM      2  H7  ZIN A   1      20.302   4.414  13.691  0.00  0.00     0.277 HD
ATOM      3  H8  ZIN A   1      19.513   2.971  13.782  0.00  0.00     0.277 HD
ENDROOT
BRANCH   1   4
ATOM      4  C5  ZIN A   1      18.861   4.353  15.134  0.00  0.00     0.237 C 
BRANCH   4   5
ATOM      5  C4  ZIN A   1      19.671   3.672  16.239  0.00  0.00     0.069 C 
BRANCH   5   6
ATOM      6  C3  ZIN A   1      18.865   2.545  16.830  0.00  0.00    -0.022 A 
ATOM      7  C2  ZIN A   1      18.150   2.584  17.965  0.00  0.00     0.013 A 
ATOM      8  C1  ZIN A   1      18.023   3.786  18.866  0.00  0.00     0.068 C 
ATOM      9  N28 ZIN A   1      17.558   1.370  18.186  0.00  0.00    -0.359 N 
ATOM     10  C27 ZIN A   1      17.879   0.500  17.169  0.00  0.00     0.043 A 
ATOM     11  H50 ZIN A   1      16.994   1.155  18.946  0.00  0.00     0.166 HD
ATOM     12  C22 ZIN A   1      18.715   1.197  16.276  0.00  0.00    -0.001 A 
ATOM     13  C26 ZIN A   1      17.552  -0.824  16.902  0.00  0.00     0.030 A 
ATOM     14  C23 ZIN A   1      19.206   0.555  15.138  0.00  0.00     0.014 A 
ATOM     15  C24 ZIN A   1      18.872  -0.747  14.895  0.00  0.00     0.001 A 
ATOM     16  C25 ZIN A   1      18.047  -1.438  15.772  0.00  0.00     0.002 A 
ENDBRANCH   5   6
ENDBRANCH   4   5
ENDBRANCH   1   4
BRANCH   1  17
ATOM     17  C9  ZIN A   1      18.483   4.409  12.766  0.00  0.00     0.270 C 
BRANCH  17  18
ATOM     18  C10 ZIN A   1      18.269   3.282  11.789  0.00  0.00    -0.033 A 
ATOM     19  C21 ZIN A   1      17.621   2.129  12.198  0.00  0.00     0.009 A 
ATOM     20  C20 ZIN A   1      17.416   1.095  11.308  0.00  0.00     0.012 A 
ATOM     21  C13 ZIN A   1      17.877   1.210   9.993  0.00  0.00    -0.036 A 
ATOM     22  C12 ZIN A   1      18.537   2.374   9.589  0.00  0.00     0.012 A 
ATOM     23  C11 ZIN A   1      18.728   3.401  10.489  0.00  0.00     0.009 A 
BRANCH  21  24
ATOM     24  C14 ZIN A   1      17.669   0.108   9.039  0.00  0.00     0.017 C 
ATOM     25  C15 ZIN A   1      18.550  -0.912   8.986  0.00  0.00     0.077 C 
BRANCH  25  26
ATOM     26  C16 ZIN A   1      19.569  -1.054  10.027  0.00  0.00     0.264 C 
ATOM     27  O17 ZIN A   1      19.335  -1.715  11.022  0.00  0.00    -0.266 OA
ATOM     28  N18 ZIN A   1      20.767  -0.453   9.884  0.00  0.00    -0.234 N 
ATOM     29  H42 ZIN A   1      20.954   0.074   9.092  0.00  0.00     0.197 HD
BRANCH  28  30
ATOM     30  O19 ZIN A   1      21.752  -0.590  10.893  0.00  0.00    -0.287 OA
ATOM     31  H43 ZIN A   1      21.401  -0.557  11.793  0.00  0.00     0.244 HD
ENDBRANCH  28  30
ENDBRANCH  25  26
ENDBRANCH  21  24
ENDBRANCH  17  18
ENDBRANCH   1  17
TORSDOF 8
ENDMDL
MODEL 2
REMARK VINA RESULT:      -8.6      1.762      4.519
REMARK  8 active torsions:
REMARK  status: ('A' for Active; 'I' for Inactive)
REMARK    1  A    between atoms: C3_3  and  C4_4 
REMARK    2  A    between atoms: C4_4  and  C5_5 
REMARK    3  A    between atoms: C5_5  and  N6_6 
REMARK    4  A    between atoms: N6_6  and  C9_9 
REMARK    5  A    between atoms: C9_9  and  C10_10 
REMARK    6  A    between atoms: C13_13  and  C14_14 
REMARK    7  A    between atoms: C15_15  and  C16_16 
REMARK       I    between atoms: C16_16  and  N18_18 
REMARK    8  A    between atoms: N18_18  and  O19_19 
ROOT
ATOM      1  N6  ZIN A   1      19.616   2.757  15.523  0.00  0.00    -0.071 N 
ATOM      2  H7  ZIN A   1      19.624   2.704  14.516  0.00  0.00     0.277 HD
ATOM      3  H8  ZIN A   1      20.564   2.757  15.867  0.00  0.00     0.277 HD
ENDROOT
BRANCH   1   4
ATOM      4  C5  ZIN A   1      18.942   3.992  15.942  0.00  0.00     0.237 C 
BRANCH   4   5
ATOM      5  C4  ZIN A   1      19.340   5.134  15.005  0.00  0.00     0.069 C 
BRANCH   5   6
ATOM      6  C3  ZIN A   1      18.401   5.168  13.826  0.00  0.00    -0.022 A 
ATOM      7  C2  ZIN A   1      17.249   5.850  13.743  0.00  0.00     0.013 A 
ATOM      8  C1  ZIN A   1      16.679   6.721  14.833  0.00  0.00     0.068 C 
ATOM      9  N28 ZIN A   1      16.666   5.635  12.524  0.00  0.00    -0.359 N 
ATOM     10  C27 ZIN A   1      17.453   4.793  11.771  0.00  0.00     0.043 A 
ATOM     11  H50 ZIN A   1      15.824   6.019  12.233  0.00  0.00     0.166 HD
ATOM     12  C22 ZIN A   1      18.573   4.460  12.555  0.00  0.00    -0.001 A 
ATOM     13  C26 ZIN A   1      17.336   4.263  10.490  0.00  0.00     0.030 A 
ATOM     14  C23 ZIN A   1      19.552   3.606  12.043  0.00  0.00     0.014 A 
ATOM     15  C24 ZIN A   1      19.417   3.097  10.783  0.00  0.00     0.001 A 
ATOM     16  C25 ZIN A   1      18.314   3.423  10.005  0.00  0.00     0.002 A 
ENDBRANCH   5   6
ENDBRANCH   4   5
ENDBRANCH   1   4
BRANCH   1  17
ATOM     17  C9  ZIN A   1      18.897   1.598  16.069  0.00  0.00     0.270 C 
BRANCH  17  18
ATOM     18  C10 ZIN A   1      18.567   0.640  14.954  0.00  0.00    -0.033 A 
ATOM     19  C21 ZIN A   1      17.747   1.048  13.916  0.00  0.00     0.009 A 
ATOM     20  C20 ZIN A   1      17.445   0.179  12.889  0.00  0.00     0.012 A 
ATOM     21  C13 ZIN A   1      17.960  -1.121  12.903  0.00  0.00    -0.036 A 
ATOM     22  C12 ZIN A   1      18.782  -1.528  13.958  0.00  0.00     0.012 A 
ATOM     23  C11 ZIN A   1      19.081  -0.645  14.975  0.00  0.00     0.009 A 
BRANCH  21  24
ATOM     24  C14 ZIN A   1      17.637  -2.057  11.815  0.00  0.00     0.017 C 
ATOM     25  C15 ZIN A   1      18.279  -1.964  10.633  0.00  0.00     0.077 C 
BRANCH  25  26
ATOM     26  C16 ZIN A   1      19.457  -1.105  10.506  0.00  0.00     0.264 C 
ATOM     27  O17 ZIN A   1      19.383  -0.058   9.889  0.00  0.00    -0.266 OA
ATOM     28  N18 ZIN A   1      20.624  -1.473  11.071  0.00  0.00    -0.234 N 
ATOM     29  H42 ZIN A   1      20.683  -2.307  11.563  0.00  0.00     0.197 HD
BRANCH  28  30
ATOM     30  O19 ZIN A   1      21.764  -0.641  10.948  0.00  0.00    -0.287 OA
ATOM     31  H43 ZIN A   1      21.588   0.205  10.514  0.00  0.00     0.244 HD
ENDBRANCH  28  30
ENDBRANCH  25  26
ENDBRANCH  21  24
ENDBRANCH  17  18
ENDBRANCH   1  17
TORSDOF 8
ENDMDL
MODEL 3
REMARK VINA RESULT:      -8.6      2.946      8.161
REMARK  8 active torsions:
REMARK  status: ('A' for Active; 'I' for Inactive)
REMARK    1  A    between atoms: C3_3  and  C4_4 
REMARK    2  A    between atoms: C4_4  and  C5_5 
REMARK    3  A    between atoms: C5_5  and  N6_6 
REMARK    4  A    between atoms: N6_6  and  C9_9 
REMARK    5  A    between atoms: C9_9  and  C10_10 
REMARK    6  A    between atoms: C13_13  and  C14_14 
REMARK    7  A    between atoms: C15_15  and  C16_16 
REMARK       I    between atoms: C16_16  and  N18_18 
REMARK    8  A    between atoms: N18_18  and  O19_19 
ROOT
ATOM      1  N6  ZIN A   1      20.446  -0.520  12.185  0.00  0.00    -0.071 N 
ATOM      2  H7  ZIN A   1      21.368  -0.737  12.533  0.00  0.00     0.277 HD
ATOM      3  H8  ZIN A   1      20.165   0.388  12.521  0.00  0.00     0.277 HD
ENDROOT
BRANCH   1   4
ATOM      4  C5  ZIN A   1      20.465  -0.517  10.717  0.00  0.00     0.237 C 
BRANCH   4   5
ATOM      5  C4  ZIN A   1      19.032  -0.433  10.189  0.00  0.00     0.069 C 
BRANCH   5   6
ATOM      6  C3  ZIN A   1      19.033   0.228   8.835  0.00  0.00    -0.022 A 
ATOM      7  C2  ZIN A   1      18.960   1.546   8.590  0.00  0.00     0.013 A 
ATOM      8  C1  ZIN A   1      18.863   2.617   9.646  0.00  0.00     0.068 C 
ATOM      9  N28 ZIN A   1      18.982   1.772   7.241  0.00  0.00    -0.359 N 
ATOM     10  C27 ZIN A   1      19.079   0.576   6.567  0.00  0.00     0.043 A 
ATOM     11  H50 ZIN A   1      18.936   2.646   6.821  0.00  0.00     0.166 HD
ATOM     12  C22 ZIN A   1      19.112  -0.444   7.536  0.00  0.00    -0.001 A 
ATOM     13  C26 ZIN A   1      19.141   0.237   5.220  0.00  0.00     0.030 A 
ATOM     14  C23 ZIN A   1      19.205  -1.780   7.139  0.00  0.00     0.014 A 
ATOM     15  C24 ZIN A   1      19.264  -2.090   5.809  0.00  0.00     0.001 A 
ATOM     16  C25 ZIN A   1      19.233  -1.087   4.850  0.00  0.00     0.002 A 
ENDBRANCH   5   6
ENDBRANCH   4   5
ENDBRANCH   1   4
BRANCH   1  17
ATOM     17  C9  ZIN A   1      19.493  -1.532  12.660  0.00  0.00     0.270 C 
BRANCH  17  18
ATOM     18  C10 ZIN A   1      18.838  -1.050  13.929  0.00  0.00    -0.033 A 
ATOM     19  C21 ZIN A   1      19.144  -1.655  15.135  0.00  0.00     0.009 A 
ATOM     20  C20 ZIN A   1      18.552  -1.215  16.301  0.00  0.00     0.012 A 
ATOM     21  C13 ZIN A   1      17.633  -0.162  16.260  0.00  0.00    -0.036 A 
ATOM     22  C12 ZIN A   1      17.324   0.440  15.037  0.00  0.00     0.012 A 
ATOM     23  C11 ZIN A   1      17.928  -0.008  13.880  0.00  0.00     0.009 A 
BRANCH  21  24
ATOM     24  C14 ZIN A   1      16.992   0.308  17.499  0.00  0.00     0.017 C 
ATOM     25  C15 ZIN A   1      17.677   1.092  18.356  0.00  0.00     0.077 C 
BRANCH  25  26
ATOM     26  C16 ZIN A   1      18.958   1.674  17.952  0.00  0.00     0.264 C 
ATOM     27  O17 ZIN A   1      19.999   1.207  18.373  0.00  0.00    -0.266 OA
ATOM     28  N18 ZIN A   1      18.983   2.729  17.112  0.00  0.00    -0.234 N 
ATOM     29  H42 ZIN A   1      18.154   3.102  16.776  0.00  0.00     0.197 HD
BRANCH  28  30
ATOM     30  O19 ZIN A   1      20.223   3.293  16.722  0.00  0.00    -0.287 OA
ATOM     31  H43 ZIN A   1      20.225   4.259  16.698  0.00  0.00     0.244 HD
ENDBRANCH  28  30
ENDBRANCH  25  26
ENDBRANCH  21  24
ENDBRANCH  17  18
ENDBRANCH   1  17
TORSDOF 8
ENDMDL
MODEL 4
REMARK VINA RESULT:      -8.6      3.177      8.623
REMARK  8 active torsions:
REMARK  status: ('A' for Active; 'I' for Inactive)
REMARK    1  A    between atoms: C3_3  and  C4_4 
REMARK    2  A    between atoms: C4_4  and  C5_5 
REMARK    3  A    between atoms: C5_5  and  N6_6 
REMARK    4  A    between atoms: N6_6  and  C9_9 
REMARK    5  A    between atoms: C9_9  and  C10_10 
REMARK    6  A    between atoms: C13_13  and  C14_14 
REMARK    7  A    between atoms: C15_15  and  C16_16 
REMARK       I    between atoms: C16_16  and  N18_18 
REMARK    8  A    between atoms: N18_18  and  O19_19 
ROOT
ATOM      1  N6  ZIN A   1      17.627  -3.866   8.640  0.00  0.00    -0.071 N 
ATOM      2  H7  ZIN A   1      17.451  -2.873   8.599  0.00  0.00     0.277 HD
ATOM      3  H8  ZIN A   1      16.768  -4.352   8.848  0.00  0.00     0.277 HD
ENDROOT
BRANCH   1   4
ATOM      4  C5  ZIN A   1      18.150  -4.324   7.347  0.00  0.00     0.237 C 
BRANCH   4   5
ATOM      5  C4  ZIN A   1      19.474  -3.615   7.052  0.00  0.00     0.069 C 
BRANCH   5   6
ATOM      6  C3  ZIN A   1      19.195  -2.248   6.481  0.00  0.00    -0.022 A 
ATOM      7  C2  ZIN A   1      18.853  -1.967   5.215  0.00  0.00     0.013 A 
ATOM      8  C1  ZIN A   1      18.683  -2.986   4.118  0.00  0.00     0.068 C 
ATOM      9  N28 ZIN A   1      18.687  -0.617   5.065  0.00  0.00    -0.359 N 
ATOM     10  C27 ZIN A   1      18.916   0.019   6.265  0.00  0.00     0.043 A 
ATOM     11  H50 ZIN A   1      18.442  -0.173   4.237  0.00  0.00     0.166 HD
ATOM     12  C22 ZIN A   1      19.248  -0.975   7.204  0.00  0.00    -0.001 A 
ATOM     13  C26 ZIN A   1      18.882   1.350   6.665  0.00  0.00     0.030 A 
ATOM     14  C23 ZIN A   1      19.539  -0.618   8.522  0.00  0.00     0.014 A 
ATOM     15  C24 ZIN A   1      19.500   0.696   8.894  0.00  0.00     0.001 A 
ATOM     16  C25 ZIN A   1      19.172   1.680   7.971  0.00  0.00     0.002 A 
ENDBRANCH   5   6
ENDBRANCH   4   5
ENDBRANCH   1   4
BRANCH   1  17
ATOM     17  C9  ZIN A   1      18.613  -4.144   9.693  0.00  0.00     0.270 C 
BRANCH  17  18
ATOM     18  C10 ZIN A   1      18.421  -3.175  10.831  0.00  0.00    -0.033 A 
ATOM     19  C21 ZIN A   1      19.187  -3.297  11.977  0.00  0.00     0.009 A 
ATOM     20  C20 ZIN A   1      19.020  -2.410  13.020  0.00  0.00     0.012 A 
ATOM     21  C13 ZIN A   1      18.067  -1.392  12.921  0.00  0.00    -0.036 A 
ATOM     22  C12 ZIN A   1      17.292  -1.279  11.763  0.00  0.00     0.012 A 
ATOM     23  C11 ZIN A   1      17.475  -2.170  10.726  0.00  0.00     0.009 A 
BRANCH  21  24
ATOM     24  C14 ZIN A   1      17.877  -0.446  14.033  0.00  0.00     0.017 C 
ATOM     25  C15 ZIN A   1      18.724   0.593  14.185  0.00  0.00     0.077 C 
BRANCH  25  26
ATOM     26  C16 ZIN A   1      19.675   0.924  13.122  0.00  0.00     0.264 C 
ATOM     27  O17 ZIN A   1      19.354   1.695  12.237  0.00  0.00    -0.266 OA
ATOM     28  N18 ZIN A   1      20.905   0.375  13.124  0.00  0.00    -0.234 N 
ATOM     29  H42 ZIN A   1      21.162  -0.240  13.829  0.00  0.00     0.197 HD
BRANCH  28  30
ATOM     30  O19 ZIN A   1      21.825   0.695  12.095  0.00  0.00    -0.287 OA
ATOM     31  H43 ZIN A   1      21.661   1.549  11.674  0.00  0.00     0.244 HD
ENDBRANCH  28  30
ENDBRANCH  25  26
ENDBRANCH  21  24
ENDBRANCH  17  18
ENDBRANCH   1  17
TORSDOF 8
ENDMDL
MODEL 5
REMARK VINA RESULT:      -8.5      2.800      4.273
REMARK  8 active torsions:
REMARK  status: ('A' for Active; 'I' for Inactive)
REMARK    1  A    between atoms: C3_3  and  C4_4 
REMARK    2  A    between atoms: C4_4  and  C5_5 
REMARK    3  A    between atoms: C5_5  and  N6_6 
REMARK    4  A    between atoms: N6_6  and  C9_9 
REMARK    5  A    between atoms: C9_9  and  C10_10 
REMARK    6  A    between atoms: C13_13  and  C14_14 
REMARK    7  A    between atoms: C15_15  and  C16_16 
REMARK       I    between atoms: C16_16  and  N18_18 
REMARK    8  A    between atoms: N18_18  and  O19_19 
ROOT
ATOM      1  N6  ZIN A   1      19.962   1.051  10.883  0.00  0.00    -0.071 N 
ATOM      2  H7  ZIN A   1      20.916   0.925  10.581  0.00  0.00     0.277 HD
ATOM      3  H8  ZIN A   1      19.467   0.176  10.809  0.00  0.00     0.277 HD
ENDROOT
BRANCH   1   4
ATOM      4  C5  ZIN A   1      19.948   1.507  12.279  0.00  0.00     0.237 C 
BRANCH   4   5
ATOM      5  C4  ZIN A   1      18.554   1.289  12.872  0.00  0.00     0.069 C 
BRANCH   5   6
ATOM      6  C3  ZIN A   1      18.646   0.338  14.037  0.00  0.00    -0.022 A 
ATOM      7  C2  ZIN A   1      18.555  -1.000  13.985  0.00  0.00     0.013 A 
ATOM      8  C1  ZIN A   1      18.339  -1.804  12.728  0.00  0.00     0.068 C 
ATOM      9  N28 ZIN A   1      18.680  -1.526  15.242  0.00  0.00    -0.359 N 
ATOM     10  C27 ZIN A   1      18.869  -0.515  16.156  0.00  0.00     0.043 A 
ATOM     11  H50 ZIN A   1      18.644  -2.472  15.457  0.00  0.00     0.166 HD
ATOM     12  C22 ZIN A   1      18.852   0.698  15.442  0.00  0.00    -0.001 A 
ATOM     13  C26 ZIN A   1      19.051  -0.490  17.534  0.00  0.00     0.030 A 
ATOM     14  C23 ZIN A   1      19.018   1.908  16.120  0.00  0.00     0.014 A 
ATOM     15  C24 ZIN A   1      19.195   1.908  17.474  0.00  0.00     0.001 A 
ATOM     16  C25 ZIN A   1      19.213   0.714  18.183  0.00  0.00     0.002 A 
ENDBRANCH   5   6
ENDBRANCH   4   5
ENDBRANCH   1   4
BRANCH   1  17
ATOM     17  C9  ZIN A   1      19.308   2.056  10.033  0.00  0.00     0.270 C 
BRANCH  17  18
ATOM     18  C10 ZIN A   1      18.692   1.378   8.837  0.00  0.00    -0.033 A 
ATOM     19  C21 ZIN A   1      19.088   1.737   7.561  0.00  0.00     0.009 A 
ATOM     20  C20 ZIN A   1      18.532   1.117   6.462  0.00  0.00     0.012 A 
ATOM     21  C13 ZIN A   1      17.557   0.130   6.639  0.00  0.00    -0.036 A 
ATOM     22  C12 ZIN A   1      17.157  -0.223   7.931  0.00  0.00     0.012 A 
ATOM     23  C11 ZIN A   1      17.727   0.402   9.021  0.00  0.00     0.009 A 
BRANCH  21  24
ATOM     24  C14 ZIN A   1      16.953  -0.531   5.471  0.00  0.00     0.017 C 
ATOM     25  C15 ZIN A   1      17.687  -1.380   4.724  0.00  0.00     0.077 C 
BRANCH  25  26
ATOM     26  C16 ZIN A   1      18.994  -1.834   5.202  0.00  0.00     0.264 C 
ATOM     27  O17 ZIN A   1      20.012  -1.347   4.747  0.00  0.00    -0.266 OA
ATOM     28  N18 ZIN A   1      19.070  -2.792   6.148  0.00  0.00    -0.234 N 
ATOM     29  H42 ZIN A   1      18.259  -3.181   6.511  0.00  0.00     0.197 HD
BRANCH  28  30
ATOM     30  O19 ZIN A   1      20.335  -3.232   6.610  0.00  0.00    -0.287 OA
ATOM     31  H43 ZIN A   1      20.307  -3.671   7.471  0.00  0.00     0.244 HD
ENDBRANCH  28  30
ENDBRANCH  25  26
ENDBRANCH  21  24
ENDBRANCH  17  18
ENDBRANCH   1  17
TORSDOF 8
ENDMDL
MODEL 6
REMARK VINA RESULT:      -8.4      2.873      6.931
REMARK  8 active torsions:
REMARK  status: ('A' for Active; 'I' for Inactive)
REMARK    1  A    between atoms: C3_3  and  C4_4 
REMARK    2  A    between atoms: C4_4  and  C5_5 
REMARK    3  A    between atoms: C5_5  and  N6_6 
REMARK    4  A    between atoms: N6_6  and  C9_9 
REMARK    5  A    between atoms: C9_9  and  C10_10 
REMARK    6  A    between atoms: C13_13  and  C14_14 
REMARK    7  A    between atoms: C15_15  and  C16_16 
REMARK       I    between atoms: C16_16  and  N18_18 
REMARK    8  A    between atoms: N18_18  and  O19_19 
ROOT
ATOM      1  N6  ZIN A   1      20.360  -0.409  12.544  0.00  0.00    -0.071 N 
ATOM      2  H7  ZIN A   1      21.162  -0.947  12.251  0.00  0.00     0.277 HD
ATOM      3  H8  ZIN A   1      20.610   0.166  13.333  0.00  0.00     0.277 HD
ENDROOT
BRANCH   1   4
ATOM      4  C5  ZIN A   1      19.912   0.444  11.437  0.00  0.00     0.237 C 
BRANCH   4   5
ATOM      5  C4  ZIN A   1      20.301   1.896  11.723  0.00  0.00     0.069 C 
BRANCH   5   6
ATOM      6  C3  ZIN A   1      19.133   2.799  11.420  0.00  0.00    -0.022 A 
ATOM      7  C2  ZIN A   1      18.572   3.002  10.218  0.00  0.00     0.013 A 
ATOM      8  C1  ZIN A   1      19.018   2.351   8.934  0.00  0.00     0.068 C 
ATOM      9  N28 ZIN A   1      17.538   3.891  10.329  0.00  0.00    -0.359 N 
ATOM     10  C27 ZIN A   1      17.400   4.287  11.641  0.00  0.00     0.043 A 
ATOM     11  H50 ZIN A   1      16.984   4.197   9.594  0.00  0.00     0.166 HD
ATOM     12  C22 ZIN A   1      18.395   3.622  12.381  0.00  0.00    -0.001 A 
ATOM     13  C26 ZIN A   1      16.529   5.152  12.294  0.00  0.00     0.030 A 
ATOM     14  C23 ZIN A   1      18.499   3.837  13.757  0.00  0.00     0.014 A 
ATOM     15  C24 ZIN A   1      17.633   4.691  14.378  0.00  0.00     0.001 A 
ATOM     16  C25 ZIN A   1      16.649   5.348  13.652  0.00  0.00     0.002 A 
ENDBRANCH   5   6
ENDBRANCH   4   5
ENDBRANCH   1   4
BRANCH   1  17
ATOM     17  C9  ZIN A   1      19.274  -1.321  12.929  0.00  0.00     0.270 C 
BRANCH  17  18
ATOM     18  C10 ZIN A   1      18.668  -0.860  14.229  0.00  0.00    -0.033 A 
ATOM     19  C21 ZIN A   1      17.830   0.242  14.246  0.00  0.00     0.009 A 
ATOM     20  C20 ZIN A   1      17.267   0.667  15.432  0.00  0.00     0.012 A 
ATOM     21  C13 ZIN A   1      17.554  -0.013  16.620  0.00  0.00    -0.036 A 
ATOM     22  C12 ZIN A   1      18.406  -1.121  16.596  0.00  0.00     0.012 A 
ATOM     23  C11 ZIN A   1      18.956  -1.537  15.401  0.00  0.00     0.009 A 
BRANCH  21  24
ATOM     24  C14 ZIN A   1      16.963   0.438  17.890  0.00  0.00     0.017 C 
ATOM     25  C15 ZIN A   1      17.673   1.231  18.719  0.00  0.00     0.077 C 
BRANCH  25  26
ATOM     26  C16 ZIN A   1      18.921   1.840  18.259  0.00  0.00     0.264 C 
ATOM     27  O17 ZIN A   1      19.983   1.286  18.469  0.00  0.00    -0.266 OA
ATOM     28  N18 ZIN A   1      18.894   3.017  17.601  0.00  0.00    -0.234 N 
ATOM     29  H42 ZIN A   1      18.047   3.460  17.434  0.00  0.00     0.197 HD
BRANCH  28  30
ATOM     30  O19 ZIN A   1      20.102   3.607  17.156  0.00  0.00    -0.287 OA
ATOM     31  H43 ZIN A   1      20.783   3.673  17.840  0.00  0.00     0.244 HD
ENDBRANCH  28  30
ENDBRANCH  25  26
ENDBRANCH  21  24
ENDBRANCH  17  18
ENDBRANCH   1  17
TORSDOF 8
ENDMDL
MODEL 7
REMARK VINA RESULT:      -8.4      3.735      5.091
REMARK  8 active torsions:
REMARK  status: ('A' for Active; 'I' for Inactive)
REMARK    1  A    between atoms: C3_3  and  C4_4 
REMARK    2  A    between atoms: C4_4  and  C5_5 
REMARK    3  A    between atoms: C5_5  and  N6_6 
REMARK    4  A    between atoms: N6_6  and  C9_9 
REMARK    5  A    between atoms: C9_9  and  C10_10 
REMARK    6  A    between atoms: C13_13  and  C14_14 
REMARK    7  A    between atoms: C15_15  and  C16_16 
REMARK       I    between atoms: C16_16  and  N18_18 
REMARK    8  A    between atoms: N18_18  and  O19_19 
ROOT
ATOM      1  N6  ZIN A   1      20.330   0.673  10.858  0.00  0.00    -0.071 N 
ATOM      2  H7  ZIN A   1      21.236   0.609  10.419  0.00  0.00     0.277 HD
ATOM      3  H8  ZIN A   1      19.853  -0.212  10.778  0.00  0.00     0.277 HD
ENDROOT
BRANCH   1   4
ATOM      4  C5  ZIN A   1      20.498   1.014  12.276  0.00  0.00     0.237 C 
BRANCH   4   5
ATOM      5  C4  ZIN A   1      20.267  -0.234  13.131  0.00  0.00     0.069 C 
BRANCH   5   6
ATOM      6  C3  ZIN A   1      19.079  -0.995  12.600  0.00  0.00    -0.022 A 
ATOM      7  C2  ZIN A   1      17.798  -0.597  12.630  0.00  0.00     0.013 A 
ATOM      8  C1  ZIN A   1      17.311   0.706  13.211  0.00  0.00     0.068 C 
ATOM      9  N28 ZIN A   1      16.999  -1.551  12.061  0.00  0.00    -0.359 N 
ATOM     10  C27 ZIN A   1      17.767  -2.609  11.632  0.00  0.00     0.043 A 
ATOM     11  H50 ZIN A   1      16.035  -1.489  11.971  0.00  0.00     0.166 HD
ATOM     12  C22 ZIN A   1      19.104  -2.309  11.954  0.00  0.00    -0.001 A 
ATOM     13  C26 ZIN A   1      17.473  -3.812  10.999  0.00  0.00     0.030 A 
ATOM     14  C23 ZIN A   1      20.117  -3.217  11.637  0.00  0.00     0.014 A 
ATOM     15  C24 ZIN A   1      19.805  -4.392  11.015  0.00  0.00     0.001 A 
ATOM     16  C25 ZIN A   1      18.488  -4.692  10.695  0.00  0.00     0.002 A 
ENDBRANCH   5   6
ENDBRANCH   4   5
ENDBRANCH   1   4
BRANCH   1  17
ATOM     17  C9  ZIN A   1      19.537   1.717  10.195  0.00  0.00     0.270 C 
BRANCH  17  18
ATOM     18  C10 ZIN A   1      18.873   1.142   8.971  0.00  0.00    -0.033 A 
ATOM     19  C21 ZIN A   1      17.967   0.103   9.102  0.00  0.00     0.009 A 
ATOM     20  C20 ZIN A   1      17.351  -0.425   7.987  0.00  0.00     0.012 A 
ATOM     21  C13 ZIN A   1      17.652   0.085   6.720  0.00  0.00    -0.036 A 
ATOM     22  C12 ZIN A   1      18.572   1.130   6.594  0.00  0.00     0.012 A 
ATOM     23  C11 ZIN A   1      19.175   1.651   7.720  0.00  0.00     0.009 A 
BRANCH  21  24
ATOM     24  C14 ZIN A   1      17.004  -0.478   5.524  0.00  0.00     0.017 C 
ATOM     25  C15 ZIN A   1      17.695  -1.300   4.707  0.00  0.00     0.077 C 
BRANCH  25  26
ATOM     26  C16 ZIN A   1      18.994  -1.826   5.128  0.00  0.00     0.264 C 
ATOM     27  O17 ZIN A   1      20.020  -1.327   4.704  0.00  0.00    -0.266 OA
ATOM     28  N18 ZIN A   1      19.055  -2.865   5.984  0.00  0.00    -0.234 N 
ATOM     29  H42 ZIN A   1      18.238  -3.264   6.322  0.00  0.00     0.197 HD
BRANCH  28  30
ATOM     30  O19 ZIN A   1      20.312  -3.376   6.391  0.00  0.00    -0.287 OA
ATOM     31  H43 ZIN A   1      20.263  -4.006   7.122  0.00  0.00     0.244 HD
ENDBRANCH  28  30
ENDBRANCH  25  26
ENDBRANCH  21  24
ENDBRANCH  17  18
ENDBRANCH   1  17
TORSDOF 8
ENDMDL
MODEL 8
REMARK VINA RESULT:      -8.4      2.911      6.876
REMARK  8 active torsions:
REMARK  status: ('A' for Active; 'I' for Inactive)
REMARK    1  A    between atoms: C3_3  and  C4_4 
REMARK    2  A    between atoms: C4_4  and  C5_5 
REMARK    3  A    between atoms: C5_5  and  N6_6 
REMARK    4  A    between atoms: N6_6  and  C9_9 
REMARK    5  A    between atoms: C9_9  and  C10_10 
REMARK    6  A    between atoms: C13_13  and  C14_14 
REMARK    7  A    between atoms: C15_15  and  C16_16 
REMARK       I    between atoms: C16_16  and  N18_18 
REMARK    8  A    between atoms: N18_18  and  O19_19 
ROOT
ATOM      1  N6  ZIN A   1      18.978   2.706  10.354  0.00  0.00    -0.071 N 
ATOM      2  H7  ZIN A   1      19.728   2.099  10.647  0.00  0.00     0.277 HD
ATOM      3  H8  ZIN A   1      19.288   3.665  10.390  0.00  0.00     0.277 HD
ENDROOT
BRANCH   1   4
ATOM      4  C5  ZIN A   1      18.582   2.368   8.982  0.00  0.00     0.237 C 
BRANCH   4   5
ATOM      5  C4  ZIN A   1      19.530   1.304   8.425  0.00  0.00     0.069 C 
BRANCH   5   6
ATOM      6  C3  ZIN A   1      18.881  -0.052   8.530  0.00  0.00    -0.022 A 
ATOM      7  C2  ZIN A   1      17.942  -0.553   7.712  0.00  0.00     0.013 A 
ATOM      8  C1  ZIN A   1      17.360   0.166   6.522  0.00  0.00     0.068 C 
ATOM      9  N28 ZIN A   1      17.587  -1.809   8.122  0.00  0.00    -0.359 N 
ATOM     10  C27 ZIN A   1      18.314  -2.160   9.237  0.00  0.00     0.043 A 
ATOM     11  H50 ZIN A   1      16.923  -2.370   7.690  0.00  0.00     0.166 HD
ATOM     12  C22 ZIN A   1      19.154  -1.074   9.544  0.00  0.00    -0.001 A 
ATOM     13  C26 ZIN A   1      18.351  -3.297  10.037  0.00  0.00     0.030 A 
ATOM     14  C23 ZIN A   1      20.012  -1.146  10.643  0.00  0.00     0.014 A 
ATOM     15  C24 ZIN A   1      20.033  -2.272  11.415  0.00  0.00     0.001 A 
ATOM     16  C25 ZIN A   1      19.206  -3.347  11.116  0.00  0.00     0.002 A 
ENDBRANCH   5   6
ENDBRANCH   4   5
ENDBRANCH   1   4
BRANCH   1  17
ATOM     17  C9  ZIN A   1      17.828   2.531  11.252  0.00  0.00     0.270 C 
BRANCH  17  18
ATOM     18  C10 ZIN A   1      18.151   1.482  12.284  0.00  0.00    -0.033 A 
ATOM     19  C21 ZIN A   1      17.263   0.445  12.514  0.00  0.00     0.009 A 
ATOM     20  C20 ZIN A   1      17.555  -0.522  13.453  0.00  0.00     0.012 A 
ATOM     21  C13 ZIN A   1      18.746  -0.447  14.181  0.00  0.00    -0.036 A 
ATOM     22  C12 ZIN A   1      19.635   0.606  13.948  0.00  0.00     0.012 A 
ATOM     23  C11 ZIN A   1      19.332   1.563  13.002  0.00  0.00     0.009 A 
BRANCH  21  24
ATOM     24  C14 ZIN A   1      19.061  -1.472  15.190  0.00  0.00     0.017 C 
ATOM     25  C15 ZIN A   1      18.759  -1.256  16.486  0.00  0.00     0.077 C 
BRANCH  25  26
ATOM     26  C16 ZIN A   1      17.907  -0.126  16.861  0.00  0.00     0.264 C 
ATOM     27  O17 ZIN A   1      16.696  -0.230  16.798  0.00  0.00    -0.266 OA
ATOM     28  N18 ZIN A   1      18.463   1.030  17.275  0.00  0.00    -0.234 N 
ATOM     29  H42 ZIN A   1      19.428   1.113  17.325  0.00  0.00     0.197 HD
BRANCH  28  30
ATOM     30  O19 ZIN A   1      17.638   2.123  17.637  0.00  0.00    -0.287 OA
ATOM     31  H43 ZIN A   1      16.827   2.192  17.115  0.00  0.00     0.244 HD
ENDBRANCH  28  30
ENDBRANCH  25  26
ENDBRANCH  21  24
ENDBRANCH  17  18
ENDBRANCH   1  17
TORSDOF 8
ENDMDL
MODEL 9
REMARK VINA RESULT:      -8.3      3.470      7.695
REMARK  8 active torsions:
REMARK  status: ('A' for Active; 'I' for Inactive)
REMARK    1  A    between atoms: C3_3  and  C4_4 
REMARK    2  A    between atoms: C4_4  and  C5_5 
REMARK    3  A    between atoms: C5_5  and  N6_6 
REMARK    4  A    between atoms: N6_6  and  C9_9 
REMARK    5  A    between atoms: C9_9  and  C10_10 
REMARK    6  A    between atoms: C13_13  and  C14_14 
REMARK    7  A    between atoms: C15_15  and  C16_16 
REMARK       I    between atoms: C16_16  and  N18_18 
REMARK    8  A    between atoms: N18_18  and  O19_19 
ROOT
ATOM      1  N6  ZIN A   1      18.203  -1.668   6.604  0.00  0.00    -0.071 N 
ATOM      2  H7  ZIN A   1      17.279  -1.702   6.200  0.00  0.00     0.277 HD
ATOM      3  H8  ZIN A   1      18.158  -1.950   7.571  0.00  0.00     0.277 HD
ENDROOT
BRANCH   1   4
ATOM      4  C5  ZIN A   1      19.092  -2.577   5.869  0.00  0.00     0.237 C 
BRANCH   4   5
ATOM      5  C4  ZIN A   1      19.650  -3.630   6.828  0.00  0.00     0.069 C 
BRANCH   5   6
ATOM      6  C3  ZIN A   1      18.531  -4.190   7.667  0.00  0.00    -0.022 A 
ATOM      7  C2  ZIN A   1      17.541  -4.991   7.246  0.00  0.00     0.013 A 
ATOM      8  C1  ZIN A   1      17.369  -5.483   5.831  0.00  0.00     0.068 C 
ATOM      9  N28 ZIN A   1      16.707  -5.291   8.288  0.00  0.00    -0.359 N 
ATOM     10  C27 ZIN A   1      17.157  -4.682   9.438  0.00  0.00     0.043 A 
ATOM     11  H50 ZIN A   1      15.917  -5.852   8.227  0.00  0.00     0.166 HD
ATOM     12  C22 ZIN A   1      18.317  -3.962   9.098  0.00  0.00    -0.001 A 
ATOM     13  C26 ZIN A   1      16.699  -4.656  10.751  0.00  0.00     0.030 A 
ATOM     14  C23 ZIN A   1      18.995  -3.232  10.077  0.00  0.00     0.014 A 
ATOM     15  C24 ZIN A   1      18.527  -3.221  11.361  0.00  0.00     0.001 A 
ATOM     16  C25 ZIN A   1      17.383  -3.930  11.700  0.00  0.00     0.002 A 
ENDBRANCH   5   6
ENDBRANCH   4   5
ENDBRANCH   1   4
BRANCH   1  17
ATOM     17  C9  ZIN A   1      18.725  -0.297   6.518  0.00  0.00     0.270 C 
BRANCH  17  18
ATOM     18  C10 ZIN A   1      18.472   0.419   7.820  0.00  0.00    -0.033 A 
ATOM     19  C21 ZIN A   1      17.588  -0.117   8.740  0.00  0.00     0.009 A 
ATOM     20  C20 ZIN A   1      17.355   0.530   9.936  0.00  0.00     0.012 A 
ATOM     21  C13 ZIN A   1      18.008   1.736  10.212  0.00  0.00    -0.036 A 
ATOM     22  C12 ZIN A   1      18.894   2.275   9.274  0.00  0.00     0.012 A 
ATOM     23  C11 ZIN A   1      19.120   1.612   8.086  0.00  0.00     0.009 A 
BRANCH  21  24
ATOM     24  C14 ZIN A   1      17.760   2.437  11.482  0.00  0.00     0.017 C 
ATOM     25  C15 ZIN A   1      18.398   2.045  12.604  0.00  0.00     0.077 C 
BRANCH  25  26
ATOM     26  C16 ZIN A   1      19.509   1.096  12.519  0.00  0.00     0.264 C 
ATOM     27  O17 ZIN A   1      19.313  -0.090  12.710  0.00  0.00    -0.266 OA
ATOM     28  N18 ZIN A   1      20.751   1.535  12.230  0.00  0.00    -0.234 N 
ATOM     29  H42 ZIN A   1      20.908   2.480  12.078  0.00  0.00     0.197 HD
BRANCH  28  30
ATOM     30  O19 ZIN A   1      21.826   0.616  12.150  0.00  0.00    -0.287 OA
ATOM     31  H43 ZIN A   1      21.590  -0.288  12.398  0.00  0.00     0.244 HD
ENDBRANCH  28  30
ENDBRANCH  25  26
ENDBRANCH  21  24
ENDBRANCH  17  18
ENDBRANCH   1  17
TORSDOF 8
ENDMDL
