MODEL 1
REMARK VINA RESULT:      -6.5      0.000      0.000
REMARK  16 active torsions:
REMARK  status: ('A' for Active; 'I' for Inactive)
REMARK       I    between atoms: C2_2  and  N4_4 
REMARK    1  A    between atoms: N4_4  and  C5_5 
REMARK    2  A    between atoms: N4_4  and  C11_10 
REMARK    3  A    between atoms: C5_5  and  C6_6 
REMARK    4  A    between atoms: C6_6  and  O8_7 
REMARK    5  A    between atoms: C6_6  and  C9_8 
REMARK    6  A    between atoms: C9_8  and  O10_9 
REMARK    7  A    between atoms: C14_13  and  C15_14 
REMARK       I    between atoms: C15_14  and  N17_16 
REMARK    8  A    between atoms: N17_16  and  C18_17 
REMARK    9  A    between atoms: C18_17  and  C19_18 
REMARK   10  A    between atoms: C19_18  and  O20_19 
REMARK   11  A    between atoms: C23_22  and  C24_23 
REMARK       I    between atoms: C24_23  and  N26_25 
REMARK   12  A    between atoms: N26_25  and  C27_26 
REMARK   13  A    between atoms: C27_26  and  C28_27 
REMARK   14  A    between atoms: C28_27  and  O30_28 
REMARK   15  A    between atoms: C28_27  and  C31_29 
REMARK   16  A    between atoms: C31_29  and  O32_30 
ROOT
ATOM      1  C11 ZIN A   1      17.724   4.754  14.369  0.00  0.00     0.072 A 
ATOM      2  C12 ZIN A   1      18.031   4.121  15.564  0.00  0.00     0.051 A 
ATOM      3  I13 ZIN A   1      18.086   5.221  17.346  0.00  0.00    -0.041 I 
ATOM      4  C14 ZIN A   1      18.304   2.750  15.580  0.00  0.00     0.068 A 
ATOM      5  C21 ZIN A   1      18.268   2.020  14.394  0.00  0.00     0.040 A 
ATOM      6  I22 ZIN A   1      18.675  -0.034  14.413  0.00  0.00    -0.042 I 
ATOM      7  C23 ZIN A   1      17.959   2.660  13.195  0.00  0.00     0.068 A 
ATOM      8  C33 ZIN A   1      17.682   4.029  13.186  0.00  0.00     0.051 A 
ATOM      9  I34 ZIN A   1      17.217   4.992  11.385  0.00  0.00    -0.041 I 
ENDROOT
BRANCH   1  10
ATOM     10  N4  ZIN A   1      17.452   6.128  14.355  0.00  0.00    -0.313 N 
ATOM     11  C2  ZIN A   1      18.462   7.016  14.447  0.00  0.00     0.220 C 
ATOM     12  C1  ZIN A   1      19.884   6.530  14.566  0.00  0.00     0.117 C 
ATOM     13  O3  ZIN A   1      18.227   8.205  14.436  0.00  0.00    -0.273 OA
BRANCH  10  14
ATOM     14  C5  ZIN A   1      16.070   6.601  14.241  0.00  0.00     0.166 C 
BRANCH  14  15
ATOM     15  C6  ZIN A   1      15.493   6.832  15.638  0.00  0.00     0.160 C 
BRANCH  15  16
ATOM     16  O8  ZIN A   1      15.555   8.225  15.954  0.00  0.00    -0.392 OA
ATOM     17  H40 ZIN A   1      14.820   8.539  16.496  0.00  0.00     0.210 HD
ENDBRANCH  15  16
BRANCH  15  18
ATOM     18  C9  ZIN A   1      14.036   6.366  15.672  0.00  0.00     0.197 C 
BRANCH  18  19
ATOM     19  O10 ZIN A   1      13.696   5.771  14.418  0.00  0.00    -0.398 OA
ATOM     20  H43 ZIN A   1      13.455   6.409  13.733  0.00  0.00     0.209 HD
ENDBRANCH  18  19
ENDBRANCH  15  18
ENDBRANCH  14  15
ENDBRANCH  10  14
ENDBRANCH   1  10
BRANCH   7  21
ATOM     21  C24 ZIN A   1      17.918   1.889  11.934  0.00  0.00     0.254 C 
ATOM     22  O25 ZIN A   1      16.871   1.402  11.553  0.00  0.00    -0.268 OA
ATOM     23  N26 ZIN A   1      19.041   1.728  11.206  0.00  0.00    -0.354 N 
ATOM     24  H50 ZIN A   1      19.876   2.118  11.510  0.00  0.00     0.162 HD
BRANCH  23  25
ATOM     25  C27 ZIN A   1      19.001   0.964   9.957  0.00  0.00     0.156 C 
BRANCH  25  26
ATOM     26  C28 ZIN A   1      20.271   0.121   9.833  0.00  0.00     0.159 C 
BRANCH  26  27
ATOM     27  O30 ZIN A   1      20.057  -0.927   8.886  0.00  0.00    -0.392 OA
ATOM     28  H53 ZIN A   1      20.564  -0.828   8.068  0.00  0.00     0.210 HD
ENDBRANCH  26  27
BRANCH  26  29
ATOM     29  C31 ZIN A   1      20.615  -0.485  11.195  0.00  0.00     0.197 C 
BRANCH  29  30
ATOM     30  O32 ZIN A   1      21.591   0.331  11.847  0.00  0.00    -0.398 OA
ATOM     31  H56 ZIN A   1      21.364   1.270  11.875  0.00  0.00     0.209 HD
ENDBRANCH  29  30
ENDBRANCH  26  29
ENDBRANCH  25  26
ENDBRANCH  23  25
ENDBRANCH   7  21
BRANCH   4  32
ATOM     32  C15 ZIN A   1      18.630   2.077  16.855  0.00  0.00     0.254 C 
ATOM     33  O16 ZIN A   1      19.770   2.093  17.276  0.00  0.00    -0.268 OA
ATOM     34  N17 ZIN A   1      17.664   1.446  17.550  0.00  0.00    -0.355 N 
ATOM     35  H44 ZIN A   1      16.754   1.434  17.214  0.00  0.00     0.162 HD
BRANCH  34  36
ATOM     36  C18 ZIN A   1      17.987   0.780  18.814  0.00  0.00     0.148 C 
BRANCH  36  37
ATOM     37  C19 ZIN A   1      18.563  -0.608  18.525  0.00  0.00     0.183 C 
BRANCH  37  38
ATOM     38  O20 ZIN A   1      19.981  -0.514  18.378  0.00  0.00    -0.399 OA
ATOM     39  H49 ZIN A   1      20.456  -1.325  18.607  0.00  0.00     0.209 HD
ENDBRANCH  37  38
ENDBRANCH  36  37
ENDBRANCH  34  36
ENDBRANCH   4  32
TORSDOF 16
ENDMDL
MODEL 2
REMARK VINA RESULT:      -6.4      5.354     10.930
REMARK  16 active torsions:
REMARK  status: ('A' for Active; 'I' for Inactive)
REMARK       I    between atoms: C2_2  and  N4_4 
REMARK    1  A    between atoms: N4_4  and  C5_5 
REMARK    2  A    between atoms: N4_4  and  C11_10 
REMARK    3  A    between atoms: C5_5  and  C6_6 
REMARK    4  A    between atoms: C6_6  and  O8_7 
REMARK    5  A    between atoms: C6_6  and  C9_8 
REMARK    6  A    between atoms: C9_8  and  O10_9 
REMARK    7  A    between atoms: C14_13  and  C15_14 
REMARK       I    between atoms: C15_14  and  N17_16 
REMARK    8  A    between atoms: N17_16  and  C18_17 
REMARK    9  A    between atoms: C18_17  and  C19_18 
REMARK   10  A    between atoms: C19_18  and  O20_19 
REMARK   11  A    between atoms: C23_22  and  C24_23 
REMARK       I    between atoms: C24_23  and  N26_25 
REMARK   12  A    between atoms: N26_25  and  C27_26 
REMARK   13  A    between atoms: C27_26  and  C28_27 
REMARK   14  A    between atoms: C28_27  and  O30_28 
REMARK   15  A    between atoms: C28_27  and  C31_29 
REMARK   16  A    between atoms: C31_29  and  O32_30 
ROOT
ATOM      1  C11 ZIN A   1      17.822  -4.006   9.005  0.00  0.00     0.072 A 
ATOM      2  C12 ZIN A   1      17.867  -3.143   7.920  0.00  0.00     0.051 A 
ATOM      3  I13 ZIN A   1      17.847  -3.910   5.971  0.00  0.00    -0.041 I 
ATOM      4  C14 ZIN A   1      17.927  -1.761   8.126  0.00  0.00     0.068 A 
ATOM      5  C21 ZIN A   1      17.940  -1.252   9.423  0.00  0.00     0.040 A 
ATOM      6  I22 ZIN A   1      18.028   0.817   9.737  0.00  0.00    -0.042 I 
ATOM      7  C23 ZIN A   1      17.894  -2.122  10.511  0.00  0.00     0.068 A 
ATOM      8  C33 ZIN A   1      17.830  -3.501  10.298  0.00  0.00     0.051 A 
ATOM      9  I34 ZIN A   1      17.760  -4.811  11.932  0.00  0.00    -0.041 I 
ENDROOT
BRANCH   1  10
ATOM     10  N4  ZIN A   1      17.763  -5.389   8.795  0.00  0.00    -0.313 N 
ATOM     11  C2  ZIN A   1      18.888  -6.075   8.508  0.00  0.00     0.220 C 
ATOM     12  C1  ZIN A   1      20.207  -5.353   8.412  0.00  0.00     0.117 C 
ATOM     13  O3  ZIN A   1      18.838  -7.273   8.326  0.00  0.00    -0.273 OA
BRANCH  10  14
ATOM     14  C5  ZIN A   1      16.482  -6.091   8.889  0.00  0.00     0.166 C 
BRANCH  14  15
ATOM     15  C6  ZIN A   1      16.016  -6.490   7.487  0.00  0.00     0.160 C 
BRANCH  15  16
ATOM     16  O8  ZIN A   1      16.176  -7.900   7.316  0.00  0.00    -0.392 OA
ATOM     17  H40 ZIN A   1      15.936  -8.220   6.436  0.00  0.00     0.210 HD
ENDBRANCH  15  16
BRANCH  15  18
ATOM     18  C9  ZIN A   1      14.541  -6.121   7.315  0.00  0.00     0.197 C 
BRANCH  18  19
ATOM     19  O10 ZIN A   1      14.016  -5.659   8.561  0.00  0.00    -0.398 OA
ATOM     20  H43 ZIN A   1      14.591  -5.034   9.022  0.00  0.00     0.209 HD
ENDBRANCH  18  19
ENDBRANCH  15  18
ENDBRANCH  14  15
ENDBRANCH  10  14
ENDBRANCH   1  10
BRANCH   7  21
ATOM     21  C24 ZIN A   1      17.907  -1.587  11.889  0.00  0.00     0.254 C 
ATOM     22  O25 ZIN A   1      16.862  -1.298  12.438  0.00  0.00    -0.268 OA
ATOM     23  N26 ZIN A   1      19.078  -1.419  12.536  0.00  0.00    -0.354 N 
ATOM     24  H50 ZIN A   1      19.912  -1.650  12.096  0.00  0.00     0.162 HD
BRANCH  23  25
ATOM     25  C27 ZIN A   1      19.092  -0.888  13.901  0.00  0.00     0.156 C 
BRANCH  25  26
ATOM     26  C28 ZIN A   1      20.092   0.265  13.990  0.00  0.00     0.159 C 
BRANCH  26  27
ATOM     27  O30 ZIN A   1      19.557   1.297  14.820  0.00  0.00    -0.392 OA
ATOM     28  H53 ZIN A   1      19.224   0.985  15.672  0.00  0.00     0.210 HD
ENDBRANCH  26  27
BRANCH  26  29
ATOM     29  C31 ZIN A   1      20.355   0.821  12.589  0.00  0.00     0.197 C 
BRANCH  29  30
ATOM     30  O32 ZIN A   1      21.695   0.516  12.198  0.00  0.00    -0.398 OA
ATOM     31  H56 ZIN A   1      22.174  -0.037  12.831  0.00  0.00     0.209 HD
ENDBRANCH  29  30
ENDBRANCH  26  29
ENDBRANCH  25  26
ENDBRANCH  23  25
ENDBRANCH   7  21
BRANCH   4  32
ATOM     32  C15 ZIN A   1      17.974  -0.843   6.969  0.00  0.00     0.254 C 
ATOM     33  O16 ZIN A   1      16.942  -0.439   6.471  0.00  0.00    -0.268 OA
ATOM     34  N17 ZIN A   1      19.163  -0.454   6.466  0.00  0.00    -0.355 N 
ATOM     35  H44 ZIN A   1      19.987  -0.777   6.863  0.00  0.00     0.162 HD
BRANCH  34  36
ATOM     36  C18 ZIN A   1      19.210   0.457   5.320  0.00  0.00     0.148 C 
BRANCH  36  37
ATOM     37  C19 ZIN A   1      18.913  -0.323   4.037  0.00  0.00     0.183 C 
BRANCH  37  38
ATOM     38  O20 ZIN A   1      19.662  -1.539   4.034  0.00  0.00    -0.399 OA
ATOM     39  H49 ZIN A   1      19.144  -2.322   4.268  0.00  0.00     0.209 HD
ENDBRANCH  37  38
ENDBRANCH  36  37
ENDBRANCH  34  36
ENDBRANCH   4  32
TORSDOF 16
ENDMDL
MODEL 3
REMARK VINA RESULT:      -6.0      0.869      5.224
REMARK  16 active torsions:
REMARK  status: ('A' for Active; 'I' for Inactive)
REMARK       I    between atoms: C2_2  and  N4_4 
REMARK    1  A    between atoms: N4_4  and  C5_5 
REMARK    2  A    between atoms: N4_4  and  C11_10 
REMARK    3  A    between atoms: C5_5  and  C6_6 
REMARK    4  A    between atoms: C6_6  and  O8_7 
REMARK    5  A    between atoms: C6_6  and  C9_8 
REMARK    6  A    between atoms: C9_8  and  O10_9 
REMARK    7  A    between atoms: C14_13  and  C15_14 
REMARK       I    between atoms: C15_14  and  N17_16 
REMARK    8  A    between atoms: N17_16  and  C18_17 
REMARK    9  A    between atoms: C18_17  and  C19_18 
REMARK   10  A    between atoms: C19_18  and  O20_19 
REMARK   11  A    between atoms: C23_22  and  C24_23 
REMARK       I    between atoms: C24_23  and  N26_25 
REMARK   12  A    between atoms: N26_25  and  C27_26 
REMARK   13  A    between atoms: C27_26  and  C28_27 
REMARK   14  A    between atoms: C28_27  and  O30_28 
REMARK   15  A    between atoms: C28_27  and  C31_29 
REMARK   16  A    between atoms: C31_29  and  O32_30 
ROOT
ATOM      1  C11 ZIN A   1      17.583   4.784  14.240  0.00  0.00     0.072 A 
ATOM      2  C12 ZIN A   1      17.649   4.114  13.027  0.00  0.00     0.051 A 
ATOM      3  I13 ZIN A   1      17.125   5.103  11.256  0.00  0.00    -0.041 I 
ATOM      4  C14 ZIN A   1      18.066   2.781  12.986  0.00  0.00     0.068 A 
ATOM      5  C21 ZIN A   1      18.414   2.124  14.164  0.00  0.00     0.040 A 
ATOM      6  I22 ZIN A   1      19.040   0.126  14.107  0.00  0.00    -0.042 I 
ATOM      7  C23 ZIN A   1      18.346   2.800  15.381  0.00  0.00     0.068 A 
ATOM      8  C33 ZIN A   1      17.934   4.134  15.415  0.00  0.00     0.051 A 
ATOM      9  I34 ZIN A   1      17.832   5.152  17.244  0.00  0.00    -0.041 I 
ENDROOT
BRANCH   1  10
ATOM     10  N4  ZIN A   1      17.165   6.120  14.279  0.00  0.00    -0.313 N 
ATOM     11  C2  ZIN A   1      18.074   7.107  14.397  0.00  0.00     0.220 C 
ATOM     12  C1  ZIN A   1      19.541   6.774  14.490  0.00  0.00     0.117 C 
ATOM     13  O3  ZIN A   1      17.713   8.264  14.431  0.00  0.00    -0.273 OA
BRANCH  10  14
ATOM     14  C5  ZIN A   1      15.739   6.445  14.189  0.00  0.00     0.166 C 
BRANCH  14  15
ATOM     15  C6  ZIN A   1      15.179   6.674  15.594  0.00  0.00     0.160 C 
BRANCH  15  16
ATOM     16  O8  ZIN A   1      15.314   8.054  15.941  0.00  0.00    -0.392 OA
ATOM     17  H40 ZIN A   1      14.540   8.591  15.727  0.00  0.00     0.210 HD
ENDBRANCH  15  16
BRANCH  15  18
ATOM     18  C9  ZIN A   1      13.700   6.283  15.625  0.00  0.00     0.197 C 
BRANCH  18  19
ATOM     19  O10 ZIN A   1      13.327   5.731  14.361  0.00  0.00    -0.398 OA
ATOM     20  H43 ZIN A   1      14.058   5.322  13.879  0.00  0.00     0.209 HD
ENDBRANCH  18  19
ENDBRANCH  15  18
ENDBRANCH  14  15
ENDBRANCH  10  14
ENDBRANCH   1  10
BRANCH   7  21
ATOM     21  C24 ZIN A   1      18.716   2.108  16.634  0.00  0.00     0.254 C 
ATOM     22  O25 ZIN A   1      19.867   2.128  17.022  0.00  0.00    -0.268 OA
ATOM     23  N26 ZIN A   1      17.776   1.455  17.346  0.00  0.00    -0.354 N 
ATOM     24  H50 ZIN A   1      16.856   1.440  17.036  0.00  0.00     0.162 HD
BRANCH  23  25
ATOM     25  C27 ZIN A   1      18.141   0.769  18.588  0.00  0.00     0.156 C 
BRANCH  25  26
ATOM     26  C28 ZIN A   1      18.505  -0.684  18.280  0.00  0.00     0.159 C 
BRANCH  26  27
ATOM     27  O30 ZIN A   1      19.919  -0.793  18.105  0.00  0.00    -0.392 OA
ATOM     28  H53 ZIN A   1      20.417  -0.825  18.933  0.00  0.00     0.210 HD
ENDBRANCH  26  27
BRANCH  26  29
ATOM     29  C31 ZIN A   1      17.797  -1.126  16.998  0.00  0.00     0.197 C 
BRANCH  29  30
ATOM     30  O32 ZIN A   1      16.385  -0.972  17.156  0.00  0.00    -0.398 OA
ATOM     31  H56 ZIN A   1      15.895  -0.956  16.323  0.00  0.00     0.209 HD
ENDBRANCH  29  30
ENDBRANCH  26  29
ENDBRANCH  25  26
ENDBRANCH  23  25
ENDBRANCH   7  21
BRANCH   4  32
ATOM     32  C15 ZIN A   1      18.137   2.069  11.692  0.00  0.00     0.254 C 
ATOM     33  O16 ZIN A   1      17.123   1.633  11.182  0.00  0.00    -0.268 OA
ATOM     34  N17 ZIN A   1      19.325   1.903  11.079  0.00  0.00    -0.355 N 
ATOM     35  H44 ZIN A   1      20.134   2.251  11.486  0.00  0.00     0.162 HD
BRANCH  34  36
ATOM     36  C18 ZIN A   1      19.395   1.198   9.796  0.00  0.00     0.148 C 
BRANCH  36  37
ATOM     37  C19 ZIN A   1      19.830  -0.249  10.034  0.00  0.00     0.183 C 
BRANCH  37  38
ATOM     38  O20 ZIN A   1      21.223  -0.283  10.347  0.00  0.00    -0.399 OA
ATOM     39  H49 ZIN A   1      21.680  -1.075  10.031  0.00  0.00     0.209 HD
ENDBRANCH  37  38
ENDBRANCH  36  37
ENDBRANCH  34  36
ENDBRANCH   4  32
TORSDOF 16
ENDMDL
MODEL 4
REMARK VINA RESULT:      -5.9      6.084     10.220
REMARK  16 active torsions:
REMARK  status: ('A' for Active; 'I' for Inactive)
REMARK       I    between atoms: C2_2  and  N4_4 
REMARK    1  A    between atoms: N4_4  and  C5_5 
REMARK    2  A    between atoms: N4_4  and  C11_10 
REMARK    3  A    between atoms: C5_5  and  C6_6 
REMARK    4  A    between atoms: C6_6  and  O8_7 
REMARK    5  A    between atoms: C6_6  and  C9_8 
REMARK    6  A    between atoms: C9_8  and  O10_9 
REMARK    7  A    between atoms: C14_13  and  C15_14 
REMARK       I    between atoms: C15_14  and  N17_16 
REMARK    8  A    between atoms: N17_16  and  C18_17 
REMARK    9  A    between atoms: C18_17  and  C19_18 
REMARK   10  A    between atoms: C19_18  and  O20_19 
REMARK   11  A    between atoms: C23_22  and  C24_23 
REMARK       I    between atoms: C24_23  and  N26_25 
REMARK   12  A    between atoms: N26_25  and  C27_26 
REMARK   13  A    between atoms: C27_26  and  C28_27 
REMARK   14  A    between atoms: C28_27  and  O30_28 
REMARK   15  A    between atoms: C28_27  and  C31_29 
REMARK   16  A    between atoms: C31_29  and  O32_30 
ROOT
ATOM      1  C11 ZIN A   1      18.144  -3.135   9.992  0.00  0.00     0.072 A 
ATOM      2  C12 ZIN A   1      18.624  -2.449   8.886  0.00  0.00     0.051 A 
ATOM      3  I13 ZIN A   1      19.580  -0.601   9.134  0.00  0.00    -0.041 I 
ATOM      4  C14 ZIN A   1      18.468  -2.988   7.606  0.00  0.00     0.068 A 
ATOM      5  C21 ZIN A   1      17.832  -4.217   7.442  0.00  0.00     0.040 A 
ATOM      6  I22 ZIN A   1      17.598  -5.030   5.526  0.00  0.00    -0.042 I 
ATOM      7  C23 ZIN A   1      17.352  -4.904   8.556  0.00  0.00     0.068 A 
ATOM      8  C33 ZIN A   1      17.515  -4.361   9.833  0.00  0.00     0.051 A 
ATOM      9  I34 ZIN A   1      16.794  -5.393  11.508  0.00  0.00    -0.041 I 
ENDROOT
BRANCH   1  10
ATOM     10  N4  ZIN A   1      18.300  -2.591  11.273  0.00  0.00    -0.313 N 
ATOM     11  C2  ZIN A   1      19.447  -2.788  11.953  0.00  0.00     0.220 C 
ATOM     12  C1  ZIN A   1      20.561  -3.594  11.336  0.00  0.00     0.117 C 
ATOM     13  O3  ZIN A   1      19.583  -2.318  13.063  0.00  0.00    -0.273 OA
BRANCH  10  14
ATOM     14  C5  ZIN A   1      17.219  -1.808  11.874  0.00  0.00     0.166 C 
BRANCH  14  15
ATOM     15  C6  ZIN A   1      17.365  -0.340  11.467  0.00  0.00     0.160 C 
BRANCH  15  16
ATOM     16  O8  ZIN A   1      16.124   0.132  10.937  0.00  0.00    -0.392 OA
ATOM     17  H40 ZIN A   1      16.152   0.336   9.993  0.00  0.00     0.210 HD
ENDBRANCH  15  16
BRANCH  15  18
ATOM     18  C9  ZIN A   1      17.747   0.494  12.691  0.00  0.00     0.197 C 
BRANCH  18  19
ATOM     19  O10 ZIN A   1      17.672  -0.319  13.864  0.00  0.00    -0.398 OA
ATOM     20  H43 ZIN A   1      17.569   0.183  14.683  0.00  0.00     0.209 HD
ENDBRANCH  18  19
ENDBRANCH  15  18
ENDBRANCH  14  15
ENDBRANCH  10  14
ENDBRANCH   1  10
BRANCH   7  21
ATOM     21  C24 ZIN A   1      16.676  -6.208   8.387  0.00  0.00     0.254 C 
ATOM     22  O25 ZIN A   1      17.296  -7.239   8.559  0.00  0.00    -0.268 OA
ATOM     23  N26 ZIN A   1      15.374  -6.253   8.043  0.00  0.00    -0.354 N 
ATOM     24  H50 ZIN A   1      14.880  -5.429   7.906  0.00  0.00     0.162 HD
BRANCH  23  25
ATOM     25  C27 ZIN A   1      14.704  -7.545   7.876  0.00  0.00     0.156 C 
BRANCH  25  26
ATOM     26  C28 ZIN A   1      13.370  -7.339   7.157  0.00  0.00     0.159 C 
BRANCH  26  27
ATOM     27  O30 ZIN A   1      13.524  -6.344   6.143  0.00  0.00    -0.392 OA
ATOM     28  H53 ZIN A   1      13.933  -5.525   6.454  0.00  0.00     0.210 HD
ENDBRANCH  26  27
BRANCH  26  29
ATOM     29  C31 ZIN A   1      12.314  -6.880   8.165  0.00  0.00     0.197 C 
BRANCH  29  30
ATOM     30  O32 ZIN A   1      12.543  -5.511   8.506  0.00  0.00    -0.398 OA
ATOM     31  H56 ZIN A   1      13.371  -5.356   8.980  0.00  0.00     0.209 HD
ENDBRANCH  29  30
ENDBRANCH  26  29
ENDBRANCH  25  26
ENDBRANCH  23  25
ENDBRANCH   7  21
BRANCH   4  32
ATOM     32  C15 ZIN A   1      18.980  -2.256   6.428  0.00  0.00     0.254 C 
ATOM     33  O16 ZIN A   1      20.093  -2.493   6.002  0.00  0.00    -0.268 OA
ATOM     34  N17 ZIN A   1      18.212  -1.326   5.828  0.00  0.00    -0.355 N 
ATOM     35  H44 ZIN A   1      17.324  -1.136   6.168  0.00  0.00     0.162 HD
BRANCH  34  36
ATOM     36  C18 ZIN A   1      18.719  -0.601   4.660  0.00  0.00     0.148 C 
BRANCH  36  37
ATOM     37  C19 ZIN A   1      19.394   0.694   5.118  0.00  0.00     0.183 C 
BRANCH  37  38
ATOM     38  O20 ZIN A   1      18.618   1.295   6.156  0.00  0.00    -0.399 OA
ATOM     39  H49 ZIN A   1      18.931   2.169   6.427  0.00  0.00     0.209 HD
ENDBRANCH  37  38
ENDBRANCH  36  37
ENDBRANCH  34  36
ENDBRANCH   4  32
TORSDOF 16
ENDMDL
MODEL 5
REMARK VINA RESULT:      -5.6      3.796      9.611
REMARK  16 active torsions:
REMARK  status: ('A' for Active; 'I' for Inactive)
REMARK       I    between atoms: C2_2  and  N4_4 
REMARK    1  A    between atoms: N4_4  and  C5_5 
REMARK    2  A    between atoms: N4_4  and  C11_10 
REMARK    3  A    between atoms: C5_5  and  C6_6 
REMARK    4  A    between atoms: C6_6  and  O8_7 
REMARK    5  A    between atoms: C6_6  and  C9_8 
REMARK    6  A    between atoms: C9_8  and  O10_9 
REMARK    7  A    between atoms: C14_13  and  C15_14 
REMARK       I    between atoms: C15_14  and  N17_16 
REMARK    8  A    between atoms: N17_16  and  C18_17 
REMARK    9  A    between atoms: C18_17  and  C19_18 
REMARK   10  A    between atoms: C19_18  and  O20_19 
REMARK   11  A    between atoms: C23_22  and  C24_23 
REMARK       I    between atoms: C24_23  and  N26_25 
REMARK   12  A    between atoms: N26_25  and  C27_26 
REMARK   13  A    between atoms: C27_26  and  C28_27 
REMARK   14  A    between atoms: C28_27  and  O30_28 
REMARK   15  A    between atoms: C28_27  and  C31_29 
REMARK   16  A    between atoms: C31_29  and  O32_30 
ROOT
ATOM      1  C11 ZIN A   1      18.445  -1.837  10.814  0.00  0.00     0.072 A 
ATOM      2  C12 ZIN A   1      18.593  -1.450   9.490  0.00  0.00     0.051 A 
ATOM      3  I13 ZIN A   1      18.794  -2.901   7.993  0.00  0.00    -0.041 I 
ATOM      4  C14 ZIN A   1      18.608  -0.093   9.155  0.00  0.00     0.068 A 
ATOM      5  C21 ZIN A   1      18.475   0.871  10.152  0.00  0.00     0.040 A 
ATOM      6  I22 ZIN A   1      18.497   2.905   9.654  0.00  0.00    -0.042 I 
ATOM      7  C23 ZIN A   1      18.327   0.479  11.481  0.00  0.00     0.068 A 
ATOM      8  C33 ZIN A   1      18.307  -0.879  11.809  0.00  0.00     0.051 A 
ATOM      9  I34 ZIN A   1      18.084  -1.470  13.806  0.00  0.00    -0.041 I 
ENDROOT
BRANCH   1  10
ATOM     10  N4  ZIN A   1      18.431  -3.197  11.147  0.00  0.00    -0.313 N 
ATOM     11  C2  ZIN A   1      19.586  -3.835  11.424  0.00  0.00     0.220 C 
ATOM     12  C1  ZIN A   1      20.892  -3.085  11.373  0.00  0.00     0.117 C 
ATOM     13  O3  ZIN A   1      19.575  -5.013  11.712  0.00  0.00    -0.273 OA
BRANCH  10  14
ATOM     14  C5  ZIN A   1      17.163  -3.927  11.197  0.00  0.00     0.166 C 
BRANCH  14  15
ATOM     15  C6  ZIN A   1      17.252  -5.165  10.303  0.00  0.00     0.160 C 
BRANCH  15  16
ATOM     16  O8  ZIN A   1      17.253  -6.340  11.117  0.00  0.00    -0.392 OA
ATOM     17  H40 ZIN A   1      16.699  -6.273  11.906  0.00  0.00     0.210 HD
ENDBRANCH  15  16
BRANCH  15  18
ATOM     18  C9  ZIN A   1      16.049  -5.201   9.358  0.00  0.00     0.197 C 
BRANCH  18  19
ATOM     19  O10 ZIN A   1      16.363  -5.999   8.215  0.00  0.00    -0.398 OA
ATOM     20  H43 ZIN A   1      17.261  -6.357   8.222  0.00  0.00     0.209 HD
ENDBRANCH  18  19
ENDBRANCH  15  18
ENDBRANCH  14  15
ENDBRANCH  10  14
ENDBRANCH   1  10
BRANCH   7  21
ATOM     21  C24 ZIN A   1      18.185   1.498  12.542  0.00  0.00     0.254 C 
ATOM     22  O25 ZIN A   1      17.083   1.926  12.829  0.00  0.00    -0.268 OA
ATOM     23  N26 ZIN A   1      19.275   1.952  13.191  0.00  0.00    -0.354 N 
ATOM     24  H50 ZIN A   1      20.153   1.609  12.962  0.00  0.00     0.162 HD
BRANCH  23  25
ATOM     25  C27 ZIN A   1      19.134   2.962  14.243  0.00  0.00     0.156 C 
BRANCH  25  26
ATOM     26  C28 ZIN A   1      19.128   2.277  15.610  0.00  0.00     0.159 C 
BRANCH  26  27
ATOM     27  O30 ZIN A   1      17.806   1.824  15.910  0.00  0.00    -0.392 OA
ATOM     28  H53 ZIN A   1      17.345   2.361  16.569  0.00  0.00     0.210 HD
ENDBRANCH  26  27
BRANCH  26  29
ATOM     29  C31 ZIN A   1      19.580   3.272  16.681  0.00  0.00     0.197 C 
BRANCH  29  30
ATOM     30  O32 ZIN A   1      19.670   2.607  17.942  0.00  0.00    -0.398 OA
ATOM     31  H56 ZIN A   1      20.539   2.673  18.362  0.00  0.00     0.209 HD
ENDBRANCH  29  30
ENDBRANCH  26  29
ENDBRANCH  25  26
ENDBRANCH  23  25
ENDBRANCH   7  21
BRANCH   4  32
ATOM     32  C15 ZIN A   1      18.765   0.317   7.744  0.00  0.00     0.254 C 
ATOM     33  O16 ZIN A   1      19.791   0.856   7.378  0.00  0.00    -0.268 OA
ATOM     34  N17 ZIN A   1      17.770   0.093   6.862  0.00  0.00    -0.355 N 
ATOM     35  H44 ZIN A   1      16.951  -0.337   7.154  0.00  0.00     0.162 HD
BRANCH  34  36
ATOM     36  C18 ZIN A   1      17.926   0.499   5.464  0.00  0.00     0.148 C 
BRANCH  36  37
ATOM     37  C19 ZIN A   1      18.546  -0.650   4.666  0.00  0.00     0.183 C 
BRANCH  37  38
ATOM     38  O20 ZIN A   1      19.963  -0.478   4.604  0.00  0.00    -0.399 OA
ATOM     39  H49 ZIN A   1      20.318  -0.450   3.705  0.00  0.00     0.209 HD
ENDBRANCH  37  38
ENDBRANCH  36  37
ENDBRANCH  34  36
ENDBRANCH   4  32
TORSDOF 16
ENDMDL
MODEL 6
REMARK VINA RESULT:      -5.5      9.297     13.552
REMARK  16 active torsions:
REMARK  status: ('A' for Active; 'I' for Inactive)
REMARK       I    between atoms: C2_2  and  N4_4 
REMARK    1  A    between atoms: N4_4  and  C5_5 
REMARK    2  A    between atoms: N4_4  and  C11_10 
REMARK    3  A    between atoms: C5_5  and  C6_6 
REMARK    4  A    between atoms: C6_6  and  O8_7 
REMARK    5  A    between atoms: C6_6  and  C9_8 
REMARK    6  A    between atoms: C9_8  and  O10_9 
REMARK    7  A    between atoms: C14_13  and  C15_14 
REMARK       I    between atoms: C15_14  and  N17_16 
REMARK    8  A    between atoms: N17_16  and  C18_17 
REMARK    9  A    between atoms: C18_17  and  C19_18 
REMARK   10  A    between atoms: C19_18  and  O20_19 
REMARK   11  A    between atoms: C23_22  and  C24_23 
REMARK       I    between atoms: C24_23  and  N26_25 
REMARK   12  A    between atoms: N26_25  and  C27_26 
REMARK   13  A    between atoms: C27_26  and  C28_27 
REMARK   14  A    between atoms: C28_27  and  O30_28 
REMARK   15  A    between atoms: C28_27  and  C31_29 
REMARK   16  A    between atoms: C31_29  and  O32_30 
ROOT
ATOM      1  C11 ZIN A   1      16.075  -6.701   5.150  0.00  0.00     0.072 A 
ATOM      2  C12 ZIN A   1      16.499  -6.953   6.446  0.00  0.00     0.051 A 
ATOM      3  I13 ZIN A   1      15.842  -8.674   7.445  0.00  0.00    -0.041 I 
ATOM      4  C14 ZIN A   1      17.362  -6.060   7.087  0.00  0.00     0.068 A 
ATOM      5  C21 ZIN A   1      17.798  -4.916   6.422  0.00  0.00     0.040 A 
ATOM      6  I22 ZIN A   1      19.093  -3.576   7.378  0.00  0.00    -0.042 I 
ATOM      7  C23 ZIN A   1      17.371  -4.666   5.119  0.00  0.00     0.068 A 
ATOM      8  C33 ZIN A   1      16.512  -5.565   4.483  0.00  0.00     0.051 A 
ATOM      9  I34 ZIN A   1      15.869  -5.190   2.524  0.00  0.00    -0.041 I 
ENDROOT
BRANCH   1  10
ATOM     10  N4  ZIN A   1      15.209  -7.596   4.511  0.00  0.00    -0.313 N 
ATOM     11  C2  ZIN A   1      13.877  -7.485   4.684  0.00  0.00     0.220 C 
ATOM     12  C1  ZIN A   1      13.320  -6.398   5.566  0.00  0.00     0.117 C 
ATOM     13  O3  ZIN A   1      13.126  -8.261   4.131  0.00  0.00    -0.273 OA
BRANCH  10  14
ATOM     14  C5  ZIN A   1      15.750  -8.654   3.653  0.00  0.00     0.166 C 
BRANCH  14  15
ATOM     15  C6  ZIN A   1      17.269  -8.720   3.821  0.00  0.00     0.160 C 
BRANCH  15  16
ATOM     16  O8  ZIN A   1      17.629  -9.977   4.399  0.00  0.00    -0.392 OA
ATOM     17  H40 ZIN A   1      16.899 -10.608   4.454  0.00  0.00     0.210 HD
ENDBRANCH  15  16
BRANCH  15  18
ATOM     18  C9  ZIN A   1      17.941  -8.576   2.455  0.00  0.00     0.197 C 
BRANCH  18  19
ATOM     19  O10 ZIN A   1      18.965  -7.581   2.529  0.00  0.00    -0.398 OA
ATOM     20  H43 ZIN A   1      19.025  -7.020   1.745  0.00  0.00     0.209 HD
ENDBRANCH  18  19
ENDBRANCH  15  18
ENDBRANCH  14  15
ENDBRANCH  10  14
ENDBRANCH   1  10
BRANCH   7  21
ATOM     21  C24 ZIN A   1      17.831  -3.453   4.409  0.00  0.00     0.254 C 
ATOM     22  O25 ZIN A   1      18.792  -3.512   3.668  0.00  0.00    -0.268 OA
ATOM     23  N26 ZIN A   1      17.184  -2.284   4.583  0.00  0.00    -0.354 N 
ATOM     24  H50 ZIN A   1      16.416  -2.238   5.175  0.00  0.00     0.162 HD
BRANCH  23  25
ATOM     25  C27 ZIN A   1      17.639  -1.082   3.880  0.00  0.00     0.156 C 
BRANCH  25  26
ATOM     26  C28 ZIN A   1      18.538  -0.260   4.805  0.00  0.00     0.159 C 
BRANCH  26  27
ATOM     27  O30 ZIN A   1      19.856  -0.812   4.801  0.00  0.00    -0.392 OA
ATOM     28  H53 ZIN A   1      20.174  -1.077   5.675  0.00  0.00     0.210 HD
ENDBRANCH  26  27
BRANCH  26  29
ATOM     29  C31 ZIN A   1      17.975  -0.294   6.226  0.00  0.00     0.197 C 
BRANCH  29  30
ATOM     30  O32 ZIN A   1      16.563  -0.074   6.185  0.00  0.00    -0.398 OA
ATOM     31  H56 ZIN A   1      16.218   0.412   6.946  0.00  0.00     0.209 HD
ENDBRANCH  29  30
ENDBRANCH  26  29
ENDBRANCH  25  26
ENDBRANCH  23  25
ENDBRANCH   7  21
BRANCH   4  32
ATOM     32  C15 ZIN A   1      17.813  -6.331   8.468  0.00  0.00     0.254 C 
ATOM     33  O16 ZIN A   1      18.858  -6.921   8.662  0.00  0.00    -0.268 OA
ATOM     34  N17 ZIN A   1      17.065  -5.924   9.513  0.00  0.00    -0.355 N 
ATOM     35  H44 ZIN A   1      16.231  -5.453   9.358  0.00  0.00     0.162 HD
BRANCH  34  36
ATOM     36  C18 ZIN A   1      17.512  -6.191  10.882  0.00  0.00     0.148 C 
BRANCH  36  37
ATOM     37  C19 ZIN A   1      18.135  -4.924  11.471  0.00  0.00     0.183 C 
BRANCH  37  38
ATOM     38  O20 ZIN A   1      19.487  -4.806  11.025  0.00  0.00    -0.399 OA
ATOM     39  H49 ZIN A   1      19.901  -3.958  11.241  0.00  0.00     0.209 HD
ENDBRANCH  37  38
ENDBRANCH  36  37
ENDBRANCH  34  36
ENDBRANCH   4  32
TORSDOF 16
ENDMDL
MODEL 7
REMARK VINA RESULT:      -5.4      1.700      6.516
REMARK  16 active torsions:
REMARK  status: ('A' for Active; 'I' for Inactive)
REMARK       I    between atoms: C2_2  and  N4_4 
REMARK    1  A    between atoms: N4_4  and  C5_5 
REMARK    2  A    between atoms: N4_4  and  C11_10 
REMARK    3  A    between atoms: C5_5  and  C6_6 
REMARK    4  A    between atoms: C6_6  and  O8_7 
REMARK    5  A    between atoms: C6_6  and  C9_8 
REMARK    6  A    between atoms: C9_8  and  O10_9 
REMARK    7  A    between atoms: C14_13  and  C15_14 
REMARK       I    between atoms: C15_14  and  N17_16 
REMARK    8  A    between atoms: N17_16  and  C18_17 
REMARK    9  A    between atoms: C18_17  and  C19_18 
REMARK   10  A    between atoms: C19_18  and  O20_19 
REMARK   11  A    between atoms: C23_22  and  C24_23 
REMARK       I    between atoms: C24_23  and  N26_25 
REMARK   12  A    between atoms: N26_25  and  C27_26 
REMARK   13  A    between atoms: C27_26  and  C28_27 
REMARK   14  A    between atoms: C28_27  and  O30_28 
REMARK   15  A    between atoms: C28_27  and  C31_29 
REMARK   16  A    between atoms: C31_29  and  O32_30 
ROOT
ATOM      1  C11 ZIN A   1      18.099   3.286  13.022  0.00  0.00     0.072 A 
ATOM      2  C12 ZIN A   1      18.559   2.608  14.141  0.00  0.00     0.051 A 
ATOM      3  I13 ZIN A   1      19.490   0.743  13.926  0.00  0.00    -0.041 I 
ATOM      4  C14 ZIN A   1      18.401   3.166  15.413  0.00  0.00     0.068 A 
ATOM      5  C21 ZIN A   1      17.781   4.406  15.554  0.00  0.00     0.040 A 
ATOM      6  I22 ZIN A   1      17.542   5.249  17.458  0.00  0.00    -0.042 I 
ATOM      7  C23 ZIN A   1      17.320   5.085  14.428  0.00  0.00     0.068 A 
ATOM      8  C33 ZIN A   1      17.486   4.523  13.159  0.00  0.00     0.051 A 
ATOM      9  I34 ZIN A   1      16.796   5.542  11.464  0.00  0.00    -0.041 I 
ENDROOT
BRANCH   1  10
ATOM     10  N4  ZIN A   1      18.259   2.723  11.750  0.00  0.00    -0.313 N 
ATOM     11  C2  ZIN A   1      19.435   2.843  11.102  0.00  0.00     0.220 C 
ATOM     12  C1  ZIN A   1      20.578   3.584  11.747  0.00  0.00     0.117 C 
ATOM     13  O3  ZIN A   1      19.574   2.356  10.000  0.00  0.00    -0.273 OA
BRANCH  10  14
ATOM     14  C5  ZIN A   1      17.148   2.002  11.122  0.00  0.00     0.166 C 
BRANCH  14  15
ATOM     15  C6  ZIN A   1      17.328   0.499  11.340  0.00  0.00     0.160 C 
BRANCH  15  16
ATOM     16  O8  ZIN A   1      16.260   0.005  12.151  0.00  0.00    -0.392 OA
ATOM     17  H40 ZIN A   1      15.404   0.411  11.965  0.00  0.00     0.210 HD
ENDBRANCH  15  16
BRANCH  15  18
ATOM     18  C9  ZIN A   1      17.315  -0.218   9.988  0.00  0.00     0.197 C 
BRANCH  18  19
ATOM     19  O10 ZIN A   1      17.688   0.700   8.958  0.00  0.00    -0.398 OA
ATOM     20  H43 ZIN A   1      16.970   1.280   8.670  0.00  0.00     0.209 HD
ENDBRANCH  18  19
ENDBRANCH  15  18
ENDBRANCH  14  15
ENDBRANCH  10  14
ENDBRANCH   1  10
BRANCH   7  21
ATOM     21  C24 ZIN A   1      16.663   6.401  14.573  0.00  0.00     0.254 C 
ATOM     22  O25 ZIN A   1      17.309   7.421  14.434  0.00  0.00    -0.268 OA
ATOM     23  N26 ZIN A   1      15.348   6.470  14.859  0.00  0.00    -0.354 N 
ATOM     24  H50 ZIN A   1      14.833   5.654  14.969  0.00  0.00     0.162 HD
BRANCH  23  25
ATOM     25  C27 ZIN A   1      14.696   7.773  15.003  0.00  0.00     0.156 C 
BRANCH  25  26
ATOM     26  C28 ZIN A   1      14.480   8.075  16.487  0.00  0.00     0.159 C 
BRANCH  26  27
ATOM     27  O30 ZIN A   1      15.721   8.463  17.079  0.00  0.00    -0.392 OA
ATOM     28  H53 ZIN A   1      16.114   9.255  16.688  0.00  0.00     0.210 HD
ENDBRANCH  26  27
BRANCH  26  29
ATOM     29  C31 ZIN A   1      13.949   6.824  17.189  0.00  0.00     0.197 C 
BRANCH  29  30
ATOM     30  O32 ZIN A   1      12.760   6.377  16.534  0.00  0.00    -0.398 OA
ATOM     31  H56 ZIN A   1      11.983   6.924  16.713  0.00  0.00     0.209 HD
ENDBRANCH  29  30
ENDBRANCH  26  29
ENDBRANCH  25  26
ENDBRANCH  23  25
ENDBRANCH   7  21
BRANCH   4  32
ATOM     32  C15 ZIN A   1      18.891   2.443  16.604  0.00  0.00     0.254 C 
ATOM     33  O16 ZIN A   1      20.003   2.671  17.039  0.00  0.00    -0.268 OA
ATOM     34  N17 ZIN A   1      18.105   1.530  17.209  0.00  0.00    -0.355 N 
ATOM     35  H44 ZIN A   1      17.218   1.348  16.862  0.00  0.00     0.162 HD
BRANCH  34  36
ATOM     36  C18 ZIN A   1      18.591   0.813  18.390  0.00  0.00     0.148 C 
BRANCH  36  37
ATOM     37  C19 ZIN A   1      19.245  -0.501  17.957  0.00  0.00     0.183 C 
BRANCH  37  38
ATOM     38  O20 ZIN A   1      18.427  -1.138  16.974  0.00  0.00    -0.399 OA
ATOM     39  H49 ZIN A   1      17.986  -1.940  17.288  0.00  0.00     0.209 HD
ENDBRANCH  37  38
ENDBRANCH  36  37
ENDBRANCH  34  36
ENDBRANCH   4  32
TORSDOF 16
ENDMDL
MODEL 8
REMARK VINA RESULT:      -5.4      2.212      6.951
REMARK  16 active torsions:
REMARK  status: ('A' for Active; 'I' for Inactive)
REMARK       I    between atoms: C2_2  and  N4_4 
REMARK    1  A    between atoms: N4_4  and  C5_5 
REMARK    2  A    between atoms: N4_4  and  C11_10 
REMARK    3  A    between atoms: C5_5  and  C6_6 
REMARK    4  A    between atoms: C6_6  and  O8_7 
REMARK    5  A    between atoms: C6_6  and  C9_8 
REMARK    6  A    between atoms: C9_8  and  O10_9 
REMARK    7  A    between atoms: C14_13  and  C15_14 
REMARK       I    between atoms: C15_14  and  N17_16 
REMARK    8  A    between atoms: N17_16  and  C18_17 
REMARK    9  A    between atoms: C18_17  and  C19_18 
REMARK   10  A    between atoms: C19_18  and  O20_19 
REMARK   11  A    between atoms: C23_22  and  C24_23 
REMARK       I    between atoms: C24_23  and  N26_25 
REMARK   12  A    between atoms: N26_25  and  C27_26 
REMARK   13  A    between atoms: C27_26  and  C28_27 
REMARK   14  A    between atoms: C28_27  and  O30_28 
REMARK   15  A    between atoms: C28_27  and  C31_29 
REMARK   16  A    between atoms: C31_29  and  O32_30 
ROOT
ATOM      1  C11 ZIN A   1      18.490   0.483  11.634  0.00  0.00     0.072 A 
ATOM      2  C12 ZIN A   1      18.427  -0.179  12.852  0.00  0.00     0.051 A 
ATOM      3  I13 ZIN A   1      18.515  -2.271  12.911  0.00  0.00    -0.041 I 
ATOM      4  C14 ZIN A   1      18.305   0.550  14.039  0.00  0.00     0.068 A 
ATOM      5  C21 ZIN A   1      18.246   1.941  13.998  0.00  0.00     0.040 A 
ATOM      6  I22 ZIN A   1      18.064   3.037  15.774  0.00  0.00    -0.042 I 
ATOM      7  C23 ZIN A   1      18.310   2.603  12.772  0.00  0.00     0.068 A 
ATOM      8  C33 ZIN A   1      18.437   1.869  11.590  0.00  0.00     0.051 A 
ATOM      9  I34 ZIN A   1      18.534   2.862   9.748  0.00  0.00    -0.041 I 
ENDROOT
BRANCH   1  10
ATOM     10  N4  ZIN A   1      18.612  -0.249  10.447  0.00  0.00    -0.313 N 
ATOM     11  C2  ZIN A   1      19.827  -0.650  10.024  0.00  0.00     0.220 C 
ATOM     12  C1  ZIN A   1      21.055  -0.310  10.829  0.00  0.00     0.117 C 
ATOM     13  O3  ZIN A   1      19.934  -1.284   8.996  0.00  0.00    -0.273 OA
BRANCH  10  14
ATOM     14  C5  ZIN A   1      17.419  -0.580   9.664  0.00  0.00     0.166 C 
BRANCH  14  15
ATOM     15  C6  ZIN A   1      17.830  -0.933   8.233  0.00  0.00     0.160 C 
BRANCH  15  16
ATOM     16  O8  ZIN A   1      17.491  -2.295   7.963  0.00  0.00    -0.392 OA
ATOM     17  H40 ZIN A   1      16.604  -2.545   8.254  0.00  0.00     0.210 HD
ENDBRANCH  15  16
BRANCH  15  18
ATOM     18  C9  ZIN A   1      17.093  -0.020   7.251  0.00  0.00     0.197 C 
BRANCH  18  19
ATOM     19  O10 ZIN A   1      18.017   0.483   6.283  0.00  0.00    -0.398 OA
ATOM     20  H43 ZIN A   1      17.598   0.928   5.534  0.00  0.00     0.209 HD
ENDBRANCH  18  19
ENDBRANCH  15  18
ENDBRANCH  14  15
ENDBRANCH  10  14
ENDBRANCH   1  10
BRANCH   7  21
ATOM     21  C24 ZIN A   1      18.249   4.079  12.724  0.00  0.00     0.254 C 
ATOM     22  O25 ZIN A   1      19.274   4.731  12.767  0.00  0.00    -0.268 OA
ATOM     23  N26 ZIN A   1      17.057   4.702  12.632  0.00  0.00    -0.354 N 
ATOM     24  H50 ZIN A   1      16.239   4.180  12.597  0.00  0.00     0.162 HD
BRANCH  23  25
ATOM     25  C27 ZIN A   1      16.996   6.164  12.583  0.00  0.00     0.156 C 
BRANCH  25  26
ATOM     26  C28 ZIN A   1      16.593   6.704  13.956  0.00  0.00     0.159 C 
BRANCH  26  27
ATOM     27  O30 ZIN A   1      17.716   6.652  14.838  0.00  0.00    -0.392 OA
ATOM     28  H53 ZIN A   1      17.937   7.501  15.244  0.00  0.00     0.210 HD
ENDBRANCH  26  27
BRANCH  26  29
ATOM     29  C31 ZIN A   1      15.458   5.850  14.526  0.00  0.00     0.197 C 
BRANCH  29  30
ATOM     30  O32 ZIN A   1      15.544   5.833  15.952  0.00  0.00    -0.398 OA
ATOM     31  H56 ZIN A   1      15.464   4.951  16.341  0.00  0.00     0.209 HD
ENDBRANCH  29  30
ENDBRANCH  26  29
ENDBRANCH  25  26
ENDBRANCH  23  25
ENDBRANCH   7  21
BRANCH   4  32
ATOM     32  C15 ZIN A   1      18.239  -0.157  15.335  0.00  0.00     0.254 C 
ATOM     33  O16 ZIN A   1      17.171  -0.560  15.754  0.00  0.00    -0.268 OA
ATOM     34  N17 ZIN A   1      19.362  -0.354  16.053  0.00  0.00    -0.355 N 
ATOM     35  H44 ZIN A   1      20.214  -0.032  15.719  0.00  0.00     0.162 HD
BRANCH  34  36
ATOM     36  C18 ZIN A   1      19.296  -1.055  17.338  0.00  0.00     0.148 C 
BRANCH  36  37
ATOM     37  C19 ZIN A   1      18.992  -0.051  18.451  0.00  0.00     0.183 C 
BRANCH  37  38
ATOM     38  O20 ZIN A   1      19.944   1.014  18.406  0.00  0.00    -0.399 OA
ATOM     39  H49 ZIN A   1      20.816   0.750  18.078  0.00  0.00     0.209 HD
ENDBRANCH  37  38
ENDBRANCH  36  37
ENDBRANCH  34  36
ENDBRANCH   4  32
TORSDOF 16
ENDMDL
MODEL 9
REMARK VINA RESULT:      -5.3      4.726     10.260
REMARK  16 active torsions:
REMARK  status: ('A' for Active; 'I' for Inactive)
REMARK       I    between atoms: C2_2  and  N4_4 
REMARK    1  A    between atoms: N4_4  and  C5_5 
REMARK    2  A    between atoms: N4_4  and  C11_10 
REMARK    3  A    between atoms: C5_5  and  C6_6 
REMARK    4  A    between atoms: C6_6  and  O8_7 
REMARK    5  A    between atoms: C6_6  and  C9_8 
REMARK    6  A    between atoms: C9_8  and  O10_9 
REMARK    7  A    between atoms: C14_13  and  C15_14 
REMARK       I    between atoms: C15_14  and  N17_16 
REMARK    8  A    between atoms: N17_16  and  C18_17 
REMARK    9  A    between atoms: C18_17  and  C19_18 
REMARK   10  A    between atoms: C19_18  and  O20_19 
REMARK   11  A    between atoms: C23_22  and  C24_23 
REMARK       I    between atoms: C24_23  and  N26_25 
REMARK   12  A    between atoms: N26_25  and  C27_26 
REMARK   13  A    between atoms: C27_26  and  C28_27 
REMARK   14  A    between atoms: C28_27  and  O30_28 
REMARK   15  A    between atoms: C28_27  and  C31_29 
REMARK   16  A    between atoms: C31_29  and  O32_30 
ROOT
ATOM      1  C11 ZIN A   1      18.290  -2.474   9.836  0.00  0.00     0.072 A 
ATOM      2  C12 ZIN A   1      18.434  -2.646   8.468  0.00  0.00     0.051 A 
ATOM      3  I13 ZIN A   1      18.587  -4.576   7.667  0.00  0.00    -0.041 I 
ATOM      4  C14 ZIN A   1      18.478  -1.534   7.622  0.00  0.00     0.068 A 
ATOM      5  C21 ZIN A   1      18.376  -0.251   8.156  0.00  0.00     0.040 A 
ATOM      6  I22 ZIN A   1      18.440   1.419   6.893  0.00  0.00    -0.042 I 
ATOM      7  C23 ZIN A   1      18.231  -0.081   9.532  0.00  0.00     0.068 A 
ATOM      8  C33 ZIN A   1      18.183  -1.197  10.371  0.00  0.00     0.051 A 
ATOM      9  I34 ZIN A   1      17.964  -0.944  12.439  0.00  0.00    -0.041 I 
ENDROOT
BRANCH   1  10
ATOM     10  N4  ZIN A   1      18.247  -3.590  10.681  0.00  0.00    -0.313 N 
ATOM     11  C2  ZIN A   1      19.381  -4.048  11.249  0.00  0.00     0.220 C 
ATOM     12  C1  ZIN A   1      20.693  -3.360  10.974  0.00  0.00     0.117 C 
ATOM     13  O3  ZIN A   1      19.345  -5.015  11.980  0.00  0.00    -0.273 OA
BRANCH  10  14
ATOM     14  C5  ZIN A   1      16.972  -4.259  10.948  0.00  0.00     0.166 C 
BRANCH  14  15
ATOM     15  C6  ZIN A   1      16.913  -5.574  10.168  0.00  0.00     0.160 C 
BRANCH  15  16
ATOM     16  O8  ZIN A   1      17.125  -6.668  11.063  0.00  0.00    -0.392 OA
ATOM     17  H40 ZIN A   1      17.002  -7.537  10.658  0.00  0.00     0.210 HD
ENDBRANCH  15  16
BRANCH  15  18
ATOM     18  C9  ZIN A   1      15.540  -5.714   9.507  0.00  0.00     0.197 C 
BRANCH  18  19
ATOM     19  O10 ZIN A   1      15.606  -6.703   8.477  0.00  0.00    -0.398 OA
ATOM     20  H43 ZIN A   1      14.848  -7.302   8.459  0.00  0.00     0.209 HD
ENDBRANCH  18  19
ENDBRANCH  15  18
ENDBRANCH  14  15
ENDBRANCH  10  14
ENDBRANCH   1  10
BRANCH   7  21
ATOM     21  C24 ZIN A   1      18.122   1.278  10.103  0.00  0.00     0.254 C 
ATOM     22  O25 ZIN A   1      17.028   1.749  10.346  0.00  0.00    -0.268 OA
ATOM     23  N26 ZIN A   1      19.235   1.995  10.353  0.00  0.00    -0.354 N 
ATOM     24  H50 ZIN A   1      20.108   1.619  10.159  0.00  0.00     0.162 HD
BRANCH  23  25
ATOM     25  C27 ZIN A   1      19.128   3.342  10.919  0.00  0.00     0.156 C 
BRANCH  25  26
ATOM     26  C28 ZIN A   1      19.294   3.273  12.438  0.00  0.00     0.159 C 
BRANCH  26  27
ATOM     27  O30 ZIN A   1      18.057   2.879  13.035  0.00  0.00    -0.392 OA
ATOM     28  H53 ZIN A   1      18.144   2.184  13.701  0.00  0.00     0.210 HD
ENDBRANCH  26  27
BRANCH  26  29
ATOM     29  C31 ZIN A   1      19.702   4.648  12.969  0.00  0.00     0.197 C 
BRANCH  29  30
ATOM     30  O32 ZIN A   1      19.880   4.578  14.386  0.00  0.00    -0.398 OA
ATOM     31  H56 ZIN A   1      20.594   3.988  14.664  0.00  0.00     0.209 HD
ENDBRANCH  29  30
ENDBRANCH  26  29
ENDBRANCH  25  26
ENDBRANCH  23  25
ENDBRANCH   7  21
BRANCH   4  32
ATOM     32  C15 ZIN A   1      18.631  -1.720   6.164  0.00  0.00     0.254 C 
ATOM     33  O16 ZIN A   1      19.740  -1.812   5.676  0.00  0.00    -0.268 OA
ATOM     34  N17 ZIN A   1      17.540  -1.788   5.375  0.00  0.00    -0.355 N 
ATOM     35  H44 ZIN A   1      16.655  -1.715   5.765  0.00  0.00     0.162 HD
BRANCH  34  36
ATOM     36  C18 ZIN A   1      17.692  -1.973   3.930  0.00  0.00     0.148 C 
BRANCH  36  37
ATOM     37  C19 ZIN A   1      17.398  -3.431   3.570  0.00  0.00     0.183 C 
BRANCH  37  38
ATOM     38  O20 ZIN A   1      18.564  -4.224   3.803  0.00  0.00    -0.399 OA
ATOM     39  H49 ZIN A   1      18.825  -4.276   4.733  0.00  0.00     0.209 HD
ENDBRANCH  37  38
ENDBRANCH  36  37
ENDBRANCH  34  36
ENDBRANCH   4  32
TORSDOF 16
ENDMDL
