MODEL 1
REMARK VINA RESULT:      -6.2      0.000      0.000
REMARK  1 active torsions:
REMARK  status: ('A' for Active; 'I' for Inactive)
REMARK    1  A    between atoms: C4_3  and  C6_4 
ROOT
ATOM      1  C1  ZIN A   1      17.758   3.286  10.429  0.00  0.00     0.046 C 
ATOM      2  C2  ZIN A   1      19.170   2.757  10.685  0.00  0.00     0.251 C 
ATOM      3  C4  ZIN A   1      19.199   1.244  10.454  0.00  0.00     0.187 C 
ATOM      4  O12 ZIN A   1      18.336   0.606  11.399  0.00  0.00    -0.377 OA
ATOM      5  C13 ZIN A   1      18.683   0.863  12.762  0.00  0.00     0.199 C 
ATOM      6  C14 ZIN A   1      18.650   2.372  13.017  0.00  0.00     0.298 C 
ATOM      7  N15 ZIN A   1      19.558   3.044  12.074  0.00  0.00     0.093 N 
ATOM      8  C16 ZIN A   1      19.598   4.491  12.323  0.00  0.00     0.310 C 
ENDROOT
BRANCH   3   9
ATOM      9  C6  ZIN A   1      18.728   0.940   9.055  0.00  0.00    -0.027 A 
ATOM     10  C11 ZIN A   1      17.665   0.080   8.855  0.00  0.00     0.010 A 
ATOM     11  C10 ZIN A   1      17.230  -0.196   7.572  0.00  0.00     0.001 A 
ATOM     12  C9  ZIN A   1      17.865   0.382   6.489  0.00  0.00     0.000 A 
ATOM     13  C8  ZIN A   1      18.931   1.239   6.689  0.00  0.00     0.001 A 
ATOM     14  C7  ZIN A   1      19.363   1.517   7.972  0.00  0.00     0.010 A 
ENDBRANCH   3   9
TORSDOF 1
ENDMDL
MODEL 2
REMARK VINA RESULT:      -6.0      1.519      2.438
REMARK  1 active torsions:
REMARK  status: ('A' for Active; 'I' for Inactive)
REMARK    1  A    between atoms: C4_3  and  C6_4 
ROOT
ATOM      1  C1  ZIN A   1      20.177  -0.514  10.106  0.00  0.00     0.046 C 
ATOM      2  C2  ZIN A   1      18.860   0.002  10.689  0.00  0.00     0.251 C 
ATOM      3  C4  ZIN A   1      18.411   1.245   9.916  0.00  0.00     0.187 C 
ATOM      4  O12 ZIN A   1      19.380   2.283  10.090  0.00  0.00    -0.377 OA
ATOM      5  C13 ZIN A   1      19.592   2.650  11.457  0.00  0.00     0.199 C 
ATOM      6  C14 ZIN A   1      20.051   1.421  12.244  0.00  0.00     0.298 C 
ATOM      7  N15 ZIN A   1      19.051   0.352  12.104  0.00  0.00     0.093 N 
ATOM      8  C16 ZIN A   1      19.427  -0.829  12.893  0.00  0.00     0.310 C 
ENDROOT
BRANCH   3   9
ATOM      9  C6  ZIN A   1      18.289   0.911   8.452  0.00  0.00    -0.027 A 
ATOM     10  C11 ZIN A   1      17.345  -0.007   8.029  0.00  0.00     0.010 A 
ATOM     11  C10 ZIN A   1      17.230  -0.311   6.686  0.00  0.00     0.001 A 
ATOM     12  C9  ZIN A   1      18.063   0.297   5.766  0.00  0.00     0.000 A 
ATOM     13  C8  ZIN A   1      19.009   1.212   6.189  0.00  0.00     0.001 A 
ATOM     14  C7  ZIN A   1      19.122   1.518   7.532  0.00  0.00     0.010 A 
ENDBRANCH   3   9
TORSDOF 1
ENDMDL
MODEL 3
REMARK VINA RESULT:      -6.0      1.546      2.848
REMARK  1 active torsions:
REMARK  status: ('A' for Active; 'I' for Inactive)
REMARK    1  A    between atoms: C4_3  and  C6_4 
ROOT
ATOM      1  C1  ZIN A   1      20.007  -0.863  10.375  0.00  0.00     0.046 C 
ATOM      2  C2  ZIN A   1      18.701  -0.329  10.968  0.00  0.00     0.251 C 
ATOM      3  C4  ZIN A   1      18.355   1.012  10.316  0.00  0.00     0.187 C 
ATOM      4  O12 ZIN A   1      19.375   1.965  10.626  0.00  0.00    -0.377 OA
ATOM      5  C13 ZIN A   1      19.558   2.177  12.029  0.00  0.00     0.199 C 
ATOM      6  C14 ZIN A   1      19.916   0.848  12.698  0.00  0.00     0.298 C 
ATOM      7  N15 ZIN A   1      18.861  -0.138  12.417  0.00  0.00     0.093 N 
ATOM      8  C16 ZIN A   1      19.139  -1.413  13.090  0.00  0.00     0.310 C 
ENDROOT
BRANCH   3   9
ATOM      9  C6  ZIN A   1      18.266   0.837   8.822  0.00  0.00    -0.027 A 
ATOM     10  C11 ZIN A   1      19.106   1.554   7.991  0.00  0.00     0.010 A 
ATOM     11  C10 ZIN A   1      19.027   1.390   6.620  0.00  0.00     0.001 A 
ATOM     12  C9  ZIN A   1      18.103   0.515   6.081  0.00  0.00     0.000 A 
ATOM     13  C8  ZIN A   1      17.260  -0.198   6.912  0.00  0.00     0.001 A 
ATOM     14  C7  ZIN A   1      17.341  -0.037   8.283  0.00  0.00     0.010 A 
ENDBRANCH   3   9
TORSDOF 1
ENDMDL
MODEL 4
REMARK VINA RESULT:      -5.9      1.531      2.667
REMARK  1 active torsions:
REMARK  status: ('A' for Active; 'I' for Inactive)
REMARK    1  A    between atoms: C4_3  and  C6_4 
ROOT
ATOM      1  C1  ZIN A   1      19.701   1.260  12.292  0.00  0.00     0.046 C 
ATOM      2  C2  ZIN A   1      18.236   1.675  12.442  0.00  0.00     0.251 C 
ATOM      3  C4  ZIN A   1      17.826   2.544  11.249  0.00  0.00     0.187 C 
ATOM      4  O12 ZIN A   1      18.604   3.744  11.251  0.00  0.00    -0.377 OA
ATOM      5  C13 ZIN A   1      18.465   4.520  12.445  0.00  0.00     0.199 C 
ATOM      6  C14 ZIN A   1      18.880   3.671  13.650  0.00  0.00     0.298 C 
ATOM      7  N15 ZIN A   1      18.068   2.445  13.683  0.00  0.00     0.093 N 
ATOM      8  C16 ZIN A   1      18.396   1.628  14.859  0.00  0.00     0.310 C 
ENDROOT
BRANCH   3   9
ATOM      9  C6  ZIN A   1      18.070   1.787   9.969  0.00  0.00    -0.027 A 
ATOM     10  C11 ZIN A   1      18.946   2.289   9.026  0.00  0.00     0.010 A 
ATOM     11  C10 ZIN A   1      19.173   1.593   7.853  0.00  0.00     0.001 A 
ATOM     12  C9  ZIN A   1      18.517   0.399   7.620  0.00  0.00     0.000 A 
ATOM     13  C8  ZIN A   1      17.637  -0.101   8.562  0.00  0.00     0.001 A 
ATOM     14  C7  ZIN A   1      17.413   0.594   9.736  0.00  0.00     0.010 A 
ENDBRANCH   3   9
TORSDOF 1
ENDMDL
MODEL 5
REMARK VINA RESULT:      -5.9      2.122      4.999
REMARK  1 active torsions:
REMARK  status: ('A' for Active; 'I' for Inactive)
REMARK    1  A    between atoms: C4_3  and  C6_4 
ROOT
ATOM      1  C1  ZIN A   1      17.472   0.228   9.580  0.00  0.00     0.046 C 
ATOM      2  C2  ZIN A   1      18.978   0.206   9.312  0.00  0.00     0.251 C 
ATOM      3  C4  ZIN A   1      19.450   1.610   8.926  0.00  0.00     0.187 C 
ATOM      4  O12 ZIN A   1      18.814   2.003   7.707  0.00  0.00    -0.377 OA
ATOM      5  C13 ZIN A   1      19.074   1.121   6.611  0.00  0.00     0.199 C 
ATOM      6  C14 ZIN A   1      18.599  -0.289   6.974  0.00  0.00     0.298 C 
ATOM      7  N15 ZIN A   1      19.267  -0.724   8.210  0.00  0.00     0.093 N 
ATOM      8  C16 ZIN A   1      18.881  -2.096   8.563  0.00  0.00     0.310 C 
ENDROOT
BRANCH   3   9
ATOM      9  C6  ZIN A   1      19.086   2.582  10.020  0.00  0.00    -0.027 A 
ATOM     10  C11 ZIN A   1      18.169   3.586   9.775  0.00  0.00     0.010 A 
ATOM     11  C10 ZIN A   1      17.831   4.474  10.779  0.00  0.00     0.001 A 
ATOM     12  C9  ZIN A   1      18.418   4.362  12.026  0.00  0.00     0.000 A 
ATOM     13  C8  ZIN A   1      19.338   3.360  12.269  0.00  0.00     0.001 A 
ATOM     14  C7  ZIN A   1      19.673   2.470  11.266  0.00  0.00     0.010 A 
ENDBRANCH   3   9
TORSDOF 1
ENDMDL
MODEL 6
REMARK VINA RESULT:      -5.9      2.377      3.728
REMARK  1 active torsions:
REMARK  status: ('A' for Active; 'I' for Inactive)
REMARK    1  A    between atoms: C4_3  and  C6_4 
ROOT
ATOM      1  C1  ZIN A   1      19.478  -1.642  10.374  0.00  0.00     0.046 C 
ATOM      2  C2  ZIN A   1      17.949  -1.694  10.403  0.00  0.00     0.251 C 
ATOM      3  C4  ZIN A   1      17.386  -0.284  10.208  0.00  0.00     0.187 C 
ATOM      4  O12 ZIN A   1      17.797   0.543  11.299  0.00  0.00    -0.377 OA
ATOM      5  C13 ZIN A   1      17.376   0.060  12.579  0.00  0.00     0.199 C 
ATOM      6  C14 ZIN A   1      17.939  -1.346  12.797  0.00  0.00     0.298 C 
ATOM      7  N15 ZIN A   1      17.500  -2.222  11.700  0.00  0.00     0.093 N 
ATOM      8  C16 ZIN A   1      17.972  -3.597  11.902  0.00  0.00     0.310 C 
ENDROOT
BRANCH   3   9
ATOM      9  C6  ZIN A   1      17.906   0.291   8.915  0.00  0.00    -0.027 A 
ATOM     10  C11 ZIN A   1      18.772   1.368   8.938  0.00  0.00     0.010 A 
ATOM     11  C10 ZIN A   1      19.252   1.893   7.752  0.00  0.00     0.001 A 
ATOM     12  C9  ZIN A   1      18.860   1.346   6.545  0.00  0.00     0.000 A 
ATOM     13  C8  ZIN A   1      17.991   0.271   6.523  0.00  0.00     0.001 A 
ATOM     14  C7  ZIN A   1      17.514  -0.256   7.708  0.00  0.00     0.010 A 
ENDBRANCH   3   9
TORSDOF 1
ENDMDL
MODEL 7
REMARK VINA RESULT:      -5.8      2.780      6.097
REMARK  1 active torsions:
REMARK  status: ('A' for Active; 'I' for Inactive)
REMARK    1  A    between atoms: C4_3  and  C6_4 
ROOT
ATOM      1  C1  ZIN A   1      17.706  -0.655  12.004  0.00  0.00     0.046 C 
ATOM      2  C2  ZIN A   1      19.217  -0.535  12.209  0.00  0.00     0.251 C 
ATOM      3  C4  ZIN A   1      19.501   0.409  13.380  0.00  0.00     0.187 C 
ATOM      4  O12 ZIN A   1      19.018   1.716  13.060  0.00  0.00    -0.377 OA
ATOM      5  C13 ZIN A   1      19.601   2.272  11.878  0.00  0.00     0.199 C 
ATOM      6  C14 ZIN A   1      19.319   1.347  10.692  0.00  0.00     0.298 C 
ATOM      7  N15 ZIN A   1      19.838   0.003  10.990  0.00  0.00     0.093 N 
ATOM      8  C16 ZIN A   1      19.638  -0.903   9.852  0.00  0.00     0.310 C 
ENDROOT
BRANCH   3   9
ATOM      9  C6  ZIN A   1      18.802  -0.098  14.616  0.00  0.00    -0.027 A 
ATOM     10  C11 ZIN A   1      19.168  -1.311  15.168  0.00  0.00     0.010 A 
ATOM     11  C10 ZIN A   1      18.530  -1.774  16.303  0.00  0.00     0.001 A 
ATOM     12  C9  ZIN A   1      17.520  -1.028  16.882  0.00  0.00     0.000 A 
ATOM     13  C8  ZIN A   1      17.152   0.183  16.327  0.00  0.00     0.001 A 
ATOM     14  C7  ZIN A   1      17.792   0.648  15.193  0.00  0.00     0.010 A 
ENDBRANCH   3   9
TORSDOF 1
ENDMDL
MODEL 8
REMARK VINA RESULT:      -5.7      1.982      5.147
REMARK  1 active torsions:
REMARK  status: ('A' for Active; 'I' for Inactive)
REMARK    1  A    between atoms: C4_3  and  C6_4 
ROOT
ATOM      1  C1  ZIN A   1      17.614   0.733  10.959  0.00  0.00     0.046 C 
ATOM      2  C2  ZIN A   1      18.953   1.442  11.166  0.00  0.00     0.251 C 
ATOM      3  C4  ZIN A   1      19.026   1.992  12.593  0.00  0.00     0.187 C 
ATOM      4  O12 ZIN A   1      18.001   2.972  12.773  0.00  0.00    -0.377 OA
ATOM      5  C13 ZIN A   1      18.087   4.070  11.860  0.00  0.00     0.199 C 
ATOM      6  C14 ZIN A   1      18.005   3.542  10.426  0.00  0.00     0.298 C 
ATOM      7  N15 ZIN A   1      19.073   2.553  10.211  0.00  0.00     0.093 N 
ATOM      8  C16 ZIN A   1      19.065   2.063   8.826  0.00  0.00     0.310 C 
ENDROOT
BRANCH   3   9
ATOM      9  C6  ZIN A   1      18.826   0.866  13.576  0.00  0.00    -0.027 A 
ATOM     10  C11 ZIN A   1      19.688  -0.214  13.573  0.00  0.00     0.010 A 
ATOM     11  C10 ZIN A   1      19.507  -1.244  14.477  0.00  0.00     0.001 A 
ATOM     12  C9  ZIN A   1      18.460  -1.197  15.379  0.00  0.00     0.000 A 
ATOM     13  C8  ZIN A   1      17.596  -0.118  15.378  0.00  0.00     0.001 A 
ATOM     14  C7  ZIN A   1      17.779   0.914  14.476  0.00  0.00     0.010 A 
ENDBRANCH   3   9
TORSDOF 1
ENDMDL
MODEL 9
REMARK VINA RESULT:      -5.7      2.447      5.671
REMARK  1 active torsions:
REMARK  status: ('A' for Active; 'I' for Inactive)
REMARK    1  A    between atoms: C4_3  and  C6_4 
ROOT
ATOM      1  C1  ZIN A   1      16.874   0.179  11.927  0.00  0.00     0.046 C 
ATOM      2  C2  ZIN A   1      18.327   0.642  11.803  0.00  0.00     0.251 C 
ATOM      3  C4  ZIN A   1      18.759   1.325  13.103  0.00  0.00     0.187 C 
ATOM      4  O12 ZIN A   1      17.963   2.496  13.308  0.00  0.00    -0.377 OA
ATOM      5  C13 ZIN A   1      18.054   3.448  12.244  0.00  0.00     0.199 C 
ATOM      6  C14 ZIN A   1      17.615   2.786  10.935  0.00  0.00     0.298 C 
ATOM      7  N15 ZIN A   1      18.445   1.596  10.690  0.00  0.00     0.093 N 
ATOM      8  C16 ZIN A   1      18.093   0.963   9.412  0.00  0.00     0.310 C 
ENDROOT
BRANCH   3   9
ATOM      9  C6  ZIN A   1      18.566   0.376  14.258  0.00  0.00    -0.027 A 
ATOM     10  C11 ZIN A   1      17.596   0.633  15.208  0.00  0.00     0.010 A 
ATOM     11  C10 ZIN A   1      17.417  -0.240  16.266  0.00  0.00     0.001 A 
ATOM     12  C9  ZIN A   1      18.213  -1.365  16.376  0.00  0.00     0.000 A 
ATOM     13  C8  ZIN A   1      19.185  -1.618  15.427  0.00  0.00     0.001 A 
ATOM     14  C7  ZIN A   1      19.363  -0.748  14.369  0.00  0.00     0.010 A 
ENDBRANCH   3   9
TORSDOF 1
ENDMDL
