MODEL 1
REMARK VINA RESULT:      -5.6      0.000      0.000
REMARK  4 active torsions:
REMARK  status: ('A' for Active; 'I' for Inactive)
REMARK    1  A    between atoms: C3_3  and  N4_4 
REMARK    2  A    between atoms: N4_4  and  C7_7 
REMARK    3  A    between atoms: C7_7  and  C10_9 
REMARK    4  A    between atoms: C10_9  and  C11_10 
ROOT
ATOM      1  C1  <0> d   1      17.511   0.178  13.551  0.00  0.00     0.013 C 
ATOM      2  C2  <0> d   1      18.235   1.051  13.245  0.00  0.00    -0.090 C 
ATOM      3  C3  <0> d   1      19.141   2.146  12.864  0.00  0.00     0.327 C 
ENDROOT
BRANCH   3   4
ATOM      4  N4  <0> d   1      18.352   3.329  12.492  0.00  0.00    -0.061 N 
ATOM      5  H5  <0> d   1      17.558   3.410  13.110  0.00  0.00     0.281 HD
ATOM      6  C6  <0> d   1      19.188   4.531  12.606  0.00  0.00     0.271 C 
BRANCH   4   7
ATOM      7  C7  <0> d   1      17.882   3.188  11.107  0.00  0.00     0.189 C 
ATOM      8  C9  <0> d   1      17.248   4.503  10.647  0.00  0.00     0.040 C 
BRANCH   7   9
ATOM      9  C10 <0> d   1      19.065   2.847  10.200  0.00  0.00     0.071 C 
BRANCH   9  10
ATOM     10  C11 <0> d   1      18.639   1.818   9.184  0.00  0.00    -0.056 A 
ATOM     11  C16 <0> d   1      17.734   0.833   9.536  0.00  0.00     0.007 A 
ATOM     12  C15 <0> d   1      17.340  -0.108   8.603  0.00  0.00     0.001 A 
ATOM     13  C14 <0> d   1      17.858  -0.070   7.322  0.00  0.00     0.000 A 
ATOM     14  C13 <0> d   1      18.767   0.912   6.972  0.00  0.00     0.001 A 
ATOM     15  C12 <0> d   1      19.157   1.855   7.903  0.00  0.00     0.007 A 
ENDBRANCH   9  10
ENDBRANCH   7   9
ENDBRANCH   4   7
ENDBRANCH   3   4
TORSDOF 4
ENDMDL
MODEL 2
REMARK VINA RESULT:      -5.6      0.782      1.495
REMARK  4 active torsions:
REMARK  status: ('A' for Active; 'I' for Inactive)
REMARK    1  A    between atoms: C3_3  and  N4_4 
REMARK    2  A    between atoms: N4_4  and  C7_7 
REMARK    3  A    between atoms: C7_7  and  C10_9 
REMARK    4  A    between atoms: C10_9  and  C11_10 
ROOT
ATOM      1  C1  <0> d   1      17.301  -0.686  12.467  0.00  0.00     0.013 C 
ATOM      2  C2  <0> d   1      18.077   0.193  12.531  0.00  0.00    -0.090 C 
ATOM      3  C3  <0> d   1      19.049   1.295  12.612  0.00  0.00     0.327 C 
ENDROOT
BRANCH   3   4
ATOM      4  N4  <0> d   1      18.373   2.568  12.323  0.00  0.00    -0.061 N 
ATOM      5  H5  <0> d   1      17.571   2.667  12.928  0.00  0.00     0.281 HD
ATOM      6  C6  <0> d   1      19.303   3.680  12.554  0.00  0.00     0.271 C 
BRANCH   4   7
ATOM      7  C7  <0> d   1      17.932   2.580  10.921  0.00  0.00     0.189 C 
ATOM      8  C9  <0> d   1      17.338   3.949  10.586  0.00  0.00     0.040 C 
BRANCH   7   9
ATOM      9  C10 <0> d   1      19.128   2.306  10.009  0.00  0.00     0.071 C 
BRANCH   9  10
ATOM     10  C11 <0> d   1      18.674   1.509   8.812  0.00  0.00    -0.056 A 
ATOM     11  C16 <0> d   1      19.261   1.721   7.578  0.00  0.00     0.007 A 
ATOM     12  C15 <0> d   1      18.848   0.988   6.481  0.00  0.00     0.001 A 
ATOM     13  C14 <0> d   1      17.843   0.048   6.617  0.00  0.00     0.000 A 
ATOM     14  C13 <0> d   1      17.253  -0.160   7.850  0.00  0.00     0.001 A 
ATOM     15  C12 <0> d   1      17.669   0.571   8.947  0.00  0.00     0.007 A 
ENDBRANCH   9  10
ENDBRANCH   7   9
ENDBRANCH   4   7
ENDBRANCH   3   4
TORSDOF 4
ENDMDL
MODEL 3
REMARK VINA RESULT:      -5.5      1.852      3.206
REMARK  4 active torsions:
REMARK  status: ('A' for Active; 'I' for Inactive)
REMARK    1  A    between atoms: C3_3  and  N4_4 
REMARK    2  A    between atoms: N4_4  and  C7_7 
REMARK    3  A    between atoms: C7_7  and  C10_9 
REMARK    4  A    between atoms: C10_9  and  C11_10 
ROOT
ATOM      1  C1  <0> d   1      17.761  -1.003  16.556  0.00  0.00     0.013 C 
ATOM      2  C2  <0> d   1      18.180  -1.035  15.459  0.00  0.00    -0.090 C 
ATOM      3  C3  <0> d   1      18.704  -1.074  14.085  0.00  0.00     0.327 C 
ENDROOT
BRANCH   3   4
ATOM      4  N4  <0> d   1      17.941  -0.142  13.242  0.00  0.00    -0.061 N 
ATOM      5  H5  <0> d   1      16.985  -0.104  13.565  0.00  0.00     0.281 HD
ATOM      6  C6  <0> d   1      18.541   1.196  13.325  0.00  0.00     0.271 C 
BRANCH   4   7
ATOM      7  C7  <0> d   1      17.970  -0.606  11.849  0.00  0.00     0.189 C 
ATOM      8  C9  <0> d   1      17.525  -2.069  11.789  0.00  0.00     0.040 C 
BRANCH   7   9
ATOM      9  C10 <0> d   1      17.023   0.250  11.007  0.00  0.00     0.071 C 
BRANCH   9  10
ATOM     10  C11 <0> d   1      17.684   0.590   9.696  0.00  0.00    -0.056 A 
ATOM     11  C16 <0> d   1      17.391  -0.145   8.562  0.00  0.00     0.007 A 
ATOM     12  C15 <0> d   1      17.994   0.170   7.359  0.00  0.00     0.001 A 
ATOM     13  C14 <0> d   1      18.897   1.214   7.292  0.00  0.00     0.000 A 
ATOM     14  C13 <0> d   1      19.195   1.946   8.426  0.00  0.00     0.001 A 
ATOM     15  C12 <0> d   1      18.588   1.633   9.628  0.00  0.00     0.007 A 
ENDBRANCH   9  10
ENDBRANCH   7   9
ENDBRANCH   4   7
ENDBRANCH   3   4
TORSDOF 4
ENDMDL
MODEL 4
REMARK VINA RESULT:      -5.5      2.180      5.615
REMARK  4 active torsions:
REMARK  status: ('A' for Active; 'I' for Inactive)
REMARK    1  A    between atoms: C3_3  and  N4_4 
REMARK    2  A    between atoms: N4_4  and  C7_7 
REMARK    3  A    between atoms: C7_7  and  C10_9 
REMARK    4  A    between atoms: C10_9  and  C11_10 
ROOT
ATOM      1  C1  <0> d   1      18.642  -0.157   4.371  0.00  0.00     0.013 C 
ATOM      2  C2  <0> d   1      18.752   0.366   5.416  0.00  0.00    -0.090 C 
ATOM      3  C3  <0> d   1      18.890   1.022   6.726  0.00  0.00     0.327 C 
ENDROOT
BRANCH   3   4
ATOM      4  N4  <0> d   1      18.281   0.178   7.763  0.00  0.00    -0.061 N 
ATOM      5  H5  <0> d   1      17.392  -0.170   7.434  0.00  0.00     0.281 HD
ATOM      6  C6  <0> d   1      19.171  -0.953   8.059  0.00  0.00     0.271 C 
BRANCH   4   7
ATOM      7  C7  <0> d   1      18.075   0.971   8.982  0.00  0.00     0.189 C 
ATOM      8  C9  <0> d   1      17.933   0.035  10.183  0.00  0.00     0.040 C 
BRANCH   7   9
ATOM      9  C10 <0> d   1      19.273   1.897   9.196  0.00  0.00     0.071 C 
BRANCH   9  10
ATOM     10  C11 <0> d   1      18.940   2.914  10.257  0.00  0.00    -0.056 A 
ATOM     11  C16 <0> d   1      17.798   3.686  10.141  0.00  0.00     0.007 A 
ATOM     12  C15 <0> d   1      17.490   4.616  11.116  0.00  0.00     0.001 A 
ATOM     13  C14 <0> d   1      18.327   4.779  12.204  0.00  0.00     0.000 A 
ATOM     14  C13 <0> d   1      19.471   4.010  12.319  0.00  0.00     0.001 A 
ATOM     15  C12 <0> d   1      19.777   3.079  11.345  0.00  0.00     0.007 A 
ENDBRANCH   9  10
ENDBRANCH   7   9
ENDBRANCH   4   7
ENDBRANCH   3   4
TORSDOF 4
ENDMDL
MODEL 5
REMARK VINA RESULT:      -5.5      1.484      3.164
REMARK  4 active torsions:
REMARK  status: ('A' for Active; 'I' for Inactive)
REMARK    1  A    between atoms: C3_3  and  N4_4 
REMARK    2  A    between atoms: N4_4  and  C7_7 
REMARK    3  A    between atoms: C7_7  and  C10_9 
REMARK    4  A    between atoms: C10_9  and  C11_10 
ROOT
ATOM      1  C1  <0> d   1      17.947   4.069  10.057  0.00  0.00     0.013 C 
ATOM      2  C2  <0> d   1      18.651   3.540  10.834  0.00  0.00    -0.090 C 
ATOM      3  C3  <0> d   1      19.534   2.876  11.807  0.00  0.00     0.327 C 
ENDROOT
BRANCH   3   4
ATOM      4  N4  <0> d   1      19.149   1.464  11.933  0.00  0.00    -0.061 N 
ATOM      5  H5  <0> d   1      19.661   1.043  12.694  0.00  0.00     0.281 HD
ATOM      6  C6  <0> d   1      17.708   1.371  12.200  0.00  0.00     0.271 C 
BRANCH   4   7
ATOM      7  C7  <0> d   1      19.462   0.758  10.683  0.00  0.00     0.189 C 
ATOM      8  C9  <0> d   1      20.491  -0.340  10.962  0.00  0.00     0.040 C 
BRANCH   7   9
ATOM      9  C10 <0> d   1      18.186   0.130  10.119  0.00  0.00     0.071 C 
BRANCH   9  10
ATOM     10  C11 <0> d   1      18.153   0.317   8.624  0.00  0.00    -0.056 A 
ATOM     11  C16 <0> d   1      19.091   1.124   8.007  0.00  0.00     0.007 A 
ATOM     12  C15 <0> d   1      19.064   1.292   6.636  0.00  0.00     0.001 A 
ATOM     13  C14 <0> d   1      18.092   0.660   5.882  0.00  0.00     0.000 A 
ATOM     14  C13 <0> d   1      17.151  -0.143   6.499  0.00  0.00     0.001 A 
ATOM     15  C12 <0> d   1      17.182  -0.314   7.870  0.00  0.00     0.007 A 
ENDBRANCH   9  10
ENDBRANCH   7   9
ENDBRANCH   4   7
ENDBRANCH   3   4
TORSDOF 4
ENDMDL
MODEL 6
REMARK VINA RESULT:      -5.5      2.149      2.954
REMARK  4 active torsions:
REMARK  status: ('A' for Active; 'I' for Inactive)
REMARK    1  A    between atoms: C3_3  and  N4_4 
REMARK    2  A    between atoms: N4_4  and  C7_7 
REMARK    3  A    between atoms: C7_7  and  C10_9 
REMARK    4  A    between atoms: C10_9  and  C11_10 
ROOT
ATOM      1  C1  <0> d   1      17.452  -2.918  11.521  0.00  0.00     0.013 C 
ATOM      2  C2  <0> d   1      18.436  -2.279  11.502  0.00  0.00    -0.090 C 
ATOM      3  C3  <0> d   1      19.670  -1.477  11.480  0.00  0.00     0.327 C 
ENDROOT
BRANCH   3   4
ATOM      4  N4  <0> d   1      19.418  -0.172  12.106  0.00  0.00    -0.061 N 
ATOM      5  H5  <0> d   1      19.104  -0.310  13.056  0.00  0.00     0.281 HD
ATOM      6  C6  <0> d   1      20.657   0.617  12.109  0.00  0.00     0.271 C 
BRANCH   4   7
ATOM      7  C7  <0> d   1      18.384   0.543  11.347  0.00  0.00     0.189 C 
ATOM      8  C9  <0> d   1      17.535   1.382  12.306  0.00  0.00     0.040 C 
BRANCH   7   9
ATOM      9  C10 <0> d   1      19.048   1.460  10.319  0.00  0.00     0.071 C 
BRANCH   9  10
ATOM     10  C11 <0> d   1      18.625   1.049   8.932  0.00  0.00    -0.056 A 
ATOM     11  C16 <0> d   1      19.270   1.577   7.828  0.00  0.00     0.007 A 
ATOM     12  C15 <0> d   1      18.886   1.197   6.556  0.00  0.00     0.001 A 
ATOM     13  C14 <0> d   1      17.850   0.296   6.387  0.00  0.00     0.000 A 
ATOM     14  C13 <0> d   1      17.202  -0.228   7.491  0.00  0.00     0.001 A 
ATOM     15  C12 <0> d   1      17.590   0.150   8.762  0.00  0.00     0.007 A 
ENDBRANCH   9  10
ENDBRANCH   7   9
ENDBRANCH   4   7
ENDBRANCH   3   4
TORSDOF 4
ENDMDL
MODEL 7
REMARK VINA RESULT:      -5.4      1.860      3.701
REMARK  4 active torsions:
REMARK  status: ('A' for Active; 'I' for Inactive)
REMARK    1  A    between atoms: C3_3  and  N4_4 
REMARK    2  A    between atoms: N4_4  and  C7_7 
REMARK    3  A    between atoms: C7_7  and  C10_9 
REMARK    4  A    between atoms: C10_9  and  C11_10 
ROOT
ATOM      1  C1  <0> d   1      17.604   4.829  10.503  0.00  0.00     0.013 C 
ATOM      2  C2  <0> d   1      17.760   3.671  10.394  0.00  0.00    -0.090 C 
ATOM      3  C3  <0> d   1      17.955   2.218  10.259  0.00  0.00     0.327 C 
ENDROOT
BRANCH   3   4
ATOM      4  N4  <0> d   1      19.393   1.917  10.237  0.00  0.00    -0.061 N 
ATOM      5  H5  <0> d   1      19.893   2.695   9.831  0.00  0.00     0.281 HD
ATOM      6  C6  <0> d   1      19.867   1.692  11.609  0.00  0.00     0.271 C 
BRANCH   4   7
ATOM      7  C7  <0> d   1      19.629   0.711   9.433  0.00  0.00     0.189 C 
ATOM      8  C9  <0> d   1      20.068  -0.435  10.347  0.00  0.00     0.040 C 
BRANCH   7   9
ATOM      9  C10 <0> d   1      18.339   0.320   8.710  0.00  0.00     0.071 C 
BRANCH   9  10
ATOM     10  C11 <0> d   1      18.663  -0.126   7.308  0.00  0.00    -0.056 A 
ATOM     11  C16 <0> d   1      18.859   0.813   6.311  0.00  0.00     0.007 A 
ATOM     12  C15 <0> d   1      19.161   0.404   5.026  0.00  0.00     0.001 A 
ATOM     13  C14 <0> d   1      19.259  -0.944   4.734  0.00  0.00     0.000 A 
ATOM     14  C13 <0> d   1      19.058  -1.883   5.730  0.00  0.00     0.001 A 
ATOM     15  C12 <0> d   1      18.760  -1.473   7.015  0.00  0.00     0.007 A 
ENDBRANCH   9  10
ENDBRANCH   7   9
ENDBRANCH   4   7
ENDBRANCH   3   4
TORSDOF 4
ENDMDL
MODEL 8
REMARK VINA RESULT:      -5.4      2.009      5.926
REMARK  4 active torsions:
REMARK  status: ('A' for Active; 'I' for Inactive)
REMARK    1  A    between atoms: C3_3  and  N4_4 
REMARK    2  A    between atoms: N4_4  and  C7_7 
REMARK    3  A    between atoms: C7_7  and  C10_9 
REMARK    4  A    between atoms: C10_9  and  C11_10 
ROOT
ATOM      1  C1  <0> d   1      19.494   1.624   8.255  0.00  0.00     0.013 C 
ATOM      2  C2  <0> d   1      18.637   1.564   9.056  0.00  0.00    -0.090 C 
ATOM      3  C3  <0> d   1      17.564   1.489  10.060  0.00  0.00     0.327 C 
ENDROOT
BRANCH   3   4
ATOM      4  N4  <0> d   1      18.088   1.903  11.370  0.00  0.00    -0.061 N 
ATOM      5  H5  <0> d   1      19.096   1.921  11.337  0.00  0.00     0.281 HD
ATOM      6  C6  <0> d   1      17.582   3.242  11.699  0.00  0.00     0.271 C 
BRANCH   4   7
ATOM      7  C7  <0> d   1      17.649   0.947  12.396  0.00  0.00     0.189 C 
ATOM      8  C9  <0> d   1      16.820  -0.160  11.741  0.00  0.00     0.040 C 
BRANCH   7   9
ATOM      9  C10 <0> d   1      18.873   0.334  13.077  0.00  0.00     0.071 C 
BRANCH   9  10
ATOM     10  C11 <0> d   1      18.498  -0.128  14.462  0.00  0.00    -0.056 A 
ATOM     11  C16 <0> d   1      19.102  -1.248  15.005  0.00  0.00     0.007 A 
ATOM     12  C15 <0> d   1      18.762  -1.669  16.276  0.00  0.00     0.001 A 
ATOM     13  C14 <0> d   1      17.810  -0.977  17.002  0.00  0.00     0.000 A 
ATOM     14  C13 <0> d   1      17.202   0.140  16.458  0.00  0.00     0.001 A 
ATOM     15  C12 <0> d   1      17.546   0.563  15.188  0.00  0.00     0.007 A 
ENDBRANCH   9  10
ENDBRANCH   7   9
ENDBRANCH   4   7
ENDBRANCH   3   4
TORSDOF 4
ENDMDL
MODEL 9
REMARK VINA RESULT:      -5.2      1.849      5.570
REMARK  4 active torsions:
REMARK  status: ('A' for Active; 'I' for Inactive)
REMARK    1  A    between atoms: C3_3  and  N4_4 
REMARK    2  A    between atoms: N4_4  and  C7_7 
REMARK    3  A    between atoms: C7_7  and  C10_9 
REMARK    4  A    between atoms: C10_9  and  C11_10 
ROOT
ATOM      1  C1  <0> d   1      18.986   1.142   6.408  0.00  0.00     0.013 C 
ATOM      2  C2  <0> d   1      19.025   1.483   7.530  0.00  0.00    -0.090 C 
ATOM      3  C3  <0> d   1      19.074   1.909   8.938  0.00  0.00     0.327 C 
ENDROOT
BRANCH   3   4
ATOM      4  N4  <0> d   1      18.643   0.801   9.802  0.00  0.00    -0.061 N 
ATOM      5  H5  <0> d   1      17.814   0.375   9.413  0.00  0.00     0.281 HD
ATOM      6  C6  <0> d   1      19.715  -0.200   9.885  0.00  0.00     0.271 C 
BRANCH   4   7
ATOM      7  C7  <0> d   1      18.346   1.314  11.145  0.00  0.00     0.189 C 
ATOM      8  C9  <0> d   1      17.805   2.742  11.039  0.00  0.00     0.040 C 
BRANCH   7   9
ATOM      9  C10 <0> d   1      17.298   0.421  11.812  0.00  0.00     0.071 C 
BRANCH   9  10
ATOM     10  C11 <0> d   1      17.806  -0.033  13.156  0.00  0.00    -0.056 A 
ATOM     11  C16 <0> d   1      18.674  -1.107  13.241  0.00  0.00     0.007 A 
ATOM     12  C15 <0> d   1      19.144  -1.520  14.473  0.00  0.00     0.001 A 
ATOM     13  C14 <0> d   1      18.739  -0.866  15.622  0.00  0.00     0.000 A 
ATOM     14  C13 <0> d   1      17.867   0.204  15.538  0.00  0.00     0.001 A 
ATOM     15  C12 <0> d   1      17.401   0.620  14.305  0.00  0.00     0.007 A 
ENDBRANCH   9  10
ENDBRANCH   7   9
ENDBRANCH   4   7
ENDBRANCH   3   4
TORSDOF 4
ENDMDL
