MODEL 1
REMARK VINA RESULT:      -9.5      0.000      0.000
REMARK  6 active torsions:
REMARK  status: ('A' for Active; 'I' for Inactive)
REMARK    1  A    between atoms: C2_2  and  C3_3 
REMARK       I    between atoms: C3_3  and  N5_5 
REMARK    2  A    between atoms: C9_9  and  N11_10 
REMARK    3  A    between atoms: C13_12  and  C14_13 
REMARK    4  A    between atoms: C17_16  and  O18_17 
REMARK    5  A    between atoms: O18_17  and  C19_18 
REMARK    6  A    between atoms: C28_27  and  N29_28 
ROOT
ATOM      1  N11 ZIN A   1      18.102   2.738  12.307  0.00  0.00    -0.244 N 
ATOM      2  N12 ZIN A   1      17.818   2.666  10.939  0.00  0.00    -0.169 NA
ATOM      3  C13 ZIN A   1      18.370   1.593  10.424  0.00  0.00     0.105 A 
ATOM      4  C27 ZIN A   1      19.069   0.899  11.506  0.00  0.00     0.086 A 
ATOM      5  C28 ZIN A   1      19.832  -0.275  11.603  0.00  0.00     0.116 A 
ATOM      6  N30 ZIN A   1      20.329  -0.609  12.791  0.00  0.00    -0.337 N 
ATOM      7  H31 ZIN A   1      20.859  -1.416  12.876  0.00  0.00     0.168 HD
ATOM      8  C32 ZIN A   1      20.113   0.142  13.856  0.00  0.00     0.211 A 
ATOM      9  N33 ZIN A   1      19.404   1.249  13.813  0.00  0.00    -0.224 NA
ATOM     10  C34 ZIN A   1      18.869   1.670  12.667  0.00  0.00     0.164 A 
ENDROOT
BRANCH   3  11
ATOM     11  C14 ZIN A   1      18.300   1.163   9.007  0.00  0.00    -0.004 A 
ATOM     12  C26 ZIN A   1      19.162   1.721   8.063  0.00  0.00     0.016 A 
ATOM     13  C25 ZIN A   1      19.098   1.314   6.748  0.00  0.00     0.038 A 
ATOM     14  C17 ZIN A   1      18.167   0.358   6.360  0.00  0.00     0.076 A 
ATOM     15  C16 ZIN A   1      17.303  -0.194   7.296  0.00  0.00     0.038 A 
ATOM     16  C15 ZIN A   1      17.366   0.204   8.615  0.00  0.00     0.016 A 
BRANCH  14  17
ATOM     17  O18 ZIN A   1      18.103  -0.037   5.061  0.00  0.00    -0.311 OA
BRANCH  17  18
ATOM     18  C19 ZIN A   1      18.051  -1.370   4.802  0.00  0.00     0.076 A 
ATOM     19  C24 ZIN A   1      19.052  -2.208   5.270  0.00  0.00     0.037 A 
ATOM     20  C23 ZIN A   1      18.995  -3.563   5.008  0.00  0.00     0.003 A 
ATOM     21  C22 ZIN A   1      17.946  -4.084   4.273  0.00  0.00     0.000 A 
ATOM     22  C21 ZIN A   1      16.950  -3.249   3.801  0.00  0.00     0.003 A 
ATOM     23  C20 ZIN A   1      16.999  -1.894   4.064  0.00  0.00     0.037 A 
ENDBRANCH  17  18
ENDBRANCH  14  17
ENDBRANCH   3  11
BRANCH   1  24
ATOM     24  C9  ZIN A   1      17.652   3.800  13.211  0.00  0.00     0.130 C 
ATOM     25  C8  ZIN A   1      16.753   4.774  12.445  0.00  0.00     0.030 C 
ATOM     26  C7  ZIN A   1      16.256   5.865  13.396  0.00  0.00     0.022 C 
ATOM     27  C6  ZIN A   1      17.454   6.643  13.946  0.00  0.00     0.126 C 
ATOM     28  N5  ZIN A   1      18.394   5.694  14.558  0.00  0.00    -0.347 N 
ATOM     29  C3  ZIN A   1      18.816   5.865  15.826  0.00  0.00     0.242 C 
ATOM     30  C35 ZIN A   1      18.871   4.558  13.757  0.00  0.00     0.153 C 
ATOM     31  O4  ZIN A   1      19.670   5.132  16.287  0.00  0.00    -0.268 OA
BRANCH  29  32
ATOM     32  C2  ZIN A   1      18.242   6.937  16.653  0.00  0.00     0.064 C 
ATOM     33  C1  ZIN A   1      17.748   6.656  17.856  0.00  0.00     0.017 C 
ENDBRANCH  29  32
ENDBRANCH   1  24
BRANCH   5  34
ATOM     34  N29 ZIN A   1      20.063  -1.063  10.492  0.00  0.00    -0.385 N 
ATOM     35  H54 ZIN A   1      19.343  -1.592  10.115  0.00  0.00     0.157 HD
ATOM     36  H55 ZIN A   1      20.945  -1.088  10.090  0.00  0.00     0.157 HD
ENDBRANCH   5  34
TORSDOF 6
ENDMDL
MODEL 2
REMARK VINA RESULT:      -9.2      3.560     10.899
REMARK  6 active torsions:
REMARK  status: ('A' for Active; 'I' for Inactive)
REMARK    1  A    between atoms: C2_2  and  C3_3 
REMARK       I    between atoms: C3_3  and  N5_5 
REMARK    2  A    between atoms: C9_9  and  N11_10 
REMARK    3  A    between atoms: C13_12  and  C14_13 
REMARK    4  A    between atoms: C17_16  and  O18_17 
REMARK    5  A    between atoms: O18_17  and  C19_18 
REMARK    6  A    between atoms: C28_27  and  N29_28 
ROOT
ATOM      1  N11 ZIN A   1      18.149  -2.546  10.615  0.00  0.00    -0.244 N 
ATOM      2  N12 ZIN A   1      17.934  -2.549  11.997  0.00  0.00    -0.169 NA
ATOM      3  C13 ZIN A   1      18.451  -1.469  12.531  0.00  0.00     0.105 A 
ATOM      4  C27 ZIN A   1      19.050  -0.688  11.449  0.00  0.00     0.086 A 
ATOM      5  C28 ZIN A   1      19.739   0.532  11.367  0.00  0.00     0.116 A 
ATOM      6  N30 ZIN A   1      20.152   0.945  10.172  0.00  0.00    -0.337 N 
ATOM      7  H31 ZIN A   1      20.629   1.786  10.097  0.00  0.00     0.168 HD
ATOM      8  C32 ZIN A   1      19.923   0.229   9.085  0.00  0.00     0.211 A 
ATOM      9  N33 ZIN A   1      19.282  -0.919   9.114  0.00  0.00    -0.224 NA
ATOM     10  C34 ZIN A   1      18.834  -1.419  10.265  0.00  0.00     0.164 A 
ENDROOT
BRANCH   3  11
ATOM     11  C14 ZIN A   1      18.432  -1.105  13.968  0.00  0.00    -0.004 A 
ATOM     12  C26 ZIN A   1      17.486  -0.198  14.447  0.00  0.00     0.016 A 
ATOM     13  C25 ZIN A   1      17.467   0.134  15.785  0.00  0.00     0.038 A 
ATOM     14  C17 ZIN A   1      18.396  -0.425  16.654  0.00  0.00     0.076 A 
ATOM     15  C16 ZIN A   1      19.343  -1.323  16.179  0.00  0.00     0.038 A 
ATOM     16  C15 ZIN A   1      19.363  -1.663  14.843  0.00  0.00     0.016 A 
BRANCH  14  17
ATOM     17  O18 ZIN A   1      18.378  -0.091  17.971  0.00  0.00    -0.311 OA
BRANCH  17  18
ATOM     18  C19 ZIN A   1      18.211   1.218  18.295  0.00  0.00     0.076 A 
ATOM     19  C24 ZIN A   1      17.079   1.623  18.987  0.00  0.00     0.037 A 
ATOM     20  C23 ZIN A   1      16.913   2.954  19.319  0.00  0.00     0.003 A 
ATOM     21  C22 ZIN A   1      17.870   3.883  18.955  0.00  0.00     0.000 A 
ATOM     22  C21 ZIN A   1      18.996   3.483  18.260  0.00  0.00     0.003 A 
ATOM     23  C20 ZIN A   1      19.170   2.153  17.929  0.00  0.00     0.037 A 
ENDBRANCH  17  18
ENDBRANCH  14  17
ENDBRANCH   3  11
BRANCH   1  24
ATOM     24  C9  ZIN A   1      17.713  -3.593   9.687  0.00  0.00     0.130 C 
ATOM     25  C8  ZIN A   1      16.840  -4.604  10.434  0.00  0.00     0.030 C 
ATOM     26  C7  ZIN A   1      16.357  -5.681   9.459  0.00  0.00     0.022 C 
ATOM     27  C6  ZIN A   1      17.566  -6.420   8.880  0.00  0.00     0.126 C 
ATOM     28  N5  ZIN A   1      18.482  -5.436   8.286  0.00  0.00    -0.347 N 
ATOM     29  C3  ZIN A   1      18.898  -5.567   7.011  0.00  0.00     0.242 C 
ATOM     30  C35 ZIN A   1      18.943  -4.312   9.112  0.00  0.00     0.153 C 
ATOM     31  O4  ZIN A   1      19.733  -4.805   6.563  0.00  0.00    -0.268 OA
BRANCH  29  32
ATOM     32  C2  ZIN A   1      18.339  -6.629   6.160  0.00  0.00     0.064 C 
ATOM     33  C1  ZIN A   1      17.634  -6.311   5.078  0.00  0.00     0.017 C 
ENDBRANCH  29  32
ENDBRANCH   1  24
BRANCH   5  34
ATOM     34  N29 ZIN A   1      19.983   1.284  12.500  0.00  0.00    -0.385 N 
ATOM     35  H54 ZIN A   1      20.736   1.071  13.071  0.00  0.00     0.157 HD
ATOM     36  H55 ZIN A   1      19.399   2.026  12.723  0.00  0.00     0.157 HD
ENDBRANCH   5  34
TORSDOF 6
ENDMDL
MODEL 3
REMARK VINA RESULT:      -9.0      3.457     10.118
REMARK  6 active torsions:
REMARK  status: ('A' for Active; 'I' for Inactive)
REMARK    1  A    between atoms: C2_2  and  C3_3 
REMARK       I    between atoms: C3_3  and  N5_5 
REMARK    2  A    between atoms: C9_9  and  N11_10 
REMARK    3  A    between atoms: C13_12  and  C14_13 
REMARK    4  A    between atoms: C17_16  and  O18_17 
REMARK    5  A    between atoms: O18_17  and  C19_18 
REMARK    6  A    between atoms: C28_27  and  N29_28 
ROOT
ATOM      1  N11 ZIN A   1      18.576  -3.505   8.322  0.00  0.00    -0.244 N 
ATOM      2  N12 ZIN A   1      18.278  -2.151   8.131  0.00  0.00    -0.169 NA
ATOM      3  C13 ZIN A   1      18.672  -1.456   9.170  0.00  0.00     0.105 A 
ATOM      4  C27 ZIN A   1      19.273  -2.392  10.121  0.00  0.00     0.086 A 
ATOM      5  C28 ZIN A   1      19.865  -2.277  11.388  0.00  0.00     0.116 A 
ATOM      6  N30 ZIN A   1      20.317  -3.381  11.976  0.00  0.00    -0.337 N 
ATOM      7  H31 ZIN A   1      20.729  -3.320  12.852  0.00  0.00     0.168 HD
ATOM      8  C32 ZIN A   1      20.213  -4.559  11.388  0.00  0.00     0.211 A 
ATOM      9  N33 ZIN A   1      19.666  -4.714  10.202  0.00  0.00    -0.224 NA
ATOM     10  C34 ZIN A   1      19.179  -3.668   9.535  0.00  0.00     0.164 A 
ENDROOT
BRANCH   3  11
ATOM     11  C14 ZIN A   1      18.535   0.010   9.349  0.00  0.00    -0.004 A 
ATOM     12  C26 ZIN A   1      17.556   0.521  10.201  0.00  0.00     0.016 A 
ATOM     13  C25 ZIN A   1      17.436   1.885  10.370  0.00  0.00     0.038 A 
ATOM     14  C17 ZIN A   1      18.281   2.748   9.684  0.00  0.00     0.076 A 
ATOM     15  C16 ZIN A   1      19.252   2.242   8.830  0.00  0.00     0.038 A 
ATOM     16  C15 ZIN A   1      19.382   0.879   8.662  0.00  0.00     0.016 A 
BRANCH  14  17
ATOM     17  O18 ZIN A   1      18.156   4.091   9.848  0.00  0.00    -0.311 OA
BRANCH  17  18
ATOM     18  C19 ZIN A   1      17.991   4.566  11.110  0.00  0.00     0.076 A 
ATOM     19  C24 ZIN A   1      16.788   5.149  11.483  0.00  0.00     0.037 A 
ATOM     20  C23 ZIN A   1      16.622   5.627  12.768  0.00  0.00     0.003 A 
ATOM     21  C22 ZIN A   1      17.657   5.535  13.681  0.00  0.00     0.000 A 
ATOM     22  C21 ZIN A   1      18.859   4.960  13.310  0.00  0.00     0.003 A 
ATOM     23  C20 ZIN A   1      19.029   4.475  12.029  0.00  0.00     0.037 A 
ENDBRANCH  17  18
ENDBRANCH  14  17
ENDBRANCH   3  11
BRANCH   1  24
ATOM     24  C9  ZIN A   1      18.282  -4.580   7.372  0.00  0.00     0.130 C 
ATOM     25  C8  ZIN A   1      18.110  -3.989   5.971  0.00  0.00     0.030 C 
ATOM     26  C7  ZIN A   1      17.834  -5.115   4.971  0.00  0.00     0.022 C 
ATOM     27  C6  ZIN A   1      16.536  -5.830   5.358  0.00  0.00     0.126 C 
ATOM     28  N5  ZIN A   1      16.639  -6.275   6.755  0.00  0.00    -0.347 N 
ATOM     29  C3  ZIN A   1      16.415  -7.562   7.083  0.00  0.00     0.242 C 
ATOM     30  C35 ZIN A   1      16.983  -5.287   7.787  0.00  0.00     0.153 C 
ATOM     31  O4  ZIN A   1      16.403  -7.898   8.252  0.00  0.00    -0.268 OA
BRANCH  29  32
ATOM     32  C2  ZIN A   1      16.188  -8.562   6.028  0.00  0.00     0.064 C 
ATOM     33  C1  ZIN A   1      17.061  -9.548   5.848  0.00  0.00     0.017 C 
ENDBRANCH  29  32
ENDBRANCH   1  24
BRANCH   5  34
ATOM     34  N29 ZIN A   1      19.976  -1.048  12.009  0.00  0.00    -0.385 N 
ATOM     35  H54 ZIN A   1      19.773  -0.961  12.953  0.00  0.00     0.157 HD
ATOM     36  H55 ZIN A   1      20.257  -0.271  11.500  0.00  0.00     0.157 HD
ENDBRANCH   5  34
TORSDOF 6
ENDMDL
MODEL 4
REMARK VINA RESULT:      -8.8      3.538      4.949
REMARK  6 active torsions:
REMARK  status: ('A' for Active; 'I' for Inactive)
REMARK    1  A    between atoms: C2_2  and  C3_3 
REMARK       I    between atoms: C3_3  and  N5_5 
REMARK    2  A    between atoms: C9_9  and  N11_10 
REMARK    3  A    between atoms: C13_12  and  C14_13 
REMARK    4  A    between atoms: C17_16  and  O18_17 
REMARK    5  A    between atoms: O18_17  and  C19_18 
REMARK    6  A    between atoms: C28_27  and  N29_28 
ROOT
ATOM      1  N11 ZIN A   1      19.198  -0.383  14.049  0.00  0.00    -0.244 N 
ATOM      2  N12 ZIN A   1      18.901  -1.701  13.687  0.00  0.00    -0.169 NA
ATOM      3  C13 ZIN A   1      18.904  -1.818  12.381  0.00  0.00     0.105 A 
ATOM      4  C27 ZIN A   1      19.223  -0.503  11.825  0.00  0.00     0.086 A 
ATOM      5  C28 ZIN A   1      19.374   0.018  10.531  0.00  0.00     0.116 A 
ATOM      6  N30 ZIN A   1      19.677   1.307  10.400  0.00  0.00    -0.337 N 
ATOM      7  H31 ZIN A   1      19.785   1.684   9.513  0.00  0.00     0.168 HD
ATOM      8  C32 ZIN A   1      19.831   2.083  11.458  0.00  0.00     0.211 A 
ATOM      9  N33 ZIN A   1      19.699   1.638  12.689  0.00  0.00    -0.224 NA
ATOM     10  C34 ZIN A   1      19.392   0.362  12.923  0.00  0.00     0.164 A 
ENDROOT
BRANCH   3  11
ATOM     11  C14 ZIN A   1      18.635  -3.055  11.609  0.00  0.00    -0.004 A 
ATOM     12  C26 ZIN A   1      17.322  -3.459  11.372  0.00  0.00     0.016 A 
ATOM     13  C25 ZIN A   1      17.076  -4.607  10.648  0.00  0.00     0.038 A 
ATOM     14  C17 ZIN A   1      18.134  -5.366  10.166  0.00  0.00     0.076 A 
ATOM     15  C16 ZIN A   1      19.443  -4.970  10.406  0.00  0.00     0.038 A 
ATOM     16  C15 ZIN A   1      19.696  -3.819  11.124  0.00  0.00     0.016 A 
BRANCH  14  17
ATOM     17  O18 ZIN A   1      17.888  -6.500   9.459  0.00  0.00    -0.311 OA
BRANCH  17  18
ATOM     18  C19 ZIN A   1      17.205  -6.386   8.289  0.00  0.00     0.076 A 
ATOM     19  C24 ZIN A   1      15.953  -6.967   8.157  0.00  0.00     0.037 A 
ATOM     20  C23 ZIN A   1      15.258  -6.846   6.969  0.00  0.00     0.003 A 
ATOM     21  C22 ZIN A   1      15.814  -6.154   5.909  0.00  0.00     0.000 A 
ATOM     22  C21 ZIN A   1      17.065  -5.579   6.037  0.00  0.00     0.003 A 
ATOM     23  C20 ZIN A   1      17.762  -5.692   7.223  0.00  0.00     0.037 A 
ENDBRANCH  17  18
ENDBRANCH  14  17
ENDBRANCH   3  11
BRANCH   1  24
ATOM     24  C9  ZIN A   1      19.281   0.121  15.422  0.00  0.00     0.130 C 
ATOM     25  C8  ZIN A   1      18.966  -1.012  16.401  0.00  0.00     0.030 C 
ATOM     26  C7  ZIN A   1      19.085  -0.495  17.837  0.00  0.00     0.022 C 
ATOM     27  C6  ZIN A   1      18.070   0.630  18.056  0.00  0.00     0.126 C 
ATOM     28  N5  ZIN A   1      18.273   1.658  17.026  0.00  0.00    -0.347 N 
ATOM     29  C3  ZIN A   1      18.459   2.948  17.370  0.00  0.00     0.242 C 
ATOM     30  C35 ZIN A   1      18.262   1.255  15.613  0.00  0.00     0.153 C 
ATOM     31  O4  ZIN A   1      18.525   3.804  16.509  0.00  0.00    -0.268 OA
BRANCH  29  32
ATOM     32  C2  ZIN A   1      18.585   3.319  18.788  0.00  0.00     0.064 C 
ATOM     33  C1  ZIN A   1      17.660   4.087  19.358  0.00  0.00     0.017 C 
ENDBRANCH  29  32
ENDBRANCH   1  24
BRANCH   5  34
ATOM     34  N29 ZIN A   1      19.213  -0.787   9.420  0.00  0.00    -0.385 N 
ATOM     35  H54 ZIN A   1      18.505  -0.601   8.784  0.00  0.00     0.157 HD
ATOM     36  H55 ZIN A   1      19.808  -1.540   9.277  0.00  0.00     0.157 HD
ENDBRANCH   5  34
TORSDOF 6
ENDMDL
MODEL 5
REMARK VINA RESULT:      -8.5      2.155      3.841
REMARK  6 active torsions:
REMARK  status: ('A' for Active; 'I' for Inactive)
REMARK    1  A    between atoms: C2_2  and  C3_3 
REMARK       I    between atoms: C3_3  and  N5_5 
REMARK    2  A    between atoms: C9_9  and  N11_10 
REMARK    3  A    between atoms: C13_12  and  C14_13 
REMARK    4  A    between atoms: C17_16  and  O18_17 
REMARK    5  A    between atoms: O18_17  and  C19_18 
REMARK    6  A    between atoms: C28_27  and  N29_28 
ROOT
ATOM      1  N11 ZIN A   1      18.585   1.188  12.661  0.00  0.00    -0.244 N 
ATOM      2  N12 ZIN A   1      18.550   0.464  11.465  0.00  0.00    -0.169 NA
ATOM      3  C13 ZIN A   1      18.403   1.282  10.451  0.00  0.00     0.105 A 
ATOM      4  C27 ZIN A   1      18.335   2.640  10.991  0.00  0.00     0.086 A 
ATOM      5  C28 ZIN A   1      18.186   3.922  10.439  0.00  0.00     0.116 A 
ATOM      6  N30 ZIN A   1      18.165   4.966  11.264  0.00  0.00    -0.337 N 
ATOM      7  H31 ZIN A   1      18.064   5.859  10.900  0.00  0.00     0.168 HD
ATOM      8  C32 ZIN A   1      18.281   4.806  12.570  0.00  0.00     0.211 A 
ATOM      9  N33 ZIN A   1      18.422   3.624  13.131  0.00  0.00    -0.224 NA
ATOM     10  C34 ZIN A   1      18.449   2.518  12.389  0.00  0.00     0.164 A 
ENDROOT
BRANCH   3  11
ATOM     11  C14 ZIN A   1      18.322   0.902   9.020  0.00  0.00    -0.004 A 
ATOM     12  C26 ZIN A   1      19.302   1.332   8.126  0.00  0.00     0.016 A 
ATOM     13  C25 ZIN A   1      19.226   0.972   6.797  0.00  0.00     0.038 A 
ATOM     14  C17 ZIN A   1      18.169   0.191   6.347  0.00  0.00     0.076 A 
ATOM     15  C16 ZIN A   1      17.188  -0.233   7.233  0.00  0.00     0.038 A 
ATOM     16  C15 ZIN A   1      17.262   0.119   8.565  0.00  0.00     0.016 A 
BRANCH  14  17
ATOM     17  O18 ZIN A   1      18.095  -0.157   5.036  0.00  0.00    -0.311 OA
BRANCH  17  18
ATOM     18  C19 ZIN A   1      18.001  -1.478   4.731  0.00  0.00     0.076 A 
ATOM     19  C24 ZIN A   1      18.980  -2.362   5.161  0.00  0.00     0.037 A 
ATOM     20  C23 ZIN A   1      18.880  -3.705   4.854  0.00  0.00     0.003 A 
ATOM     21  C22 ZIN A   1      17.810  -4.168   4.112  0.00  0.00     0.000 A 
ATOM     22  C21 ZIN A   1      16.835  -3.289   3.677  0.00  0.00     0.003 A 
ATOM     23  C20 ZIN A   1      16.927  -1.946   3.985  0.00  0.00     0.037 A 
ENDBRANCH  17  18
ENDBRANCH  14  17
ENDBRANCH   3  11
BRANCH   1  24
ATOM     24  C9  ZIN A   1      18.736   0.609  13.998  0.00  0.00     0.130 C 
ATOM     25  C8  ZIN A   1      18.442  -0.892  13.940  0.00  0.00     0.030 C 
ATOM     26  C7  ZIN A   1      18.631  -1.504  15.331  0.00  0.00     0.022 C 
ATOM     27  C6  ZIN A   1      17.648  -0.855  16.309  0.00  0.00     0.126 C 
ATOM     28  N5  ZIN A   1      17.827   0.603  16.262  0.00  0.00    -0.347 N 
ATOM     29  C3  ZIN A   1      18.052   1.303  17.391  0.00  0.00     0.242 C 
ATOM     30  C35 ZIN A   1      17.748   1.283  14.962  0.00  0.00     0.153 C 
ATOM     31  O4  ZIN A   1      18.097   2.518  17.354  0.00  0.00    -0.268 OA
BRANCH  29  32
ATOM     32  C2  ZIN A   1      18.245   0.599  18.668  0.00  0.00     0.064 C 
ATOM     33  C1  ZIN A   1      19.259  -0.251  18.811  0.00  0.00     0.017 C 
ENDBRANCH  29  32
ENDBRANCH   1  24
BRANCH   5  34
ATOM     34  N29 ZIN A   1      18.064   4.096   9.075  0.00  0.00    -0.385 N 
ATOM     35  H54 ZIN A   1      17.185   4.148   8.669  0.00  0.00     0.157 HD
ATOM     36  H55 ZIN A   1      18.858   4.165   8.522  0.00  0.00     0.157 HD
ENDBRANCH   5  34
TORSDOF 6
ENDMDL
MODEL 6
REMARK VINA RESULT:      -8.4      1.877      9.771
REMARK  6 active torsions:
REMARK  status: ('A' for Active; 'I' for Inactive)
REMARK    1  A    between atoms: C2_2  and  C3_3 
REMARK       I    between atoms: C3_3  and  N5_5 
REMARK    2  A    between atoms: C9_9  and  N11_10 
REMARK    3  A    between atoms: C13_12  and  C14_13 
REMARK    4  A    between atoms: C17_16  and  O18_17 
REMARK    5  A    between atoms: O18_17  and  C19_18 
REMARK    6  A    between atoms: C28_27  and  N29_28 
ROOT
ATOM      1  N11 ZIN A   1      19.264   0.136   9.099  0.00  0.00    -0.244 N 
ATOM      2  N12 ZIN A   1      19.046   1.451   9.525  0.00  0.00    -0.169 NA
ATOM      3  C13 ZIN A   1      19.079   1.508  10.834  0.00  0.00     0.105 A 
ATOM      4  C27 ZIN A   1      19.337   0.154  11.325  0.00  0.00     0.086 A 
ATOM      5  C28 ZIN A   1      19.483  -0.432  12.592  0.00  0.00     0.116 A 
ATOM      6  N30 ZIN A   1      19.718  -1.740  12.659  0.00  0.00    -0.337 N 
ATOM      7  H31 ZIN A   1      19.822  -2.161  13.526  0.00  0.00     0.168 HD
ATOM      8  C32 ZIN A   1      19.811  -2.474  11.565  0.00  0.00     0.211 A 
ATOM      9  N33 ZIN A   1      19.681  -1.968  10.358  0.00  0.00    -0.224 NA
ATOM     10  C34 ZIN A   1      19.439  -0.668  10.187  0.00  0.00     0.164 A 
ENDROOT
BRANCH   3  11
ATOM     11  C14 ZIN A   1      18.892   2.722  11.665  0.00  0.00    -0.004 A 
ATOM     12  C26 ZIN A   1      19.957   3.599  11.871  0.00  0.00     0.016 A 
ATOM     13  C25 ZIN A   1      19.777   4.730  12.639  0.00  0.00     0.038 A 
ATOM     14  C17 ZIN A   1      18.541   4.989  13.218  0.00  0.00     0.076 A 
ATOM     15  C16 ZIN A   1      17.481   4.114  13.021  0.00  0.00     0.038 A 
ATOM     16  C15 ZIN A   1      17.653   2.984  12.248  0.00  0.00     0.016 A 
BRANCH  14  17
ATOM     17  O18 ZIN A   1      18.370   6.101  13.980  0.00  0.00    -0.311 OA
BRANCH  17  18
ATOM     18  C19 ZIN A   1      17.278   6.158  14.787  0.00  0.00     0.076 A 
ATOM     19  C24 ZIN A   1      17.388   5.825  16.129  0.00  0.00     0.037 A 
ATOM     20  C23 ZIN A   1      16.278   5.889  16.949  0.00  0.00     0.003 A 
ATOM     21  C22 ZIN A   1      15.056   6.276  16.432  0.00  0.00     0.000 A 
ATOM     22  C21 ZIN A   1      14.942   6.603  15.093  0.00  0.00     0.003 A 
ATOM     23  C20 ZIN A   1      16.049   6.546  14.270  0.00  0.00     0.037 A 
ENDBRANCH  17  18
ENDBRANCH  14  17
ENDBRANCH   3  11
BRANCH   1  24
ATOM     24  C9  ZIN A   1      19.295  -0.309   7.704  0.00  0.00     0.130 C 
ATOM     25  C8  ZIN A   1      18.994   0.877   6.784  0.00  0.00     0.030 C 
ATOM     26  C7  ZIN A   1      19.058   0.420   5.324  0.00  0.00     0.022 C 
ATOM     27  C6  ZIN A   1      18.000  -0.660   5.084  0.00  0.00     0.126 C 
ATOM     28  N5  ZIN A   1      18.194  -1.739   6.062  0.00  0.00    -0.347 N 
ATOM     29  C3  ZIN A   1      18.327  -3.017   5.658  0.00  0.00     0.242 C 
ATOM     30  C35 ZIN A   1      18.233  -1.398   7.491  0.00  0.00     0.153 C 
ATOM     31  O4  ZIN A   1      18.386  -3.912   6.479  0.00  0.00    -0.268 OA
BRANCH  29  32
ATOM     32  C2  ZIN A   1      18.403  -3.330   4.222  0.00  0.00     0.064 C 
ATOM     33  C1  ZIN A   1      17.533  -4.177   3.679  0.00  0.00     0.017 C 
ENDBRANCH  29  32
ENDBRANCH   1  24
BRANCH   5  34
ATOM     34  N29 ZIN A   1      19.386   0.330  13.740  0.00  0.00    -0.385 N 
ATOM     35  H54 ZIN A   1      20.150   0.841  14.049  0.00  0.00     0.157 HD
ATOM     36  H55 ZIN A   1      18.553   0.352  14.238  0.00  0.00     0.157 HD
ENDBRANCH   5  34
TORSDOF 6
ENDMDL
MODEL 7
REMARK VINA RESULT:      -8.3      3.679     10.881
REMARK  6 active torsions:
REMARK  status: ('A' for Active; 'I' for Inactive)
REMARK    1  A    between atoms: C2_2  and  C3_3 
REMARK       I    between atoms: C3_3  and  N5_5 
REMARK    2  A    between atoms: C9_9  and  N11_10 
REMARK    3  A    between atoms: C13_12  and  C14_13 
REMARK    4  A    between atoms: C17_16  and  O18_17 
REMARK    5  A    between atoms: O18_17  and  C19_18 
REMARK    6  A    between atoms: C28_27  and  N29_28 
ROOT
ATOM      1  N11 ZIN A   1      18.808  -2.976  10.633  0.00  0.00    -0.244 N 
ATOM      2  N12 ZIN A   1      18.555  -2.952  12.008  0.00  0.00    -0.169 NA
ATOM      3  C13 ZIN A   1      18.771  -1.747  12.481  0.00  0.00     0.105 A 
ATOM      4  C27 ZIN A   1      19.194  -0.907  11.360  0.00  0.00     0.086 A 
ATOM      5  C28 ZIN A   1      19.563   0.439  11.212  0.00  0.00     0.116 A 
ATOM      6  N30 ZIN A   1      19.900   0.872  10.000  0.00  0.00    -0.337 N 
ATOM      7  H31 ZIN A   1      20.157   1.798   9.879  0.00  0.00     0.168 HD
ATOM      8  C32 ZIN A   1      19.891   0.059   8.958  0.00  0.00     0.211 A 
ATOM      9  N33 ZIN A   1      19.553  -1.209   9.050  0.00  0.00    -0.224 NA
ATOM     10  C34 ZIN A   1      19.204  -1.737  10.223  0.00  0.00     0.164 A 
ENDROOT
BRANCH   3  11
ATOM     11  C14 ZIN A   1      18.615  -1.316  13.890  0.00  0.00    -0.004 A 
ATOM     12  C26 ZIN A   1      19.478  -1.805  14.871  0.00  0.00     0.016 A 
ATOM     13  C25 ZIN A   1      19.334  -1.396  16.180  0.00  0.00     0.038 A 
ATOM     14  C17 ZIN A   1      18.322  -0.509  16.524  0.00  0.00     0.076 A 
ATOM     15  C16 ZIN A   1      17.457  -0.026  15.552  0.00  0.00     0.038 A 
ATOM     16  C15 ZIN A   1      17.600  -0.426  14.239  0.00  0.00     0.016 A 
BRANCH  14  17
ATOM     17  O18 ZIN A   1      18.179  -0.113  17.816  0.00  0.00    -0.311 OA
BRANCH  17  18
ATOM     18  C19 ZIN A   1      18.162   1.221  18.076  0.00  0.00     0.076 A 
ATOM     19  C24 ZIN A   1      19.133   2.048  17.532  0.00  0.00     0.037 A 
ATOM     20  C23 ZIN A   1      19.110   3.404  17.794  0.00  0.00     0.003 A 
ATOM     21  C22 ZIN A   1      18.126   3.936  18.606  0.00  0.00     0.000 A 
ATOM     22  C21 ZIN A   1      17.160   3.113  19.155  0.00  0.00     0.003 A 
ATOM     23  C20 ZIN A   1      17.175   1.757  18.892  0.00  0.00     0.037 A 
ENDBRANCH  17  18
ENDBRANCH  14  17
ENDBRANCH   3  11
BRANCH   1  24
ATOM     24  C9  ZIN A   1      18.675  -4.151   9.767  0.00  0.00     0.130 C 
ATOM     25  C8  ZIN A   1      19.814  -4.163   8.745  0.00  0.00     0.030 C 
ATOM     26  C7  ZIN A   1      19.695  -5.407   7.861  0.00  0.00     0.022 C 
ATOM     27  C6  ZIN A   1      18.365  -5.365   7.104  0.00  0.00     0.126 C 
ATOM     28  N5  ZIN A   1      17.273  -5.208   8.074  0.00  0.00    -0.347 N 
ATOM     29  C3  ZIN A   1      16.234  -6.067   8.084  0.00  0.00     0.242 C 
ATOM     30  C35 ZIN A   1      17.330  -4.091   9.027  0.00  0.00     0.153 C 
ATOM     31  O4  ZIN A   1      15.288  -5.868   8.822  0.00  0.00    -0.268 OA
BRANCH  29  32
ATOM     32  C2  ZIN A   1      16.246  -7.245   7.204  0.00  0.00     0.064 C 
ATOM     33  C1  ZIN A   1      16.650  -8.422   7.675  0.00  0.00     0.017 C 
ENDBRANCH  29  32
ENDBRANCH   1  24
BRANCH   5  34
ATOM     34  N29 ZIN A   1      19.575   1.293  12.297  0.00  0.00    -0.385 N 
ATOM     35  H54 ZIN A   1      20.203   2.032  12.326  0.00  0.00     0.157 HD
ATOM     36  H55 ZIN A   1      18.956   1.154  13.031  0.00  0.00     0.157 HD
ENDBRANCH   5  34
TORSDOF 6
ENDMDL
MODEL 8
REMARK VINA RESULT:      -8.3      3.497     10.674
REMARK  6 active torsions:
REMARK  status: ('A' for Active; 'I' for Inactive)
REMARK    1  A    between atoms: C2_2  and  C3_3 
REMARK       I    between atoms: C3_3  and  N5_5 
REMARK    2  A    between atoms: C9_9  and  N11_10 
REMARK    3  A    between atoms: C13_12  and  C14_13 
REMARK    4  A    between atoms: C17_16  and  O18_17 
REMARK    5  A    between atoms: O18_17  and  C19_18 
REMARK    6  A    between atoms: C28_27  and  N29_28 
ROOT
ATOM      1  N11 ZIN A   1      17.872  -2.655   9.083  0.00  0.00    -0.244 N 
ATOM      2  N12 ZIN A   1      17.989  -2.238  10.413  0.00  0.00    -0.169 NA
ATOM      3  C13 ZIN A   1      18.426  -1.002  10.457  0.00  0.00     0.105 A 
ATOM      4  C27 ZIN A   1      18.615  -0.556   9.077  0.00  0.00     0.086 A 
ATOM      5  C28 ZIN A   1      19.048   0.632   8.468  0.00  0.00     0.116 A 
ATOM      6  N30 ZIN A   1      19.095   0.680   7.139  0.00  0.00    -0.337 N 
ATOM      7  H31 ZIN A   1      19.393   1.493   6.702  0.00  0.00     0.168 HD
ATOM      8  C32 ZIN A   1      18.744  -0.361   6.406  0.00  0.00     0.211 A 
ATOM      9  N33 ZIN A   1      18.332  -1.493   6.933  0.00  0.00    -0.224 NA
ATOM     10  C34 ZIN A   1      18.255  -1.641   8.255  0.00  0.00     0.164 A 
ENDROOT
BRANCH   3  11
ATOM     11  C14 ZIN A   1      18.680  -0.204  11.680  0.00  0.00    -0.004 A 
ATOM     12  C26 ZIN A   1      17.672   0.601  12.212  0.00  0.00     0.016 A 
ATOM     13  C25 ZIN A   1      17.911   1.337  13.353  0.00  0.00     0.038 A 
ATOM     14  C17 ZIN A   1      19.156   1.287  13.966  0.00  0.00     0.076 A 
ATOM     15  C16 ZIN A   1      20.164   0.492  13.435  0.00  0.00     0.038 A 
ATOM     16  C15 ZIN A   1      19.929  -0.252  12.297  0.00  0.00     0.016 A 
BRANCH  14  17
ATOM     17  O18 ZIN A   1      19.390   2.019  15.086  0.00  0.00    -0.311 OA
BRANCH  17  18
ATOM     18  C19 ZIN A   1      19.007   1.495  16.281  0.00  0.00     0.076 A 
ATOM     19  C24 ZIN A   1      18.876   0.122  16.428  0.00  0.00     0.037 A 
ATOM     20  C23 ZIN A   1      18.491  -0.408  17.644  0.00  0.00     0.003 A 
ATOM     21  C22 ZIN A   1      18.227   0.429  18.712  0.00  0.00     0.000 A 
ATOM     22  C21 ZIN A   1      18.352   1.799  18.567  0.00  0.00     0.003 A 
ATOM     23  C20 ZIN A   1      18.741   2.334  17.355  0.00  0.00     0.037 A 
ENDBRANCH  17  18
ENDBRANCH  14  17
ENDBRANCH   3  11
BRANCH   1  24
ATOM     24  C9  ZIN A   1      17.416  -3.977   8.646  0.00  0.00     0.130 C 
ATOM     25  C8  ZIN A   1      17.237  -4.884   9.866  0.00  0.00     0.030 C 
ATOM     26  C7  ZIN A   1      16.729  -6.255   9.414  0.00  0.00     0.022 C 
ATOM     27  C6  ZIN A   1      17.761  -6.896   8.482  0.00  0.00     0.126 C 
ATOM     28  N5  ZIN A   1      18.047  -5.966   7.381  0.00  0.00    -0.347 N 
ATOM     29  C3  ZIN A   1      17.936  -6.365   6.099  0.00  0.00     0.242 C 
ATOM     30  C35 ZIN A   1      18.462  -4.594   7.705  0.00  0.00     0.153 C 
ATOM     31  O4  ZIN A   1      18.272  -5.619   5.198  0.00  0.00    -0.268 OA
BRANCH  29  32
ATOM     32  C2  ZIN A   1      17.408  -7.702   5.788  0.00  0.00     0.064 C 
ATOM     33  C1  ZIN A   1      16.304  -7.827   5.056  0.00  0.00     0.017 C 
ENDBRANCH  29  32
ENDBRANCH   1  24
BRANCH   5  34
ATOM     34  N29 ZIN A   1      19.418   1.724   9.229  0.00  0.00    -0.385 N 
ATOM     35  H54 ZIN A   1      20.146   1.648   9.865  0.00  0.00     0.157 HD
ATOM     36  H55 ZIN A   1      18.948   2.567   9.127  0.00  0.00     0.157 HD
ENDBRANCH   5  34
TORSDOF 6
ENDMDL
MODEL 9
REMARK VINA RESULT:      -8.1      2.055     10.236
REMARK  6 active torsions:
REMARK  status: ('A' for Active; 'I' for Inactive)
REMARK    1  A    between atoms: C2_2  and  C3_3 
REMARK       I    between atoms: C3_3  and  N5_5 
REMARK    2  A    between atoms: C9_9  and  N11_10 
REMARK    3  A    between atoms: C13_12  and  C14_13 
REMARK    4  A    between atoms: C17_16  and  O18_17 
REMARK    5  A    between atoms: O18_17  and  C19_18 
REMARK    6  A    between atoms: C28_27  and  N29_28 
ROOT
ATOM      1  N11 ZIN A   1      18.780   1.686  11.311  0.00  0.00    -0.244 N 
ATOM      2  N12 ZIN A   1      18.789   3.061  11.564  0.00  0.00    -0.169 NA
ATOM      3  C13 ZIN A   1      18.537   3.284  12.832  0.00  0.00     0.105 A 
ATOM      4  C27 ZIN A   1      18.348   1.984  13.475  0.00  0.00     0.086 A 
ATOM      5  C28 ZIN A   1      18.060   1.553  14.780  0.00  0.00     0.116 A 
ATOM      6  N30 ZIN A   1      17.956   0.247  15.005  0.00  0.00    -0.337 N 
ATOM      7  H31 ZIN A   1      17.758  -0.068  15.900  0.00  0.00     0.168 HD
ATOM      8  C32 ZIN A   1      18.118  -0.629  14.029  0.00  0.00     0.211 A 
ATOM      9  N33 ZIN A   1      18.388  -0.272  12.793  0.00  0.00    -0.224 NA
ATOM     10  C34 ZIN A   1      18.507   1.015  12.467  0.00  0.00     0.164 A 
ENDROOT
BRANCH   3  11
ATOM     11  C14 ZIN A   1      18.460   4.609  13.493  0.00  0.00    -0.004 A 
ATOM     12  C26 ZIN A   1      19.592   5.154  14.100  0.00  0.00     0.016 A 
ATOM     13  C25 ZIN A   1      19.517   6.390  14.708  0.00  0.00     0.038 A 
ATOM     14  C17 ZIN A   1      18.315   7.085  14.727  0.00  0.00     0.076 A 
ATOM     15  C16 ZIN A   1      17.186   6.542  14.129  0.00  0.00     0.038 A 
ATOM     16  C15 ZIN A   1      17.255   5.309  13.513  0.00  0.00     0.016 A 
BRANCH  14  17
ATOM     17  O18 ZIN A   1      18.244   8.299  15.332  0.00  0.00    -0.311 OA
BRANCH  17  18
ATOM     18  C19 ZIN A   1      17.332   8.464  16.326  0.00  0.00     0.076 A 
ATOM     19  C24 ZIN A   1      16.349   9.436  16.213  0.00  0.00     0.037 A 
ATOM     20  C23 ZIN A   1      15.420   9.598  17.223  0.00  0.00     0.003 A 
ATOM     21  C22 ZIN A   1      15.475   8.800  18.350  0.00  0.00     0.000 A 
ATOM     22  C21 ZIN A   1      16.458   7.834  18.468  0.00  0.00     0.003 A 
ATOM     23  C20 ZIN A   1      17.386   7.664  17.459  0.00  0.00     0.037 A 
ENDBRANCH  17  18
ENDBRANCH  14  17
ENDBRANCH   3  11
BRANCH   1  24
ATOM     24  C9  ZIN A   1      19.019   1.063  10.007  0.00  0.00     0.130 C 
ATOM     25  C8  ZIN A   1      18.971   2.133   8.914  0.00  0.00     0.030 C 
ATOM     26  C7  ZIN A   1      19.253   1.489   7.554  0.00  0.00     0.022 C 
ATOM     27  C6  ZIN A   1      18.176   0.442   7.256  0.00  0.00     0.126 C 
ATOM     28  N5  ZIN A   1      18.118  -0.509   8.374  0.00  0.00    -0.347 N 
ATOM     29  C3  ZIN A   1      18.225  -1.835   8.154  0.00  0.00     0.242 C 
ATOM     30  C35 ZIN A   1      17.934   0.011   9.735  0.00  0.00     0.153 C 
ATOM     31  O4  ZIN A   1      18.074  -2.618   9.072  0.00  0.00    -0.268 OA
BRANCH  29  32
ATOM     32  C2  ZIN A   1      18.526  -2.334   6.803  0.00  0.00     0.064 C 
ATOM     33  C1  ZIN A   1      19.539  -3.176   6.617  0.00  0.00     0.017 C 
ENDBRANCH  29  32
ENDBRANCH   1  24
BRANCH   5  34
ATOM     34  N29 ZIN A   1      17.889   2.464  15.804  0.00  0.00    -0.385 N 
ATOM     35  H54 ZIN A   1      18.377   3.301  15.796  0.00  0.00     0.157 HD
ATOM     36  H55 ZIN A   1      17.280   2.265  16.533  0.00  0.00     0.157 HD
ENDBRANCH   5  34
TORSDOF 6
ENDMDL
