MODEL 1
REMARK VINA RESULT:      -6.1      0.000      0.000
REMARK  3 active torsions:
REMARK  status: ('A' for Active; 'I' for Inactive)
REMARK    1  A    between atoms: C3_3  and  C4_4 
REMARK       I    between atoms: C4_4  and  N6_6 
REMARK    2  A    between atoms: N6_6  and  C7_7 
REMARK    3  A    between atoms: N6_6  and  C9_9 
ROOT
ATOM      1  C4  <0> d   1      17.308  -0.185  11.746  0.00  0.00     0.247 C 
ATOM      2  O5  <0> d   1      16.198   0.162  11.389  0.00  0.00    -0.268 OA
ATOM      3  N6  <0> d   1      18.319   0.707  11.769  0.00  0.00    -0.314 N 
ENDROOT
BRANCH   3   4
ATOM      4  C7  <0> d   1      19.655   0.289  12.199  0.00  0.00     0.128 C 
ATOM      5  C8  <0> d   1      19.817   0.561  13.696  0.00  0.00     0.027 C 
ENDBRANCH   3   4
BRANCH   3   6
ATOM      6  C9  <0> d   1      18.091   2.031  11.382  0.00  0.00     0.043 A 
ATOM      7  C14 <0> d   1      18.366   2.433  10.080  0.00  0.00    -0.035 A 
ATOM      8  C13 <0> d   1      18.134   3.739   9.700  0.00  0.00     0.009 A 
ATOM      9  C15 <0> d   1      18.903   1.440   9.082  0.00  0.00     0.050 C 
ATOM     10  C12 <0> d   1      17.640   4.651  10.615  0.00  0.00     0.001 A 
ATOM     11  C11 <0> d   1      17.372   4.256  11.913  0.00  0.00     0.002 A 
ATOM     12  C10 <0> d   1      17.595   2.948  12.298  0.00  0.00     0.030 A 
ENDBRANCH   3   6
BRANCH   1  13
ATOM     13  C3  <0> d   1      17.548  -1.578  12.153  0.00  0.00     0.070 C 
ATOM     14  C2  <0> d   1      17.505  -2.552  11.248  0.00  0.00    -0.026 C 
ATOM     15  C1  <0> d   1      17.751  -3.980  11.665  0.00  0.00     0.036 C 
ENDBRANCH   1  13
TORSDOF 3
ENDMDL
MODEL 2
REMARK VINA RESULT:      -6.0      1.857      3.551
REMARK  3 active torsions:
REMARK  status: ('A' for Active; 'I' for Inactive)
REMARK    1  A    between atoms: C3_3  and  C4_4 
REMARK       I    between atoms: C4_4  and  N6_6 
REMARK    2  A    between atoms: N6_6  and  C7_7 
REMARK    3  A    between atoms: N6_6  and  C9_9 
ROOT
ATOM      1  C4  <0> d   1      19.534  -0.326  12.851  0.00  0.00     0.247 C 
ATOM      2  O5  <0> d   1      20.556   0.323  12.727  0.00  0.00    -0.268 OA
ATOM      3  N6  <0> d   1      18.580  -0.269  11.900  0.00  0.00    -0.314 N 
ENDROOT
BRANCH   3   4
ATOM      4  C7  <0> d   1      17.350  -1.050  12.049  0.00  0.00     0.128 C 
ATOM      5  C8  <0> d   1      17.527  -2.413  11.375  0.00  0.00     0.027 C 
ENDBRANCH   3   4
BRANCH   3   6
ATOM      6  C9  <0> d   1      18.764   0.537  10.772  0.00  0.00     0.043 A 
ATOM      7  C14 <0> d   1      18.337   1.859  10.784  0.00  0.00    -0.035 A 
ATOM      8  C13 <0> d   1      18.526   2.654   9.671  0.00  0.00     0.009 A 
ATOM      9  C15 <0> d   1      17.681   2.429  12.015  0.00  0.00     0.050 C 
ATOM     10  C12 <0> d   1      19.129   2.132   8.540  0.00  0.00     0.001 A 
ATOM     11  C11 <0> d   1      19.549   0.815   8.523  0.00  0.00     0.002 A 
ATOM     12  C10 <0> d   1      19.369   0.016   9.637  0.00  0.00     0.030 A 
ENDBRANCH   3   6
BRANCH   1  13
ATOM     13  C3  <0> d   1      19.340  -1.173  14.036  0.00  0.00     0.070 C 
ATOM     14  C2  <0> d   1      19.010  -0.622  15.201  0.00  0.00    -0.026 C 
ATOM     15  C1  <0> d   1      18.811  -1.490  16.417  0.00  0.00     0.036 C 
ENDBRANCH   1  13
TORSDOF 3
ENDMDL
MODEL 3
REMARK VINA RESULT:      -6.0      2.102      4.258
REMARK  3 active torsions:
REMARK  status: ('A' for Active; 'I' for Inactive)
REMARK    1  A    between atoms: C3_3  and  C4_4 
REMARK       I    between atoms: C4_4  and  N6_6 
REMARK    2  A    between atoms: N6_6  and  C7_7 
REMARK    3  A    between atoms: N6_6  and  C9_9 
ROOT
ATOM      1  C4  <0> d   1      17.307   0.308  11.092  0.00  0.00     0.247 C 
ATOM      2  O5  <0> d   1      16.238  -0.079  11.528  0.00  0.00    -0.268 OA
ATOM      3  N6  <0> d   1      18.370   0.418  11.914  0.00  0.00    -0.314 N 
ENDROOT
BRANCH   3   4
ATOM      4  C7  <0> d   1      19.656   0.883  11.389  0.00  0.00     0.128 C 
ATOM      5  C8  <0> d   1      19.832   2.368  11.712  0.00  0.00     0.027 C 
ENDBRANCH   3   4
BRANCH   3   6
ATOM      6  C9  <0> d   1      18.244   0.090  13.267  0.00  0.00     0.043 A 
ATOM      7  C14 <0> d   1      18.648  -1.160  13.722  0.00  0.00    -0.035 A 
ATOM      8  C13 <0> d   1      18.528  -1.478  15.059  0.00  0.00     0.009 A 
ATOM      9  C15 <0> d   1      19.229  -2.161  12.757  0.00  0.00     0.050 C 
ATOM     10  C12 <0> d   1      17.995  -0.559  15.946  0.00  0.00     0.001 A 
ATOM     11  C11 <0> d   1      17.587   0.683  15.496  0.00  0.00     0.002 A 
ATOM     12  C10 <0> d   1      17.711   1.011  14.159  0.00  0.00     0.030 A 
ENDBRANCH   3   6
BRANCH   1  13
ATOM     13  C3  <0> d   1      17.439   0.653   9.669  0.00  0.00     0.070 C 
ATOM     14  C2  <0> d   1      17.383  -0.302   8.745  0.00  0.00    -0.026 C 
ATOM     15  C1  <0> d   1      17.518   0.052   7.286  0.00  0.00     0.036 C 
ENDBRANCH   1  13
TORSDOF 3
ENDMDL
MODEL 4
REMARK VINA RESULT:      -5.8      1.930      3.453
REMARK  3 active torsions:
REMARK  status: ('A' for Active; 'I' for Inactive)
REMARK    1  A    between atoms: C3_3  and  C4_4 
REMARK       I    between atoms: C4_4  and  N6_6 
REMARK    2  A    between atoms: N6_6  and  C7_7 
REMARK    3  A    between atoms: N6_6  and  C9_9 
ROOT
ATOM      1  C4  <0> d   1      17.536   0.017  11.843  0.00  0.00     0.247 C 
ATOM      2  O5  <0> d   1      16.545   0.525  11.351  0.00  0.00    -0.268 OA
ATOM      3  N6  <0> d   1      18.650  -0.142  11.101  0.00  0.00    -0.314 N 
ENDROOT
BRANCH   3   4
ATOM      4  C7  <0> d   1      19.842  -0.753  11.693  0.00  0.00     0.128 C 
ATOM      5  C8  <0> d   1      19.851  -2.253  11.391  0.00  0.00     0.027 C 
ENDBRANCH   3   4
BRANCH   3   6
ATOM      6  C9  <0> d   1      18.667   0.274   9.767  0.00  0.00     0.043 A 
ATOM      7  C14 <0> d   1      19.051   1.571   9.446  0.00  0.00    -0.035 A 
ATOM      8  C13 <0> d   1      19.072   1.977   8.127  0.00  0.00     0.009 A 
ATOM      9  C15 <0> d   1      19.455   2.528  10.537  0.00  0.00     0.050 C 
ATOM     10  C12 <0> d   1      18.702   1.098   7.125  0.00  0.00     0.001 A 
ATOM     11  C11 <0> d   1      18.314  -0.191   7.440  0.00  0.00     0.002 A 
ATOM     12  C10 <0> d   1      18.297  -0.606   8.759  0.00  0.00     0.030 A 
ENDBRANCH   3   6
BRANCH   1  13
ATOM     13  C3  <0> d   1      17.518  -0.421  13.246  0.00  0.00     0.070 C 
ATOM     14  C2  <0> d   1      17.605   0.476  14.225  0.00  0.00    -0.026 C 
ATOM     15  C1  <0> d   1      17.586   0.027  15.663  0.00  0.00     0.036 C 
ENDBRANCH   1  13
TORSDOF 3
ENDMDL
MODEL 5
REMARK VINA RESULT:      -5.7      1.973      4.658
REMARK  3 active torsions:
REMARK  status: ('A' for Active; 'I' for Inactive)
REMARK    1  A    between atoms: C3_3  and  C4_4 
REMARK       I    between atoms: C4_4  and  N6_6 
REMARK    2  A    between atoms: N6_6  and  C7_7 
REMARK    3  A    between atoms: N6_6  and  C9_9 
ROOT
ATOM      1  C4  <0> d   1      18.046   3.009  11.513  0.00  0.00     0.247 C 
ATOM      2  O5  <0> d   1      17.092   3.390  10.861  0.00  0.00    -0.268 OA
ATOM      3  N6  <0> d   1      18.844   2.034  11.034  0.00  0.00    -0.314 N 
ENDROOT
BRANCH   3   4
ATOM      4  C7  <0> d   1      19.992   1.575  11.820  0.00  0.00     0.128 C 
ATOM      5  C8  <0> d   1      19.549   0.456  12.765  0.00  0.00     0.027 C 
ENDBRANCH   3   4
BRANCH   3   6
ATOM      6  C9  <0> d   1      18.576   1.460   9.788  0.00  0.00     0.043 A 
ATOM      7  C14 <0> d   1      17.613   0.465   9.671  0.00  0.00    -0.035 A 
ATOM      8  C13 <0> d   1      17.347  -0.095   8.438  0.00  0.00     0.009 A 
ATOM      9  C15 <0> d   1      16.852   0.006  10.888  0.00  0.00     0.050 C 
ATOM     10  C12 <0> d   1      18.045   0.326   7.320  0.00  0.00     0.001 A 
ATOM     11  C11 <0> d   1      19.007   1.312   7.433  0.00  0.00     0.002 A 
ATOM     12  C10 <0> d   1      19.274   1.881   8.664  0.00  0.00     0.030 A 
ENDBRANCH   3   6
BRANCH   1  13
ATOM     13  C3  <0> d   1      18.328   3.612  12.824  0.00  0.00     0.070 C 
ATOM     14  C2  <0> d   1      18.771   4.864  12.899  0.00  0.00    -0.026 C 
ATOM     15  C1  <0> d   1      19.060   5.482  14.243  0.00  0.00     0.036 C 
ENDBRANCH   1  13
TORSDOF 3
ENDMDL
MODEL 6
REMARK VINA RESULT:      -5.7      2.190      3.351
REMARK  3 active torsions:
REMARK  status: ('A' for Active; 'I' for Inactive)
REMARK    1  A    between atoms: C3_3  and  C4_4 
REMARK       I    between atoms: C4_4  and  N6_6 
REMARK    2  A    between atoms: N6_6  and  C7_7 
REMARK    3  A    between atoms: N6_6  and  C9_9 
ROOT
ATOM      1  C4  <0> d   1      17.577   0.084  11.851  0.00  0.00     0.247 C 
ATOM      2  O5  <0> d   1      16.579   0.560  11.341  0.00  0.00    -0.268 OA
ATOM      3  N6  <0> d   1      18.705  -0.050  11.126  0.00  0.00    -0.314 N 
ENDROOT
BRANCH   3   4
ATOM      4  C7  <0> d   1      19.906  -0.622  11.740  0.00  0.00     0.128 C 
ATOM      5  C8  <0> d   1      20.825   0.507  12.212  0.00  0.00     0.027 C 
ENDBRANCH   3   4
BRANCH   3   6
ATOM      6  C9  <0> d   1      18.730   0.357   9.788  0.00  0.00     0.043 A 
ATOM      7  C14 <0> d   1      18.416  -0.546   8.780  0.00  0.00    -0.035 A 
ATOM      8  C13 <0> d   1      18.435  -0.140   7.461  0.00  0.00     0.009 A 
ATOM      9  C15 <0> d   1      18.042  -1.964   9.127  0.00  0.00     0.050 C 
ATOM     10  C12 <0> d   1      18.778   1.162   7.141  0.00  0.00     0.001 A 
ATOM     11  C11 <0> d   1      19.097   2.061   8.141  0.00  0.00     0.002 A 
ATOM     12  C10 <0> d   1      19.073   1.663   9.465  0.00  0.00     0.030 A 
ENDBRANCH   3   6
BRANCH   1  13
ATOM     13  C3  <0> d   1      17.551  -0.344  13.257  0.00  0.00     0.070 C 
ATOM     14  C2  <0> d   1      17.536   0.565  14.229  0.00  0.00    -0.026 C 
ATOM     15  C1  <0> d   1      17.510   0.127  15.670  0.00  0.00     0.036 C 
ENDBRANCH   1  13
TORSDOF 3
ENDMDL
MODEL 7
REMARK VINA RESULT:      -5.6      2.270      4.594
REMARK  3 active torsions:
REMARK  status: ('A' for Active; 'I' for Inactive)
REMARK    1  A    between atoms: C3_3  and  C4_4 
REMARK       I    between atoms: C4_4  and  N6_6 
REMARK    2  A    between atoms: N6_6  and  C7_7 
REMARK    3  A    between atoms: N6_6  and  C9_9 
ROOT
ATOM      1  C4  <0> d   1      18.075  -0.092   8.253  0.00  0.00     0.247 C 
ATOM      2  O5  <0> d   1      17.507  -1.147   8.466  0.00  0.00    -0.268 OA
ATOM      3  N6  <0> d   1      18.504   0.663   9.284  0.00  0.00    -0.314 N 
ENDROOT
BRANCH   3   4
ATOM      4  C7  <0> d   1      19.188   1.932   9.028  0.00  0.00     0.128 C 
ATOM      5  C8  <0> d   1      18.491   3.053   9.803  0.00  0.00     0.027 C 
ENDBRANCH   3   4
BRANCH   3   6
ATOM      6  C9  <0> d   1      18.294   0.235  10.599  0.00  0.00     0.043 A 
ATOM      7  C14 <0> d   1      19.323  -0.374  11.306  0.00  0.00    -0.035 A 
ATOM      8  C13 <0> d   1      19.114  -0.790  12.605  0.00  0.00     0.009 A 
ATOM      9  C15 <0> d   1      20.670  -0.568  10.659  0.00  0.00     0.050 C 
ATOM     10  C12 <0> d   1      17.878  -0.612  13.200  0.00  0.00     0.001 A 
ATOM     11  C11 <0> d   1      16.850  -0.012  12.498  0.00  0.00     0.002 A 
ATOM     12  C10 <0> d   1      17.054   0.413  11.199  0.00  0.00     0.030 A 
ENDBRANCH   3   6
BRANCH   1  13
ATOM     13  C3  <0> d   1      18.295   0.359   6.871  0.00  0.00     0.070 C 
ATOM     14  C2  <0> d   1      18.968  -0.411   6.019  0.00  0.00    -0.026 C 
ATOM     15  C1  <0> d   1      19.194   0.051   4.602  0.00  0.00     0.036 C 
ENDBRANCH   1  13
TORSDOF 3
ENDMDL
MODEL 8
REMARK VINA RESULT:      -5.5      2.100      4.972
REMARK  3 active torsions:
REMARK  status: ('A' for Active; 'I' for Inactive)
REMARK    1  A    between atoms: C3_3  and  C4_4 
REMARK       I    between atoms: C4_4  and  N6_6 
REMARK    2  A    between atoms: N6_6  and  C7_7 
REMARK    3  A    between atoms: N6_6  and  C9_9 
ROOT
ATOM      1  C4  <0> d   1      19.625   0.378  11.586  0.00  0.00     0.247 C 
ATOM      2  O5  <0> d   1      20.638   0.743  12.152  0.00  0.00    -0.268 OA
ATOM      3  N6  <0> d   1      18.584  -0.092  12.302  0.00  0.00    -0.314 N 
ENDROOT
BRANCH   3   4
ATOM      4  C7  <0> d   1      17.365  -0.531  11.621  0.00  0.00     0.128 C 
ATOM      5  C8  <0> d   1      17.411  -2.046  11.417  0.00  0.00     0.027 C 
ENDBRANCH   3   4
BRANCH   3   6
ATOM      6  C9  <0> d   1      18.670  -0.161  13.696  0.00  0.00     0.043 A 
ATOM      7  C14 <0> d   1      18.329   0.941  14.471  0.00  0.00    -0.035 A 
ATOM      8  C13 <0> d   1      18.408   0.867  15.847  0.00  0.00     0.009 A 
ATOM      9  C15 <0> d   1      17.860   2.211  13.809  0.00  0.00     0.050 C 
ATOM     10  C12 <0> d   1      18.838  -0.299  16.455  0.00  0.00     0.001 A 
ATOM     11  C11 <0> d   1      19.184  -1.395  15.687  0.00  0.00     0.002 A 
ATOM     12  C10 <0> d   1      19.100  -1.330  14.309  0.00  0.00     0.030 A 
ENDBRANCH   3   6
BRANCH   1  13
ATOM     13  C3  <0> d   1      19.536   0.450  10.120  0.00  0.00     0.070 C 
ATOM     14  C2  <0> d   1      19.285   1.614   9.526  0.00  0.00    -0.026 C 
ATOM     15  C1  <0> d   1      19.193   1.688   8.023  0.00  0.00     0.036 C 
ENDBRANCH   1  13
TORSDOF 3
ENDMDL
MODEL 9
REMARK VINA RESULT:      -5.4      1.311      5.531
REMARK  3 active torsions:
REMARK  status: ('A' for Active; 'I' for Inactive)
REMARK    1  A    between atoms: C3_3  and  C4_4 
REMARK       I    between atoms: C4_4  and  N6_6 
REMARK    2  A    between atoms: N6_6  and  C7_7 
REMARK    3  A    between atoms: N6_6  and  C9_9 
ROOT
ATOM      1  C4  <0> d   1      17.424   0.416  11.291  0.00  0.00     0.247 C 
ATOM      2  O5  <0> d   1      16.279   0.020  11.413  0.00  0.00    -0.268 OA
ATOM      3  N6  <0> d   1      18.420  -0.462  11.059  0.00  0.00    -0.314 N 
ENDROOT
BRANCH   3   4
ATOM      4  C7  <0> d   1      19.797   0.015  10.913  0.00  0.00     0.128 C 
ATOM      5  C8  <0> d   1      20.221  -0.095   9.446  0.00  0.00     0.027 C 
ENDBRANCH   3   4
BRANCH   3   6
ATOM      6  C9  <0> d   1      18.138  -1.828  10.960  0.00  0.00     0.043 A 
ATOM      7  C14 <0> d   1      18.223  -2.640  12.085  0.00  0.00    -0.035 A 
ATOM      8  C13 <0> d   1      17.938  -3.987  11.985  0.00  0.00     0.009 A 
ATOM      9  C15 <0> d   1      18.611  -2.048  13.415  0.00  0.00     0.050 C 
ATOM     10  C12 <0> d   1      17.581  -4.531  10.764  0.00  0.00     0.001 A 
ATOM     11  C11 <0> d   1      17.502  -3.728   9.642  0.00  0.00     0.002 A 
ATOM     12  C10 <0> d   1      17.779  -2.377   9.737  0.00  0.00     0.030 A 
ENDBRANCH   3   6
BRANCH   1  13
ATOM     13  C3  <0> d   1      17.719   1.853  11.395  0.00  0.00     0.070 C 
ATOM     14  C2  <0> d   1      17.648   2.627  10.316  0.00  0.00    -0.026 C 
ATOM     15  C1  <0> d   1      17.951   4.099  10.422  0.00  0.00     0.036 C 
ENDBRANCH   1  13
TORSDOF 3
ENDMDL
