MODEL 1
REMARK VINA RESULT:      -8.1      0.000      0.000
REMARK  5 active torsions:
REMARK  status: ('A' for Active; 'I' for Inactive)
REMARK    1  A    between atoms: C2_2  and  O3_3 
REMARK    2  A    between atoms: O3_3  and  C4_4 
REMARK    3  A    between atoms: C13_13  and  C14_14 
REMARK       I    between atoms: C14_14  and  N16_16 
REMARK    4  A    between atoms: N16_16  and  C17_17 
REMARK    5  A    between atoms: C28_26  and  C30_27 
ROOT
ATOM      1  C14 ZIN A   1      18.546  -3.227   9.824  0.00  0.00     0.256 C 
ATOM      2  O15 ZIN A   1      19.554  -3.497  10.450  0.00  0.00    -0.268 OA
ATOM      3  N16 ZIN A   1      17.714  -4.211   9.428  0.00  0.00    -0.342 N 
ATOM      4  H44 ZIN A   1      16.911  -3.995   8.928  0.00  0.00     0.163 HD
ENDROOT
BRANCH   1   5
ATOM      5  C13 ZIN A   1      18.236  -1.827   9.500  0.00  0.00     0.076 A 
ATOM      6  C4  ZIN A   1      17.662  -0.984  10.452  0.00  0.00     0.085 A 
ATOM      7  C5  ZIN A   1      17.376   0.345  10.139  0.00  0.00     0.039 A 
ATOM      8  C6  ZIN A   1      17.637   0.862   8.911  0.00  0.00     0.015 A 
ATOM      9  C7  ZIN A   1      18.209   0.068   7.901  0.00  0.00    -0.025 A 
ATOM     10  C12 ZIN A   1      18.518  -1.288   8.170  0.00  0.00    -0.007 A 
ATOM     11  C8  ZIN A   1      18.482   0.593   6.627  0.00  0.00     0.012 A 
ATOM     12  C11 ZIN A   1      19.088  -2.080   7.167  0.00  0.00     0.013 A 
ATOM     13  C10 ZIN A   1      19.340  -1.538   5.941  0.00  0.00     0.001 A 
ATOM     14  C9  ZIN A   1      19.038  -0.205   5.673  0.00  0.00     0.001 A 
BRANCH   6  15
ATOM     15  O3  ZIN A   1      17.386  -1.459  11.692  0.00  0.00    -0.350 OA
BRANCH  15  16
ATOM     16  C2  ZIN A   1      17.950  -0.751  12.798  0.00  0.00     0.171 C 
ATOM     17  C1  ZIN A   1      18.976  -1.641  13.503  0.00  0.00     0.034 C 
ENDBRANCH  15  16
ENDBRANCH   6  15
ENDBRANCH   1   5
BRANCH   3  18
ATOM     18  C17 ZIN A   1      18.023  -5.606   9.751  0.00  0.00     0.199 C 
ATOM     19  C22 ZIN A   1      16.887  -6.580   9.426  0.00  0.00     0.160 C 
ATOM     20  N21 ZIN A   1      17.730  -7.070   8.312  0.00  0.00    -0.219 NA
ATOM     21  S24 ZIN A   1      15.428  -5.820   8.620  0.00  0.00    -0.135 SA
ATOM     22  C19 ZIN A   1      18.814  -6.320   8.675  0.00  0.00     0.227 C 
ATOM     23  C28 ZIN A   1      17.185  -6.825   6.973  0.00  0.00     0.186 C 
ATOM     24  O20 ZIN A   1      19.962  -6.253   8.287  0.00  0.00    -0.277 OA
ATOM     25  C25 ZIN A   1      15.627  -6.747   7.041  0.00  0.00     0.029 C 
ATOM     26  C26 ZIN A   1      14.993  -8.138   7.128  0.00  0.00     0.029 C 
ATOM     27  C27 ZIN A   1      15.065  -5.958   5.857  0.00  0.00     0.029 C 
BRANCH  23  28
ATOM     28  C30 ZIN A   1      17.589  -7.959   6.069  0.00  0.00     0.193 C 
ATOM     29  O31 ZIN A   1      17.887  -9.041   6.545  0.00  0.00    -0.647 OA
ATOM     30  O32 ZIN A   1      17.618  -7.796   4.861  0.00  0.00    -0.647 OA
ENDBRANCH  23  28
ENDBRANCH   3  18
TORSDOF 5
ENDMDL
MODEL 2
REMARK VINA RESULT:      -8.0      2.370      4.845
REMARK  5 active torsions:
REMARK  status: ('A' for Active; 'I' for Inactive)
REMARK    1  A    between atoms: C2_2  and  O3_3 
REMARK    2  A    between atoms: O3_3  and  C4_4 
REMARK    3  A    between atoms: C13_13  and  C14_14 
REMARK       I    between atoms: C14_14  and  N16_16 
REMARK    4  A    between atoms: N16_16  and  C17_17 
REMARK    5  A    between atoms: C28_26  and  C30_27 
ROOT
ATOM      1  C14 ZIN A   1      17.707  -0.755  11.172  0.00  0.00     0.256 C 
ATOM      2  O15 ZIN A   1      16.662  -1.006  11.743  0.00  0.00    -0.268 OA
ATOM      3  N16 ZIN A   1      18.534  -1.756  10.811  0.00  0.00    -0.342 N 
ATOM      4  H44 ZIN A   1      19.368  -1.556  10.357  0.00  0.00     0.163 HD
ENDROOT
BRANCH   1   5
ATOM      5  C13 ZIN A   1      18.066   0.639  10.877  0.00  0.00     0.076 A 
ATOM      6  C4  ZIN A   1      18.200   1.078   9.560  0.00  0.00     0.085 A 
ATOM      7  C5  ZIN A   1      18.536   2.405   9.288  0.00  0.00     0.039 A 
ATOM      8  C6  ZIN A   1      18.748   3.307  10.280  0.00  0.00     0.015 A 
ATOM      9  C7  ZIN A   1      18.636   2.931  11.632  0.00  0.00    -0.025 A 
ATOM     10  C12 ZIN A   1      18.297   1.596  11.959  0.00  0.00    -0.007 A 
ATOM     11  C8  ZIN A   1      18.854   3.857  12.666  0.00  0.00     0.012 A 
ATOM     12  C11 ZIN A   1      18.184   1.220  13.303  0.00  0.00     0.013 A 
ATOM     13  C10 ZIN A   1      18.403   2.144  14.282  0.00  0.00     0.001 A 
ATOM     14  C9  ZIN A   1      18.737   3.458  13.963  0.00  0.00     0.001 A 
BRANCH   6  15
ATOM     15  O3  ZIN A   1      17.997   0.211   8.538  0.00  0.00    -0.350 OA
BRANCH  15  16
ATOM     16  C2  ZIN A   1      18.760   0.421   7.347  0.00  0.00     0.171 C 
ATOM     17  C1  ZIN A   1      17.845   0.305   6.127  0.00  0.00     0.034 C 
ENDBRANCH  15  16
ENDBRANCH   6  15
ENDBRANCH   1   5
BRANCH   3  18
ATOM     18  C17 ZIN A   1      18.176  -3.146  11.105  0.00  0.00     0.199 C 
ATOM     19  C22 ZIN A   1      17.629  -3.911   9.897  0.00  0.00     0.160 C 
ATOM     20  N21 ZIN A   1      18.906  -4.662   9.894  0.00  0.00    -0.219 NA
ATOM     21  S24 ZIN A   1      17.627  -2.969   8.326  0.00  0.00    -0.135 SA
ATOM     22  C19 ZIN A   1      19.350  -4.101  11.060  0.00  0.00     0.227 C 
ATOM     23  C28 ZIN A   1      19.742  -4.450   8.708  0.00  0.00     0.186 C 
ATOM     24  O20 ZIN A   1      20.309  -4.294  11.777  0.00  0.00    -0.277 OA
ATOM     25  C25 ZIN A   1      18.845  -4.069   7.488  0.00  0.00     0.029 C 
ATOM     26  C26 ZIN A   1      18.161  -5.297   6.882  0.00  0.00     0.029 C 
ATOM     27  C27 ZIN A   1      19.649  -3.308   6.433  0.00  0.00     0.029 C 
BRANCH  23  28
ATOM     28  C30 ZIN A   1      20.484  -5.724   8.402  0.00  0.00     0.193 C 
ATOM     29  O31 ZIN A   1      20.123  -6.775   8.905  0.00  0.00    -0.647 OA
ATOM     30  O32 ZIN A   1      21.445  -5.706   7.653  0.00  0.00    -0.647 OA
ENDBRANCH  23  28
ENDBRANCH   3  18
TORSDOF 5
ENDMDL
MODEL 3
REMARK VINA RESULT:      -7.8      1.564      3.960
REMARK  5 active torsions:
REMARK  status: ('A' for Active; 'I' for Inactive)
REMARK    1  A    between atoms: C2_2  and  O3_3 
REMARK    2  A    between atoms: O3_3  and  C4_4 
REMARK    3  A    between atoms: C13_13  and  C14_14 
REMARK       I    between atoms: C14_14  and  N16_16 
REMARK    4  A    between atoms: N16_16  and  C17_17 
REMARK    5  A    between atoms: C28_26  and  C30_27 
ROOT
ATOM      1  C14 ZIN A   1      19.289  -2.791  10.695  0.00  0.00     0.256 C 
ATOM      2  O15 ZIN A   1      20.425  -2.934  11.106  0.00  0.00    -0.268 OA
ATOM      3  N16 ZIN A   1      18.779  -3.668   9.807  0.00  0.00    -0.342 N 
ATOM      4  H44 ZIN A   1      17.873  -3.554   9.479  0.00  0.00     0.163 HD
ENDROOT
BRANCH   1   5
ATOM      5  C13 ZIN A   1      18.473  -1.663  11.166  0.00  0.00     0.076 A 
ATOM      6  C4  ZIN A   1      17.689  -0.928  10.277  0.00  0.00     0.085 A 
ATOM      7  C5  ZIN A   1      16.913   0.138  10.734  0.00  0.00     0.039 A 
ATOM      8  C6  ZIN A   1      16.896   0.501  12.042  0.00  0.00     0.015 A 
ATOM      9  C7  ZIN A   1      17.667  -0.193  12.993  0.00  0.00    -0.025 A 
ATOM     10  C12 ZIN A   1      18.471  -1.282  12.579  0.00  0.00    -0.007 A 
ATOM     11  C8  ZIN A   1      17.656   0.175  14.349  0.00  0.00     0.012 A 
ATOM     12  C11 ZIN A   1      19.239  -1.975  13.523  0.00  0.00     0.013 A 
ATOM     13  C10 ZIN A   1      19.204  -1.592  14.831  0.00  0.00     0.001 A 
ATOM     14  C9  ZIN A   1      18.415  -0.520  15.241  0.00  0.00     0.001 A 
BRANCH   6  15
ATOM     15  O3  ZIN A   1      17.677  -1.255   8.962  0.00  0.00    -0.350 OA
BRANCH  15  16
ATOM     16  C2  ZIN A   1      17.364  -0.212   8.036  0.00  0.00     0.171 C 
ATOM     17  C1  ZIN A   1      18.659   0.440   7.546  0.00  0.00     0.034 C 
ENDBRANCH  15  16
ENDBRANCH   6  15
ENDBRANCH   1   5
BRANCH   3  18
ATOM     18  C17 ZIN A   1      19.591  -4.792   9.337  0.00  0.00     0.199 C 
ATOM     19  C22 ZIN A   1      18.860  -6.137   9.367  0.00  0.00     0.160 C 
ATOM     20  N21 ZIN A   1      18.827  -6.063   7.888  0.00  0.00    -0.219 NA
ATOM     21  S24 ZIN A   1      17.106  -6.048   9.887  0.00  0.00    -0.135 SA
ATOM     22  C19 ZIN A   1      19.610  -4.944   7.830  0.00  0.00     0.227 C 
ATOM     23  C28 ZIN A   1      17.485  -5.952   7.308  0.00  0.00     0.186 C 
ATOM     24  O20 ZIN A   1      20.120  -4.317   6.926  0.00  0.00    -0.277 OA
ATOM     25  C25 ZIN A   1      16.437  -6.604   8.263  0.00  0.00     0.029 C 
ATOM     26  C26 ZIN A   1      16.442  -8.131   8.153  0.00  0.00     0.029 C 
ATOM     27  C27 ZIN A   1      15.038  -6.038   8.014  0.00  0.00     0.029 C 
BRANCH  23  28
ATOM     28  C30 ZIN A   1      17.467  -6.670   5.984  0.00  0.00     0.193 C 
ATOM     29  O31 ZIN A   1      16.642  -6.368   5.138  0.00  0.00    -0.647 OA
ATOM     30  O32 ZIN A   1      18.276  -7.553   5.758  0.00  0.00    -0.647 OA
ENDBRANCH  23  28
ENDBRANCH   3  18
TORSDOF 5
ENDMDL
MODEL 4
REMARK VINA RESULT:      -7.8      2.324      3.637
REMARK  5 active torsions:
REMARK  status: ('A' for Active; 'I' for Inactive)
REMARK    1  A    between atoms: C2_2  and  O3_3 
REMARK    2  A    between atoms: O3_3  and  C4_4 
REMARK    3  A    between atoms: C13_13  and  C14_14 
REMARK       I    between atoms: C14_14  and  N16_16 
REMARK    4  A    between atoms: N16_16  and  C17_17 
REMARK    5  A    between atoms: C28_26  and  C30_27 
ROOT
ATOM      1  C14 ZIN A   1      19.025  -3.096   6.561  0.00  0.00     0.256 C 
ATOM      2  O15 ZIN A   1      20.042  -3.190   5.899  0.00  0.00    -0.268 OA
ATOM      3  N16 ZIN A   1      17.892  -3.696   6.145  0.00  0.00    -0.342 N 
ATOM      4  H44 ZIN A   1      17.081  -3.620   6.673  0.00  0.00     0.163 HD
ENDROOT
BRANCH   1   5
ATOM      5  C13 ZIN A   1      19.034  -2.329   7.815  0.00  0.00     0.076 A 
ATOM      6  C4  ZIN A   1      19.050  -2.980   9.049  0.00  0.00     0.085 A 
ATOM      7  C5  ZIN A   1      19.065  -2.244  10.235  0.00  0.00     0.039 A 
ATOM      8  C6  ZIN A   1      19.058  -0.886  10.235  0.00  0.00     0.015 A 
ATOM      9  C7  ZIN A   1      19.035  -0.166   9.026  0.00  0.00    -0.025 A 
ATOM     10  C12 ZIN A   1      19.020  -0.867   7.796  0.00  0.00    -0.007 A 
ATOM     11  C8  ZIN A   1      19.027   1.239   9.015  0.00  0.00     0.012 A 
ATOM     12  C11 ZIN A   1      18.999  -0.153   6.592  0.00  0.00     0.013 A 
ATOM     13  C10 ZIN A   1      18.992   1.211   6.618  0.00  0.00     0.001 A 
ATOM     14  C9  ZIN A   1      19.006   1.903   7.826  0.00  0.00     0.001 A 
BRANCH   6  15
ATOM     15  O3  ZIN A   1      19.059  -4.334   9.096  0.00  0.00    -0.350 OA
BRANCH  15  16
ATOM     16  C2  ZIN A   1      19.018  -4.939  10.391  0.00  0.00     0.171 C 
ATOM     17  C1  ZIN A   1      17.682  -5.663  10.574  0.00  0.00     0.034 C 
ENDBRANCH  15  16
ENDBRANCH   6  15
ENDBRANCH   1   5
BRANCH   3  18
ATOM     18  C17 ZIN A   1      17.883  -4.460   4.895  0.00  0.00     0.199 C 
ATOM     19  C22 ZIN A   1      17.761  -5.973   5.099  0.00  0.00     0.160 C 
ATOM     20  N21 ZIN A   1      16.383  -5.854   4.568  0.00  0.00    -0.219 NA
ATOM     21  S24 ZIN A   1      17.556  -6.502   6.840  0.00  0.00    -0.135 SA
ATOM     22  C19 ZIN A   1      16.522  -4.535   4.236  0.00  0.00     0.227 C 
ATOM     23  C28 ZIN A   1      15.324  -6.178   5.528  0.00  0.00     0.186 C 
ATOM     24  O20 ZIN A   1      15.826  -3.736   3.644  0.00  0.00    -0.277 OA
ATOM     25  C25 ZIN A   1      15.862  -7.184   6.593  0.00  0.00     0.029 C 
ATOM     26  C26 ZIN A   1      15.913  -8.614   6.049  0.00  0.00     0.029 C 
ATOM     27  C27 ZIN A   1      15.040  -7.113   7.881  0.00  0.00     0.029 C 
BRANCH  23  28
ATOM     28  C30 ZIN A   1      14.172  -6.806   4.787  0.00  0.00     0.193 C 
ATOM     29  O31 ZIN A   1      13.106  -6.980   5.353  0.00  0.00    -0.647 OA
ATOM     30  O32 ZIN A   1      14.305  -7.139   3.622  0.00  0.00    -0.647 OA
ENDBRANCH  23  28
ENDBRANCH   3  18
TORSDOF 5
ENDMDL
MODEL 5
REMARK VINA RESULT:      -7.7      8.839     12.831
REMARK  5 active torsions:
REMARK  status: ('A' for Active; 'I' for Inactive)
REMARK    1  A    between atoms: C2_2  and  O3_3 
REMARK    2  A    between atoms: O3_3  and  C4_4 
REMARK    3  A    between atoms: C13_13  and  C14_14 
REMARK       I    between atoms: C14_14  and  N16_16 
REMARK    4  A    between atoms: N16_16  and  C17_17 
REMARK    5  A    between atoms: C28_26  and  C30_27 
ROOT
ATOM      1  C14 ZIN A   1      18.985   3.533  16.236  0.00  0.00     0.256 C 
ATOM      2  O15 ZIN A   1      20.037   3.857  16.756  0.00  0.00    -0.268 OA
ATOM      3  N16 ZIN A   1      17.855   4.206  16.527  0.00  0.00    -0.342 N 
ATOM      4  H44 ZIN A   1      17.016   3.946  16.113  0.00  0.00     0.163 HD
ENDROOT
BRANCH   1   5
ATOM      5  C13 ZIN A   1      18.950   2.407  15.291  0.00  0.00     0.076 A 
ATOM      6  C4  ZIN A   1      18.870   2.632  13.916  0.00  0.00     0.085 A 
ATOM      7  C5  ZIN A   1      18.843   1.558  13.026  0.00  0.00     0.039 A 
ATOM      8  C6  ZIN A   1      18.885   0.271  13.456  0.00  0.00     0.015 A 
ATOM      9  C7  ZIN A   1      18.959  -0.029  14.828  0.00  0.00    -0.025 A 
ATOM     10  C12 ZIN A   1      18.990   1.026  15.772  0.00  0.00    -0.007 A 
ATOM     11  C8  ZIN A   1      19.003  -1.357  15.283  0.00  0.00     0.012 A 
ATOM     12  C11 ZIN A   1      19.064   0.732  17.139  0.00  0.00     0.013 A 
ATOM     13  C10 ZIN A   1      19.106  -0.569  17.545  0.00  0.00     0.001 A 
ATOM     14  C9  ZIN A   1      19.075  -1.610  16.620  0.00  0.00     0.001 A 
BRANCH   6  15
ATOM     15  O3  ZIN A   1      18.827   3.901  13.443  0.00  0.00    -0.350 OA
BRANCH  15  16
ATOM     16  C2  ZIN A   1      18.552   4.065  12.050  0.00  0.00     0.171 C 
ATOM     17  C1  ZIN A   1      17.150   4.651  11.872  0.00  0.00     0.034 C 
ENDBRANCH  15  16
ENDBRANCH   6  15
ENDBRANCH   1   5
BRANCH   3  18
ATOM     18  C17 ZIN A   1      17.891   5.327  17.469  0.00  0.00     0.199 C 
ATOM     19  C22 ZIN A   1      17.314   6.628  16.901  0.00  0.00     0.160 C 
ATOM     20  N21 ZIN A   1      16.164   6.422  17.811  0.00  0.00    -0.219 NA
ATOM     21  S24 ZIN A   1      16.618   6.489  15.213  0.00  0.00    -0.135 SA
ATOM     22  C19 ZIN A   1      16.728   5.347  18.439  0.00  0.00     0.227 C 
ATOM     23  C28 ZIN A   1      14.882   6.188  17.138  0.00  0.00     0.186 C 
ATOM     24  O20 ZIN A   1      16.418   4.672  19.398  0.00  0.00    -0.277 OA
ATOM     25  C25 ZIN A   1      14.890   6.863  15.731  0.00  0.00     0.029 C 
ATOM     26  C26 ZIN A   1      14.652   8.372  15.825  0.00  0.00     0.029 C 
ATOM     27  C27 ZIN A   1      13.873   6.202  14.799  0.00  0.00     0.029 C 
BRANCH  23  28
ATOM     28  C30 ZIN A   1      13.779   6.785  17.971  0.00  0.00     0.193 C 
ATOM     29  O31 ZIN A   1      14.044   7.601  18.838  0.00  0.00    -0.647 OA
ATOM     30  O32 ZIN A   1      12.622   6.453  17.780  0.00  0.00    -0.647 OA
ENDBRANCH  23  28
ENDBRANCH   3  18
TORSDOF 5
ENDMDL
MODEL 6
REMARK VINA RESULT:      -7.6      2.317      4.219
REMARK  5 active torsions:
REMARK  status: ('A' for Active; 'I' for Inactive)
REMARK    1  A    between atoms: C2_2  and  O3_3 
REMARK    2  A    between atoms: O3_3  and  C4_4 
REMARK    3  A    between atoms: C13_13  and  C14_14 
REMARK       I    between atoms: C14_14  and  N16_16 
REMARK    4  A    between atoms: N16_16  and  C17_17 
REMARK    5  A    between atoms: C28_26  and  C30_27 
ROOT
ATOM      1  C14 ZIN A   1      18.659  -2.881   7.308  0.00  0.00     0.256 C 
ATOM      2  O15 ZIN A   1      19.835  -2.930   6.998  0.00  0.00    -0.268 OA
ATOM      3  N16 ZIN A   1      17.773  -3.708   6.718  0.00  0.00    -0.342 N 
ATOM      4  H44 ZIN A   1      16.835  -3.668   6.965  0.00  0.00     0.163 HD
ENDROOT
BRANCH   1   5
ATOM      5  C13 ZIN A   1      18.206  -1.920   8.324  0.00  0.00     0.076 A 
ATOM      6  C4  ZIN A   1      17.705  -0.672   7.953  0.00  0.00     0.085 A 
ATOM      7  C5  ZIN A   1      17.272   0.232   8.924  0.00  0.00     0.039 A 
ATOM      8  C6  ZIN A   1      17.326  -0.061  10.249  0.00  0.00     0.015 A 
ATOM      9  C7  ZIN A   1      17.826  -1.298  10.694  0.00  0.00    -0.025 A 
ATOM     10  C12 ZIN A   1      18.277  -2.250   9.747  0.00  0.00    -0.007 A 
ATOM     11  C8  ZIN A   1      17.887  -1.610  12.062  0.00  0.00     0.012 A 
ATOM     12  C11 ZIN A   1      18.774  -3.482  10.187  0.00  0.00     0.013 A 
ATOM     13  C10 ZIN A   1      18.819  -3.753  11.523  0.00  0.00     0.001 A 
ATOM     14  C9  ZIN A   1      18.376  -2.819  12.457  0.00  0.00     0.001 A 
BRANCH   6  15
ATOM     15  O3  ZIN A   1      17.632  -0.338   6.642  0.00  0.00    -0.350 OA
BRANCH  15  16
ATOM     16  C2  ZIN A   1      18.571   0.628   6.165  0.00  0.00     0.171 C 
ATOM     17  C1  ZIN A   1      19.274   0.085   4.919  0.00  0.00     0.034 C 
ENDBRANCH  15  16
ENDBRANCH   6  15
ENDBRANCH   1   5
BRANCH   3  18
ATOM     18  C17 ZIN A   1      18.224  -4.665   5.706  0.00  0.00     0.199 C 
ATOM     19  C22 ZIN A   1      17.714  -6.091   5.935  0.00  0.00     0.160 C 
ATOM     20  N21 ZIN A   1      16.832  -5.879   4.764  0.00  0.00    -0.219 NA
ATOM     21  S24 ZIN A   1      16.579  -6.284   7.359  0.00  0.00    -0.135 SA
ATOM     22  C19 ZIN A   1      17.379  -4.667   4.449  0.00  0.00     0.227 C 
ATOM     23  C28 ZIN A   1      15.397  -5.890   5.066  0.00  0.00     0.186 C 
ATOM     24  O20 ZIN A   1      17.241  -3.894   3.524  0.00  0.00    -0.277 OA
ATOM     25  C25 ZIN A   1      15.127  -6.764   6.331  0.00  0.00     0.029 C 
ATOM     26  C26 ZIN A   1      15.147  -8.258   6.003  0.00  0.00     0.029 C 
ATOM     27  C27 ZIN A   1      13.812  -6.365   7.004  0.00  0.00     0.029 C 
BRANCH  23  28
ATOM     28  C30 ZIN A   1      14.657  -6.473   3.891  0.00  0.00     0.193 C 
ATOM     29  O31 ZIN A   1      13.458  -6.287   3.772  0.00  0.00    -0.647 OA
ATOM     30  O32 ZIN A   1      15.257  -7.132   3.058  0.00  0.00    -0.647 OA
ENDBRANCH  23  28
ENDBRANCH   3  18
TORSDOF 5
ENDMDL
MODEL 7
REMARK VINA RESULT:      -7.6      2.343      3.432
REMARK  5 active torsions:
REMARK  status: ('A' for Active; 'I' for Inactive)
REMARK    1  A    between atoms: C2_2  and  O3_3 
REMARK    2  A    between atoms: O3_3  and  C4_4 
REMARK    3  A    between atoms: C13_13  and  C14_14 
REMARK       I    between atoms: C14_14  and  N16_16 
REMARK    4  A    between atoms: N16_16  and  C17_17 
REMARK    5  A    between atoms: C28_26  and  C30_27 
ROOT
ATOM      1  C14 ZIN A   1      17.743  -0.978  11.433  0.00  0.00     0.256 C 
ATOM      2  O15 ZIN A   1      16.627  -1.240  11.842  0.00  0.00    -0.268 OA
ATOM      3  N16 ZIN A   1      18.605  -1.972  11.143  0.00  0.00    -0.342 N 
ATOM      4  H44 ZIN A   1      19.495  -1.763  10.818  0.00  0.00     0.163 HD
ENDROOT
BRANCH   1   5
ATOM      5  C13 ZIN A   1      18.150   0.424  11.257  0.00  0.00     0.076 A 
ATOM      6  C4  ZIN A   1      18.308   1.265  12.359  0.00  0.00     0.085 A 
ATOM      7  C5  ZIN A   1      18.700   2.593  12.184  0.00  0.00     0.039 A 
ATOM      8  C6  ZIN A   1      18.934   3.112  10.952  0.00  0.00     0.015 A 
ATOM      9  C7  ZIN A   1      18.788   2.323   9.797  0.00  0.00    -0.025 A 
ATOM     10  C12 ZIN A   1      18.392   0.969   9.922  0.00  0.00    -0.007 A 
ATOM     11  C8  ZIN A   1      19.028   2.852   8.517  0.00  0.00     0.012 A 
ATOM     12  C11 ZIN A   1      18.247   0.181   8.774  0.00  0.00     0.013 A 
ATOM     13  C10 ZIN A   1      18.488   0.726   7.548  0.00  0.00     0.001 A 
ATOM     14  C9  ZIN A   1      18.877   2.057   7.421  0.00  0.00     0.001 A 
BRANCH   6  15
ATOM     15  O3  ZIN A   1      18.085   0.787  13.608  0.00  0.00    -0.350 OA
BRANCH  15  16
ATOM     16  C2  ZIN A   1      19.234   0.528  14.418  0.00  0.00     0.171 C 
ATOM     17  C1  ZIN A   1      19.253  -0.949  14.819  0.00  0.00     0.034 C 
ENDBRANCH  15  16
ENDBRANCH   6  15
ENDBRANCH   1   5
BRANCH   3  18
ATOM     18  C17 ZIN A   1      18.199  -3.369  11.318  0.00  0.00     0.199 C 
ATOM     19  C22 ZIN A   1      17.613  -4.004  10.054  0.00  0.00     0.160 C 
ATOM     20  N21 ZIN A   1      18.862  -4.797   9.969  0.00  0.00    -0.219 NA
ATOM     21  S24 ZIN A   1      17.629  -2.928   8.573  0.00  0.00    -0.135 SA
ATOM     22  C19 ZIN A   1      19.337  -4.358  11.173  0.00  0.00     0.227 C 
ATOM     23  C28 ZIN A   1      19.692  -4.510   8.794  0.00  0.00     0.186 C 
ATOM     24  O20 ZIN A   1      20.296  -4.647  11.857  0.00  0.00    -0.277 OA
ATOM     25  C25 ZIN A   1      18.797  -3.992   7.625  0.00  0.00     0.029 C 
ATOM     26  C26 ZIN A   1      18.063  -5.136   6.922  0.00  0.00     0.029 C 
ATOM     27  C27 ZIN A   1      19.617  -3.169   6.630  0.00  0.00     0.029 C 
BRANCH  23  28
ATOM     28  C30 ZIN A   1      20.384  -5.778   8.368  0.00  0.00     0.193 C 
ATOM     29  O31 ZIN A   1      20.096  -6.838   8.899  0.00  0.00    -0.647 OA
ATOM     30  O32 ZIN A   1      21.231  -5.746   7.492  0.00  0.00    -0.647 OA
ENDBRANCH  23  28
ENDBRANCH   3  18
TORSDOF 5
ENDMDL
MODEL 8
REMARK VINA RESULT:      -7.5      0.933      3.389
REMARK  5 active torsions:
REMARK  status: ('A' for Active; 'I' for Inactive)
REMARK    1  A    between atoms: C2_2  and  O3_3 
REMARK    2  A    between atoms: O3_3  and  C4_4 
REMARK    3  A    between atoms: C13_13  and  C14_14 
REMARK       I    between atoms: C14_14  and  N16_16 
REMARK    4  A    between atoms: N16_16  and  C17_17 
REMARK    5  A    between atoms: C28_26  and  C30_27 
ROOT
ATOM      1  C14 ZIN A   1      18.637  -3.327   9.881  0.00  0.00     0.256 C 
ATOM      2  O15 ZIN A   1      19.631  -3.628  10.515  0.00  0.00    -0.268 OA
ATOM      3  N16 ZIN A   1      17.799  -4.288   9.446  0.00  0.00    -0.342 N 
ATOM      4  H44 ZIN A   1      17.006  -4.047   8.940  0.00  0.00     0.163 HD
ENDROOT
BRANCH   1   5
ATOM      5  C13 ZIN A   1      18.351  -1.914   9.592  0.00  0.00     0.076 A 
ATOM      6  C4  ZIN A   1      18.411  -1.427   8.286  0.00  0.00     0.085 A 
ATOM      7  C5  ZIN A   1      18.133  -0.086   8.018  0.00  0.00     0.039 A 
ATOM      8  C6  ZIN A   1      17.804   0.786   9.005  0.00  0.00     0.015 A 
ATOM      9  C7  ZIN A   1      17.731   0.365  10.346  0.00  0.00    -0.025 A 
ATOM     10  C12 ZIN A   1      18.004  -0.987  10.668  0.00  0.00    -0.007 A 
ATOM     11  C8  ZIN A   1      17.392   1.260  11.374  0.00  0.00     0.012 A 
ATOM     12  C11 ZIN A   1      17.932  -1.409  12.001  0.00  0.00     0.013 A 
ATOM     13  C10 ZIN A   1      17.600  -0.514  12.974  0.00  0.00     0.001 A 
ATOM     14  C9  ZIN A   1      17.331   0.816  12.660  0.00  0.00     0.001 A 
BRANCH   6  15
ATOM     15  O3  ZIN A   1      18.735  -2.263   7.269  0.00  0.00    -0.350 OA
BRANCH  15  16
ATOM     16  C2  ZIN A   1      18.228  -1.937   5.973  0.00  0.00     0.171 C 
ATOM     17  C1  ZIN A   1      19.205  -2.430   4.904  0.00  0.00     0.034 C 
ENDBRANCH  15  16
ENDBRANCH   6  15
ENDBRANCH   1   5
BRANCH   3  18
ATOM     18  C17 ZIN A   1      18.083  -5.696   9.734  0.00  0.00     0.199 C 
ATOM     19  C22 ZIN A   1      16.934  -6.642   9.378  0.00  0.00     0.160 C 
ATOM     20  N21 ZIN A   1      17.776  -7.118   8.257  0.00  0.00    -0.219 NA
ATOM     21  S24 ZIN A   1      15.492  -5.839   8.584  0.00  0.00    -0.135 SA
ATOM     22  C19 ZIN A   1      18.870  -6.395   8.645  0.00  0.00     0.227 C 
ATOM     23  C28 ZIN A   1      17.243  -6.829   6.922  0.00  0.00     0.186 C 
ATOM     24  O20 ZIN A   1      20.020  -6.336   8.265  0.00  0.00    -0.277 OA
ATOM     25  C25 ZIN A   1      15.686  -6.729   6.982  0.00  0.00     0.029 C 
ATOM     26  C26 ZIN A   1      15.030  -8.111   7.030  0.00  0.00     0.029 C 
ATOM     27  C27 ZIN A   1      15.144  -5.901   5.816  0.00  0.00     0.029 C 
BRANCH  23  28
ATOM     28  C30 ZIN A   1      17.634  -7.946   5.991  0.00  0.00     0.193 C 
ATOM     29  O31 ZIN A   1      17.683  -7.749   4.788  0.00  0.00    -0.647 OA
ATOM     30  O32 ZIN A   1      17.902  -9.048   6.438  0.00  0.00    -0.647 OA
ENDBRANCH  23  28
ENDBRANCH   3  18
TORSDOF 5
ENDMDL
MODEL 9
REMARK VINA RESULT:      -7.5      4.198      8.768
REMARK  5 active torsions:
REMARK  status: ('A' for Active; 'I' for Inactive)
REMARK    1  A    between atoms: C2_2  and  O3_3 
REMARK    2  A    between atoms: O3_3  and  C4_4 
REMARK    3  A    between atoms: C13_13  and  C14_14 
REMARK       I    between atoms: C14_14  and  N16_16 
REMARK    4  A    between atoms: N16_16  and  C17_17 
REMARK    5  A    between atoms: C28_26  and  C30_27 
ROOT
ATOM      1  C14 ZIN A   1      19.122  -1.639  11.965  0.00  0.00     0.256 C 
ATOM      2  O15 ZIN A   1      19.992  -2.193  12.611  0.00  0.00    -0.268 OA
ATOM      3  N16 ZIN A   1      18.593  -0.479  12.403  0.00  0.00    -0.342 N 
ATOM      4  H44 ZIN A   1      17.898  -0.039  11.887  0.00  0.00     0.163 HD
ENDROOT
BRANCH   1   5
ATOM      5  C13 ZIN A   1      18.649  -2.236  10.708  0.00  0.00     0.076 A 
ATOM      6  C4  ZIN A   1      18.728  -1.528   9.508  0.00  0.00     0.085 A 
ATOM      7  C5  ZIN A   1      18.283  -2.104   8.317  0.00  0.00     0.039 A 
ATOM      8  C6  ZIN A   1      17.757  -3.355   8.281  0.00  0.00     0.015 A 
ATOM      9  C7  ZIN A   1      17.641  -4.123   9.455  0.00  0.00    -0.025 A 
ATOM     10  C12 ZIN A   1      18.080  -3.583  10.688  0.00  0.00    -0.007 A 
ATOM     11  C8  ZIN A   1      17.099  -5.418   9.427  0.00  0.00     0.012 A 
ATOM     12  C11 ZIN A   1      17.967  -4.345  11.857  0.00  0.00     0.013 A 
ATOM     13  C10 ZIN A   1      17.436  -5.599  11.794  0.00  0.00     0.001 A 
ATOM     14  C9  ZIN A   1      17.003  -6.133  10.583  0.00  0.00     0.001 A 
BRANCH   6  15
ATOM     15  O3  ZIN A   1      19.247  -0.276   9.498  0.00  0.00    -0.350 OA
BRANCH  15  16
ATOM     16  C2  ZIN A   1      19.626   0.259   8.228  0.00  0.00     0.171 C 
ATOM     17  C1  ZIN A   1      19.071   1.678   8.086  0.00  0.00     0.034 C 
ENDBRANCH  15  16
ENDBRANCH   6  15
ENDBRANCH   1   5
BRANCH   3  18
ATOM     18  C17 ZIN A   1      19.064   0.115  13.656  0.00  0.00     0.199 C 
ATOM     19  C22 ZIN A   1      19.834   1.425  13.465  0.00  0.00     0.160 C 
ATOM     20  N21 ZIN A   1      18.658   2.110  14.049  0.00  0.00    -0.219 NA
ATOM     21  S24 ZIN A   1      19.923   2.022  11.736  0.00  0.00    -0.135 SA
ATOM     22  C19 ZIN A   1      18.017   0.945  14.368  0.00  0.00     0.227 C 
ATOM     23  C28 ZIN A   1      17.955   3.013  13.133  0.00  0.00     0.186 C 
ATOM     24  O20 ZIN A   1      17.005   0.681  14.982  0.00  0.00    -0.277 OA
ATOM     25  C25 ZIN A   1      18.945   3.551  12.053  0.00  0.00     0.029 C 
ATOM     26  C26 ZIN A   1      19.829   4.673  12.602  0.00  0.00     0.029 C 
ATOM     27  C27 ZIN A   1      18.197   4.003  10.798  0.00  0.00     0.029 C 
BRANCH  23  28
ATOM     28  C30 ZIN A   1      17.401   4.170  13.921  0.00  0.00     0.193 C 
ATOM     29  O31 ZIN A   1      17.756   4.348  15.074  0.00  0.00    -0.647 OA
ATOM     30  O32 ZIN A   1      16.598   4.930  13.408  0.00  0.00    -0.647 OA
ENDBRANCH  23  28
ENDBRANCH   3  18
TORSDOF 5
ENDMDL
