MODEL 1
REMARK VINA RESULT:      -8.4      0.000      0.000
REMARK  8 active torsions:
REMARK  status: ('A' for Active; 'I' for Inactive)
REMARK    1  A    between atoms: C2_2  and  C4_4 
REMARK    2  A    between atoms: C4_4  and  O5_5 
REMARK    3  A    between atoms: O5_5  and  C6_6 
REMARK    4  A    between atoms: C6_6  and  C7_7 
REMARK    5  A    between atoms: C7_7  and  N8_8 
REMARK    6  A    between atoms: N11_11  and  C12_12 
REMARK    7  A    between atoms: C12_12  and  C14_13 
REMARK    8  A    between atoms: C12_12  and  C20_19 
ROOT
ATOM      1  C12 <0> d   1      19.198   1.867  11.277  0.00  0.00     0.289 C 
ENDROOT
BRANCH   1   2
ATOM      2  N11 <0> d   1      18.835   0.870  12.292  0.00  0.00     0.105 N 
ATOM      3  C10 <0> d   1      17.967   1.458  13.322  0.00  0.00     0.304 C 
ATOM      4  C9  <0> d   1      17.549   0.371  14.315  0.00  0.00     0.302 C 
ATOM      5  N8  <0> d   1      18.748  -0.226  14.919  0.00  0.00     0.093 N 
ATOM      6  C28 <0> d   1      19.615  -0.815  13.888  0.00  0.00     0.302 C 
ATOM      7  C27 <0> d   1      20.033   0.272  12.896  0.00  0.00     0.304 C 
BRANCH   5   8
ATOM      8  C7  <0> d   1      18.384  -1.223  15.934  0.00  0.00     0.298 C 
BRANCH   8   9
ATOM      9  C6  <0> d   1      17.202  -0.708  16.756  0.00  0.00     0.198 C 
BRANCH   9  10
ATOM     10  O5  <0> d   1      17.665  -0.274  18.036  0.00  0.00    -0.379 OA
BRANCH  10  11
ATOM     11  C4  <0> d   1      17.704   1.146  18.190  0.00  0.00     0.280 C 
BRANCH  11  12
ATOM     12  C2  <0> d   1      19.131   1.592  18.384  0.00  0.00     0.197 C 
ATOM     13  O1  <0> d   1      20.030   0.768  18.398  0.00  0.00    -0.646 OA
ATOM     14  O3  <0> d   1      19.386   2.776  18.523  0.00  0.00    -0.646 OA
ENDBRANCH  11  12
ENDBRANCH  10  11
ENDBRANCH   9  10
ENDBRANCH   8   9
ENDBRANCH   5   8
ENDBRANCH   1   2
BRANCH   1  15
ATOM     15  C14 <0> d   1      18.489   3.165  11.572  0.00  0.00    -0.021 A 
ATOM     16  C19 <0> d   1      17.389   3.537  10.822  0.00  0.00     0.010 A 
ATOM     17  C18 <0> d   1      16.735   4.724  11.095  0.00  0.00     0.001 A 
ATOM     18  C17 <0> d   1      17.190   5.545  12.111  0.00  0.00     0.000 A 
ATOM     19  C16 <0> d   1      18.293   5.175  12.857  0.00  0.00     0.001 A 
ATOM     20  C15 <0> d   1      18.943   3.985  12.587  0.00  0.00     0.010 A 
ENDBRANCH   1  15
BRANCH   1  21
ATOM     21  C20 <0> d   1      18.788   1.370   9.915  0.00  0.00    -0.021 A 
ATOM     22  C26 <0> d   1      19.398   1.876   8.782  0.00  0.00     0.011 A 
ATOM     23  C25 <0> d   1      19.027   1.416   7.533  0.00  0.00     0.024 A 
ATOM     24  C23 <0> d   1      18.038   0.457   7.416  0.00  0.00     0.034 A 
ATOM     25  C22 <0> d   1      17.423  -0.045   8.549  0.00  0.00     0.024 A 
ATOM     26 Cl24 <0> d   1      17.565  -0.117   5.847  0.00  0.00    -0.084 Cl
ATOM     27  C21 <0> d   1      17.799   0.412   9.798  0.00  0.00     0.011 A 
ENDBRANCH   1  21
TORSDOF 8
ENDMDL
MODEL 2
REMARK VINA RESULT:      -8.3      2.777      4.033
REMARK  8 active torsions:
REMARK  status: ('A' for Active; 'I' for Inactive)
REMARK    1  A    between atoms: C2_2  and  C4_4 
REMARK    2  A    between atoms: C4_4  and  O5_5 
REMARK    3  A    between atoms: O5_5  and  C6_6 
REMARK    4  A    between atoms: C6_6  and  C7_7 
REMARK    5  A    between atoms: C7_7  and  N8_8 
REMARK    6  A    between atoms: N11_11  and  C12_12 
REMARK    7  A    between atoms: C12_12  and  C14_13 
REMARK    8  A    between atoms: C12_12  and  C20_19 
ROOT
ATOM      1  C12 <0> d   1      19.616  -0.983  11.832  0.00  0.00     0.289 C 
ENDROOT
BRANCH   1   2
ATOM      2  N11 <0> d   1      19.014  -0.508  13.084  0.00  0.00     0.105 N 
ATOM      3  C10 <0> d   1      19.800   0.591  13.664  0.00  0.00     0.304 C 
ATOM      4  C9  <0> d   1      19.098   1.108  14.922  0.00  0.00     0.302 C 
ATOM      5  N8  <0> d   1      18.947   0.008  15.883  0.00  0.00     0.093 N 
ATOM      6  C28 <0> d   1      18.160  -1.090  15.304  0.00  0.00     0.302 C 
ATOM      7  C27 <0> d   1      18.862  -1.607  14.046  0.00  0.00     0.304 C 
BRANCH   5   8
ATOM      8  C7  <0> d   1      18.345   0.484  17.136  0.00  0.00     0.298 C 
BRANCH   8   9
ATOM      9  C6  <0> d   1      19.388   0.443  18.253  0.00  0.00     0.198 C 
BRANCH   9  10
ATOM     10  O5  <0> d   1      19.849   1.769  18.523  0.00  0.00    -0.379 OA
BRANCH  10  11
ATOM     11  C4  <0> d   1      18.829   2.767  18.443  0.00  0.00     0.280 C 
BRANCH  11  12
ATOM     12  C2  <0> d   1      19.186   3.766  17.372  0.00  0.00     0.197 C 
ATOM     13  O1  <0> d   1      18.372   4.605  17.027  0.00  0.00    -0.646 OA
ATOM     14  O3  <0> d   1      20.289   3.737  16.855  0.00  0.00    -0.646 OA
ENDBRANCH  11  12
ENDBRANCH  10  11
ENDBRANCH   9  10
ENDBRANCH   8   9
ENDBRANCH   5   8
ENDBRANCH   1   2
BRANCH   1  15
ATOM     15  C14 <0> d   1      19.309  -0.007  10.725  0.00  0.00    -0.021 A 
ATOM     16  C19 <0> d   1      19.913  -0.150   9.489  0.00  0.00     0.010 A 
ATOM     17  C18 <0> d   1      19.628   0.742   8.472  0.00  0.00     0.001 A 
ATOM     18  C17 <0> d   1      18.745   1.783   8.694  0.00  0.00     0.000 A 
ATOM     19  C16 <0> d   1      18.146   1.928   9.931  0.00  0.00     0.001 A 
ATOM     20  C15 <0> d   1      18.427   1.034  10.946  0.00  0.00     0.010 A 
ENDBRANCH   1  15
BRANCH   1  21
ATOM     21  C20 <0> d   1      19.048  -2.334  11.482  0.00  0.00    -0.021 A 
ATOM     22  C26 <0> d   1      19.891  -3.418  11.326  0.00  0.00     0.011 A 
ATOM     23  C25 <0> d   1      19.370  -4.660  11.012  0.00  0.00     0.024 A 
ATOM     24  C23 <0> d   1      18.007  -4.814  10.842  0.00  0.00     0.034 A 
ATOM     25  C22 <0> d   1      17.164  -3.727  10.991  0.00  0.00     0.024 A 
ATOM     26 Cl24 <0> d   1      17.352  -6.370  10.439  0.00  0.00    -0.084 Cl
ATOM     27  C21 <0> d   1      17.685  -2.487  11.311  0.00  0.00     0.011 A 
ENDBRANCH   1  21
TORSDOF 8
ENDMDL
MODEL 3
REMARK VINA RESULT:      -8.2      5.638      8.967
REMARK  8 active torsions:
REMARK  status: ('A' for Active; 'I' for Inactive)
REMARK    1  A    between atoms: C2_2  and  C4_4 
REMARK    2  A    between atoms: C4_4  and  O5_5 
REMARK    3  A    between atoms: O5_5  and  C6_6 
REMARK    4  A    between atoms: C6_6  and  C7_7 
REMARK    5  A    between atoms: C7_7  and  N8_8 
REMARK    6  A    between atoms: N11_11  and  C12_12 
REMARK    7  A    between atoms: C12_12  and  C14_13 
REMARK    8  A    between atoms: C12_12  and  C20_19 
ROOT
ATOM      1  C12 <0> d   1      19.294  -1.946  11.246  0.00  0.00     0.289 C 
ENDROOT
BRANCH   1   2
ATOM      2  N11 <0> d   1      18.907  -1.048  10.149  0.00  0.00     0.105 N 
ATOM      3  C10 <0> d   1      18.154  -1.773   9.116  0.00  0.00     0.304 C 
ATOM      4  C9  <0> d   1      17.703  -0.790   8.033  0.00  0.00     0.302 C 
ATOM      5  N8  <0> d   1      18.881  -0.127   7.456  0.00  0.00     0.093 N 
ATOM      6  C28 <0> d   1      19.633   0.599   8.489  0.00  0.00     0.302 C 
ATOM      7  C27 <0> d   1      20.083  -0.384   9.572  0.00  0.00     0.304 C 
BRANCH   5   8
ATOM      8  C7  <0> d   1      18.494   0.771   6.359  0.00  0.00     0.298 C 
BRANCH   8   9
ATOM      9  C6  <0> d   1      18.720   0.069   5.020  0.00  0.00     0.198 C 
BRANCH   9  10
ATOM     10  O5  <0> d   1      19.669  -0.986   5.189  0.00  0.00    -0.379 OA
BRANCH  10  11
ATOM     11  C4  <0> d   1      19.245  -2.241   4.652  0.00  0.00     0.280 C 
BRANCH  11  12
ATOM     12  C2  <0> d   1      19.230  -3.277   5.747  0.00  0.00     0.197 C 
ATOM     13  O1  <0> d   1      18.177  -3.789   6.086  0.00  0.00    -0.646 OA
ATOM     14  O3  <0> d   1      20.270  -3.606   6.290  0.00  0.00    -0.646 OA
ENDBRANCH  11  12
ENDBRANCH  10  11
ENDBRANCH   9  10
ENDBRANCH   8   9
ENDBRANCH   5   8
ENDBRANCH   1   2
BRANCH   1  15
ATOM     15  C14 <0> d   1      18.640  -3.290  11.049  0.00  0.00    -0.021 A 
ATOM     16  C19 <0> d   1      19.324  -4.302  10.402  0.00  0.00     0.010 A 
ATOM     17  C18 <0> d   1      18.727  -5.537  10.225  0.00  0.00     0.001 A 
ATOM     18  C17 <0> d   1      17.442  -5.755  10.687  0.00  0.00     0.000 A 
ATOM     19  C16 <0> d   1      16.757  -4.741  11.329  0.00  0.00     0.001 A 
ATOM     20  C15 <0> d   1      17.356  -3.508  11.509  0.00  0.00     0.010 A 
ENDBRANCH   1  15
BRANCH   1  21
ATOM     21  C20 <0> d   1      18.844  -1.357  12.558  0.00  0.00    -0.021 A 
ATOM     22  C26 <0> d   1      17.915  -0.333  12.574  0.00  0.00     0.011 A 
ATOM     23  C25 <0> d   1      17.497   0.204  13.777  0.00  0.00     0.024 A 
ATOM     24  C23 <0> d   1      18.018  -0.276  14.965  0.00  0.00     0.034 A 
ATOM     25  C22 <0> d   1      18.952  -1.297  14.949  0.00  0.00     0.024 A 
ATOM     26 Cl24 <0> d   1      17.501   0.402  16.477  0.00  0.00    -0.084 Cl
ATOM     27  C21 <0> d   1      19.364  -1.837  13.745  0.00  0.00     0.011 A 
ENDBRANCH   1  21
TORSDOF 8
ENDMDL
MODEL 4
REMARK VINA RESULT:      -7.9      2.171      4.322
REMARK  8 active torsions:
REMARK  status: ('A' for Active; 'I' for Inactive)
REMARK    1  A    between atoms: C2_2  and  C4_4 
REMARK    2  A    between atoms: C4_4  and  O5_5 
REMARK    3  A    between atoms: O5_5  and  C6_6 
REMARK    4  A    between atoms: C6_6  and  C7_7 
REMARK    5  A    between atoms: C7_7  and  N8_8 
REMARK    6  A    between atoms: N11_11  and  C12_12 
REMARK    7  A    between atoms: C12_12  and  C14_13 
REMARK    8  A    between atoms: C12_12  and  C20_19 
ROOT
ATOM      1  C12 <0> d   1      17.800  -0.545  11.034  0.00  0.00     0.289 C 
ENDROOT
BRANCH   1   2
ATOM      2  N11 <0> d   1      18.436   0.349  12.010  0.00  0.00     0.105 N 
ATOM      3  C10 <0> d   1      18.838  -0.388  13.216  0.00  0.00     0.304 C 
ATOM      4  C9  <0> d   1      19.566   0.560  14.172  0.00  0.00     0.302 C 
ATOM      5  N8  <0> d   1      18.680   1.681  14.514  0.00  0.00     0.093 N 
ATOM      6  C28 <0> d   1      18.280   2.419  13.308  0.00  0.00     0.302 C 
ATOM      7  C27 <0> d   1      17.552   1.471  12.353  0.00  0.00     0.304 C 
BRANCH   5   8
ATOM      8  C7  <0> d   1      19.318   2.575  15.490  0.00  0.00     0.298 C 
BRANCH   8   9
ATOM      9  C6  <0> d   1      18.720   2.328  16.876  0.00  0.00     0.198 C 
BRANCH   9  10
ATOM     10  O5  <0> d   1      19.584   1.470  17.622  0.00  0.00    -0.379 OA
BRANCH  10  11
ATOM     11  C4  <0> d   1      18.903   0.441  18.343  0.00  0.00     0.280 C 
BRANCH  11  12
ATOM     12  C2  <0> d   1      18.534  -0.675  17.399  0.00  0.00     0.197 C 
ATOM     13  O1  <0> d   1      19.392  -1.448  17.007  0.00  0.00    -0.646 OA
ATOM     14  O3  <0> d   1      17.380  -0.808  17.033  0.00  0.00    -0.646 OA
ENDBRANCH  11  12
ENDBRANCH  10  11
ENDBRANCH   9  10
ENDBRANCH   8   9
ENDBRANCH   5   8
ENDBRANCH   1   2
BRANCH   1  15
ATOM     15  C14 <0> d   1      18.284  -1.955  11.254  0.00  0.00    -0.021 A 
ATOM     16  C19 <0> d   1      17.381  -2.957  11.557  0.00  0.00     0.010 A 
ATOM     17  C18 <0> d   1      17.825  -4.252  11.754  0.00  0.00     0.001 A 
ATOM     18  C17 <0> d   1      19.173  -4.542  11.658  0.00  0.00     0.000 A 
ATOM     19  C16 <0> d   1      20.076  -3.539  11.361  0.00  0.00     0.001 A 
ATOM     20  C15 <0> d   1      19.632  -2.246  11.159  0.00  0.00     0.010 A 
ENDBRANCH   1  15
BRANCH   1  21
ATOM     21  C20 <0> d   1      18.159  -0.103   9.639  0.00  0.00    -0.021 A 
ATOM     22  C26 <0> d   1      19.118   0.875   9.451  0.00  0.00     0.011 A 
ATOM     23  C25 <0> d   1      19.454   1.277   8.171  0.00  0.00     0.024 A 
ATOM     24  C23 <0> d   1      18.822   0.709   7.080  0.00  0.00     0.034 A 
ATOM     25  C22 <0> d   1      17.858  -0.266   7.270  0.00  0.00     0.024 A 
ATOM     26 Cl24 <0> d   1      19.235   1.218   5.474  0.00  0.00    -0.084 Cl
ATOM     27  C21 <0> d   1      17.527  -0.671   8.549  0.00  0.00     0.011 A 
ENDBRANCH   1  21
TORSDOF 8
ENDMDL
MODEL 5
REMARK VINA RESULT:      -7.8      2.101      4.329
REMARK  8 active torsions:
REMARK  status: ('A' for Active; 'I' for Inactive)
REMARK    1  A    between atoms: C2_2  and  C4_4 
REMARK    2  A    between atoms: C4_4  and  O5_5 
REMARK    3  A    between atoms: O5_5  and  C6_6 
REMARK    4  A    between atoms: C6_6  and  C7_7 
REMARK    5  A    between atoms: C7_7  and  N8_8 
REMARK    6  A    between atoms: N11_11  and  C12_12 
REMARK    7  A    between atoms: C12_12  and  C14_13 
REMARK    8  A    between atoms: C12_12  and  C20_19 
ROOT
ATOM      1  C12 <0> d   1      17.605  -0.436  10.940  0.00  0.00     0.289 C 
ENDROOT
BRANCH   1   2
ATOM      2  N11 <0> d   1      18.135   0.511  11.930  0.00  0.00     0.105 N 
ATOM      3  C10 <0> d   1      17.948   0.005  13.297  0.00  0.00     0.304 C 
ATOM      4  C9  <0> d   1      18.583   0.981  14.290  0.00  0.00     0.302 C 
ATOM      5  N8  <0> d   1      17.967   2.306  14.133  0.00  0.00     0.093 N 
ATOM      6  C28 <0> d   1      18.155   2.812  12.766  0.00  0.00     0.302 C 
ATOM      7  C27 <0> d   1      17.521   1.836  11.773  0.00  0.00     0.304 C 
BRANCH   5   8
ATOM      8  C7  <0> d   1      18.498   3.253  15.123  0.00  0.00     0.298 C 
BRANCH   8   9
ATOM      9  C6  <0> d   1      19.556   2.557  15.980  0.00  0.00     0.198 C 
BRANCH   9  10
ATOM     10  O5  <0> d   1      19.653   3.214  17.245  0.00  0.00    -0.379 OA
BRANCH  10  11
ATOM     11  C4  <0> d   1      18.750   2.713  18.233  0.00  0.00     0.280 C 
BRANCH  11  12
ATOM     12  C2  <0> d   1      18.867   1.211  18.305  0.00  0.00     0.197 C 
ATOM     13  O1  <0> d   1      17.877   0.516  18.160  0.00  0.00    -0.646 OA
ATOM     14  O3  <0> d   1      19.953   0.694  18.503  0.00  0.00    -0.646 OA
ENDBRANCH  11  12
ENDBRANCH  10  11
ENDBRANCH   9  10
ENDBRANCH   8   9
ENDBRANCH   5   8
ENDBRANCH   1   2
BRANCH   1  15
ATOM     15  C14 <0> d   1      18.146  -1.814  11.224  0.00  0.00    -0.021 A 
ATOM     16  C19 <0> d   1      19.511  -2.025  11.271  0.00  0.00     0.010 A 
ATOM     17  C18 <0> d   1      20.008  -3.287  11.535  0.00  0.00     0.001 A 
ATOM     18  C17 <0> d   1      19.138  -4.342  11.744  0.00  0.00     0.000 A 
ATOM     19  C16 <0> d   1      17.773  -4.132  11.692  0.00  0.00     0.001 A 
ATOM     20  C15 <0> d   1      17.277  -2.868  11.432  0.00  0.00     0.010 A 
ENDBRANCH   1  15
BRANCH   1  21
ATOM     21  C20 <0> d   1      18.025  -0.007   9.559  0.00  0.00    -0.021 A 
ATOM     22  C26 <0> d   1      19.064   0.892   9.401  0.00  0.00     0.011 A 
ATOM     23  C25 <0> d   1      19.455   1.282   8.133  0.00  0.00     0.024 A 
ATOM     24  C23 <0> d   1      18.798   0.781   7.024  0.00  0.00     0.034 A 
ATOM     25  C22 <0> d   1      17.754  -0.113   7.182  0.00  0.00     0.024 A 
ATOM     26 Cl24 <0> d   1      19.282   1.276   5.432  0.00  0.00    -0.084 Cl
ATOM     27  C21 <0> d   1      17.368  -0.506   8.450  0.00  0.00     0.011 A 
ENDBRANCH   1  21
TORSDOF 8
ENDMDL
MODEL 6
REMARK VINA RESULT:      -7.8      2.383      4.618
REMARK  8 active torsions:
REMARK  status: ('A' for Active; 'I' for Inactive)
REMARK    1  A    between atoms: C2_2  and  C4_4 
REMARK    2  A    between atoms: C4_4  and  O5_5 
REMARK    3  A    between atoms: O5_5  and  C6_6 
REMARK    4  A    between atoms: C6_6  and  C7_7 
REMARK    5  A    between atoms: C7_7  and  N8_8 
REMARK    6  A    between atoms: N11_11  and  C12_12 
REMARK    7  A    between atoms: C12_12  and  C14_13 
REMARK    8  A    between atoms: C12_12  and  C20_19 
ROOT
ATOM      1  C12 <0> d   1      17.705   0.749  10.010  0.00  0.00     0.289 C 
ENDROOT
BRANCH   1   2
ATOM      2  N11 <0> d   1      18.434   1.930  10.492  0.00  0.00     0.105 N 
ATOM      3  C10 <0> d   1      19.216   1.611  11.696  0.00  0.00     0.304 C 
ATOM      4  C9  <0> d   1      20.021   2.842  12.119  0.00  0.00     0.302 C 
ATOM      5  N8  <0> d   1      19.103   3.962  12.371  0.00  0.00     0.093 N 
ATOM      6  C28 <0> d   1      18.323   4.281  11.166  0.00  0.00     0.302 C 
ATOM      7  C27 <0> d   1      17.518   3.050  10.744  0.00  0.00     0.304 C 
BRANCH   5   8
ATOM      8  C7  <0> d   1      19.833   5.142  12.852  0.00  0.00     0.298 C 
BRANCH   8   9
ATOM      9  C6  <0> d   1      19.429   5.439  14.297  0.00  0.00     0.198 C 
BRANCH   9  10
ATOM     10  O5  <0> d   1      18.269   4.677  14.634  0.00  0.00    -0.379 OA
BRANCH  10  11
ATOM     11  C4  <0> d   1      18.229   4.249  15.997  0.00  0.00     0.280 C 
BRANCH  11  12
ATOM     12  C2  <0> d   1      19.275   3.186  16.221  0.00  0.00     0.197 C 
ATOM     13  O1  <0> d   1      19.278   2.181  15.533  0.00  0.00    -0.646 OA
ATOM     14  O3  <0> d   1      20.119   3.336  17.088  0.00  0.00    -0.646 OA
ENDBRANCH  11  12
ENDBRANCH  10  11
ENDBRANCH   9  10
ENDBRANCH   8   9
ENDBRANCH   5   8
ENDBRANCH   1   2
BRANCH   1  15
ATOM     15  C14 <0> d   1      18.192  -0.475  10.741  0.00  0.00    -0.021 A 
ATOM     16  C19 <0> d   1      19.452  -0.981  10.479  0.00  0.00     0.010 A 
ATOM     17  C18 <0> d   1      19.901  -2.102  11.153  0.00  0.00     0.001 A 
ATOM     18  C17 <0> d   1      19.086  -2.722  12.082  0.00  0.00     0.000 A 
ATOM     19  C16 <0> d   1      17.826  -2.219  12.340  0.00  0.00     0.001 A 
ATOM     20  C15 <0> d   1      17.378  -1.096  11.669  0.00  0.00     0.010 A 
ENDBRANCH   1  15
BRANCH   1  21
ATOM     21  C20 <0> d   1      17.944   0.580   8.533  0.00  0.00    -0.021 A 
ATOM     22  C26 <0> d   1      17.198  -0.336   7.813  0.00  0.00     0.011 A 
ATOM     23  C25 <0> d   1      17.412  -0.487   6.455  0.00  0.00     0.024 A 
ATOM     24  C23 <0> d   1      18.380   0.269   5.820  0.00  0.00     0.034 A 
ATOM     25  C22 <0> d   1      19.130   1.180   6.541  0.00  0.00     0.024 A 
ATOM     26 Cl24 <0> d   1      18.656   0.073   4.118  0.00  0.00    -0.084 Cl
ATOM     27  C21 <0> d   1      18.912   1.335   7.897  0.00  0.00     0.011 A 
ENDBRANCH   1  21
TORSDOF 8
ENDMDL
MODEL 7
REMARK VINA RESULT:      -7.8      5.412      7.925
REMARK  8 active torsions:
REMARK  status: ('A' for Active; 'I' for Inactive)
REMARK    1  A    between atoms: C2_2  and  C4_4 
REMARK    2  A    between atoms: C4_4  and  O5_5 
REMARK    3  A    between atoms: O5_5  and  C6_6 
REMARK    4  A    between atoms: C6_6  and  C7_7 
REMARK    5  A    between atoms: C7_7  and  N8_8 
REMARK    6  A    between atoms: N11_11  and  C12_12 
REMARK    7  A    between atoms: C12_12  and  C14_13 
REMARK    8  A    between atoms: C12_12  and  C20_19 
ROOT
ATOM      1  C12 <0> d   1      17.708  -0.063  12.144  0.00  0.00     0.289 C 
ENDROOT
BRANCH   1   2
ATOM      2  N11 <0> d   1      18.364  -1.092  11.327  0.00  0.00     0.105 N 
ATOM      3  C10 <0> d   1      18.462  -0.667   9.923  0.00  0.00     0.304 C 
ATOM      4  C9  <0> d   1      19.219  -1.729   9.123  0.00  0.00     0.302 C 
ATOM      5  N8  <0> d   1      18.518  -3.016   9.233  0.00  0.00     0.093 N 
ATOM      6  C28 <0> d   1      18.422  -3.441  10.637  0.00  0.00     0.302 C 
ATOM      7  C27 <0> d   1      17.664  -2.379  11.437  0.00  0.00     0.304 C 
BRANCH   5   8
ATOM      8  C7  <0> d   1      19.175  -4.044   8.416  0.00  0.00     0.298 C 
BRANCH   8   9
ATOM      9  C6  <0> d   1      18.612  -4.004   6.994  0.00  0.00     0.198 C 
BRANCH   9  10
ATOM     10  O5  <0> d   1      19.599  -3.476   6.106  0.00  0.00    -0.379 OA
BRANCH  10  11
ATOM     11  C4  <0> d   1      19.057  -2.851   4.940  0.00  0.00     0.280 C 
BRANCH  11  12
ATOM     12  C2  <0> d   1      19.118  -1.353   5.099  0.00  0.00     0.197 C 
ATOM     13  O1  <0> d   1      18.252  -0.772   5.730  0.00  0.00    -0.646 OA
ATOM     14  O3  <0> d   1      20.036  -0.725   4.600  0.00  0.00    -0.646 OA
ENDBRANCH  11  12
ENDBRANCH  10  11
ENDBRANCH   9  10
ENDBRANCH   8   9
ENDBRANCH   5   8
ENDBRANCH   1   2
BRANCH   1  15
ATOM     15  C14 <0> d   1      18.150   1.302  11.683  0.00  0.00    -0.021 A 
ATOM     16  C19 <0> d   1      19.451   1.716  11.897  0.00  0.00     0.010 A 
ATOM     17  C18 <0> d   1      19.858   2.967  11.470  0.00  0.00     0.001 A 
ATOM     18  C17 <0> d   1      18.960   3.807  10.837  0.00  0.00     0.000 A 
ATOM     19  C16 <0> d   1      17.658   3.394  10.628  0.00  0.00     0.001 A 
ATOM     20  C15 <0> d   1      17.253   2.142  11.051  0.00  0.00     0.010 A 
ENDBRANCH   1  15
BRANCH   1  21
ATOM     21  C20 <0> d   1      18.089  -0.252  13.589  0.00  0.00    -0.021 A 
ATOM     22  C26 <0> d   1      17.450   0.481  14.573  0.00  0.00     0.011 A 
ATOM     23  C25 <0> d   1      17.794   0.304  15.900  0.00  0.00     0.024 A 
ATOM     24  C23 <0> d   1      18.785  -0.598  16.243  0.00  0.00     0.034 A 
ATOM     25  C22 <0> d   1      19.428  -1.326  15.258  0.00  0.00     0.024 A 
ATOM     26 Cl24 <0> d   1      19.224  -0.815  17.908  0.00  0.00    -0.084 Cl
ATOM     27  C21 <0> d   1      19.079  -1.153  13.932  0.00  0.00     0.011 A 
ENDBRANCH   1  21
TORSDOF 8
ENDMDL
MODEL 8
REMARK VINA RESULT:      -7.6      5.048      7.381
REMARK  8 active torsions:
REMARK  status: ('A' for Active; 'I' for Inactive)
REMARK    1  A    between atoms: C2_2  and  C4_4 
REMARK    2  A    between atoms: C4_4  and  O5_5 
REMARK    3  A    between atoms: O5_5  and  C6_6 
REMARK    4  A    between atoms: C6_6  and  C7_7 
REMARK    5  A    between atoms: C7_7  and  N8_8 
REMARK    6  A    between atoms: N11_11  and  C12_12 
REMARK    7  A    between atoms: C12_12  and  C14_13 
REMARK    8  A    between atoms: C12_12  and  C20_19 
ROOT
ATOM      1  C12 <0> d   1      19.366  -0.380  12.484  0.00  0.00     0.289 C 
ENDROOT
BRANCH   1   2
ATOM      2  N11 <0> d   1      18.783  -1.451  11.664  0.00  0.00     0.105 N 
ATOM      3  C10 <0> d   1      18.644  -2.692  12.440  0.00  0.00     0.304 C 
ATOM      4  C9  <0> d   1      17.963  -3.756  11.576  0.00  0.00     0.302 C 
ATOM      5  N8  <0> d   1      18.760  -3.983  10.363  0.00  0.00     0.093 N 
ATOM      6  C28 <0> d   1      18.898  -2.742   9.587  0.00  0.00     0.302 C 
ATOM      7  C27 <0> d   1      19.579  -1.678  10.451  0.00  0.00     0.304 C 
BRANCH   5   8
ATOM      8  C7  <0> d   1      18.177  -5.054   9.544  0.00  0.00     0.298 C 
BRANCH   8   9
ATOM      9  C6  <0> d   1      17.588  -4.456   8.266  0.00  0.00     0.198 C 
BRANCH   9  10
ATOM     10  O5  <0> d   1      18.177  -5.089   7.128  0.00  0.00    -0.379 OA
BRANCH  10  11
ATOM     11  C4  <0> d   1      18.236  -4.258   5.967  0.00  0.00     0.280 C 
BRANCH  11  12
ATOM     12  C2  <0> d   1      19.533  -3.489   5.964  0.00  0.00     0.197 C 
ATOM     13  O1  <0> d   1      20.507  -3.936   6.545  0.00  0.00    -0.646 OA
ATOM     14  O3  <0> d   1      19.608  -2.424   5.377  0.00  0.00    -0.646 OA
ENDBRANCH  11  12
ENDBRANCH  10  11
ENDBRANCH   9  10
ENDBRANCH   8   9
ENDBRANCH   5   8
ENDBRANCH   1   2
BRANCH   1  15
ATOM     15  C14 <0> d   1      18.845  -0.487  13.894  0.00  0.00    -0.021 A 
ATOM     16  C19 <0> d   1      17.688   0.177  14.257  0.00  0.00     0.010 A 
ATOM     17  C18 <0> d   1      17.208   0.075  15.549  0.00  0.00     0.001 A 
ATOM     18  C17 <0> d   1      17.890  -0.684  16.482  0.00  0.00     0.000 A 
ATOM     19  C16 <0> d   1      19.049  -1.344  16.120  0.00  0.00     0.001 A 
ATOM     20  C15 <0> d   1      19.527  -1.245  14.827  0.00  0.00     0.010 A 
ENDBRANCH   1  15
BRANCH   1  21
ATOM     21  C20 <0> d   1      18.982   0.958  11.908  0.00  0.00    -0.021 A 
ATOM     22  C26 <0> d   1      19.800   2.055  12.106  0.00  0.00     0.011 A 
ATOM     23  C25 <0> d   1      19.452   3.283  11.572  0.00  0.00     0.024 A 
ATOM     24  C23 <0> d   1      18.280   3.415  10.850  0.00  0.00     0.034 A 
ATOM     25  C22 <0> d   1      17.459   2.318  10.658  0.00  0.00     0.024 A 
ATOM     26 Cl24 <0> d   1      17.838   4.956  10.187  0.00  0.00    -0.084 Cl
ATOM     27  C21 <0> d   1      17.810   1.091  11.187  0.00  0.00     0.011 A 
ENDBRANCH   1  21
TORSDOF 8
ENDMDL
MODEL 9
REMARK VINA RESULT:      -7.5      2.675      4.493
REMARK  8 active torsions:
REMARK  status: ('A' for Active; 'I' for Inactive)
REMARK    1  A    between atoms: C2_2  and  C4_4 
REMARK    2  A    between atoms: C4_4  and  O5_5 
REMARK    3  A    between atoms: O5_5  and  C6_6 
REMARK    4  A    between atoms: C6_6  and  C7_7 
REMARK    5  A    between atoms: C7_7  and  N8_8 
REMARK    6  A    between atoms: N11_11  and  C12_12 
REMARK    7  A    between atoms: C12_12  and  C14_13 
REMARK    8  A    between atoms: C12_12  and  C20_19 
ROOT
ATOM      1  C12 <0> d   1      19.717  -0.305  10.955  0.00  0.00     0.289 C 
ENDROOT
BRANCH   1   2
ATOM      2  N11 <0> d   1      19.058   0.611  11.896  0.00  0.00     0.105 N 
ATOM      3  C10 <0> d   1      19.625   1.964  11.799  0.00  0.00     0.304 C 
ATOM      4  C9  <0> d   1      18.861   2.902  12.736  0.00  0.00     0.302 C 
ATOM      5  N8  <0> d   1      18.949   2.395  14.112  0.00  0.00     0.093 N 
ATOM      6  C28 <0> d   1      18.381   1.043  14.209  0.00  0.00     0.302 C 
ATOM      7  C27 <0> d   1      19.145   0.104  13.272  0.00  0.00     0.304 C 
BRANCH   5   8
ATOM      8  C7  <0> d   1      18.290   3.311  15.052  0.00  0.00     0.298 C 
BRANCH   8   9
ATOM      9  C6  <0> d   1      19.345   3.997  15.921  0.00  0.00     0.198 C 
BRANCH   9  10
ATOM     10  O5  <0> d   1      19.884   3.055  16.850  0.00  0.00    -0.379 OA
BRANCH  10  11
ATOM     11  C4  <0> d   1      18.993   2.708  17.912  0.00  0.00     0.280 C 
BRANCH  11  12
ATOM     12  C2  <0> d   1      19.017   1.216  18.122  0.00  0.00     0.197 C 
ATOM     13  O1  <0> d   1      20.002   0.686  18.608  0.00  0.00    -0.646 OA
ATOM     14  O3  <0> d   1      18.052   0.540  17.811  0.00  0.00    -0.646 OA
ENDBRANCH  11  12
ENDBRANCH  10  11
ENDBRANCH   9  10
ENDBRANCH   8   9
ENDBRANCH   5   8
ENDBRANCH   1   2
BRANCH   1  15
ATOM     15  C14 <0> d   1      19.411   0.122   9.542  0.00  0.00    -0.021 A 
ATOM     16  C19 <0> d   1      19.328   1.466   9.228  0.00  0.00     0.010 A 
ATOM     17  C18 <0> d   1      19.053   1.858   7.931  0.00  0.00     0.001 A 
ATOM     18  C17 <0> d   1      18.850   0.905   6.950  0.00  0.00     0.000 A 
ATOM     19  C16 <0> d   1      18.929  -0.438   7.265  0.00  0.00     0.001 A 
ATOM     20  C15 <0> d   1      19.208  -0.830   8.561  0.00  0.00     0.010 A 
ENDBRANCH   1  15
BRANCH   1  21
ATOM     21  C20 <0> d   1      19.207  -1.705  11.177  0.00  0.00    -0.021 A 
ATOM     22  C26 <0> d   1      17.848  -1.936  11.287  0.00  0.00     0.011 A 
ATOM     23  C25 <0> d   1      17.379  -3.221  11.485  0.00  0.00     0.024 A 
ATOM     24  C23 <0> d   1      18.270  -4.274  11.584  0.00  0.00     0.034 A 
ATOM     25  C22 <0> d   1      19.630  -4.042  11.480  0.00  0.00     0.024 A 
ATOM     26 Cl24 <0> d   1      17.683  -5.887  11.840  0.00  0.00    -0.084 Cl
ATOM     27  C21 <0> d   1      20.098  -2.757  11.276  0.00  0.00     0.011 A 
ENDBRANCH   1  21
TORSDOF 8
ENDMDL
