MODEL 1
REMARK VINA RESULT:      -6.8      0.000      0.000
REMARK  11 active torsions:
REMARK  status: ('A' for Active; 'I' for Inactive)
REMARK    1  A    between atoms: O2_2  and  C3_3 
REMARK    2  A    between atoms: C3_3  and  C4_4 
REMARK    3  A    between atoms: C4_4  and  C5_5 
REMARK    4  A    between atoms: C5_5  and  C6_6 
REMARK    5  A    between atoms: C6_6  and  C7_7 
REMARK    6  A    between atoms: C7_7  and  C16_16 
REMARK    7  A    between atoms: N8_8  and  O9_9 
REMARK    8  A    between atoms: O9_9  and  C10_10 
REMARK    9  A    between atoms: C10_10  and  C11_11 
REMARK   10  A    between atoms: C11_11  and  N12_12 
REMARK   11  A    between atoms: C19_19  and  C20_20 
ROOT
ATOM      1  C7  ZIN A   1      18.455   1.984   9.871  0.00  0.00     0.072 C 
ATOM      2  N8  ZIN A   1      18.846   1.357  10.932  0.00  0.00    -0.138 NA
ENDROOT
BRANCH   1   3
ATOM      3  C6  ZIN A   1      18.086   3.443   9.952  0.00  0.00     0.062 C 
BRANCH   3   4
ATOM      4  C5  ZIN A   1      17.483   3.742  11.327  0.00  0.00     0.008 C 
BRANCH   4   5
ATOM      5  C4  ZIN A   1      16.890   5.152  11.329  0.00  0.00     0.027 C 
BRANCH   5   6
ATOM      6  C3  ZIN A   1      16.333   5.469  12.718  0.00  0.00     0.167 C 
BRANCH   6   7
ATOM      7  O2  ZIN A   1      17.412   5.773  13.605  0.00  0.00    -0.396 OA
ATOM      8  C1  ZIN A   1      17.374   5.047  14.835  0.00  0.00     0.201 C 
ENDBRANCH   6   7
ENDBRANCH   5   6
ENDBRANCH   4   5
ENDBRANCH   3   4
ENDBRANCH   1   3
BRANCH   1   9
ATOM      9  C16 ZIN A   1      18.370   1.272   8.581  0.00  0.00    -0.009 A 
ATOM     10  C25 ZIN A   1      17.473   0.214   8.422  0.00  0.00     0.014 A 
ATOM     11  C24 ZIN A   1      17.394  -0.444   7.212  0.00  0.00     0.017 A 
ATOM     12  C19 ZIN A   1      18.209  -0.064   6.160  0.00  0.00     0.048 A 
ATOM     13  C18 ZIN A   1      19.105   0.979   6.313  0.00  0.00     0.017 A 
ATOM     14  C17 ZIN A   1      19.189   1.649   7.516  0.00  0.00     0.014 A 
BRANCH  12  15
ATOM     15  C20 ZIN A   1      18.122  -0.791   4.843  0.00  0.00     0.417 C 
ATOM     16  F21 ZIN A   1      18.393   0.101   3.800  0.00  0.00    -0.166 F 
ATOM     17  F22 ZIN A   1      19.057  -1.832   4.822  0.00  0.00    -0.166 F 
ATOM     18  F23 ZIN A   1      16.835  -1.317   4.685  0.00  0.00    -0.166 F 
ENDBRANCH  12  15
ENDBRANCH   1   9
BRANCH   2  19
ATOM     19  O9  ZIN A   1      19.317   0.025  10.833  0.00  0.00    -0.255 OA
BRANCH  19  20
ATOM     20  C10 ZIN A   1      19.487  -0.627  12.094  0.00  0.00     0.231 C 
BRANCH  20  21
ATOM     21  C11 ZIN A   1      20.406   0.214  12.982  0.00  0.00     0.258 C 
BRANCH  21  22
ATOM     22  N12 ZIN A   1      21.570   0.656  12.204  0.00  0.00    -0.077 N 
ATOM     23  H13 ZIN A   1      22.204  -0.119  12.079  0.00  0.00     0.274 HD
ATOM     24  H14 ZIN A   1      21.265   0.991  11.302  0.00  0.00     0.274 HD
ATOM     25  H15 ZIN A   1      22.041   1.399  12.698  0.00  0.00     0.274 HD
ENDBRANCH  21  22
ENDBRANCH  20  21
ENDBRANCH  19  20
ENDBRANCH   2  19
TORSDOF 11
ENDMDL
MODEL 2
REMARK VINA RESULT:      -6.7      1.964      4.684
REMARK  11 active torsions:
REMARK  status: ('A' for Active; 'I' for Inactive)
REMARK    1  A    between atoms: O2_2  and  C3_3 
REMARK    2  A    between atoms: C3_3  and  C4_4 
REMARK    3  A    between atoms: C4_4  and  C5_5 
REMARK    4  A    between atoms: C5_5  and  C6_6 
REMARK    5  A    between atoms: C6_6  and  C7_7 
REMARK    6  A    between atoms: C7_7  and  C16_16 
REMARK    7  A    between atoms: N8_8  and  O9_9 
REMARK    8  A    between atoms: O9_9  and  C10_10 
REMARK    9  A    between atoms: C10_10  and  C11_11 
REMARK   10  A    between atoms: C11_11  and  N12_12 
REMARK   11  A    between atoms: C19_19  and  C20_20 
ROOT
ATOM      1  C7  ZIN A   1      17.674   1.231  11.508  0.00  0.00     0.072 C 
ATOM      2  N8  ZIN A   1      17.330   2.420  11.881  0.00  0.00    -0.138 NA
ENDROOT
BRANCH   1   3
ATOM      3  C6  ZIN A   1      17.758   0.118  12.521  0.00  0.00     0.062 C 
BRANCH   3   4
ATOM      4  C5  ZIN A   1      19.148  -0.518  12.467  0.00  0.00     0.008 C 
BRANCH   4   5
ATOM      5  C4  ZIN A   1      19.042  -2.007  12.803  0.00  0.00     0.027 C 
BRANCH   5   6
ATOM      6  C3  ZIN A   1      19.693  -2.829  11.688  0.00  0.00     0.167 C 
BRANCH   6   7
ATOM      7  O2  ZIN A   1      18.856  -2.807  10.530  0.00  0.00    -0.396 OA
ATOM      8  C1  ZIN A   1      17.570  -3.397  10.731  0.00  0.00     0.201 C 
ENDBRANCH   6   7
ENDBRANCH   5   6
ENDBRANCH   4   5
ENDBRANCH   3   4
ENDBRANCH   1   3
BRANCH   1   9
ATOM      9  C16 ZIN A   1      17.986   0.964  10.090  0.00  0.00    -0.009 A 
ATOM     10  C25 ZIN A   1      17.186   0.093   9.348  0.00  0.00     0.014 A 
ATOM     11  C24 ZIN A   1      17.479  -0.148   8.022  0.00  0.00     0.017 A 
ATOM     12  C19 ZIN A   1      18.570   0.463   7.429  0.00  0.00     0.048 A 
ATOM     13  C18 ZIN A   1      19.371   1.323   8.160  0.00  0.00     0.017 A 
ATOM     14  C17 ZIN A   1      19.085   1.576   9.486  0.00  0.00     0.014 A 
BRANCH  12  15
ATOM     15  C20 ZIN A   1      18.888   0.191   5.982  0.00  0.00     0.417 C 
ATOM     16  F21 ZIN A   1      17.697   0.077   5.256  0.00  0.00    -0.166 F 
ATOM     17  F22 ZIN A   1      19.650   1.245   5.466  0.00  0.00    -0.166 F 
ATOM     18  F23 ZIN A   1      19.612  -1.002   5.879  0.00  0.00    -0.166 F 
ENDBRANCH  12  15
ENDBRANCH   1   9
BRANCH   2  19
ATOM     19  O9  ZIN A   1      17.124   3.434  10.914  0.00  0.00    -0.255 OA
BRANCH  19  20
ATOM     20  C10 ZIN A   1      17.864   4.631  11.160  0.00  0.00     0.231 C 
BRANCH  20  21
ATOM     21  C11 ZIN A   1      18.620   4.501  12.484  0.00  0.00     0.258 C 
BRANCH  21  22
ATOM     22  N12 ZIN A   1      19.980   4.008  12.225  0.00  0.00    -0.077 N 
ATOM     23  H13 ZIN A   1      20.518   4.731  11.771  0.00  0.00     0.274 HD
ATOM     24  H14 ZIN A   1      20.420   3.759  13.098  0.00  0.00     0.274 HD
ATOM     25  H15 ZIN A   1      19.935   3.197  11.627  0.00  0.00     0.274 HD
ENDBRANCH  21  22
ENDBRANCH  20  21
ENDBRANCH  19  20
ENDBRANCH   2  19
TORSDOF 11
ENDMDL
MODEL 3
REMARK VINA RESULT:      -6.7      1.079      1.526
REMARK  11 active torsions:
REMARK  status: ('A' for Active; 'I' for Inactive)
REMARK    1  A    between atoms: O2_2  and  C3_3 
REMARK    2  A    between atoms: C3_3  and  C4_4 
REMARK    3  A    between atoms: C4_4  and  C5_5 
REMARK    4  A    between atoms: C5_5  and  C6_6 
REMARK    5  A    between atoms: C6_6  and  C7_7 
REMARK    6  A    between atoms: C7_7  and  C16_16 
REMARK    7  A    between atoms: N8_8  and  O9_9 
REMARK    8  A    between atoms: O9_9  and  C10_10 
REMARK    9  A    between atoms: C10_10  and  C11_11 
REMARK   10  A    between atoms: C11_11  and  N12_12 
REMARK   11  A    between atoms: C19_19  and  C20_20 
ROOT
ATOM      1  C7  ZIN A   1      17.960   1.597  10.437  0.00  0.00     0.072 C 
ATOM      2  N8  ZIN A   1      18.103   0.807  11.451  0.00  0.00    -0.138 NA
ENDROOT
BRANCH   1   3
ATOM      3  C6  ZIN A   1      17.599   3.044  10.656  0.00  0.00     0.062 C 
BRANCH   3   4
ATOM      4  C5  ZIN A   1      18.868   3.849  10.943  0.00  0.00     0.008 C 
BRANCH   4   5
ATOM      5  C4  ZIN A   1      18.943   4.168  12.437  0.00  0.00     0.027 C 
BRANCH   5   6
ATOM      6  C3  ZIN A   1      17.532   4.407  12.979  0.00  0.00     0.167 C 
BRANCH   6   7
ATOM      7  O2  ZIN A   1      17.478   4.018  14.353  0.00  0.00    -0.396 OA
ATOM      8  C1  ZIN A   1      18.333   2.921  14.681  0.00  0.00     0.201 C 
ENDBRANCH   6   7
ENDBRANCH   5   6
ENDBRANCH   4   5
ENDBRANCH   3   4
ENDBRANCH   1   3
BRANCH   1   9
ATOM      9  C16 ZIN A   1      18.149   1.082   9.067  0.00  0.00    -0.009 A 
ATOM     10  C25 ZIN A   1      19.145   1.617   8.248  0.00  0.00     0.014 A 
ATOM     11  C24 ZIN A   1      19.320   1.126   6.970  0.00  0.00     0.017 A 
ATOM     12  C19 ZIN A   1      18.504   0.114   6.496  0.00  0.00     0.048 A 
ATOM     13  C18 ZIN A   1      17.510  -0.416   7.300  0.00  0.00     0.017 A 
ATOM     14  C17 ZIN A   1      17.329   0.061   8.582  0.00  0.00     0.014 A 
BRANCH  12  15
ATOM     15  C20 ZIN A   1      18.697  -0.412   5.098  0.00  0.00     0.417 C 
ATOM     16  F21 ZIN A   1      19.264   0.587   4.298  0.00  0.00    -0.166 F 
ATOM     17  F22 ZIN A   1      19.548  -1.522   5.131  0.00  0.00    -0.166 F 
ATOM     18  F23 ZIN A   1      17.459  -0.789   4.566  0.00  0.00    -0.166 F 
ENDBRANCH  12  15
ENDBRANCH   1   9
BRANCH   2  19
ATOM     19  O9  ZIN A   1      18.568  -0.516  11.257  0.00  0.00    -0.255 OA
BRANCH  19  20
ATOM     20  C10 ZIN A   1      19.661  -0.878  12.103  0.00  0.00     0.231 C 
BRANCH  20  21
ATOM     21  C11 ZIN A   1      20.246   0.380  12.747  0.00  0.00     0.258 C 
BRANCH  21  22
ATOM     22  N12 ZIN A   1      21.544   0.687  12.132  0.00  0.00    -0.077 N 
ATOM     23  H13 ZIN A   1      21.439   0.733  11.130  0.00  0.00     0.274 HD
ATOM     24  H14 ZIN A   1      21.879   1.575  12.477  0.00  0.00     0.274 HD
ATOM     25  H15 ZIN A   1      22.207  -0.036  12.368  0.00  0.00     0.274 HD
ENDBRANCH  21  22
ENDBRANCH  20  21
ENDBRANCH  19  20
ENDBRANCH   2  19
TORSDOF 11
ENDMDL
MODEL 4
REMARK VINA RESULT:      -6.6      5.362      7.106
REMARK  11 active torsions:
REMARK  status: ('A' for Active; 'I' for Inactive)
REMARK    1  A    between atoms: O2_2  and  C3_3 
REMARK    2  A    between atoms: C3_3  and  C4_4 
REMARK    3  A    between atoms: C4_4  and  C5_5 
REMARK    4  A    between atoms: C5_5  and  C6_6 
REMARK    5  A    between atoms: C6_6  and  C7_7 
REMARK    6  A    between atoms: C7_7  and  C16_16 
REMARK    7  A    between atoms: N8_8  and  O9_9 
REMARK    8  A    between atoms: O9_9  and  C10_10 
REMARK    9  A    between atoms: C10_10  and  C11_11 
REMARK   10  A    between atoms: C11_11  and  N12_12 
REMARK   11  A    between atoms: C19_19  and  C20_20 
ROOT
ATOM      1  C7  ZIN A   1      19.026  -0.071  11.451  0.00  0.00     0.072 C 
ATOM      2  N8  ZIN A   1      18.782  -1.023  10.610  0.00  0.00    -0.138 NA
ENDROOT
BRANCH   1   3
ATOM      3  C6  ZIN A   1      19.671   1.205  10.976  0.00  0.00     0.062 C 
BRANCH   3   4
ATOM      4  C5  ZIN A   1      19.022   1.650   9.664  0.00  0.00     0.008 C 
BRANCH   4   5
ATOM      5  C4  ZIN A   1      18.517   3.087   9.806  0.00  0.00     0.027 C 
BRANCH   5   6
ATOM      6  C3  ZIN A   1      17.869   3.266  11.180  0.00  0.00     0.167 C 
BRANCH   6   7
ATOM      7  O2  ZIN A   1      16.675   4.040  11.045  0.00  0.00    -0.396 OA
ATOM      8  C1  ZIN A   1      16.760   5.345  11.620  0.00  0.00     0.201 C 
ENDBRANCH   6   7
ENDBRANCH   5   6
ENDBRANCH   4   5
ENDBRANCH   3   4
ENDBRANCH   1   3
BRANCH   1   9
ATOM      9  C16 ZIN A   1      18.672  -0.235  12.874  0.00  0.00    -0.009 A 
ATOM     10  C25 ZIN A   1      17.551   0.412  13.397  0.00  0.00     0.014 A 
ATOM     11  C24 ZIN A   1      17.223   0.250  14.728  0.00  0.00     0.017 A 
ATOM     12  C19 ZIN A   1      18.008  -0.544  15.545  0.00  0.00     0.048 A 
ATOM     13  C18 ZIN A   1      19.124  -1.183  15.035  0.00  0.00     0.017 A 
ATOM     14  C17 ZIN A   1      19.460  -1.034  13.705  0.00  0.00     0.014 A 
BRANCH  12  15
ATOM     15  C20 ZIN A   1      17.647  -0.712  16.998  0.00  0.00     0.417 C 
ATOM     16  F21 ZIN A   1      18.810  -0.932  17.746  0.00  0.00    -0.166 F 
ATOM     17  F22 ZIN A   1      17.010   0.446  17.457  0.00  0.00    -0.166 F 
ATOM     18  F23 ZIN A   1      16.787  -1.806  17.142  0.00  0.00    -0.166 F 
ENDBRANCH  12  15
ENDBRANCH   1   9
BRANCH   2  19
ATOM     19  O9  ZIN A   1      18.059  -2.167  11.026  0.00  0.00    -0.255 OA
BRANCH  19  20
ATOM     20  C10 ZIN A   1      18.554  -3.396  10.487  0.00  0.00     0.231 C 
BRANCH  20  21
ATOM     21  C11 ZIN A   1      19.594  -3.988  11.440  0.00  0.00     0.258 C 
BRANCH  21  22
ATOM     22  N12 ZIN A   1      20.859  -3.254  11.303  0.00  0.00    -0.077 N 
ATOM     23  H13 ZIN A   1      21.300  -3.505  10.431  0.00  0.00     0.274 HD
ATOM     24  H14 ZIN A   1      20.675  -2.261  11.313  0.00  0.00     0.274 HD
ATOM     25  H15 ZIN A   1      21.469  -3.491  12.070  0.00  0.00     0.274 HD
ENDBRANCH  21  22
ENDBRANCH  20  21
ENDBRANCH  19  20
ENDBRANCH   2  19
TORSDOF 11
ENDMDL
MODEL 5
REMARK VINA RESULT:      -6.6      4.230      5.740
REMARK  11 active torsions:
REMARK  status: ('A' for Active; 'I' for Inactive)
REMARK    1  A    between atoms: O2_2  and  C3_3 
REMARK    2  A    between atoms: C3_3  and  C4_4 
REMARK    3  A    between atoms: C4_4  and  C5_5 
REMARK    4  A    between atoms: C5_5  and  C6_6 
REMARK    5  A    between atoms: C6_6  and  C7_7 
REMARK    6  A    between atoms: C7_7  and  C16_16 
REMARK    7  A    between atoms: N8_8  and  O9_9 
REMARK    8  A    between atoms: O9_9  and  C10_10 
REMARK    9  A    between atoms: C10_10  and  C11_11 
REMARK   10  A    between atoms: C11_11  and  N12_12 
REMARK   11  A    between atoms: C19_19  and  C20_20 
ROOT
ATOM      1  C7  ZIN A   1      18.648  -1.240  13.404  0.00  0.00     0.072 C 
ATOM      2  N8  ZIN A   1      18.608  -0.019  12.981  0.00  0.00    -0.138 NA
ENDROOT
BRANCH   1   3
ATOM      3  C6  ZIN A   1      18.723  -1.523  14.883  0.00  0.00     0.062 C 
BRANCH   3   4
ATOM      4  C5  ZIN A   1      17.948  -0.448  15.648  0.00  0.00     0.008 C 
BRANCH   4   5
ATOM      5  C4  ZIN A   1      18.933   0.512  16.317  0.00  0.00     0.027 C 
BRANCH   5   6
ATOM      6  C3  ZIN A   1      19.146   0.092  17.772  0.00  0.00     0.167 C 
BRANCH   6   7
ATOM      7  O2  ZIN A   1      19.792   1.150  18.483  0.00  0.00    -0.396 OA
ATOM      8  C1  ZIN A   1      19.092   2.394  18.436  0.00  0.00     0.201 C 
ENDBRANCH   6   7
ENDBRANCH   5   6
ENDBRANCH   4   5
ENDBRANCH   3   4
ENDBRANCH   1   3
BRANCH   1   9
ATOM      9  C16 ZIN A   1      18.623  -2.357  12.439  0.00  0.00    -0.009 A 
ATOM     10  C25 ZIN A   1      19.817  -2.947  12.019  0.00  0.00     0.014 A 
ATOM     11  C24 ZIN A   1      19.786  -3.995  11.121  0.00  0.00     0.017 A 
ATOM     12  C19 ZIN A   1      18.577  -4.453  10.630  0.00  0.00     0.048 A 
ATOM     13  C18 ZIN A   1      17.391  -3.869  11.037  0.00  0.00     0.017 A 
ATOM     14  C17 ZIN A   1      17.407  -2.825  11.939  0.00  0.00     0.014 A 
BRANCH  12  15
ATOM     15  C20 ZIN A   1      18.552  -5.594   9.645  0.00  0.00     0.417 C 
ATOM     16  F21 ZIN A   1      18.133  -5.122   8.396  0.00  0.00    -0.166 F 
ATOM     17  F22 ZIN A   1      19.834  -6.140   9.532  0.00  0.00    -0.166 F 
ATOM     18  F23 ZIN A   1      17.664  -6.577  10.094  0.00  0.00    -0.166 F 
ENDBRANCH  12  15
ENDBRANCH   1   9
BRANCH   2  19
ATOM     19  O9  ZIN A   1      18.406   0.247  11.605  0.00  0.00    -0.255 OA
BRANCH  19  20
ATOM     20  C10 ZIN A   1      19.367   1.141  11.039  0.00  0.00     0.231 C 
BRANCH  20  21
ATOM     21  C11 ZIN A   1      20.375   1.553  12.113  0.00  0.00     0.258 C 
BRANCH  21  22
ATOM     22  N12 ZIN A   1      21.529   0.646  12.076  0.00  0.00    -0.077 N 
ATOM     23  H13 ZIN A   1      21.316  -0.146  11.489  0.00  0.00     0.274 HD
ATOM     24  H14 ZIN A   1      22.330   1.135  11.703  0.00  0.00     0.274 HD
ATOM     25  H15 ZIN A   1      21.736   0.327  13.010  0.00  0.00     0.274 HD
ENDBRANCH  21  22
ENDBRANCH  20  21
ENDBRANCH  19  20
ENDBRANCH   2  19
TORSDOF 11
ENDMDL
MODEL 6
REMARK VINA RESULT:      -6.6      1.970      3.781
REMARK  11 active torsions:
REMARK  status: ('A' for Active; 'I' for Inactive)
REMARK    1  A    between atoms: O2_2  and  C3_3 
REMARK    2  A    between atoms: C3_3  and  C4_4 
REMARK    3  A    between atoms: C4_4  and  C5_5 
REMARK    4  A    between atoms: C5_5  and  C6_6 
REMARK    5  A    between atoms: C6_6  and  C7_7 
REMARK    6  A    between atoms: C7_7  and  C16_16 
REMARK    7  A    between atoms: N8_8  and  O9_9 
REMARK    8  A    between atoms: O9_9  and  C10_10 
REMARK    9  A    between atoms: C10_10  and  C11_11 
REMARK   10  A    between atoms: C11_11  and  N12_12 
REMARK   11  A    between atoms: C19_19  and  C20_20 
ROOT
ATOM      1  C7  ZIN A   1      17.508   0.840  11.126  0.00  0.00     0.072 C 
ATOM      2  N8  ZIN A   1      17.321   2.029  11.601  0.00  0.00    -0.138 NA
ENDROOT
BRANCH   1   3
ATOM      3  C6  ZIN A   1      17.337  -0.362  12.019  0.00  0.00     0.062 C 
BRANCH   3   4
ATOM      4  C5  ZIN A   1      18.656  -1.135  12.093  0.00  0.00     0.008 C 
BRANCH   4   5
ATOM      5  C4  ZIN A   1      19.564  -0.494  13.143  0.00  0.00     0.027 C 
BRANCH   5   6
ATOM      6  C3  ZIN A   1      19.320  -1.156  14.501  0.00  0.00     0.167 C 
BRANCH   6   7
ATOM      7  O2  ZIN A   1      19.099  -0.148  15.489  0.00  0.00    -0.396 OA
ATOM      8  C1  ZIN A   1      19.228   1.187  14.996  0.00  0.00     0.201 C 
ENDBRANCH   6   7
ENDBRANCH   5   6
ENDBRANCH   4   5
ENDBRANCH   3   4
ENDBRANCH   1   3
BRANCH   1   9
ATOM      9  C16 ZIN A   1      17.888   0.661   9.712  0.00  0.00    -0.009 A 
ATOM     10  C25 ZIN A   1      19.024   1.297   9.206  0.00  0.00     0.014 A 
ATOM     11  C24 ZIN A   1      19.377   1.120   7.883  0.00  0.00     0.017 A 
ATOM     12  C19 ZIN A   1      18.603   0.325   7.057  0.00  0.00     0.048 A 
ATOM     13  C18 ZIN A   1      17.473  -0.303   7.551  0.00  0.00     0.017 A 
ATOM     14  C17 ZIN A   1      17.112  -0.139   8.872  0.00  0.00     0.014 A 
BRANCH  12  15
ATOM     15  C20 ZIN A   1      18.992   0.142   5.613  0.00  0.00     0.417 C 
ATOM     16  F21 ZIN A   1      19.779   1.224   5.201  0.00  0.00    -0.166 F 
ATOM     17  F22 ZIN A   1      19.721  -1.044   5.473  0.00  0.00    -0.166 F 
ATOM     18  F23 ZIN A   1      17.839   0.076   4.824  0.00  0.00    -0.166 F 
ENDBRANCH  12  15
ENDBRANCH   1   9
BRANCH   2  19
ATOM     19  O9  ZIN A   1      17.353   3.149  10.735  0.00  0.00    -0.255 OA
BRANCH  19  20
ATOM     20  C10 ZIN A   1      18.126   4.245  11.230  0.00  0.00     0.231 C 
BRANCH  20  21
ATOM     21  C11 ZIN A   1      19.076   3.748  12.321  0.00  0.00     0.258 C 
BRANCH  21  22
ATOM     22  N12 ZIN A   1      20.325   3.278  11.706  0.00  0.00    -0.077 N 
ATOM     23  H13 ZIN A   1      20.251   3.344  10.702  0.00  0.00     0.274 HD
ATOM     24  H14 ZIN A   1      21.093   3.850  12.026  0.00  0.00     0.274 HD
ATOM     25  H15 ZIN A   1      20.488   2.318  11.969  0.00  0.00     0.274 HD
ENDBRANCH  21  22
ENDBRANCH  20  21
ENDBRANCH  19  20
ENDBRANCH   2  19
TORSDOF 11
ENDMDL
MODEL 7
REMARK VINA RESULT:      -6.5      4.002      6.745
REMARK  11 active torsions:
REMARK  status: ('A' for Active; 'I' for Inactive)
REMARK    1  A    between atoms: O2_2  and  C3_3 
REMARK    2  A    between atoms: C3_3  and  C4_4 
REMARK    3  A    between atoms: C4_4  and  C5_5 
REMARK    4  A    between atoms: C5_5  and  C6_6 
REMARK    5  A    between atoms: C6_6  and  C7_7 
REMARK    6  A    between atoms: C7_7  and  C16_16 
REMARK    7  A    between atoms: N8_8  and  O9_9 
REMARK    8  A    between atoms: O9_9  and  C10_10 
REMARK    9  A    between atoms: C10_10  and  C11_11 
REMARK   10  A    between atoms: C11_11  and  N12_12 
REMARK   11  A    between atoms: C19_19  and  C20_20 
ROOT
ATOM      1  C7  ZIN A   1      18.655  -0.978   9.011  0.00  0.00     0.072 C 
ATOM      2  N8  ZIN A   1      19.423  -1.783   9.672  0.00  0.00    -0.138 NA
ENDROOT
BRANCH   1   3
ATOM      3  C6  ZIN A   1      17.971  -1.453   7.755  0.00  0.00     0.062 C 
BRANCH   3   4
ATOM      4  C5  ZIN A   1      17.439  -0.248   6.976  0.00  0.00     0.008 C 
BRANCH   4   5
ATOM      5  C4  ZIN A   1      17.737  -0.431   5.487  0.00  0.00     0.027 C 
BRANCH   5   6
ATOM      6  C3  ZIN A   1      19.197  -0.067   5.211  0.00  0.00     0.167 C 
BRANCH   6   7
ATOM      7  O2  ZIN A   1      19.867  -1.190   4.635  0.00  0.00    -0.396 OA
ATOM      8  C1  ZIN A   1      19.005  -2.288   4.331  0.00  0.00     0.201 C 
ENDBRANCH   6   7
ENDBRANCH   5   6
ENDBRANCH   4   5
ENDBRANCH   3   4
ENDBRANCH   1   3
BRANCH   1   9
ATOM      9  C16 ZIN A   1      18.451   0.404   9.486  0.00  0.00    -0.009 A 
ATOM     10  C25 ZIN A   1      19.216   1.447   8.959  0.00  0.00     0.014 A 
ATOM     11  C24 ZIN A   1      19.015   2.737   9.404  0.00  0.00     0.017 A 
ATOM     12  C19 ZIN A   1      18.067   2.998  10.377  0.00  0.00     0.048 A 
ATOM     13  C18 ZIN A   1      17.309   1.969  10.907  0.00  0.00     0.017 A 
ATOM     14  C17 ZIN A   1      17.496   0.675  10.468  0.00  0.00     0.014 A 
BRANCH  12  15
ATOM     15  C20 ZIN A   1      17.857   4.410  10.861  0.00  0.00     0.417 C 
ATOM     16  F21 ZIN A   1      16.676   4.476  11.609  0.00  0.00    -0.166 F 
ATOM     17  F22 ZIN A   1      18.938   4.793  11.662  0.00  0.00    -0.166 F 
ATOM     18  F23 ZIN A   1      17.762   5.271   9.762  0.00  0.00    -0.166 F 
ENDBRANCH  12  15
ENDBRANCH   1   9
BRANCH   2  19
ATOM     19  O9  ZIN A   1      19.961  -1.382  10.919  0.00  0.00    -0.255 OA
BRANCH  19  20
ATOM     20  C10 ZIN A   1      19.696  -2.294  11.987  0.00  0.00     0.231 C 
BRANCH  20  21
ATOM     21  C11 ZIN A   1      20.170  -3.694  11.592  0.00  0.00     0.258 C 
BRANCH  21  22
ATOM     22  N12 ZIN A   1      19.015  -4.509  11.196  0.00  0.00    -0.077 N 
ATOM     23  H13 ZIN A   1      19.329  -5.430  10.928  0.00  0.00     0.274 HD
ATOM     24  H14 ZIN A   1      18.374  -4.585  11.972  0.00  0.00     0.274 HD
ATOM     25  H15 ZIN A   1      18.547  -4.073  10.415  0.00  0.00     0.274 HD
ENDBRANCH  21  22
ENDBRANCH  20  21
ENDBRANCH  19  20
ENDBRANCH   2  19
TORSDOF 11
ENDMDL
MODEL 8
REMARK VINA RESULT:      -6.3      4.158      6.583
REMARK  11 active torsions:
REMARK  status: ('A' for Active; 'I' for Inactive)
REMARK    1  A    between atoms: O2_2  and  C3_3 
REMARK    2  A    between atoms: C3_3  and  C4_4 
REMARK    3  A    between atoms: C4_4  and  C5_5 
REMARK    4  A    between atoms: C5_5  and  C6_6 
REMARK    5  A    between atoms: C6_6  and  C7_7 
REMARK    6  A    between atoms: C7_7  and  C16_16 
REMARK    7  A    between atoms: N8_8  and  O9_9 
REMARK    8  A    between atoms: O9_9  and  C10_10 
REMARK    9  A    between atoms: C10_10  and  C11_11 
REMARK   10  A    between atoms: C11_11  and  N12_12 
REMARK   11  A    between atoms: C19_19  and  C20_20 
ROOT
ATOM      1  C7  ZIN A   1      18.711  -2.935   7.672  0.00  0.00     0.072 C 
ATOM      2  N8  ZIN A   1      19.154  -3.195   6.485  0.00  0.00    -0.138 NA
ENDROOT
BRANCH   1   3
ATOM      3  C6  ZIN A   1      18.219  -4.053   8.554  0.00  0.00     0.062 C 
BRANCH   3   4
ATOM      4  C5  ZIN A   1      19.305  -4.419   9.569  0.00  0.00     0.008 C 
BRANCH   4   5
ATOM      5  C4  ZIN A   1      18.842  -4.029  10.974  0.00  0.00     0.027 C 
BRANCH   5   6
ATOM      6  C3  ZIN A   1      19.999  -3.371  11.728  0.00  0.00     0.167 C 
BRANCH   6   7
ATOM      7  O2  ZIN A   1      19.653  -2.023  12.048  0.00  0.00    -0.396 OA
ATOM      8  C1  ZIN A   1      18.842  -1.893  13.218  0.00  0.00     0.201 C 
ENDBRANCH   6   7
ENDBRANCH   5   6
ENDBRANCH   4   5
ENDBRANCH   3   4
ENDBRANCH   1   3
BRANCH   1   9
ATOM      9  C16 ZIN A   1      18.687  -1.542   8.162  0.00  0.00    -0.009 A 
ATOM     10  C25 ZIN A   1      19.822  -0.988   8.756  0.00  0.00     0.014 A 
ATOM     11  C24 ZIN A   1      19.794   0.316   9.207  0.00  0.00     0.017 A 
ATOM     12  C19 ZIN A   1      18.641   1.070   9.081  0.00  0.00     0.048 A 
ATOM     13  C18 ZIN A   1      17.510   0.525   8.498  0.00  0.00     0.017 A 
ATOM     14  C17 ZIN A   1      17.527  -0.776   8.038  0.00  0.00     0.014 A 
BRANCH  12  15
ATOM     15  C20 ZIN A   1      18.616   2.491   9.580  0.00  0.00     0.417 C 
ATOM     16  F21 ZIN A   1      18.706   3.369   8.494  0.00  0.00    -0.166 F 
ATOM     17  F22 ZIN A   1      17.420   2.723  10.268  0.00  0.00    -0.166 F 
ATOM     18  F23 ZIN A   1      19.698   2.702  10.441  0.00  0.00    -0.166 F 
ENDBRANCH  12  15
ENDBRANCH   1   9
BRANCH   2  19
ATOM     19  O9  ZIN A   1      19.737  -2.166   5.706  0.00  0.00    -0.255 OA
BRANCH  19  20
ATOM     20  C10 ZIN A   1      19.053  -1.908   4.478  0.00  0.00     0.231 C 
BRANCH  20  21
ATOM     21  C11 ZIN A   1      18.626  -0.440   4.430  0.00  0.00     0.258 C 
BRANCH  21  22
ATOM     22  N12 ZIN A   1      19.616   0.381   5.138  0.00  0.00    -0.077 N 
ATOM     23  H13 ZIN A   1      19.696   0.064   6.092  0.00  0.00     0.274 HD
ATOM     24  H14 ZIN A   1      20.511   0.300   4.680  0.00  0.00     0.274 HD
ATOM     25  H15 ZIN A   1      19.320   1.346   5.128  0.00  0.00     0.274 HD
ENDBRANCH  21  22
ENDBRANCH  20  21
ENDBRANCH  19  20
ENDBRANCH   2  19
TORSDOF 11
ENDMDL
MODEL 9
REMARK VINA RESULT:      -6.3      3.314      6.149
REMARK  11 active torsions:
REMARK  status: ('A' for Active; 'I' for Inactive)
REMARK    1  A    between atoms: O2_2  and  C3_3 
REMARK    2  A    between atoms: C3_3  and  C4_4 
REMARK    3  A    between atoms: C4_4  and  C5_5 
REMARK    4  A    between atoms: C5_5  and  C6_6 
REMARK    5  A    between atoms: C6_6  and  C7_7 
REMARK    6  A    between atoms: C7_7  and  C16_16 
REMARK    7  A    between atoms: N8_8  and  O9_9 
REMARK    8  A    between atoms: O9_9  and  C10_10 
REMARK    9  A    between atoms: C10_10  and  C11_11 
REMARK   10  A    between atoms: C11_11  and  N12_12 
REMARK   11  A    between atoms: C19_19  and  C20_20 
ROOT
ATOM      1  C7  ZIN A   1      19.212  -2.325  11.408  0.00  0.00     0.072 C 
ATOM      2  N8  ZIN A   1      18.750  -1.867  12.525  0.00  0.00    -0.138 NA
ENDROOT
BRANCH   1   3
ATOM      3  C6  ZIN A   1      19.915  -3.658  11.373  0.00  0.00     0.062 C 
BRANCH   3   4
ATOM      4  C5  ZIN A   1      18.877  -4.782  11.393  0.00  0.00     0.008 C 
BRANCH   4   5
ATOM      5  C4  ZIN A   1      18.717  -5.354   9.983  0.00  0.00     0.027 C 
BRANCH   5   6
ATOM      6  C3  ZIN A   1      17.337  -5.999   9.848  0.00  0.00     0.167 C 
BRANCH   6   7
ATOM      7  O2  ZIN A   1      16.472  -5.126   9.119  0.00  0.00    -0.396 OA
ATOM      8  C1  ZIN A   1      15.243  -5.731   8.713  0.00  0.00     0.201 C 
ENDBRANCH   6   7
ENDBRANCH   5   6
ENDBRANCH   4   5
ENDBRANCH   3   4
ENDBRANCH   1   3
BRANCH   1   9
ATOM      9  C16 ZIN A   1      19.054  -1.541  10.167  0.00  0.00    -0.009 A 
ATOM     10  C25 ZIN A   1      19.942  -0.505   9.874  0.00  0.00     0.014 A 
ATOM     11  C24 ZIN A   1      19.792   0.220   8.709  0.00  0.00     0.017 A 
ATOM     12  C19 ZIN A   1      18.757  -0.071   7.838  0.00  0.00     0.048 A 
ATOM     13  C18 ZIN A   1      17.870  -1.094   8.125  0.00  0.00     0.017 A 
ATOM     14  C17 ZIN A   1      18.012  -1.829   9.283  0.00  0.00     0.014 A 
BRANCH  12  15
ATOM     15  C20 ZIN A   1      18.596   0.728   6.571  0.00  0.00     0.417 C 
ATOM     16  F21 ZIN A   1      17.286   0.591   6.097  0.00  0.00    -0.166 F 
ATOM     17  F22 ZIN A   1      18.858   2.076   6.834  0.00  0.00    -0.166 F 
ATOM     18  F23 ZIN A   1      19.493   0.258   5.606  0.00  0.00    -0.166 F 
ENDBRANCH  12  15
ENDBRANCH   1   9
BRANCH   2  19
ATOM     19  O9  ZIN A   1      17.978  -0.680  12.538  0.00  0.00    -0.255 OA
BRANCH  19  20
ATOM     20  C10 ZIN A   1      18.265   0.189  13.636  0.00  0.00     0.231 C 
BRANCH  20  21
ATOM     21  C11 ZIN A   1      19.411   1.129  13.257  0.00  0.00     0.258 C 
BRANCH  21  22
ATOM     22  N12 ZIN A   1      20.685   0.402  13.326  0.00  0.00    -0.077 N 
ATOM     23  H13 ZIN A   1      20.568  -0.430  13.885  0.00  0.00     0.274 HD
ATOM     24  H14 ZIN A   1      20.976   0.143  12.395  0.00  0.00     0.274 HD
ATOM     25  H15 ZIN A   1      21.386   0.993  13.745  0.00  0.00     0.274 HD
ENDBRANCH  21  22
ENDBRANCH  20  21
ENDBRANCH  19  20
ENDBRANCH   2  19
TORSDOF 11
ENDMDL
