MODEL 1
REMARK VINA RESULT:      -4.1      0.000      0.000
REMARK  1 active torsions:
REMARK  status: ('A' for Active; 'I' for Inactive)
REMARK    1  A    between atoms: C2_2  and  C4_4 
ROOT
ATOM      1  C4  <0> d   1      17.980  -1.225   5.655  0.00  0.00     0.285 C 
ATOM      2  C6  <0> d   1      17.885   0.182   6.281  0.00  0.00     0.046 C 
ATOM      3  C7  <0> d   1      17.328  -0.105   7.701  0.00  0.00     0.030 C 
ATOM      4  C8  <0> d   1      18.018  -1.450   8.041  0.00  0.00     0.233 C 
ATOM      5  N9  <0> d   1      18.043  -2.197   6.761  0.00  0.00    -0.061 N 
ATOM      6  H10 <0> d   1      17.251  -2.820   6.716  0.00  0.00     0.278 HD
ATOM      7  H11 <0> d   1      18.898  -2.728   6.695  0.00  0.00     0.278 HD
ENDROOT
BRANCH   1   8
ATOM      8  C2  <0> d   1      19.225  -1.327   4.812  0.00  0.00     0.204 C 
ATOM      9  O1  <0> d   1      19.961  -0.362   4.690  0.00  0.00    -0.646 OA
ATOM     10  O3  <0> d   1      19.500  -2.377   4.255  0.00  0.00    -0.646 OA
ENDBRANCH   1   8
TORSDOF 1
ENDMDL
MODEL 2
REMARK VINA RESULT:      -4.1     10.322     11.414
REMARK  1 active torsions:
REMARK  status: ('A' for Active; 'I' for Inactive)
REMARK    1  A    between atoms: C2_2  and  C4_4 
ROOT
ATOM      1  C4  <0> d   1      18.236   0.673  17.345  0.00  0.00     0.285 C 
ATOM      2  C6  <0> d   1      18.906  -0.715  17.266  0.00  0.00     0.046 C 
ATOM      3  C7  <0> d   1      18.157  -1.398  16.091  0.00  0.00     0.030 C 
ATOM      4  C8  <0> d   1      17.918  -0.201  15.136  0.00  0.00     0.233 C 
ATOM      5  N9  <0> d   1      17.629   0.945  16.029  0.00  0.00    -0.061 N 
ATOM      6  H10 <0> d   1      16.631   1.055  16.128  0.00  0.00     0.278 HD
ATOM      7  H11 <0> d   1      18.028   1.787  15.642  0.00  0.00     0.278 HD
ENDROOT
BRANCH   1   8
ATOM      8  C2  <0> d   1      19.270   1.723  17.660  0.00  0.00     0.204 C 
ATOM      9  O1  <0> d   1      19.776   1.768  18.768  0.00  0.00    -0.646 OA
ATOM     10  O3  <0> d   1      19.605   2.525  16.804  0.00  0.00    -0.646 OA
ENDBRANCH   1   8
TORSDOF 1
ENDMDL
MODEL 3
REMARK VINA RESULT:      -3.8      4.401      5.287
REMARK  1 active torsions:
REMARK  status: ('A' for Active; 'I' for Inactive)
REMARK    1  A    between atoms: C2_2  and  C4_4 
ROOT
ATOM      1  C4  <0> d   1      18.575   1.448   9.658  0.00  0.00     0.285 C 
ATOM      2  C6  <0> d   1      19.133   1.824   8.269  0.00  0.00     0.046 C 
ATOM      3  C7  <0> d   1      18.844   0.555   7.423  0.00  0.00     0.030 C 
ATOM      4  C8  <0> d   1      17.487   0.090   8.009  0.00  0.00     0.233 C 
ATOM      5  N9  <0> d   1      17.584   0.375   9.460  0.00  0.00    -0.061 N 
ATOM      6  H10 <0> d   1      17.877  -0.457   9.950  0.00  0.00     0.278 HD
ATOM      7  H11 <0> d   1      16.686   0.677   9.808  0.00  0.00     0.278 HD
ENDROOT
BRANCH   1   8
ATOM      8  C2  <0> d   1      17.912   2.648  10.285  0.00  0.00     0.204 C 
ATOM      9  O1  <0> d   1      18.154   3.767   9.865  0.00  0.00    -0.646 OA
ATOM     10  O3  <0> d   1      17.129   2.500  11.208  0.00  0.00    -0.646 OA
ENDBRANCH   1   8
TORSDOF 1
ENDMDL
MODEL 4
REMARK VINA RESULT:      -3.7      5.446      6.353
REMARK  1 active torsions:
REMARK  status: ('A' for Active; 'I' for Inactive)
REMARK    1  A    between atoms: C2_2  and  C4_4 
ROOT
ATOM      1  C4  <0> d   1      19.347   2.370  10.641  0.00  0.00     0.285 C 
ATOM      2  C6  <0> d   1      18.697   2.661   9.272  0.00  0.00     0.046 C 
ATOM      3  C7  <0> d   1      19.412   1.661   8.325  0.00  0.00     0.030 C 
ATOM      4  C8  <0> d   1      19.596   0.432   9.252  0.00  0.00     0.233 C 
ATOM      5  N9  <0> d   1      19.899   1.004  10.585  0.00  0.00    -0.061 N 
ATOM      6  H10 <0> d   1      20.899   1.033  10.722  0.00  0.00     0.278 HD
ATOM      7  H11 <0> d   1      19.473   0.438  11.302  0.00  0.00     0.278 HD
ENDROOT
BRANCH   1   8
ATOM      8  C2  <0> d   1      18.309   2.458  11.729  0.00  0.00     0.204 C 
ATOM      9  O1  <0> d   1      17.126   2.520  11.441  0.00  0.00    -0.646 OA
ATOM     10  O3  <0> d   1      18.652   2.462  12.900  0.00  0.00    -0.646 OA
ENDBRANCH   1   8
TORSDOF 1
ENDMDL
MODEL 5
REMARK VINA RESULT:      -3.7      4.838      5.738
REMARK  1 active torsions:
REMARK  status: ('A' for Active; 'I' for Inactive)
REMARK    1  A    between atoms: C2_2  and  C4_4 
ROOT
ATOM      1  C4  <0> d   1      18.178   0.347  10.941  0.00  0.00     0.285 C 
ATOM      2  C6  <0> d   1      17.829   1.837  10.743  0.00  0.00     0.046 C 
ATOM      3  C7  <0> d   1      18.623   2.213   9.463  0.00  0.00     0.030 C 
ATOM      4  C8  <0> d   1      18.519   0.907   8.636  0.00  0.00     0.233 C 
ATOM      5  N9  <0> d   1      18.610  -0.183   9.635  0.00  0.00    -0.061 N 
ATOM      6  H10 <0> d   1      19.564  -0.508   9.696  0.00  0.00     0.278 HD
ATOM      7  H11 <0> d   1      18.007  -0.944   9.363  0.00  0.00     0.278 HD
ENDROOT
BRANCH   1   8
ATOM      8  C2  <0> d   1      16.962  -0.404  11.421  0.00  0.00     0.204 C 
ATOM      9  O1  <0> d   1      17.049  -1.584  11.712  0.00  0.00    -0.646 OA
ATOM     10  O3  <0> d   1      15.892   0.172  11.524  0.00  0.00    -0.646 OA
ENDBRANCH   1   8
TORSDOF 1
ENDMDL
MODEL 6
REMARK VINA RESULT:      -3.6      6.821      7.731
REMARK  1 active torsions:
REMARK  status: ('A' for Active; 'I' for Inactive)
REMARK    1  A    between atoms: C2_2  and  C4_4 
ROOT
ATOM      1  C4  <0> d   1      18.154   0.415  12.982  0.00  0.00     0.285 C 
ATOM      2  C6  <0> d   1      18.210  -1.103  13.252  0.00  0.00     0.046 C 
ATOM      3  C7  <0> d   1      18.469  -1.176  14.780  0.00  0.00     0.030 C 
ATOM      4  C8  <0> d   1      17.651   0.036  15.294  0.00  0.00     0.233 C 
ATOM      5  N9  <0> d   1      17.826   1.079  14.256  0.00  0.00    -0.061 N 
ATOM      6  H10 <0> d   1      18.576   1.700  14.523  0.00  0.00     0.278 HD
ATOM      7  H11 <0> d   1      16.970   1.603  14.154  0.00  0.00     0.278 HD
ENDROOT
BRANCH   1   8
ATOM      8  C2  <0> d   1      17.089   0.715  11.959  0.00  0.00     0.204 C 
ATOM      9  O1  <0> d   1      16.167  -0.065  11.792  0.00  0.00    -0.646 OA
ATOM     10  O3  <0> d   1      17.146   1.740  11.301  0.00  0.00    -0.646 OA
ENDBRANCH   1   8
TORSDOF 1
ENDMDL
MODEL 7
REMARK VINA RESULT:      -3.5      3.457      4.016
REMARK  1 active torsions:
REMARK  status: ('A' for Active; 'I' for Inactive)
REMARK    1  A    between atoms: C2_2  and  C4_4 
ROOT
ATOM      1  C4  <0> d   1      18.426   0.850   8.707  0.00  0.00     0.285 C 
ATOM      2  C6  <0> d   1      19.158   2.189   8.936  0.00  0.00     0.046 C 
ATOM      3  C7  <0> d   1      18.230   2.926   9.938  0.00  0.00     0.030 C 
ATOM      4  C8  <0> d   1      17.718   1.753  10.811  0.00  0.00     0.233 C 
ATOM      5  N9  <0> d   1      17.543   0.625   9.866  0.00  0.00    -0.061 N 
ATOM      6  H10 <0> d   1      16.582   0.584   9.561  0.00  0.00     0.278 HD
ATOM      7  H11 <0> d   1      17.795  -0.240  10.319  0.00  0.00     0.278 HD
ENDROOT
BRANCH   1   8
ATOM      8  C2  <0> d   1      19.429  -0.270   8.602  0.00  0.00     0.204 C 
ATOM      9  O1  <0> d   1      20.323  -0.368   9.425  0.00  0.00    -0.646 OA
ATOM     10  O3  <0> d   1      19.343  -1.084   7.697  0.00  0.00    -0.646 OA
ENDBRANCH   1   8
TORSDOF 1
ENDMDL
MODEL 8
REMARK VINA RESULT:      -3.5      1.913      2.326
REMARK  1 active torsions:
REMARK  status: ('A' for Active; 'I' for Inactive)
REMARK    1  A    between atoms: C2_2  and  C4_4 
ROOT
ATOM      1  C4  <0> d   1      18.387  -1.839   6.266  0.00  0.00     0.285 C 
ATOM      2  C6  <0> d   1      19.198  -0.657   5.695  0.00  0.00     0.046 C 
ATOM      3  C7  <0> d   1      18.336   0.576   6.078  0.00  0.00     0.030 C 
ATOM      4  C8  <0> d   1      17.778   0.149   7.459  0.00  0.00     0.233 C 
ATOM      5  N9  <0> d   1      17.519  -1.304   7.331  0.00  0.00    -0.061 N 
ATOM      6  H10 <0> d   1      16.550  -1.456   7.092  0.00  0.00     0.278 HD
ATOM      7  H11 <0> d   1      17.731  -1.765   8.203  0.00  0.00     0.278 HD
ENDROOT
BRANCH   1   8
ATOM      8  C2  <0> d   1      19.322  -2.872   6.838  0.00  0.00     0.204 C 
ATOM      9  O1  <0> d   1      19.221  -3.207   8.006  0.00  0.00    -0.646 OA
ATOM     10  O3  <0> d   1      20.177  -3.379   6.131  0.00  0.00    -0.646 OA
ENDBRANCH   1   8
TORSDOF 1
ENDMDL
MODEL 9
REMARK VINA RESULT:      -3.5      6.240      6.832
REMARK  1 active torsions:
REMARK  status: ('A' for Active; 'I' for Inactive)
REMARK    1  A    between atoms: C2_2  and  C4_4 
ROOT
ATOM      1  C4  <0> d   1      19.430  -1.096  11.702  0.00  0.00     0.285 C 
ATOM      2  C6  <0> d   1      18.359  -1.847  12.520  0.00  0.00     0.046 C 
ATOM      3  C7  <0> d   1      18.440  -3.291  11.959  0.00  0.00     0.030 C 
ATOM      4  C8  <0> d   1      19.958  -3.434  11.682  0.00  0.00     0.233 C 
ATOM      5  N9  <0> d   1      20.381  -2.101  11.192  0.00  0.00    -0.061 N 
ATOM      6  H10 <0> d   1      20.379  -2.094  10.183  0.00  0.00     0.278 HD
ATOM      7  H11 <0> d   1      21.307  -1.892  11.533  0.00  0.00     0.278 HD
ENDROOT
BRANCH   1   8
ATOM      8  C2  <0> d   1      20.151  -0.110  12.585  0.00  0.00     0.204 C 
ATOM      9  O1  <0> d   1      20.927   0.694  12.096  0.00  0.00    -0.646 OA
ATOM     10  O3  <0> d   1      19.954  -0.112  13.788  0.00  0.00    -0.646 OA
ENDBRANCH   1   8
TORSDOF 1
ENDMDL
