MODEL 1
REMARK VINA RESULT:      -7.5      0.000      0.000
REMARK  7 active torsions:
REMARK  status: ('A' for Active; 'I' for Inactive)
REMARK    1  A    between atoms: N2_2  and  C5_5 
REMARK    2  A    between atoms: C5_5  and  C6_6 
REMARK    3  A    between atoms: C6_6  and  C7_7 
REMARK    4  A    between atoms: C7_7  and  O9_8 
REMARK    5  A    between atoms: C7_7  and  C20_19 
REMARK    6  A    between atoms: O9_8  and  C10_9 
REMARK    7  A    between atoms: C13_12  and  C14_13 
ROOT
ATOM      1  C7  ZIN A   1      18.615   1.643  10.679  0.00  0.00     0.163 C 
ENDROOT
BRANCH   1   2
ATOM      2  C6  ZIN A   1      18.820   3.158  10.675  0.00  0.00     0.065 C 
BRANCH   2   3
ATOM      3  C5  ZIN A   1      17.461   3.857  10.603  0.00  0.00     0.234 C 
BRANCH   3   4
ATOM      4  N2  ZIN A   1      17.126   4.414  11.922  0.00  0.00    -0.079 N 
ATOM      5  C1  ZIN A   1      18.361   4.785  12.625  0.00  0.00     0.266 C 
ATOM      6  H3  ZIN A   1      16.626   3.723  12.461  0.00  0.00     0.276 HD
ATOM      7  H4  ZIN A   1      16.547   5.232  11.804  0.00  0.00     0.276 HD
ENDBRANCH   3   4
ENDBRANCH   2   3
ENDBRANCH   1   2
BRANCH   1   8
ATOM      8  O9  ZIN A   1      17.462   1.320  11.460  0.00  0.00    -0.341 OA
BRANCH   8   9
ATOM      9  C10 ZIN A   1      17.677   0.716  12.658  0.00  0.00     0.069 A 
ATOM     10  C19 ZIN A   1      18.125  -0.596  12.703  0.00  0.00     0.037 A 
ATOM     11  C18 ZIN A   1      18.348  -1.206  13.923  0.00  0.00     0.019 A 
ATOM     12  C13 ZIN A   1      18.116  -0.514  15.097  0.00  0.00     0.048 A 
ATOM     13  C12 ZIN A   1      17.664   0.791  15.054  0.00  0.00     0.019 A 
ATOM     14  C11 ZIN A   1      17.445   1.408  13.837  0.00  0.00     0.037 A 
BRANCH  12  15
ATOM     15  C14 ZIN A   1      18.355  -1.184  16.425  0.00  0.00     0.417 C 
ATOM     16  F15 ZIN A   1      18.521  -0.210  17.415  0.00  0.00    -0.166 F 
ATOM     17  F16 ZIN A   1      17.258  -1.991  16.744  0.00  0.00    -0.166 F 
ATOM     18  F17 ZIN A   1      19.507  -1.973  16.348  0.00  0.00    -0.166 F 
ENDBRANCH  12  15
ENDBRANCH   8   9
ENDBRANCH   1   8
BRANCH   1  19
ATOM     19  C20 ZIN A   1      18.416   1.159   9.265  0.00  0.00    -0.029 A 
ATOM     20  C25 ZIN A   1      19.171   1.695   8.239  0.00  0.00     0.010 A 
ATOM     21  C24 ZIN A   1      18.991   1.249   6.943  0.00  0.00     0.001 A 
ATOM     22  C23 ZIN A   1      18.051   0.272   6.673  0.00  0.00     0.000 A 
ATOM     23  C22 ZIN A   1      17.293  -0.261   7.698  0.00  0.00     0.001 A 
ATOM     24  C21 ZIN A   1      17.475   0.183   8.995  0.00  0.00     0.010 A 
ENDBRANCH   1  19
TORSDOF 7
ENDMDL
MODEL 2
REMARK VINA RESULT:      -7.2      2.490      3.844
REMARK  7 active torsions:
REMARK  status: ('A' for Active; 'I' for Inactive)
REMARK    1  A    between atoms: N2_2  and  C5_5 
REMARK    2  A    between atoms: C5_5  and  C6_6 
REMARK    3  A    between atoms: C6_6  and  C7_7 
REMARK    4  A    between atoms: C7_7  and  O9_8 
REMARK    5  A    between atoms: C7_7  and  C20_19 
REMARK    6  A    between atoms: O9_8  and  C10_9 
REMARK    7  A    between atoms: C13_12  and  C14_13 
ROOT
ATOM      1  C7  ZIN A   1      17.900  -0.850  10.454  0.00  0.00     0.163 C 
ENDROOT
BRANCH   1   2
ATOM      2  C6  ZIN A   1      17.841  -2.359  10.214  0.00  0.00     0.065 C 
BRANCH   2   3
ATOM      3  C5  ZIN A   1      19.177  -2.838   9.643  0.00  0.00     0.234 C 
BRANCH   3   4
ATOM      4  N2  ZIN A   1      19.973  -3.457  10.711  0.00  0.00    -0.079 N 
ATOM      5  C1  ZIN A   1      19.156  -4.451  11.418  0.00  0.00     0.266 C 
ATOM      6  H3  ZIN A   1      20.275  -2.746  11.361  0.00  0.00     0.276 HD
ATOM      7  H4  ZIN A   1      20.781  -3.910  10.310  0.00  0.00     0.276 HD
ENDBRANCH   3   4
ENDBRANCH   2   3
ENDBRANCH   1   2
BRANCH   1   8
ATOM      8  O9  ZIN A   1      18.965  -0.553  11.361  0.00  0.00    -0.341 OA
BRANCH   8   9
ATOM      9  C10 ZIN A   1      18.668  -0.572  12.687  0.00  0.00     0.069 A 
ATOM     10  C19 ZIN A   1      17.661   0.240  13.186  0.00  0.00     0.037 A 
ATOM     11  C18 ZIN A   1      17.358   0.215  14.534  0.00  0.00     0.019 A 
ATOM     12  C13 ZIN A   1      18.065  -0.613  15.387  0.00  0.00     0.048 A 
ATOM     13  C12 ZIN A   1      19.073  -1.419  14.893  0.00  0.00     0.019 A 
ATOM     14  C11 ZIN A   1      19.375  -1.401  13.545  0.00  0.00     0.037 A 
BRANCH  12  15
ATOM     15  C14 ZIN A   1      17.736  -0.634  16.857  0.00  0.00     0.417 C 
ATOM     16  F15 ZIN A   1      16.775  -1.619  17.106  0.00  0.00    -0.166 F 
ATOM     17  F16 ZIN A   1      18.894  -0.917  17.590  0.00  0.00    -0.166 F 
ATOM     18  F17 ZIN A   1      17.235   0.614  17.241  0.00  0.00    -0.166 F 
ENDBRANCH  12  15
ENDBRANCH   8   9
ENDBRANCH   1   8
BRANCH   1  19
ATOM     19  C20 ZIN A   1      18.144  -0.143   9.145  0.00  0.00    -0.029 A 
ATOM     20  C25 ZIN A   1      17.399  -0.478   8.030  0.00  0.00     0.010 A 
ATOM     21  C24 ZIN A   1      17.620   0.173   6.831  0.00  0.00     0.001 A 
ATOM     22  C23 ZIN A   1      18.590   1.153   6.745  0.00  0.00     0.000 A 
ATOM     23  C22 ZIN A   1      19.338   1.486   7.859  0.00  0.00     0.001 A 
ATOM     24  C21 ZIN A   1      19.115   0.837   9.059  0.00  0.00     0.010 A 
ENDBRANCH   1  19
TORSDOF 7
ENDMDL
MODEL 3
REMARK VINA RESULT:      -7.2      4.488      7.069
REMARK  7 active torsions:
REMARK  status: ('A' for Active; 'I' for Inactive)
REMARK    1  A    between atoms: N2_2  and  C5_5 
REMARK    2  A    between atoms: C5_5  and  C6_6 
REMARK    3  A    between atoms: C6_6  and  C7_7 
REMARK    4  A    between atoms: C7_7  and  O9_8 
REMARK    5  A    between atoms: C7_7  and  C20_19 
REMARK    6  A    between atoms: O9_8  and  C10_9 
REMARK    7  A    between atoms: C13_12  and  C14_13 
ROOT
ATOM      1  C7  ZIN A   1      18.531  -1.020  13.222  0.00  0.00     0.163 C 
ENDROOT
BRANCH   1   2
ATOM      2  C6  ZIN A   1      18.999   0.265  12.537  0.00  0.00     0.065 C 
BRANCH   2   3
ATOM      3  C5  ZIN A   1      20.520   0.381  12.655  0.00  0.00     0.234 C 
BRANCH   3   4
ATOM      4  N2  ZIN A   1      21.143  -0.037  11.391  0.00  0.00    -0.079 N 
ATOM      5  C1  ZIN A   1      20.160   0.061  10.305  0.00  0.00     0.266 C 
ATOM      6  H3  ZIN A   1      21.461  -0.991  11.473  0.00  0.00     0.276 HD
ATOM      7  H4  ZIN A   1      21.929   0.563  11.189  0.00  0.00     0.276 HD
ENDBRANCH   3   4
ENDBRANCH   2   3
ENDBRANCH   1   2
BRANCH   1   8
ATOM      8  O9  ZIN A   1      19.476  -2.064  12.972  0.00  0.00    -0.341 OA
BRANCH   8   9
ATOM      9  C10 ZIN A   1      19.115  -3.021  12.076  0.00  0.00     0.069 A 
ATOM     10  C19 ZIN A   1      17.776  -3.227  11.782  0.00  0.00     0.037 A 
ATOM     11  C18 ZIN A   1      17.413  -4.197  10.867  0.00  0.00     0.019 A 
ATOM     12  C13 ZIN A   1      18.383  -4.968  10.253  0.00  0.00     0.048 A 
ATOM     13  C12 ZIN A   1      19.718  -4.768  10.549  0.00  0.00     0.019 A 
ATOM     14  C11 ZIN A   1      20.086  -3.795  11.458  0.00  0.00     0.037 A 
BRANCH  12  15
ATOM     15  C14 ZIN A   1      17.983  -6.028   9.260  0.00  0.00     0.417 C 
ATOM     16  F15 ZIN A   1      17.055  -6.893   9.849  0.00  0.00    -0.166 F 
ATOM     17  F16 ZIN A   1      17.409  -5.423   8.137  0.00  0.00    -0.166 F 
ATOM     18  F17 ZIN A   1      19.114  -6.753   8.871  0.00  0.00    -0.166 F 
ENDBRANCH  12  15
ENDBRANCH   8   9
ENDBRANCH   1   8
BRANCH   1  19
ATOM     19  C20 ZIN A   1      18.421  -0.787  14.707  0.00  0.00    -0.029 A 
ATOM     20  C25 ZIN A   1      19.208  -1.514  15.580  0.00  0.00     0.010 A 
ATOM     21  C24 ZIN A   1      19.110  -1.299  16.942  0.00  0.00     0.001 A 
ATOM     22  C23 ZIN A   1      18.220  -0.361  17.430  0.00  0.00     0.000 A 
ATOM     23  C22 ZIN A   1      17.430   0.364  16.557  0.00  0.00     0.001 A 
ATOM     24  C21 ZIN A   1      17.530   0.150  15.195  0.00  0.00     0.010 A 
ENDBRANCH   1  19
TORSDOF 7
ENDMDL
MODEL 4
REMARK VINA RESULT:      -7.2      5.069      7.383
REMARK  7 active torsions:
REMARK  status: ('A' for Active; 'I' for Inactive)
REMARK    1  A    between atoms: N2_2  and  C5_5 
REMARK    2  A    between atoms: C5_5  and  C6_6 
REMARK    3  A    between atoms: C6_6  and  C7_7 
REMARK    4  A    between atoms: C7_7  and  O9_8 
REMARK    5  A    between atoms: C7_7  and  C20_19 
REMARK    6  A    between atoms: O9_8  and  C10_9 
REMARK    7  A    between atoms: C13_12  and  C14_13 
ROOT
ATOM      1  C7  ZIN A   1      18.706   1.701  10.817  0.00  0.00     0.163 C 
ENDROOT
BRANCH   1   2
ATOM      2  C6  ZIN A   1      19.207   0.891  12.014  0.00  0.00     0.065 C 
BRANCH   2   3
ATOM      3  C5  ZIN A   1      20.703   0.612  11.850  0.00  0.00     0.234 C 
BRANCH   3   4
ATOM      4  N2  ZIN A   1      20.896  -0.460  10.863  0.00  0.00    -0.079 N 
ATOM      5  C1  ZIN A   1      20.023  -1.594  11.194  0.00  0.00     0.266 C 
ATOM      6  H3  ZIN A   1      21.859  -0.761  10.877  0.00  0.00     0.276 HD
ATOM      7  H4  ZIN A   1      20.665  -0.115   9.942  0.00  0.00     0.276 HD
ENDBRANCH   3   4
ENDBRANCH   2   3
ENDBRANCH   1   2
BRANCH   1   8
ATOM      8  O9  ZIN A   1      17.706   0.953  10.121  0.00  0.00    -0.341 OA
BRANCH   8   9
ATOM      9  C10 ZIN A   1      17.971   0.624   8.829  0.00  0.00     0.069 A 
ATOM     10  C19 ZIN A   1      17.331  -0.459   8.243  0.00  0.00     0.037 A 
ATOM     11  C18 ZIN A   1      17.598  -0.788   6.928  0.00  0.00     0.019 A 
ATOM     12  C13 ZIN A   1      18.508  -0.045   6.199  0.00  0.00     0.048 A 
ATOM     13  C12 ZIN A   1      19.150   1.031   6.782  0.00  0.00     0.019 A 
ATOM     14  C11 ZIN A   1      18.883   1.368   8.094  0.00  0.00     0.037 A 
BRANCH  12  15
ATOM     15  C14 ZIN A   1      18.800  -0.410   4.766  0.00  0.00     0.417 C 
ATOM     16  F15 ZIN A   1      19.776  -1.412   4.730  0.00  0.00    -0.166 F 
ATOM     17  F16 ZIN A   1      17.631  -0.876   4.155  0.00  0.00    -0.166 F 
ATOM     18  F17 ZIN A   1      19.265   0.719   4.083  0.00  0.00    -0.166 F 
ENDBRANCH  12  15
ENDBRANCH   8   9
ENDBRANCH   1   8
BRANCH   1  19
ATOM     19  C20 ZIN A   1      18.114   3.000  11.302  0.00  0.00    -0.029 A 
ATOM     20  C25 ZIN A   1      17.983   3.236  12.658  0.00  0.00     0.010 A 
ATOM     21  C24 ZIN A   1      17.443   4.427  13.103  0.00  0.00     0.001 A 
ATOM     22  C23 ZIN A   1      17.029   5.381  12.192  0.00  0.00     0.000 A 
ATOM     23  C22 ZIN A   1      17.156   5.144  10.837  0.00  0.00     0.001 A 
ATOM     24  C21 ZIN A   1      17.698   3.953  10.391  0.00  0.00     0.010 A 
ENDBRANCH   1  19
TORSDOF 7
ENDMDL
MODEL 5
REMARK VINA RESULT:      -7.1      3.360      4.838
REMARK  7 active torsions:
REMARK  status: ('A' for Active; 'I' for Inactive)
REMARK    1  A    between atoms: N2_2  and  C5_5 
REMARK    2  A    between atoms: C5_5  and  C6_6 
REMARK    3  A    between atoms: C6_6  and  C7_7 
REMARK    4  A    between atoms: C7_7  and  O9_8 
REMARK    5  A    between atoms: C7_7  and  C20_19 
REMARK    6  A    between atoms: O9_8  and  C10_9 
REMARK    7  A    between atoms: C13_12  and  C14_13 
ROOT
ATOM      1  C7  ZIN A   1      18.954   1.253  10.243  0.00  0.00     0.163 C 
ENDROOT
BRANCH   1   2
ATOM      2  C6  ZIN A   1      20.078   0.315  10.688  0.00  0.00     0.065 C 
BRANCH   2   3
ATOM      3  C5  ZIN A   1      19.732  -0.283  12.053  0.00  0.00     0.234 C 
BRANCH   3   4
ATOM      4  N2  ZIN A   1      20.520   0.389  13.096  0.00  0.00    -0.079 N 
ATOM      5  C1  ZIN A   1      19.666   0.654  14.260  0.00  0.00     0.266 C 
ATOM      6  H3  ZIN A   1      20.880   1.260  12.736  0.00  0.00     0.276 HD
ATOM      7  H4  ZIN A   1      21.289  -0.204  13.371  0.00  0.00     0.276 HD
ENDBRANCH   3   4
ENDBRANCH   2   3
ENDBRANCH   1   2
BRANCH   1   8
ATOM      8  O9  ZIN A   1      19.402   2.608  10.332  0.00  0.00    -0.341 OA
BRANCH   8   9
ATOM      9  C10 ZIN A   1      18.725   3.426  11.182  0.00  0.00     0.069 A 
ATOM     10  C19 ZIN A   1      19.289   3.784  12.397  0.00  0.00     0.037 A 
ATOM     11  C18 ZIN A   1      18.602   4.620  13.257  0.00  0.00     0.019 A 
ATOM     12  C13 ZIN A   1      17.350   5.092  12.910  0.00  0.00     0.048 A 
ATOM     13  C12 ZIN A   1      16.784   4.732  11.702  0.00  0.00     0.019 A 
ATOM     14  C11 ZIN A   1      17.469   3.902  10.836  0.00  0.00     0.037 A 
BRANCH  12  15
ATOM     15  C14 ZIN A   1      16.601   5.999  13.851  0.00  0.00     0.417 C 
ATOM     16  F15 ZIN A   1      16.914   7.331  13.563  0.00  0.00    -0.166 F 
ATOM     17  F16 ZIN A   1      15.225   5.800  13.695  0.00  0.00    -0.166 F 
ATOM     18  F17 ZIN A   1      16.967   5.708  15.169  0.00  0.00    -0.166 F 
ENDBRANCH  12  15
ENDBRANCH   8   9
ENDBRANCH   1   8
BRANCH   1  19
ATOM     19  C20 ZIN A   1      18.575   0.943   8.818  0.00  0.00    -0.029 A 
ATOM     20  C25 ZIN A   1      19.266   1.532   7.775  0.00  0.00     0.010 A 
ATOM     21  C24 ZIN A   1      18.921   1.245   6.468  0.00  0.00     0.001 A 
ATOM     22  C23 ZIN A   1      17.880   0.374   6.204  0.00  0.00     0.000 A 
ATOM     23  C22 ZIN A   1      17.187  -0.212   7.246  0.00  0.00     0.001 A 
ATOM     24  C21 ZIN A   1      17.534   0.073   8.553  0.00  0.00     0.010 A 
ENDBRANCH   1  19
TORSDOF 7
ENDMDL
MODEL 6
REMARK VINA RESULT:      -7.0      4.174      6.725
REMARK  7 active torsions:
REMARK  status: ('A' for Active; 'I' for Inactive)
REMARK    1  A    between atoms: N2_2  and  C5_5 
REMARK    2  A    between atoms: C5_5  and  C6_6 
REMARK    3  A    between atoms: C6_6  and  C7_7 
REMARK    4  A    between atoms: C7_7  and  O9_8 
REMARK    5  A    between atoms: C7_7  and  C20_19 
REMARK    6  A    between atoms: O9_8  and  C10_9 
REMARK    7  A    between atoms: C13_12  and  C14_13 
ROOT
ATOM      1  C7  ZIN A   1      17.927   1.529  12.548  0.00  0.00     0.163 C 
ENDROOT
BRANCH   1   2
ATOM      2  C6  ZIN A   1      17.806   2.933  13.142  0.00  0.00     0.065 C 
BRANCH   2   3
ATOM      3  C5  ZIN A   1      18.657   3.908  12.324  0.00  0.00     0.234 C 
BRANCH   3   4
ATOM      4  N2  ZIN A   1      19.943   4.122  13.003  0.00  0.00    -0.079 N 
ATOM      5  C1  ZIN A   1      19.884   5.366  13.782  0.00  0.00     0.266 C 
ATOM      6  H3  ZIN A   1      20.678   4.190  12.315  0.00  0.00     0.276 HD
ATOM      7  H4  ZIN A   1      20.131   3.347  13.620  0.00  0.00     0.276 HD
ENDBRANCH   3   4
ENDBRANCH   2   3
ENDBRANCH   1   2
BRANCH   1   8
ATOM      8  O9  ZIN A   1      18.990   1.505  11.593  0.00  0.00    -0.341 OA
BRANCH   8   9
ATOM      9  C10 ZIN A   1      18.673   1.130  10.326  0.00  0.00     0.069 A 
ATOM     10  C19 ZIN A   1      17.717   0.149  10.111  0.00  0.00     0.037 A 
ATOM     11  C18 ZIN A   1      17.393  -0.227   8.821  0.00  0.00     0.019 A 
ATOM     12  C13 ZIN A   1      18.028   0.367   7.747  0.00  0.00     0.048 A 
ATOM     13  C12 ZIN A   1      18.986   1.340   7.958  0.00  0.00     0.019 A 
ATOM     14  C11 ZIN A   1      19.309   1.724   9.246  0.00  0.00     0.037 A 
BRANCH  12  15
ATOM     15  C14 ZIN A   1      17.677  -0.050   6.342  0.00  0.00     0.417 C 
ATOM     16  F15 ZIN A   1      18.439   0.690   5.431  0.00  0.00    -0.166 F 
ATOM     17  F16 ZIN A   1      17.948  -1.412   6.177  0.00  0.00    -0.166 F 
ATOM     18  F17 ZIN A   1      16.318   0.186   6.112  0.00  0.00    -0.166 F 
ENDBRANCH  12  15
ENDBRANCH   8   9
ENDBRANCH   1   8
BRANCH   1  19
ATOM     19  C20 ZIN A   1      18.218   0.542  13.649  0.00  0.00    -0.029 A 
ATOM     20  C25 ZIN A   1      17.445   0.537  14.795  0.00  0.00     0.010 A 
ATOM     21  C24 ZIN A   1      17.710  -0.370  15.803  0.00  0.00     0.001 A 
ATOM     22  C23 ZIN A   1      18.751  -1.269  15.669  0.00  0.00     0.000 A 
ATOM     23  C22 ZIN A   1      19.527  -1.262  14.524  0.00  0.00     0.001 A 
ATOM     24  C21 ZIN A   1      19.260  -0.356  13.515  0.00  0.00     0.010 A 
ENDBRANCH   1  19
TORSDOF 7
ENDMDL
MODEL 7
REMARK VINA RESULT:      -7.0      2.634      4.198
REMARK  7 active torsions:
REMARK  status: ('A' for Active; 'I' for Inactive)
REMARK    1  A    between atoms: N2_2  and  C5_5 
REMARK    2  A    between atoms: C5_5  and  C6_6 
REMARK    3  A    between atoms: C6_6  and  C7_7 
REMARK    4  A    between atoms: C7_7  and  O9_8 
REMARK    5  A    between atoms: C7_7  and  C20_19 
REMARK    6  A    between atoms: O9_8  and  C10_9 
REMARK    7  A    between atoms: C13_12  and  C14_13 
ROOT
ATOM      1  C7  ZIN A   1      18.199  -0.364  11.956  0.00  0.00     0.163 C 
ENDROOT
BRANCH   1   2
ATOM      2  C6  ZIN A   1      18.112  -1.580  11.033  0.00  0.00     0.065 C 
BRANCH   2   3
ATOM      3  C5  ZIN A   1      18.172  -2.860  11.870  0.00  0.00     0.234 C 
BRANCH   3   4
ATOM      4  N2  ZIN A   1      19.568  -3.309  11.979  0.00  0.00    -0.079 N 
ATOM      5  C1  ZIN A   1      19.811  -4.391  11.016  0.00  0.00     0.266 C 
ATOM      6  H3  ZIN A   1      19.740  -3.645  12.914  0.00  0.00     0.276 HD
ATOM      7  H4  ZIN A   1      20.186  -2.536  11.779  0.00  0.00     0.276 HD
ENDBRANCH   3   4
ENDBRANCH   2   3
ENDBRANCH   1   2
BRANCH   1   8
ATOM      8  O9  ZIN A   1      19.358  -0.476  12.785  0.00  0.00    -0.341 OA
BRANCH   8   9
ATOM      9  C10 ZIN A   1      19.198  -0.214  14.109  0.00  0.00     0.069 A 
ATOM     10  C19 ZIN A   1      19.235   1.094  14.568  0.00  0.00     0.037 A 
ATOM     11  C18 ZIN A   1      19.067   1.358  15.913  0.00  0.00     0.019 A 
ATOM     12  C13 ZIN A   1      18.871   0.318  16.804  0.00  0.00     0.048 A 
ATOM     13  C12 ZIN A   1      18.840  -0.987  16.350  0.00  0.00     0.019 A 
ATOM     14  C11 ZIN A   1      19.001  -1.255  15.005  0.00  0.00     0.037 A 
BRANCH  12  15
ATOM     15  C14 ZIN A   1      18.693   0.609  18.272  0.00  0.00     0.417 C 
ATOM     16  F15 ZIN A   1      19.488   1.702  18.630  0.00  0.00    -0.166 F 
ATOM     17  F16 ZIN A   1      17.350   0.905  18.530  0.00  0.00    -0.166 F 
ATOM     18  F17 ZIN A   1      19.075  -0.510  19.018  0.00  0.00    -0.166 F 
ENDBRANCH  12  15
ENDBRANCH   8   9
ENDBRANCH   1   8
BRANCH   1  19
ATOM     19  C20 ZIN A   1      18.295   0.891  11.126  0.00  0.00    -0.029 A 
ATOM     20  C25 ZIN A   1      17.572   2.013  11.485  0.00  0.00     0.010 A 
ATOM     21  C24 ZIN A   1      17.663   3.165  10.727  0.00  0.00     0.001 A 
ATOM     22  C23 ZIN A   1      18.470   3.192   9.605  0.00  0.00     0.000 A 
ATOM     23  C22 ZIN A   1      19.190   2.068   9.244  0.00  0.00     0.001 A 
ATOM     24  C21 ZIN A   1      19.102   0.918  10.004  0.00  0.00     0.010 A 
ENDBRANCH   1  19
TORSDOF 7
ENDMDL
MODEL 8
REMARK VINA RESULT:      -7.0      4.180      6.757
REMARK  7 active torsions:
REMARK  status: ('A' for Active; 'I' for Inactive)
REMARK    1  A    between atoms: N2_2  and  C5_5 
REMARK    2  A    between atoms: C5_5  and  C6_6 
REMARK    3  A    between atoms: C6_6  and  C7_7 
REMARK    4  A    between atoms: C7_7  and  O9_8 
REMARK    5  A    between atoms: C7_7  and  C20_19 
REMARK    6  A    between atoms: O9_8  and  C10_9 
REMARK    7  A    between atoms: C13_12  and  C14_13 
ROOT
ATOM      1  C7  ZIN A   1      18.640   1.579  12.747  0.00  0.00     0.163 C 
ENDROOT
BRANCH   1   2
ATOM      2  C6  ZIN A   1      18.763   2.978  13.350  0.00  0.00     0.065 C 
BRANCH   2   3
ATOM      3  C5  ZIN A   1      17.589   3.841  12.883  0.00  0.00     0.234 C 
BRANCH   3   4
ATOM      4  N2  ZIN A   1      18.046   4.765  11.835  0.00  0.00    -0.079 N 
ATOM      5  C1  ZIN A   1      16.978   4.948  10.843  0.00  0.00     0.266 C 
ATOM      6  H3  ZIN A   1      18.863   4.382  11.383  0.00  0.00     0.276 HD
ATOM      7  H4  ZIN A   1      18.277   5.656  12.249  0.00  0.00     0.276 HD
ENDBRANCH   3   4
ENDBRANCH   2   3
ENDBRANCH   1   2
BRANCH   1   8
ATOM      8  O9  ZIN A   1      19.783   1.308  11.933  0.00  0.00    -0.341 OA
BRANCH   8   9
ATOM      9  C10 ZIN A   1      19.560   1.082  10.611  0.00  0.00     0.069 A 
ATOM     10  C19 ZIN A   1      19.200   2.132   9.779  0.00  0.00     0.037 A 
ATOM     11  C18 ZIN A   1      18.978   1.901   8.434  0.00  0.00     0.019 A 
ATOM     12  C13 ZIN A   1      19.106   0.624   7.921  0.00  0.00     0.048 A 
ATOM     13  C12 ZIN A   1      19.460  -0.425   8.749  0.00  0.00     0.019 A 
ATOM     14  C11 ZIN A   1      19.688  -0.198  10.093  0.00  0.00     0.037 A 
BRANCH  12  15
ATOM     15  C14 ZIN A   1      18.859   0.374   6.455  0.00  0.00     0.417 C 
ATOM     16  F15 ZIN A   1      17.489   0.470   6.191  0.00  0.00    -0.166 F 
ATOM     17  F16 ZIN A   1      19.548   1.327   5.697  0.00  0.00    -0.166 F 
ATOM     18  F17 ZIN A   1      19.311  -0.905   6.118  0.00  0.00    -0.166 F 
ENDBRANCH  12  15
ENDBRANCH   8   9
ENDBRANCH   1   8
BRANCH   1  19
ATOM     19  C20 ZIN A   1      18.559   0.560  13.854  0.00  0.00    -0.029 A 
ATOM     20  C25 ZIN A   1      19.453  -0.494  13.890  0.00  0.00     0.010 A 
ATOM     21  C24 ZIN A   1      19.382  -1.427  14.907  0.00  0.00     0.001 A 
ATOM     22  C23 ZIN A   1      18.413  -1.310  15.885  0.00  0.00     0.000 A 
ATOM     23  C22 ZIN A   1      17.516  -0.258  15.848  0.00  0.00     0.001 A 
ATOM     24  C21 ZIN A   1      17.589   0.676  14.832  0.00  0.00     0.010 A 
ENDBRANCH   1  19
TORSDOF 7
ENDMDL
MODEL 9
REMARK VINA RESULT:      -7.0      4.632      7.531
REMARK  7 active torsions:
REMARK  status: ('A' for Active; 'I' for Inactive)
REMARK    1  A    between atoms: N2_2  and  C5_5 
REMARK    2  A    between atoms: C5_5  and  C6_6 
REMARK    3  A    between atoms: C6_6  and  C7_7 
REMARK    4  A    between atoms: C7_7  and  O9_8 
REMARK    5  A    between atoms: C7_7  and  C20_19 
REMARK    6  A    between atoms: O9_8  and  C10_9 
REMARK    7  A    between atoms: C13_12  and  C14_13 
ROOT
ATOM      1  C7  ZIN A   1      18.959  -0.777  12.921  0.00  0.00     0.163 C 
ENDROOT
BRANCH   1   2
ATOM      2  C6  ZIN A   1      18.343  -2.025  12.287  0.00  0.00     0.065 C 
BRANCH   2   3
ATOM      3  C5  ZIN A   1      19.452  -3.025  11.950  0.00  0.00     0.234 C 
BRANCH   3   4
ATOM      4  N2  ZIN A   1      19.935  -2.779  10.584  0.00  0.00    -0.079 N 
ATOM      5  C1  ZIN A   1      18.903  -3.179   9.619  0.00  0.00     0.266 C 
ATOM      6  H3  ZIN A   1      20.774  -3.316  10.422  0.00  0.00     0.276 HD
ATOM      7  H4  ZIN A   1      20.139  -1.796  10.471  0.00  0.00     0.276 HD
ENDBRANCH   3   4
ENDBRANCH   2   3
ENDBRANCH   1   2
BRANCH   1   8
ATOM      8  O9  ZIN A   1      18.432   0.390  12.285  0.00  0.00    -0.341 OA
BRANCH   8   9
ATOM      9  C10 ZIN A   1      18.448   0.412  10.926  0.00  0.00     0.069 A 
ATOM     10  C19 ZIN A   1      17.288   0.145  10.214  0.00  0.00     0.037 A 
ATOM     11  C18 ZIN A   1      17.305   0.173   8.832  0.00  0.00     0.019 A 
ATOM     12  C13 ZIN A   1      18.480   0.458   8.160  0.00  0.00     0.048 A 
ATOM     13  C12 ZIN A   1      19.638   0.718   8.868  0.00  0.00     0.019 A 
ATOM     14  C11 ZIN A   1      19.624   0.697  10.249  0.00  0.00     0.037 A 
BRANCH  12  15
ATOM     15  C14 ZIN A   1      18.497   0.482   6.654  0.00  0.00     0.417 C 
ATOM     16  F15 ZIN A   1      17.206   0.246   6.169  0.00  0.00    -0.166 F 
ATOM     17  F16 ZIN A   1      18.939   1.734   6.212  0.00  0.00    -0.166 F 
ATOM     18  F17 ZIN A   1      19.362  -0.510   6.181  0.00  0.00    -0.166 F 
ENDBRANCH  12  15
ENDBRANCH   8   9
ENDBRANCH   1   8
BRANCH   1  19
ATOM     19  C20 ZIN A   1      18.623  -0.743  14.390  0.00  0.00    -0.029 A 
ATOM     20  C25 ZIN A   1      19.260  -1.604  15.264  0.00  0.00     0.010 A 
ATOM     21  C24 ZIN A   1      18.955  -1.571  16.611  0.00  0.00     0.001 A 
ATOM     22  C23 ZIN A   1      18.009  -0.681  17.084  0.00  0.00     0.000 A 
ATOM     23  C22 ZIN A   1      17.370   0.178  16.210  0.00  0.00     0.001 A 
ATOM     24  C21 ZIN A   1      17.676   0.147  14.863  0.00  0.00     0.010 A 
ENDBRANCH   1  19
TORSDOF 7
ENDMDL
