MODEL 1
REMARK VINA RESULT:      -3.9      0.000      0.000
REMARK  2 active torsions:
REMARK  status: ('A' for Active; 'I' for Inactive)
REMARK    1  A    between atoms: C22_20  and  C24_21 
REMARK    2  A    between atoms: C33_30  and  C35_31 
ROOT
ATOM      1  C1  ZIN A   1      18.728  -6.068   2.626  0.00  0.00     0.038 C 
ATOM      2  C2  ZIN A   1      17.285  -5.662   2.780  0.00  0.00     0.004 C 
ATOM      3  C3  ZIN A   1      16.889  -5.021   3.878  0.00  0.00     0.099 C 
ATOM      4  N4  ZIN A   1      15.530  -4.684   4.084  0.00  0.00    -0.321 N 
ATOM      5  C5  ZIN A   1      14.636  -4.930   3.098  0.00  0.00     0.245 C 
ATOM      6  O6  ZIN A   1      14.819  -4.493   1.979  0.00  0.00    -0.271 OA
ATOM      7  C7  ZIN A   1      13.388  -5.714   3.379  0.00  0.00     0.187 C 
ATOM      8  C9  ZIN A   1      12.904  -6.412   2.110  0.00  0.00     0.120 C 
ATOM      9  S10 ZIN A   1      14.313  -7.141   1.238  0.00  0.00    -0.095 SA
ATOM     10  S11 ZIN A   1      14.508  -8.979   2.132  0.00  0.00    -0.097 SA
ATOM     11  C12 ZIN A   1      16.268  -9.360   1.897  0.00  0.00     0.090 C 
ATOM     12  C13 ZIN A   1      16.618 -10.633   2.663  0.00  0.00     0.038 C 
ATOM     13  C14 ZIN A   1      16.490 -10.392   4.149  0.00  0.00    -0.027 C 
ATOM     14  C15 ZIN A   1      17.567 -10.318   4.886  0.00  0.00     0.002 C 
ATOM     15  C16 ZIN A   1      17.515 -10.138   6.372  0.00  0.00     0.163 C 
ATOM     16  C18 ZIN A   1      16.092 -10.303   6.907  0.00  0.00     0.139 C 
ATOM     17  C19 ZIN A   1      15.490  -8.956   7.211  0.00  0.00     0.221 C 
ATOM     18  O20 ZIN A   1      15.867  -8.325   8.176  0.00  0.00    -0.274 OA
ATOM     19  N21 ZIN A   1      14.504  -8.463   6.410  0.00  0.00    -0.347 N 
ATOM     20  C22 ZIN A   1      13.895  -7.191   6.845  0.00  0.00     0.180 C 
ATOM     21  C27 ZIN A   1      13.275  -6.489   5.671  0.00  0.00     0.241 C 
ATOM     22  O28 ZIN A   1      12.369  -5.701   5.864  0.00  0.00    -0.271 OA
ATOM     23  N29 ZIN A   1      13.688  -6.715   4.410  0.00  0.00    -0.345 N 
ATOM     24  O30 ZIN A   1      18.074  -8.876   6.783  0.00  0.00    -0.310 OA
ATOM     25  C31 ZIN A   1      17.834  -7.753   6.105  0.00  0.00     0.282 C 
ATOM     26  O32 ZIN A   1      17.070  -7.748   5.172  0.00  0.00    -0.263 OA
ATOM     27  C33 ZIN A   1      18.525  -6.472   6.501  0.00  0.00     0.188 C 
ATOM     28  N38 ZIN A   1      18.753  -5.622   5.331  0.00  0.00    -0.342 N 
ATOM     29  C39 ZIN A   1      17.850  -4.700   4.957  0.00  0.00     0.268 C 
ATOM     30  O40 ZIN A   1      17.808  -3.593   5.440  0.00  0.00    -0.266 OA
ATOM     31  H45 ZIN A   1      15.235  -4.282   4.927  0.00  0.00     0.169 HD
ATOM     32  H56 ZIN A   1      14.225  -8.918   5.602  0.00  0.00     0.163 HD
ATOM     33  H64 ZIN A   1      14.190  -7.518   4.186  0.00  0.00     0.163 HD
ATOM     34  H72 ZIN A   1      19.583  -5.728   4.815  0.00  0.00     0.163 HD
ENDROOT
BRANCH  20  35
ATOM     35  C24 ZIN A   1      12.826  -7.462   7.909  0.00  0.00     0.009 C 
ATOM     36  C25 ZIN A   1      12.188  -6.140   8.339  0.00  0.00     0.012 C 
ATOM     37  C26 ZIN A   1      11.752  -8.385   7.330  0.00  0.00     0.012 C 
ENDBRANCH  20  35
BRANCH  27  38
ATOM     38  C35 ZIN A   1      17.673  -5.738   7.539  0.00  0.00     0.010 C 
ATOM     39  C36 ZIN A   1      17.544  -6.603   8.795  0.00  0.00     0.012 C 
ATOM     40  C37 ZIN A   1      18.340  -4.410   7.901  0.00  0.00     0.012 C 
ENDBRANCH  27  38
TORSDOF 2
ENDMDL
