MODEL 1
REMARK VINA RESULT:      -6.7      0.000      0.000
REMARK  6 active torsions:
REMARK  status: ('A' for Active; 'I' for Inactive)
REMARK    1  A    between atoms: N2_2  and  C5_5 
REMARK    2  A    between atoms: C5_5  and  C6_6 
REMARK    3  A    between atoms: C6_6  and  C8_7 
REMARK    4  A    between atoms: C6_6  and  C15_14 
REMARK    5  A    between atoms: C11_10  and  O12_11 
REMARK    6  A    between atoms: C15_14  and  O16_15 
ROOT
ATOM      1  C6  ZIN A   1      19.459  -0.674  12.045  0.00  0.00     0.079 C 
ENDROOT
BRANCH   1   2
ATOM      2  C5  ZIN A   1      18.708   0.303  11.138  0.00  0.00     0.246 C 
BRANCH   2   3
ATOM      3  N2  ZIN A   1      19.670   1.198  10.482  0.00  0.00    -0.078 N 
ATOM      4  C1  ZIN A   1      19.406   1.225   9.037  0.00  0.00     0.269 C 
ATOM      5  H3  ZIN A   1      20.608   0.865  10.648  0.00  0.00     0.279 HD
ATOM      6  C4  ZIN A   1      19.528   2.555  11.030  0.00  0.00     0.269 C 
ENDBRANCH   2   3
ENDBRANCH   1   2
BRANCH   1   7
ATOM      7  C8  ZIN A   1      18.980  -2.078  11.779  0.00  0.00    -0.049 A 
ATOM      8  C14 ZIN A   1      19.891  -3.113  11.692  0.00  0.00     0.010 A 
ATOM      9  C13 ZIN A   1      19.454  -4.402  11.453  0.00  0.00     0.037 A 
ATOM     10  C11 ZIN A   1      18.098  -4.654  11.290  0.00  0.00     0.065 A 
ATOM     11  C10 ZIN A   1      17.187  -3.611  11.372  0.00  0.00     0.037 A 
ATOM     12  C9  ZIN A   1      17.629  -2.326  11.617  0.00  0.00     0.010 A 
BRANCH  10  13
ATOM     13  O12 ZIN A   1      17.666  -5.919  11.049  0.00  0.00    -0.361 OA
ATOM     14  H32 ZIN A   1      17.681  -6.169  10.116  0.00  0.00     0.217 HD
ENDBRANCH  10  13
ENDBRANCH   1   7
BRANCH   1  15
ATOM     15  C15 ZIN A   1      19.198  -0.314  13.509  0.00  0.00     0.067 C 
ATOM     16  C21 ZIN A   1      19.346  -1.567  14.376  0.00  0.00     0.038 C 
ATOM     17  C20 ZIN A   1      19.084  -1.207  15.840  0.00  0.00     0.003 C 
ATOM     18  C19 ZIN A   1      17.665  -0.652  15.983  0.00  0.00     0.000 C 
ATOM     19  C18 ZIN A   1      17.519   0.601  15.117  0.00  0.00     0.003 C 
ATOM     20  C17 ZIN A   1      17.780   0.241  13.653  0.00  0.00     0.038 C 
BRANCH  15  21
ATOM     21  O16 ZIN A   1      20.142   0.672  13.934  0.00  0.00    -0.389 OA
ATOM     22  H35 ZIN A   1      20.968   0.667  13.431  0.00  0.00     0.210 HD
ENDBRANCH  15  21
ENDBRANCH   1  15
TORSDOF 6
ENDMDL
MODEL 2
REMARK VINA RESULT:      -6.5      2.073      3.997
REMARK  6 active torsions:
REMARK  status: ('A' for Active; 'I' for Inactive)
REMARK    1  A    between atoms: N2_2  and  C5_5 
REMARK    2  A    between atoms: C5_5  and  C6_6 
REMARK    3  A    between atoms: C6_6  and  C8_7 
REMARK    4  A    between atoms: C6_6  and  C15_14 
REMARK    5  A    between atoms: C11_10  and  O12_11 
REMARK    6  A    between atoms: C15_14  and  O16_15 
ROOT
ATOM      1  C6  ZIN A   1      17.588  -1.007  12.775  0.00  0.00     0.079 C 
ENDROOT
BRANCH   1   2
ATOM      2  C5  ZIN A   1      18.548  -0.510  13.858  0.00  0.00     0.246 C 
BRANCH   2   3
ATOM      3  N2  ZIN A   1      18.047  -0.916  15.179  0.00  0.00    -0.078 N 
ATOM      4  C1  ZIN A   1      19.156  -1.448  15.981  0.00  0.00     0.269 C 
ATOM      5  H3  ZIN A   1      17.340  -1.627  15.066  0.00  0.00     0.279 HD
ATOM      6  C4  ZIN A   1      17.465   0.250  15.860  0.00  0.00     0.269 C 
ENDBRANCH   2   3
ENDBRANCH   1   2
BRANCH   1   7
ATOM      7  C8  ZIN A   1      18.199  -2.188  12.065  0.00  0.00    -0.049 A 
ATOM      8  C14 ZIN A   1      19.554  -2.434  12.176  0.00  0.00     0.010 A 
ATOM      9  C13 ZIN A   1      20.117  -3.518  11.531  0.00  0.00     0.037 A 
ATOM     10  C11 ZIN A   1      19.320  -4.355  10.761  0.00  0.00     0.065 A 
ATOM     11  C10 ZIN A   1      17.961  -4.102  10.647  0.00  0.00     0.037 A 
ATOM     12  C9  ZIN A   1      17.403  -3.019  11.299  0.00  0.00     0.010 A 
BRANCH  10  13
ATOM     13  O12 ZIN A   1      19.871  -5.419  10.120  0.00  0.00    -0.361 OA
ATOM     14  H32 ZIN A   1      20.384  -6.002  10.696  0.00  0.00     0.217 HD
ENDBRANCH  10  13
ENDBRANCH   1   7
BRANCH   1  15
ATOM     15  C15 ZIN A   1      17.329   0.116  11.769  0.00  0.00     0.067 C 
ATOM     16  C21 ZIN A   1      18.112  -0.163  10.483  0.00  0.00     0.038 C 
ATOM     17  C20 ZIN A   1      17.853   0.961   9.477  0.00  0.00     0.003 C 
ATOM     18  C19 ZIN A   1      18.309   2.295  10.073  0.00  0.00     0.000 C 
ATOM     19  C18 ZIN A   1      17.526   2.572  11.358  0.00  0.00     0.003 C 
ATOM     20  C17 ZIN A   1      17.785   1.449  12.364  0.00  0.00     0.038 C 
BRANCH  15  21
ATOM     21  O16 ZIN A   1      15.933   0.178  11.472  0.00  0.00    -0.389 OA
ATOM     22  H35 ZIN A   1      15.701  -0.166  10.598  0.00  0.00     0.210 HD
ENDBRANCH  15  21
ENDBRANCH   1  15
TORSDOF 6
ENDMDL
MODEL 3
REMARK VINA RESULT:      -6.5      3.295      5.510
REMARK  6 active torsions:
REMARK  status: ('A' for Active; 'I' for Inactive)
REMARK    1  A    between atoms: N2_2  and  C5_5 
REMARK    2  A    between atoms: C5_5  and  C6_6 
REMARK    3  A    between atoms: C6_6  and  C8_7 
REMARK    4  A    between atoms: C6_6  and  C15_14 
REMARK    5  A    between atoms: C11_10  and  O12_11 
REMARK    6  A    between atoms: C15_14  and  O16_15 
ROOT
ATOM      1  C6  ZIN A   1      18.157  -0.939   9.498  0.00  0.00     0.079 C 
ENDROOT
BRANCH   1   2
ATOM      2  C5  ZIN A   1      19.201  -1.956   9.962  0.00  0.00     0.246 C 
BRANCH   2   3
ATOM      3  N2  ZIN A   1      18.844  -2.450  11.298  0.00  0.00    -0.078 N 
ATOM      4  C1  ZIN A   1      17.501  -3.044  11.257  0.00  0.00     0.269 C 
ATOM      5  H3  ZIN A   1      18.853  -1.683  11.954  0.00  0.00     0.279 HD
ATOM      6  C4  ZIN A   1      19.817  -3.468  11.720  0.00  0.00     0.269 C 
ENDBRANCH   2   3
ENDBRANCH   1   2
BRANCH   1   7
ATOM      7  C8  ZIN A   1      18.178  -0.847   7.994  0.00  0.00    -0.049 A 
ATOM      8  C14 ZIN A   1      17.131  -0.240   7.326  0.00  0.00     0.010 A 
ATOM      9  C13 ZIN A   1      17.150  -0.150   5.947  0.00  0.00     0.037 A 
ATOM     10  C11 ZIN A   1      18.217  -0.678   5.233  0.00  0.00     0.065 A 
ATOM     11  C10 ZIN A   1      19.263  -1.291   5.907  0.00  0.00     0.037 A 
ATOM     12  C9  ZIN A   1      19.241  -1.374   7.286  0.00  0.00     0.010 A 
BRANCH  10  13
ATOM     13  O12 ZIN A   1      18.235  -0.596   3.877  0.00  0.00    -0.361 OA
ATOM     14  H32 ZIN A   1      18.551   0.253   3.539  0.00  0.00     0.217 HD
ENDBRANCH  10  13
ENDBRANCH   1   7
BRANCH   1  15
ATOM     15  C15 ZIN A   1      18.477   0.431  10.098  0.00  0.00     0.067 C 
ATOM     16  C21 ZIN A   1      17.318   0.881  10.990  0.00  0.00     0.038 C 
ATOM     17  C20 ZIN A   1      17.638   2.252  11.589  0.00  0.00     0.003 C 
ATOM     18  C19 ZIN A   1      17.839   3.268  10.462  0.00  0.00     0.000 C 
ATOM     19  C18 ZIN A   1      18.998   2.818   9.571  0.00  0.00     0.003 C 
ATOM     20  C17 ZIN A   1      18.677   1.447   8.971  0.00  0.00     0.038 C 
BRANCH  15  21
ATOM     21  O16 ZIN A   1      19.671   0.343  10.878  0.00  0.00    -0.389 OA
ATOM     22  H35 ZIN A   1      20.415  -0.063  10.413  0.00  0.00     0.210 HD
ENDBRANCH  15  21
ENDBRANCH   1  15
TORSDOF 6
ENDMDL
MODEL 4
REMARK VINA RESULT:      -6.5      3.048      5.190
REMARK  6 active torsions:
REMARK  status: ('A' for Active; 'I' for Inactive)
REMARK    1  A    between atoms: N2_2  and  C5_5 
REMARK    2  A    between atoms: C5_5  and  C6_6 
REMARK    3  A    between atoms: C6_6  and  C8_7 
REMARK    4  A    between atoms: C6_6  and  C15_14 
REMARK    5  A    between atoms: C11_10  and  O12_11 
REMARK    6  A    between atoms: C15_14  and  O16_15 
ROOT
ATOM      1  C6  ZIN A   1      18.690   1.055  10.964  0.00  0.00     0.079 C 
ENDROOT
BRANCH   1   2
ATOM      2  C5  ZIN A   1      20.090   0.590  11.368  0.00  0.00     0.246 C 
BRANCH   2   3
ATOM      3  N2  ZIN A   1      19.983  -0.412  12.437  0.00  0.00    -0.078 N 
ATOM      4  C1  ZIN A   1      20.137   0.246  13.741  0.00  0.00     0.269 C 
ATOM      5  H3  ZIN A   1      20.707  -1.106  12.322  0.00  0.00     0.279 HD
ATOM      6  C4  ZIN A   1      18.667  -1.062  12.369  0.00  0.00     0.269 C 
ENDBRANCH   2   3
ENDBRANCH   1   2
BRANCH   1   7
ATOM      7  C8  ZIN A   1      18.491   0.828   9.487  0.00  0.00    -0.049 A 
ATOM      8  C14 ZIN A   1      17.430   0.062   9.044  0.00  0.00     0.010 A 
ATOM      9  C13 ZIN A   1      17.242  -0.144   7.691  0.00  0.00     0.037 A 
ATOM     10  C11 ZIN A   1      18.127   0.411   6.777  0.00  0.00     0.065 A 
ATOM     11  C10 ZIN A   1      19.195   1.175   7.225  0.00  0.00     0.037 A 
ATOM     12  C9  ZIN A   1      19.375   1.382   8.579  0.00  0.00     0.010 A 
BRANCH  10  13
ATOM     13  O12 ZIN A   1      17.949   0.206   5.446  0.00  0.00    -0.361 OA
ATOM     14  H32 ZIN A   1      18.746  -0.084   4.982  0.00  0.00     0.217 HD
ENDBRANCH  10  13
ENDBRANCH   1   7
BRANCH   1  15
ATOM     15  C15 ZIN A   1      18.538   2.545  11.276  0.00  0.00     0.067 C 
ATOM     16  C21 ZIN A   1      17.753   2.715  12.579  0.00  0.00     0.038 C 
ATOM     17  C20 ZIN A   1      17.601   4.206  12.890  0.00  0.00     0.003 C 
ATOM     18  C19 ZIN A   1      16.848   4.891  11.748  0.00  0.00     0.000 C 
ATOM     19  C18 ZIN A   1      17.632   4.721  10.446  0.00  0.00     0.003 C 
ATOM     20  C17 ZIN A   1      17.785   3.231  10.134  0.00  0.00     0.038 C 
BRANCH  15  21
ATOM     21  O16 ZIN A   1      19.831   3.137  11.418  0.00  0.00    -0.389 OA
ATOM     22  H35 ZIN A   1      20.204   3.469  10.590  0.00  0.00     0.210 HD
ENDBRANCH  15  21
ENDBRANCH   1  15
TORSDOF 6
ENDMDL
MODEL 5
REMARK VINA RESULT:      -6.4      3.240      5.788
REMARK  6 active torsions:
REMARK  status: ('A' for Active; 'I' for Inactive)
REMARK    1  A    between atoms: N2_2  and  C5_5 
REMARK    2  A    between atoms: C5_5  and  C6_6 
REMARK    3  A    between atoms: C6_6  and  C8_7 
REMARK    4  A    between atoms: C6_6  and  C15_14 
REMARK    5  A    between atoms: C11_10  and  O12_11 
REMARK    6  A    between atoms: C15_14  and  O16_15 
ROOT
ATOM      1  C6  ZIN A   1      18.139  -1.558   8.639  0.00  0.00     0.079 C 
ENDROOT
BRANCH   1   2
ATOM      2  C5  ZIN A   1      18.930  -1.778   7.348  0.00  0.00     0.246 C 
BRANCH   2   3
ATOM      3  N2  ZIN A   1      18.008  -2.153   6.267  0.00  0.00    -0.078 N 
ATOM      4  C1  ZIN A   1      17.775  -0.992   5.398  0.00  0.00     0.269 C 
ATOM      5  H3  ZIN A   1      17.132  -2.459   6.664  0.00  0.00     0.279 HD
ATOM      6  C4  ZIN A   1      18.598  -3.245   5.479  0.00  0.00     0.269 C 
ENDBRANCH   2   3
ENDBRANCH   1   2
BRANCH   1   7
ATOM      7  C8  ZIN A   1      18.234  -0.110   9.046  0.00  0.00    -0.049 A 
ATOM      8  C14 ZIN A   1      17.446   0.370  10.075  0.00  0.00     0.010 A 
ATOM      9  C13 ZIN A   1      17.534   1.696  10.454  0.00  0.00     0.037 A 
ATOM     10  C11 ZIN A   1      18.407   2.548   9.793  0.00  0.00     0.065 A 
ATOM     11  C10 ZIN A   1      19.192   2.065   8.756  0.00  0.00     0.037 A 
ATOM     12  C9  ZIN A   1      19.104   0.737   8.385  0.00  0.00     0.010 A 
BRANCH  10  13
ATOM     13  O12 ZIN A   1      18.492   3.854  10.159  0.00  0.00    -0.361 OA
ATOM     14  H32 ZIN A   1      17.652   4.236  10.447  0.00  0.00     0.217 HD
ENDBRANCH  10  13
ENDBRANCH   1   7
BRANCH   1  15
ATOM     15  C15 ZIN A   1      18.718  -2.439   9.748  0.00  0.00     0.067 C 
ATOM     16  C21 ZIN A   1      19.005  -3.835   9.192  0.00  0.00     0.038 C 
ATOM     17  C20 ZIN A   1      19.582  -4.716  10.302  0.00  0.00     0.003 C 
ATOM     18  C19 ZIN A   1      18.574  -4.821  11.448  0.00  0.00     0.000 C 
ATOM     19  C18 ZIN A   1      18.287  -3.424  12.003  0.00  0.00     0.003 C 
ATOM     20  C17 ZIN A   1      17.709  -2.544  10.894  0.00  0.00     0.038 C 
BRANCH  15  21
ATOM     21  O16 ZIN A   1      19.931  -1.860  10.232  0.00  0.00    -0.389 OA
ATOM     22  H35 ZIN A   1      19.816  -0.993  10.644  0.00  0.00     0.210 HD
ENDBRANCH  15  21
ENDBRANCH   1  15
TORSDOF 6
ENDMDL
MODEL 6
REMARK VINA RESULT:      -6.4      2.417      3.210
REMARK  6 active torsions:
REMARK  status: ('A' for Active; 'I' for Inactive)
REMARK    1  A    between atoms: N2_2  and  C5_5 
REMARK    2  A    between atoms: C5_5  and  C6_6 
REMARK    3  A    between atoms: C6_6  and  C8_7 
REMARK    4  A    between atoms: C6_6  and  C15_14 
REMARK    5  A    between atoms: C11_10  and  O12_11 
REMARK    6  A    between atoms: C15_14  and  O16_15 
ROOT
ATOM      1  C6  ZIN A   1      19.448   1.426  11.347  0.00  0.00     0.079 C 
ENDROOT
BRANCH   1   2
ATOM      2  C5  ZIN A   1      18.379   2.475  11.659  0.00  0.00     0.246 C 
BRANCH   2   3
ATOM      3  N2  ZIN A   1      18.833   3.791  11.189  0.00  0.00    -0.078 N 
ATOM      4  C1  ZIN A   1      17.751   4.442  10.437  0.00  0.00     0.269 C 
ATOM      5  H3  ZIN A   1      19.637   3.675  10.590  0.00  0.00     0.279 HD
ATOM      6  C4  ZIN A   1      19.198   4.624  12.343  0.00  0.00     0.269 C 
ENDBRANCH   2   3
ENDBRANCH   1   2
BRANCH   1   7
ATOM      7  C8  ZIN A   1      19.005   0.591  10.173  0.00  0.00    -0.049 A 
ATOM      8  C14 ZIN A   1      19.927  -0.168   9.479  0.00  0.00     0.010 A 
ATOM      9  C13 ZIN A   1      19.523  -0.938   8.406  0.00  0.00     0.037 A 
ATOM     10  C11 ZIN A   1      18.190  -0.941   8.018  0.00  0.00     0.065 A 
ATOM     11  C10 ZIN A   1      17.268  -0.173   8.714  0.00  0.00     0.037 A 
ATOM     12  C9  ZIN A   1      17.676   0.591   9.789  0.00  0.00     0.010 A 
BRANCH  10  13
ATOM     13  O12 ZIN A   1      17.791  -1.693   6.959  0.00  0.00    -0.361 OA
ATOM     14  H32 ZIN A   1      18.031  -2.626   7.027  0.00  0.00     0.217 HD
ENDBRANCH  10  13
ENDBRANCH   1   7
BRANCH   1  15
ATOM     15  C15 ZIN A   1      19.650   0.525  12.567  0.00  0.00     0.067 C 
ATOM     16  C21 ZIN A   1      19.034  -0.849  12.293  0.00  0.00     0.038 C 
ATOM     17  C20 ZIN A   1      19.236  -1.750  13.514  0.00  0.00     0.003 C 
ATOM     18  C19 ZIN A   1      18.556  -1.120  14.731  0.00  0.00     0.000 C 
ATOM     19  C18 ZIN A   1      19.172   0.254  15.004  0.00  0.00     0.003 C 
ATOM     20  C17 ZIN A   1      18.970   1.155  13.784  0.00  0.00     0.038 C 
BRANCH  15  21
ATOM     21  O16 ZIN A   1      21.048   0.378  12.824  0.00  0.00    -0.389 OA
ATOM     22  H35 ZIN A   1      21.260   0.197  13.751  0.00  0.00     0.210 HD
ENDBRANCH  15  21
ENDBRANCH   1  15
TORSDOF 6
ENDMDL
MODEL 7
REMARK VINA RESULT:      -6.4      2.850      5.321
REMARK  6 active torsions:
REMARK  status: ('A' for Active; 'I' for Inactive)
REMARK    1  A    between atoms: N2_2  and  C5_5 
REMARK    2  A    between atoms: C5_5  and  C6_6 
REMARK    3  A    between atoms: C6_6  and  C8_7 
REMARK    4  A    between atoms: C6_6  and  C15_14 
REMARK    5  A    between atoms: C11_10  and  O12_11 
REMARK    6  A    between atoms: C15_14  and  O16_15 
ROOT
ATOM      1  C6  ZIN A   1      18.024   1.644  10.737  0.00  0.00     0.079 C 
ENDROOT
BRANCH   1   2
ATOM      2  C5  ZIN A   1      18.707   3.011  10.810  0.00  0.00     0.246 C 
BRANCH   2   3
ATOM      3  N2  ZIN A   1      17.805   3.975  11.455  0.00  0.00    -0.078 N 
ATOM      4  C1  ZIN A   1      18.536   4.705  12.499  0.00  0.00     0.269 C 
ATOM      5  H3  ZIN A   1      17.027   3.483  11.868  0.00  0.00     0.279 HD
ATOM      6  C4  ZIN A   1      17.306   4.925  10.450  0.00  0.00     0.269 C 
ENDBRANCH   2   3
ENDBRANCH   1   2
BRANCH   1   7
ATOM      7  C8  ZIN A   1      18.433   0.813  11.925  0.00  0.00    -0.049 A 
ATOM      8  C14 ZIN A   1      19.661   1.022  12.523  0.00  0.00     0.010 A 
ATOM      9  C13 ZIN A   1      20.037   0.265  13.616  0.00  0.00     0.037 A 
ATOM     10  C11 ZIN A   1      19.184  -0.714  14.107  0.00  0.00     0.065 A 
ATOM     11  C10 ZIN A   1      17.955  -0.926  13.500  0.00  0.00     0.037 A 
ATOM     12  C9  ZIN A   1      17.581  -0.162  12.411  0.00  0.00     0.010 A 
BRANCH  10  13
ATOM     13  O12 ZIN A   1      19.554  -1.465  15.177  0.00  0.00    -0.361 OA
ATOM     14  H32 ZIN A   1      19.544  -2.417  15.012  0.00  0.00     0.217 HD
ENDBRANCH  10  13
ENDBRANCH   1   7
BRANCH   1  15
ATOM     15  C15 ZIN A   1      18.441   0.933   9.448  0.00  0.00     0.067 C 
ATOM     16  C21 ZIN A   1      18.802   1.973   8.386  0.00  0.00     0.038 C 
ATOM     17  C20 ZIN A   1      19.219   1.261   7.097  0.00  0.00     0.003 C 
ATOM     18  C19 ZIN A   1      18.061   0.398   6.593  0.00  0.00     0.000 C 
ATOM     19  C18 ZIN A   1      17.701  -0.642   7.655  0.00  0.00     0.003 C 
ATOM     20  C17 ZIN A   1      17.283   0.069   8.944  0.00  0.00     0.038 C 
BRANCH  15  21
ATOM     21  O16 ZIN A   1      19.576   0.104   9.708  0.00  0.00    -0.389 OA
ATOM     22  H35 ZIN A   1      20.336   0.580  10.069  0.00  0.00     0.210 HD
ENDBRANCH  15  21
ENDBRANCH   1  15
TORSDOF 6
ENDMDL
MODEL 8
REMARK VINA RESULT:      -6.3      3.358      7.060
REMARK  6 active torsions:
REMARK  status: ('A' for Active; 'I' for Inactive)
REMARK    1  A    between atoms: N2_2  and  C5_5 
REMARK    2  A    between atoms: C5_5  and  C6_6 
REMARK    3  A    between atoms: C6_6  and  C8_7 
REMARK    4  A    between atoms: C6_6  and  C15_14 
REMARK    5  A    between atoms: C11_10  and  O12_11 
REMARK    6  A    between atoms: C15_14  and  O16_15 
ROOT
ATOM      1  C6  ZIN A   1      19.034  -0.885   8.740  0.00  0.00     0.079 C 
ENDROOT
BRANCH   1   2
ATOM      2  C5  ZIN A   1      18.513  -2.081   9.539  0.00  0.00     0.246 C 
BRANCH   2   3
ATOM      3  N2  ZIN A   1      19.649  -2.845  10.073  0.00  0.00    -0.078 N 
ATOM      4  C1  ZIN A   1      19.782  -2.583  11.512  0.00  0.00     0.269 C 
ATOM      5  H3  ZIN A   1      20.494  -2.565   9.599  0.00  0.00     0.279 HD
ATOM      6  C4  ZIN A   1      19.418  -4.280   9.855  0.00  0.00     0.269 C 
ENDBRANCH   2   3
ENDBRANCH   1   2
BRANCH   1   7
ATOM      7  C8  ZIN A   1      18.603   0.394   9.411  0.00  0.00    -0.049 A 
ATOM      8  C14 ZIN A   1      19.123   1.603   8.990  0.00  0.00     0.010 A 
ATOM      9  C13 ZIN A   1      18.726   2.778   9.600  0.00  0.00     0.037 A 
ATOM     10  C11 ZIN A   1      17.813   2.741  10.645  0.00  0.00     0.065 A 
ATOM     11  C10 ZIN A   1      17.299   1.525  11.070  0.00  0.00     0.037 A 
ATOM     12  C9  ZIN A   1      17.695   0.354  10.453  0.00  0.00     0.010 A 
BRANCH  10  13
ATOM     13  O12 ZIN A   1      17.426   3.893  11.251  0.00  0.00    -0.361 OA
ATOM     14  H32 ZIN A   1      17.274   4.627  10.640  0.00  0.00     0.217 HD
ENDBRANCH  10  13
ENDBRANCH   1   7
BRANCH   1  15
ATOM     15  C15 ZIN A   1      18.464  -0.933   7.321  0.00  0.00     0.067 C 
ATOM     16  C21 ZIN A   1      18.828  -2.269   6.670  0.00  0.00     0.038 C 
ATOM     17  C20 ZIN A   1      18.259  -2.316   5.251  0.00  0.00     0.003 C 
ATOM     18  C19 ZIN A   1      18.850  -1.171   4.426  0.00  0.00     0.000 C 
ATOM     19  C18 ZIN A   1      18.486   0.165   5.077  0.00  0.00     0.003 C 
ATOM     20  C17 ZIN A   1      19.055   0.213   6.496  0.00  0.00     0.038 C 
BRANCH  15  21
ATOM     21  O16 ZIN A   1      17.043  -0.800   7.373  0.00  0.00    -0.389 OA
ATOM     22  H35 ZIN A   1      16.716   0.056   7.062  0.00  0.00     0.210 HD
ENDBRANCH  15  21
ENDBRANCH   1  15
TORSDOF 6
ENDMDL
MODEL 9
REMARK VINA RESULT:      -6.1      2.733      4.648
REMARK  6 active torsions:
REMARK  status: ('A' for Active; 'I' for Inactive)
REMARK    1  A    between atoms: N2_2  and  C5_5 
REMARK    2  A    between atoms: C5_5  and  C6_6 
REMARK    3  A    between atoms: C6_6  and  C8_7 
REMARK    4  A    between atoms: C6_6  and  C15_14 
REMARK    5  A    between atoms: C11_10  and  O12_11 
REMARK    6  A    between atoms: C15_14  and  O16_15 
ROOT
ATOM      1  C6  ZIN A   1      19.005   0.272  11.070  0.00  0.00     0.079 C 
ENDROOT
BRANCH   1   2
ATOM      2  C5  ZIN A   1      17.849  -0.263  10.221  0.00  0.00     0.246 C 
BRANCH   2   3
ATOM      3  N2  ZIN A   1      18.347  -0.620   8.886  0.00  0.00    -0.078 N 
ATOM      4  C1  ZIN A   1      18.506  -2.078   8.797  0.00  0.00     0.269 C 
ATOM      5  H3  ZIN A   1      19.238  -0.174   8.729  0.00  0.00     0.279 HD
ATOM      6  C4  ZIN A   1      17.387  -0.169   7.869  0.00  0.00     0.269 C 
ENDBRANCH   2   3
ENDBRANCH   1   2
BRANCH   1   7
ATOM      7  C8  ZIN A   1      18.738  -0.022  12.524  0.00  0.00    -0.049 A 
ATOM      8  C14 ZIN A   1      17.627   0.518  13.144  0.00  0.00     0.010 A 
ATOM      9  C13 ZIN A   1      17.378   0.247  14.476  0.00  0.00     0.037 A 
ATOM     10  C11 ZIN A   1      18.250  -0.560  15.193  0.00  0.00     0.065 A 
ATOM     11  C10 ZIN A   1      19.367  -1.095  14.569  0.00  0.00     0.037 A 
ATOM     12  C9  ZIN A   1      19.609  -0.825  13.236  0.00  0.00     0.010 A 
BRANCH  10  13
ATOM     13  O12 ZIN A   1      18.010  -0.823  16.504  0.00  0.00    -0.361 OA
ATOM     14  H32 ZIN A   1      18.504  -1.578  16.850  0.00  0.00     0.217 HD
ENDBRANCH  10  13
ENDBRANCH   1   7
BRANCH   1  15
ATOM     15  C15 ZIN A   1      19.130   1.783  10.868  0.00  0.00     0.067 C 
ATOM     16  C21 ZIN A   1      19.773   2.411  12.107  0.00  0.00     0.038 C 
ATOM     17  C20 ZIN A   1      19.897   3.923  11.905  0.00  0.00     0.003 C 
ATOM     18  C19 ZIN A   1      18.507   4.525  11.693  0.00  0.00     0.000 C 
ATOM     19  C18 ZIN A   1      17.864   3.897  10.455  0.00  0.00     0.003 C 
ATOM     20  C17 ZIN A   1      17.739   2.386  10.656  0.00  0.00     0.038 C 
BRANCH  15  21
ATOM     21  O16 ZIN A   1      19.943   2.046   9.724  0.00  0.00    -0.389 OA
ATOM     22  H35 ZIN A   1      19.569   2.700   9.117  0.00  0.00     0.210 HD
ENDBRANCH  15  21
ENDBRANCH   1  15
TORSDOF 6
ENDMDL
