MODEL 1
REMARK VINA RESULT:      -6.8      0.000      0.000
REMARK  4 active torsions:
REMARK  status: ('A' for Active; 'I' for Inactive)
REMARK    1  A    between atoms: C2_2  and  C3_3 
REMARK    2  A    between atoms: C3_3  and  N4_4 
REMARK       I    between atoms: N4_4  and  C5_5 
REMARK    3  A    between atoms: N7_7  and  S8_8 
REMARK    4  A    between atoms: S8_8  and  C11_11 
ROOT
ATOM      1  S8  ZIN A   1      17.280   0.967  11.166  0.00  0.00     0.286 S 
ATOM      2  O9  ZIN A   1      16.161   0.099  11.286  0.00  0.00    -0.198 OA
ATOM      3  O10 ZIN A   1      17.219   2.356  11.458  0.00  0.00    -0.198 OA
ENDROOT
BRANCH   1   4
ATOM      4  N7  ZIN A   1      18.466   0.337  12.134  0.00  0.00    -0.115 NA
ATOM      5  C5  ZIN A   1      18.341   0.379  13.429  0.00  0.00     0.284 C 
ATOM      6  N4  ZIN A   1      19.325  -0.144  14.232  0.00  0.00    -0.352 N 
ATOM      7  O6  ZIN A   1      17.242   0.937  13.982  0.00  0.00    -0.149 OA
ATOM      8  H25 ZIN A   1      20.113  -0.544  13.834  0.00  0.00     0.163 HD
BRANCH   6   9
ATOM      9  C3  ZIN A   1      19.183  -0.096  15.689  0.00  0.00     0.123 C 
BRANCH   9  10
ATOM     10  C2  ZIN A   1      18.569  -1.406  16.185  0.00  0.00     0.015 C 
ATOM     11  C1  ZIN A   1      17.217  -1.120  16.842  0.00  0.00     0.006 C 
ENDBRANCH   9  10
ENDBRANCH   6   9
ENDBRANCH   1   4
BRANCH   1  12
ATOM     12  C11 ZIN A   1      17.839   0.831   9.501  0.00  0.00     0.081 A 
ATOM     13  C17 ZIN A   1      18.807   1.695   9.025  0.00  0.00     0.027 A 
ATOM     14  C16 ZIN A   1      19.250   1.584   7.720  0.00  0.00     0.025 A 
ATOM     15  C14 ZIN A   1      18.716   0.617   6.888  0.00  0.00     0.034 A 
ATOM     16  C13 ZIN A   1      17.745  -0.244   7.363  0.00  0.00     0.025 A 
ATOM     17 Cl15 ZIN A   1      19.268   0.483   5.246  0.00  0.00    -0.084 Cl
ATOM     18  C12 ZIN A   1      17.306  -0.136   8.670  0.00  0.00     0.027 A 
ENDBRANCH   1  12
TORSDOF 4
ENDMDL
MODEL 2
REMARK VINA RESULT:      -6.5      1.257      1.831
REMARK  4 active torsions:
REMARK  status: ('A' for Active; 'I' for Inactive)
REMARK    1  A    between atoms: C2_2  and  C3_3 
REMARK    2  A    between atoms: C3_3  and  N4_4 
REMARK       I    between atoms: N4_4  and  C5_5 
REMARK    3  A    between atoms: N7_7  and  S8_8 
REMARK    4  A    between atoms: S8_8  and  C11_11 
ROOT
ATOM      1  S8  ZIN A   1      18.260   2.133  10.967  0.00  0.00     0.286 S 
ATOM      2  O9  ZIN A   1      17.117   2.975  11.041  0.00  0.00    -0.198 OA
ATOM      3  O10 ZIN A   1      19.584   2.601  11.189  0.00  0.00    -0.198 OA
ENDROOT
BRANCH   1   4
ATOM      4  N7  ZIN A   1      18.010   0.908  12.051  0.00  0.00    -0.115 NA
ATOM      5  C5  ZIN A   1      17.890   1.174  13.319  0.00  0.00     0.284 C 
ATOM      6  N4  ZIN A   1      17.681   0.157  14.219  0.00  0.00    -0.352 N 
ATOM      7  O6  ZIN A   1      17.970   2.452  13.751  0.00  0.00    -0.149 OA
ATOM      8  H25 ZIN A   1      17.624  -0.760  13.908  0.00  0.00     0.163 HD
BRANCH   6   9
ATOM      9  C3  ZIN A   1      17.547   0.458  15.645  0.00  0.00     0.123 C 
BRANCH   9  10
ATOM     10  C2  ZIN A   1      17.493  -0.849  16.439  0.00  0.00     0.015 C 
ATOM     11  C1  ZIN A   1      18.855  -1.542  16.374  0.00  0.00     0.006 C 
ENDBRANCH   9  10
ENDBRANCH   6   9
ENDBRANCH   1   4
BRANCH   1  12
ATOM     12  C11 ZIN A   1      18.248   1.417   9.358  0.00  0.00     0.081 A 
ATOM     13  C17 ZIN A   1      17.425   0.340   9.088  0.00  0.00     0.027 A 
ATOM     14  C16 ZIN A   1      17.410  -0.218   7.823  0.00  0.00     0.025 A 
ATOM     15  C14 ZIN A   1      18.228   0.294   6.831  0.00  0.00     0.034 A 
ATOM     16  C13 ZIN A   1      19.054   1.368   7.104  0.00  0.00     0.025 A 
ATOM     17 Cl15 ZIN A   1      18.215  -0.412   5.245  0.00  0.00    -0.084 Cl
ATOM     18  C12 ZIN A   1      19.064   1.929   8.367  0.00  0.00     0.027 A 
ENDBRANCH   1  12
TORSDOF 4
ENDMDL
MODEL 3
REMARK VINA RESULT:      -6.2      3.443      7.057
REMARK  4 active torsions:
REMARK  status: ('A' for Active; 'I' for Inactive)
REMARK    1  A    between atoms: C2_2  and  C3_3 
REMARK    2  A    between atoms: C3_3  and  N4_4 
REMARK       I    between atoms: N4_4  and  C5_5 
REMARK    3  A    between atoms: N7_7  and  S8_8 
REMARK    4  A    between atoms: S8_8  and  C11_11 
ROOT
ATOM      1  S8  ZIN A   1      17.283  -0.653  11.922  0.00  0.00     0.286 S 
ATOM      2  O9  ZIN A   1      16.190   0.248  11.802  0.00  0.00    -0.198 OA
ATOM      3  O10 ZIN A   1      17.179  -2.042  11.640  0.00  0.00    -0.198 OA
ENDROOT
BRANCH   1   4
ATOM      4  N7  ZIN A   1      18.482  -0.065  10.944  0.00  0.00    -0.115 NA
ATOM      5  C5  ZIN A   1      18.217   0.263   9.713  0.00  0.00     0.284 C 
ATOM      6  N4  ZIN A   1      19.213   0.750   8.902  0.00  0.00    -0.352 N 
ATOM      7  O6  ZIN A   1      16.962   0.124   9.233  0.00  0.00    -0.149 OA
ATOM      8  H25 ZIN A   1      20.113   0.850   9.247  0.00  0.00     0.163 HD
BRANCH   6   9
ATOM      9  C3  ZIN A   1      18.913   1.119   7.517  0.00  0.00     0.123 C 
BRANCH   9  10
ATOM     10  C2  ZIN A   1      18.982  -0.126   6.631  0.00  0.00     0.015 C 
ATOM     11  C1  ZIN A   1      17.696  -0.239   5.809  0.00  0.00     0.006 C 
ENDBRANCH   9  10
ENDBRANCH   6   9
ENDBRANCH   1   4
BRANCH   1  12
ATOM     12  C11 ZIN A   1      17.854  -0.522  13.583  0.00  0.00     0.081 A 
ATOM     13  C17 ZIN A   1      18.666  -1.507  14.114  0.00  0.00     0.027 A 
ATOM     14  C16 ZIN A   1      19.119  -1.402  15.415  0.00  0.00     0.025 A 
ATOM     15  C14 ZIN A   1      18.750  -0.317  16.191  0.00  0.00     0.034 A 
ATOM     16  C13 ZIN A   1      17.933   0.664  15.662  0.00  0.00     0.025 A 
ATOM     17 Cl15 ZIN A   1      19.313  -0.189  17.829  0.00  0.00    -0.084 Cl
ATOM     18  C12 ZIN A   1      17.485   0.561  14.358  0.00  0.00     0.027 A 
ENDBRANCH   1  12
TORSDOF 4
ENDMDL
MODEL 4
REMARK VINA RESULT:      -6.1      3.393      7.071
REMARK  4 active torsions:
REMARK  status: ('A' for Active; 'I' for Inactive)
REMARK    1  A    between atoms: C2_2  and  C3_3 
REMARK    2  A    between atoms: C3_3  and  N4_4 
REMARK       I    between atoms: N4_4  and  C5_5 
REMARK    3  A    between atoms: N7_7  and  S8_8 
REMARK    4  A    between atoms: S8_8  and  C11_11 
ROOT
ATOM      1  S8  ZIN A   1      18.627   1.948  11.560  0.00  0.00     0.286 S 
ATOM      2  O9  ZIN A   1      19.852   2.667  11.586  0.00  0.00    -0.198 OA
ATOM      3  O10 ZIN A   1      17.356   2.581  11.520  0.00  0.00    -0.198 OA
ENDROOT
BRANCH   1   4
ATOM      4  N7  ZIN A   1      18.696   0.954  10.237  0.00  0.00    -0.115 NA
ATOM      5  C5  ZIN A   1      18.778   1.464   9.043  0.00  0.00     0.284 C 
ATOM      6  N4  ZIN A   1      18.836   0.640   7.946  0.00  0.00    -0.352 N 
ATOM      7  O6  ZIN A   1      18.807   2.805   8.883  0.00  0.00    -0.149 OA
ATOM      8  H25 ZIN A   1      18.814  -0.323   8.061  0.00  0.00     0.163 HD
BRANCH   6   9
ATOM      9  C3  ZIN A   1      18.928   1.215   6.602  0.00  0.00     0.123 C 
BRANCH   9  10
ATOM     10  C2  ZIN A   1      18.234   0.288   5.602  0.00  0.00     0.015 C 
ATOM     11  C1  ZIN A   1      19.285  -0.387   4.718  0.00  0.00     0.006 C 
ENDBRANCH   9  10
ENDBRANCH   6   9
ENDBRANCH   1   4
BRANCH   1  12
ATOM     12  C11 ZIN A   1      18.626   0.916  12.987  0.00  0.00     0.081 A 
ATOM     13  C17 ZIN A   1      19.546  -0.109  13.100  0.00  0.00     0.027 A 
ATOM     14  C16 ZIN A   1      19.549  -0.914  14.223  0.00  0.00     0.025 A 
ATOM     15  C14 ZIN A   1      18.624  -0.703  15.229  0.00  0.00     0.034 A 
ATOM     16  C13 ZIN A   1      17.700   0.319  15.113  0.00  0.00     0.025 A 
ATOM     17 Cl15 ZIN A   1      18.622  -1.719  16.637  0.00  0.00    -0.084 Cl
ATOM     18  C12 ZIN A   1      17.701   1.129  13.992  0.00  0.00     0.027 A 
ENDBRANCH   1  12
TORSDOF 4
ENDMDL
MODEL 5
REMARK VINA RESULT:      -6.0      3.824      7.252
REMARK  4 active torsions:
REMARK  status: ('A' for Active; 'I' for Inactive)
REMARK    1  A    between atoms: C2_2  and  C3_3 
REMARK    2  A    between atoms: C3_3  and  N4_4 
REMARK       I    between atoms: N4_4  and  C5_5 
REMARK    3  A    between atoms: N7_7  and  S8_8 
REMARK    4  A    between atoms: S8_8  and  C11_11 
ROOT
ATOM      1  S8  ZIN A   1      18.208  -1.739  11.571  0.00  0.00     0.286 S 
ATOM      2  O9  ZIN A   1      17.104  -2.633  11.549  0.00  0.00    -0.198 OA
ATOM      3  O10 ZIN A   1      19.543  -2.148  11.305  0.00  0.00    -0.198 OA
ENDROOT
BRANCH   1   4
ATOM      4  N7  ZIN A   1      17.861  -0.541  10.482  0.00  0.00    -0.115 NA
ATOM      5  C5  ZIN A   1      17.803  -0.812   9.211  0.00  0.00     0.284 C 
ATOM      6  N4  ZIN A   1      17.515   0.182   8.308  0.00  0.00    -0.352 N 
ATOM      7  O6  ZIN A   1      18.026  -2.073   8.779  0.00  0.00    -0.149 OA
ATOM      8  H25 ZIN A   1      17.356   1.087   8.619  0.00  0.00     0.163 HD
BRANCH   6   9
ATOM      9  C3  ZIN A   1      17.450  -0.124   6.878  0.00  0.00     0.123 C 
BRANCH   9  10
ATOM     10  C2  ZIN A   1      18.447   0.755   6.121  0.00  0.00     0.015 C 
ATOM     11  C1  ZIN A   1      19.084  -0.053   4.989  0.00  0.00     0.006 C 
ENDBRANCH   9  10
ENDBRANCH   6   9
ENDBRANCH   1   4
BRANCH   1  12
ATOM     12  C11 ZIN A   1      18.221  -1.003  13.171  0.00  0.00     0.081 A 
ATOM     13  C17 ZIN A   1      18.923  -1.601  14.200  0.00  0.00     0.027 A 
ATOM     14  C16 ZIN A   1      18.938  -1.020  15.454  0.00  0.00     0.025 A 
ATOM     15  C14 ZIN A   1      18.241   0.154  15.682  0.00  0.00     0.034 A 
ATOM     16  C13 ZIN A   1      17.535   0.748  14.653  0.00  0.00     0.025 A 
ATOM     17 Cl15 ZIN A   1      18.254   0.880  17.259  0.00  0.00    -0.084 Cl
ATOM     18  C12 ZIN A   1      17.525   0.170  13.397  0.00  0.00     0.027 A 
ENDBRANCH   1  12
TORSDOF 4
ENDMDL
MODEL 6
REMARK VINA RESULT:      -6.0      2.718      3.307
REMARK  4 active torsions:
REMARK  status: ('A' for Active; 'I' for Inactive)
REMARK    1  A    between atoms: C2_2  and  C3_3 
REMARK    2  A    between atoms: C3_3  and  N4_4 
REMARK       I    between atoms: N4_4  and  C5_5 
REMARK    3  A    between atoms: N7_7  and  S8_8 
REMARK    4  A    between atoms: S8_8  and  C11_11 
ROOT
ATOM      1  S8  ZIN A   1      18.294   1.227  10.672  0.00  0.00     0.286 S 
ATOM      2  O9  ZIN A   1      17.096   1.938  10.954  0.00  0.00    -0.198 OA
ATOM      3  O10 ZIN A   1      19.587   1.738  10.968  0.00  0.00    -0.198 OA
ENDROOT
BRANCH   1   4
ATOM      4  N7  ZIN A   1      18.173  -0.224  11.460  0.00  0.00    -0.115 NA
ATOM      5  C5  ZIN A   1      19.107  -1.120  11.322  0.00  0.00     0.284 C 
ATOM      6  N4  ZIN A   1      19.007  -2.323  11.977  0.00  0.00    -0.352 N 
ATOM      7  O6  ZIN A   1      20.175  -0.865  10.536  0.00  0.00    -0.149 OA
ATOM      8  H25 ZIN A   1      18.239  -2.505  12.541  0.00  0.00     0.163 HD
BRANCH   6   9
ATOM      9  C3  ZIN A   1      20.057  -3.331  11.821  0.00  0.00     0.123 C 
BRANCH   9  10
ATOM     10  C2  ZIN A   1      19.495  -4.544  11.078  0.00  0.00     0.015 C 
ATOM     11  C1  ZIN A   1      18.105  -4.878  11.624  0.00  0.00     0.006 C 
ENDBRANCH   9  10
ENDBRANCH   6   9
ENDBRANCH   1   4
BRANCH   1  12
ATOM     12  C11 ZIN A   1      18.276   0.886   8.945  0.00  0.00     0.081 A 
ATOM     13  C17 ZIN A   1      17.355  -0.004   8.426  0.00  0.00     0.027 A 
ATOM     14  C16 ZIN A   1      17.337  -0.267   7.069  0.00  0.00     0.025 A 
ATOM     15  C14 ZIN A   1      18.249   0.351   6.232  0.00  0.00     0.034 A 
ATOM     16  C13 ZIN A   1      19.173   1.238   6.752  0.00  0.00     0.025 A 
ATOM     17 Cl15 ZIN A   1      18.231   0.015   4.528  0.00  0.00    -0.084 Cl
ATOM     18  C12 ZIN A   1      19.187   1.505   8.109  0.00  0.00     0.027 A 
ENDBRANCH   1  12
TORSDOF 4
ENDMDL
MODEL 7
REMARK VINA RESULT:      -6.0      5.977      8.342
REMARK  4 active torsions:
REMARK  status: ('A' for Active; 'I' for Inactive)
REMARK    1  A    between atoms: C2_2  and  C3_3 
REMARK    2  A    between atoms: C3_3  and  N4_4 
REMARK       I    between atoms: N4_4  and  C5_5 
REMARK    3  A    between atoms: N7_7  and  S8_8 
REMARK    4  A    between atoms: S8_8  and  C11_11 
ROOT
ATOM      1  S8  ZIN A   1      19.268  -1.850   5.518  0.00  0.00     0.286 S 
ATOM      2  O9  ZIN A   1      19.895  -2.955   6.155  0.00  0.00    -0.198 OA
ATOM      3  O10 ZIN A   1      19.772  -1.248   4.333  0.00  0.00    -0.198 OA
ENDROOT
BRANCH   1   4
ATOM      4  N7  ZIN A   1      17.718  -2.322   5.180  0.00  0.00    -0.115 NA
ATOM      5  C5  ZIN A   1      17.497  -3.245   4.290  0.00  0.00     0.284 C 
ATOM      6  N4  ZIN A   1      16.211  -3.637   4.010  0.00  0.00    -0.352 N 
ATOM      7  O6  ZIN A   1      18.535  -3.819   3.642  0.00  0.00    -0.149 OA
ATOM      8  H25 ZIN A   1      15.467  -3.225   4.475  0.00  0.00     0.163 HD
BRANCH   6   9
ATOM      9  C3  ZIN A   1      15.964  -4.676   3.008  0.00  0.00     0.123 C 
BRANCH   9  10
ATOM     10  C2  ZIN A   1      15.791  -6.027   3.706  0.00  0.00     0.015 C 
ATOM     11  C1  ZIN A   1      14.806  -5.879   4.867  0.00  0.00     0.006 C 
ENDBRANCH   9  10
ENDBRANCH   6   9
ENDBRANCH   1   4
BRANCH   1  12
ATOM     12  C11 ZIN A   1      19.172  -0.570   6.725  0.00  0.00     0.081 A 
ATOM     13  C17 ZIN A   1      18.981   0.740   6.328  0.00  0.00     0.027 A 
ATOM     14  C16 ZIN A   1      18.900   1.744   7.275  0.00  0.00     0.025 A 
ATOM     15  C14 ZIN A   1      19.021   1.439   8.619  0.00  0.00     0.034 A 
ATOM     16  C13 ZIN A   1      19.217   0.128   9.015  0.00  0.00     0.025 A 
ATOM     17 Cl15 ZIN A   1      18.926   2.700   9.809  0.00  0.00    -0.084 Cl
ATOM     18  C12 ZIN A   1      19.293  -0.876   8.067  0.00  0.00     0.027 A 
ENDBRANCH   1  12
TORSDOF 4
ENDMDL
MODEL 8
REMARK VINA RESULT:      -5.8      3.968      6.852
REMARK  4 active torsions:
REMARK  status: ('A' for Active; 'I' for Inactive)
REMARK    1  A    between atoms: C2_2  and  C3_3 
REMARK    2  A    between atoms: C3_3  and  N4_4 
REMARK       I    between atoms: N4_4  and  C5_5 
REMARK    3  A    between atoms: N7_7  and  S8_8 
REMARK    4  A    between atoms: S8_8  and  C11_11 
ROOT
ATOM      1  S8  ZIN A   1      18.284  -1.293  12.525  0.00  0.00     0.286 S 
ATOM      2  O9  ZIN A   1      16.921  -1.151  12.147  0.00  0.00    -0.198 OA
ATOM      3  O10 ZIN A   1      19.020  -2.495  12.342  0.00  0.00    -0.198 OA
ENDROOT
BRANCH   1   4
ATOM      4  N7  ZIN A   1      19.117  -0.109  11.721  0.00  0.00    -0.115 NA
ATOM      5  C5  ZIN A   1      18.480   0.903  11.208  0.00  0.00     0.284 C 
ATOM      6  N4  ZIN A   1      19.171   1.885  10.542  0.00  0.00    -0.352 N 
ATOM      7  O6  ZIN A   1      17.137   0.987  11.332  0.00  0.00    -0.149 OA
ATOM      8  H25 ZIN A   1      20.135   1.824  10.453  0.00  0.00     0.163 HD
BRANCH   6   9
ATOM      9  C3  ZIN A   1      18.453   3.023   9.965  0.00  0.00     0.123 C 
BRANCH   9  10
ATOM     10  C2  ZIN A   1      18.316   4.126  11.016  0.00  0.00     0.015 C 
ATOM     11  C1  ZIN A   1      17.064   4.956  10.725  0.00  0.00     0.006 C 
ENDBRANCH   9  10
ENDBRANCH   6   9
ENDBRANCH   1   4
BRANCH   1  12
ATOM     12  C11 ZIN A   1      18.366  -0.914  14.243  0.00  0.00     0.081 A 
ATOM     13  C17 ZIN A   1      19.189  -1.651  15.074  0.00  0.00     0.027 A 
ATOM     14  C16 ZIN A   1      19.258  -1.350  16.421  0.00  0.00     0.025 A 
ATOM     15  C14 ZIN A   1      18.494  -0.319  16.940  0.00  0.00     0.034 A 
ATOM     16  C13 ZIN A   1      17.668   0.414  16.109  0.00  0.00     0.025 A 
ATOM     17 Cl15 ZIN A   1      18.575   0.054  18.634  0.00  0.00    -0.084 Cl
ATOM     18  C12 ZIN A   1      17.604   0.116  14.760  0.00  0.00     0.027 A 
ENDBRANCH   1  12
TORSDOF 4
ENDMDL
MODEL 9
REMARK VINA RESULT:      -5.8      1.948      2.126
REMARK  4 active torsions:
REMARK  status: ('A' for Active; 'I' for Inactive)
REMARK    1  A    between atoms: C2_2  and  C3_3 
REMARK    2  A    between atoms: C3_3  and  N4_4 
REMARK       I    between atoms: N4_4  and  C5_5 
REMARK    3  A    between atoms: N7_7  and  S8_8 
REMARK    4  A    between atoms: S8_8  and  C11_11 
ROOT
ATOM      1  S8  ZIN A   1      19.955   0.451  10.887  0.00  0.00     0.286 S 
ATOM      2  O9  ZIN A   1      19.984   1.845  11.164  0.00  0.00    -0.198 OA
ATOM      3  O10 ZIN A   1      21.083  -0.398  11.058  0.00  0.00    -0.198 OA
ENDROOT
BRANCH   1   4
ATOM      4  N7  ZIN A   1      18.745  -0.186  11.820  0.00  0.00    -0.115 NA
ATOM      5  C5  ZIN A   1      18.749  -0.001  13.108  0.00  0.00     0.284 C 
ATOM      6  N4  ZIN A   1      17.744  -0.530  13.881  0.00  0.00    -0.352 N 
ATOM      7  O6  ZIN A   1      19.741   0.712  13.684  0.00  0.00    -0.149 OA
ATOM      8  H25 ZIN A   1      17.033  -1.042  13.467  0.00  0.00     0.163 HD
BRANCH   6   9
ATOM      9  C3  ZIN A   1      17.749  -0.321  15.330  0.00  0.00     0.123 C 
BRANCH   9  10
ATOM     10  C2  ZIN A   1      18.615  -1.391  15.997  0.00  0.00     0.015 C 
ATOM     11  C1  ZIN A   1      19.087  -0.888  17.363  0.00  0.00     0.006 C 
ENDBRANCH   9  10
ENDBRANCH   6   9
ENDBRANCH   1   4
BRANCH   1  12
ATOM     12  C11 ZIN A   1      19.459   0.288   9.205  0.00  0.00     0.081 A 
ATOM     13  C17 ZIN A   1      19.257   1.416   8.432  0.00  0.00     0.027 A 
ATOM     14  C16 ZIN A   1      18.873   1.288   7.110  0.00  0.00     0.025 A 
ATOM     15  C14 ZIN A   1      18.680   0.031   6.564  0.00  0.00     0.034 A 
ATOM     16  C13 ZIN A   1      18.878  -1.096   7.339  0.00  0.00     0.025 A 
ATOM     17 Cl15 ZIN A   1      18.191  -0.129   4.906  0.00  0.00    -0.084 Cl
ATOM     18  C12 ZIN A   1      19.267  -0.967   8.660  0.00  0.00     0.027 A 
ENDBRANCH   1  12
TORSDOF 4
ENDMDL
