MODEL 1
REMARK VINA RESULT:      -7.7      0.000      0.000
REMARK  18 active torsions:
REMARK  status: ('A' for Active; 'I' for Inactive)
REMARK    1  A    between atoms: C2_2  and  C3_3 
REMARK    2  A    between atoms: C3_3  and  C4_4 
REMARK    3  A    between atoms: C4_4  and  C5_5 
REMARK    4  A    between atoms: C6_6  and  C7_7 
REMARK    5  A    between atoms: C7_7  and  C9_9 
REMARK    6  A    between atoms: C12_12  and  O13_13 
REMARK    7  A    between atoms: O13_13  and  C14_14 
REMARK    8  A    between atoms: C14_14  and  C15_15 
REMARK    9  A    between atoms: C15_15  and  C16_16 
REMARK   10  A    between atoms: C16_16  and  N17_17 
REMARK   11  A    between atoms: N17_17  and  C19_19 
REMARK   12  A    between atoms: N17_17  and  C23_23 
REMARK   13  A    between atoms: C19_19  and  C20_20 
REMARK   14  A    between atoms: C20_20  and  C21_21 
REMARK   15  A    between atoms: C23_23  and  C24_24 
REMARK   16  A    between atoms: C24_24  and  C25_25 
REMARK   17  A    between atoms: C31_31  and  N32_32 
REMARK   18  A    between atoms: N32_32  and  S33_33 
ROOT
ATOM      1  C7  ZIN A   1      17.544  -7.417   7.059  0.00  0.00     0.195 C 
ATOM      2  O8  ZIN A   1      18.065  -8.501   6.875  0.00  0.00    -0.287 OA
ENDROOT
BRANCH   1   3
ATOM      3  C6  ZIN A   1      16.631  -6.859   6.052  0.00  0.00     0.058 A 
ATOM      4  C5  ZIN A   1      15.406  -7.338   5.695  0.00  0.00     0.069 A 
ATOM      5  O40 ZIN A   1      14.878  -6.565   4.739  0.00  0.00    -0.313 OA
ATOM      6  C39 ZIN A   1      15.702  -5.544   4.420  0.00  0.00     0.087 A 
ATOM      7  C29 ZIN A   1      16.851  -5.661   5.215  0.00  0.00     0.017 A 
ATOM      8  C38 ZIN A   1      15.604  -4.496   3.513  0.00  0.00     0.040 A 
ATOM      9  C30 ZIN A   1      17.885  -4.738   5.098  0.00  0.00     0.045 A 
ATOM     10  C31 ZIN A   1      17.773  -3.700   4.187  0.00  0.00     0.043 A 
ATOM     11  C37 ZIN A   1      16.630  -3.584   3.398  0.00  0.00     0.033 A 
BRANCH   4  12
ATOM     12  C4  ZIN A   1      14.749  -8.559   6.284  0.00  0.00     0.066 C 
BRANCH  12  13
ATOM     13  C3  ZIN A   1      14.007  -8.173   7.564  0.00  0.00     0.006 C 
BRANCH  13  14
ATOM     14  C2  ZIN A   1      12.672  -7.520   7.202  0.00  0.00    -0.004 C 
ATOM     15  C1  ZIN A   1      12.553  -6.171   7.914  0.00  0.00     0.005 C 
ENDBRANCH  13  14
ENDBRANCH  12  13
ENDBRANCH   4  12
BRANCH  10  16
ATOM     16  N32 ZIN A   1      18.807  -2.766   4.061  0.00  0.00    -0.285 N 
ATOM     17  H79 ZIN A   1      19.448  -2.847   3.337  0.00  0.00     0.178 HD
BRANCH  16  18
ATOM     18  S33 ZIN A   1      18.935  -1.522   5.146  0.00  0.00     0.227 S 
ATOM     19  C34 ZIN A   1      19.508  -2.311   6.675  0.00  0.00     0.186 C 
ATOM     20  O35 ZIN A   1      19.951  -0.688   4.605  0.00  0.00    -0.206 OA
ATOM     21  O36 ZIN A   1      17.603  -1.050   5.298  0.00  0.00    -0.206 OA
ENDBRANCH  16  18
ENDBRANCH  10  16
ENDBRANCH   1   3
BRANCH   1  22
ATOM     22  C9  ZIN A   1      17.831  -6.661   8.295  0.00  0.00     0.015 A 
ATOM     23  C28 ZIN A   1      16.838  -6.500   9.265  0.00  0.00     0.018 A 
ATOM     24  C27 ZIN A   1      17.112  -5.798  10.417  0.00  0.00     0.037 A 
ATOM     25  C12 ZIN A   1      18.371  -5.242  10.613  0.00  0.00     0.068 A 
ATOM     26  C11 ZIN A   1      19.360  -5.396   9.647  0.00  0.00     0.037 A 
ATOM     27  C10 ZIN A   1      19.096  -6.100   8.494  0.00  0.00     0.018 A 
BRANCH  25  28
ATOM     28  O13 ZIN A   1      18.635  -4.548  11.748  0.00  0.00    -0.351 OA
BRANCH  28  29
ATOM     29  C14 ZIN A   1      19.380  -3.338  11.610  0.00  0.00     0.177 C 
BRANCH  29  30
ATOM     30  C15 ZIN A   1      18.435  -2.140  11.727  0.00  0.00     0.054 C 
BRANCH  30  31
ATOM     31  C16 ZIN A   1      19.252  -0.865  11.949  0.00  0.00     0.237 C 
BRANCH  31  32
ATOM     32  N17 ZIN A   1      18.359   0.219  12.382  0.00  0.00    -0.071 N 
ATOM     33  H18 ZIN A   1      18.881   1.080  12.445  0.00  0.00     0.279 HD
BRANCH  32  34
ATOM     34  C19 ZIN A   1      17.271   0.374  11.408  0.00  0.00     0.234 C 
BRANCH  34  35
ATOM     35  C20 ZIN A   1      17.715   1.325  10.295  0.00  0.00     0.027 C 
BRANCH  35  36
ATOM     36  C21 ZIN A   1      17.827   0.553   8.979  0.00  0.00    -0.003 C 
ATOM     37  C22 ZIN A   1      18.905   1.193   8.102  0.00  0.00     0.005 C 
ENDBRANCH  35  36
ENDBRANCH  34  35
ENDBRANCH  32  34
BRANCH  32  38
ATOM     38  C23 ZIN A   1      17.795  -0.109  13.699  0.00  0.00     0.234 C 
BRANCH  38  39
ATOM     39  C24 ZIN A   1      18.910  -0.106  14.746  0.00  0.00     0.027 C 
BRANCH  39  40
ATOM     40  C25 ZIN A   1      18.714  -1.284  15.702  0.00  0.00    -0.003 C 
ATOM     41  C26 ZIN A   1      17.470  -1.044  16.560  0.00  0.00     0.005 C 
ENDBRANCH  39  40
ENDBRANCH  38  39
ENDBRANCH  32  38
ENDBRANCH  31  32
ENDBRANCH  30  31
ENDBRANCH  29  30
ENDBRANCH  28  29
ENDBRANCH  25  28
ENDBRANCH   1  22
TORSDOF 18
ENDMDL
MODEL 2
REMARK VINA RESULT:      -7.5      4.189      9.347
REMARK  18 active torsions:
REMARK  status: ('A' for Active; 'I' for Inactive)
REMARK    1  A    between atoms: C2_2  and  C3_3 
REMARK    2  A    between atoms: C3_3  and  C4_4 
REMARK    3  A    between atoms: C4_4  and  C5_5 
REMARK    4  A    between atoms: C6_6  and  C7_7 
REMARK    5  A    between atoms: C7_7  and  C9_9 
REMARK    6  A    between atoms: C12_12  and  O13_13 
REMARK    7  A    between atoms: O13_13  and  C14_14 
REMARK    8  A    between atoms: C14_14  and  C15_15 
REMARK    9  A    between atoms: C15_15  and  C16_16 
REMARK   10  A    between atoms: C16_16  and  N17_17 
REMARK   11  A    between atoms: N17_17  and  C19_19 
REMARK   12  A    between atoms: N17_17  and  C23_23 
REMARK   13  A    between atoms: C19_19  and  C20_20 
REMARK   14  A    between atoms: C20_20  and  C21_21 
REMARK   15  A    between atoms: C23_23  and  C24_24 
REMARK   16  A    between atoms: C24_24  and  C25_25 
REMARK   17  A    between atoms: C31_31  and  N32_32 
REMARK   18  A    between atoms: N32_32  and  S33_33 
ROOT
ATOM      1  C7  ZIN A   1      19.876   0.630  11.639  0.00  0.00     0.195 C 
ATOM      2  O8  ZIN A   1      20.930   0.887  12.191  0.00  0.00    -0.287 OA
ENDROOT
BRANCH   1   3
ATOM      3  C6  ZIN A   1      19.105   1.700  10.991  0.00  0.00     0.058 A 
ATOM      4  C5  ZIN A   1      18.943   1.904   9.653  0.00  0.00     0.069 A 
ATOM      5  O40 ZIN A   1      18.178   2.982   9.448  0.00  0.00    -0.313 OA
ATOM      6  C39 ZIN A   1      17.790   3.539  10.615  0.00  0.00     0.087 A 
ATOM      7  C29 ZIN A   1      18.344   2.779  11.654  0.00  0.00     0.017 A 
ATOM      8  C38 ZIN A   1      17.005   4.644  10.922  0.00  0.00     0.040 A 
ATOM      9  C30 ZIN A   1      18.112   3.126  12.981  0.00  0.00     0.045 A 
ATOM     10  C31 ZIN A   1      17.328   4.231  13.271  0.00  0.00     0.043 A 
ATOM     11  C37 ZIN A   1      16.778   4.986  12.237  0.00  0.00     0.033 A 
BRANCH   4  12
ATOM     12  C4  ZIN A   1      19.542   1.047   8.568  0.00  0.00     0.066 C 
BRANCH  12  13
ATOM     13  C3  ZIN A   1      18.545  -0.044   8.170  0.00  0.00     0.006 C 
BRANCH  13  14
ATOM     14  C2  ZIN A   1      17.911   0.310   6.824  0.00  0.00    -0.004 C 
ATOM     15  C1  ZIN A   1      19.011   0.645   5.814  0.00  0.00     0.005 C 
ENDBRANCH  13  14
ENDBRANCH  12  13
ENDBRANCH   4  12
BRANCH  10  16
ATOM     16  N32 ZIN A   1      17.089   4.589  14.601  0.00  0.00    -0.285 N 
ATOM     17  H79 ZIN A   1      16.396   4.137  15.108  0.00  0.00     0.178 HD
BRANCH  16  18
ATOM     18  S33 ZIN A   1      17.990   5.783  15.312  0.00  0.00     0.227 S 
ATOM     19  C34 ZIN A   1      17.901   5.422  17.087  0.00  0.00     0.186 C 
ATOM     20  O35 ZIN A   1      19.307   5.565  14.825  0.00  0.00    -0.206 OA
ATOM     21  O36 ZIN A   1      17.286   6.980  15.010  0.00  0.00    -0.206 OA
ENDBRANCH  16  18
ENDBRANCH  10  16
ENDBRANCH   1   3
BRANCH   1  22
ATOM     22  C9  ZIN A   1      19.370  -0.757  11.623  0.00  0.00     0.015 A 
ATOM     23  C28 ZIN A   1      18.040  -1.023  11.960  0.00  0.00     0.018 A 
ATOM     24  C27 ZIN A   1      17.572  -2.317  11.940  0.00  0.00     0.037 A 
ATOM     25  C12 ZIN A   1      18.423  -3.361  11.593  0.00  0.00     0.068 A 
ATOM     26  C11 ZIN A   1      19.749  -3.101  11.262  0.00  0.00     0.037 A 
ATOM     27  C10 ZIN A   1      20.224  -1.809  11.276  0.00  0.00     0.018 A 
BRANCH  25  28
ATOM     28  O13 ZIN A   1      17.959  -4.635  11.578  0.00  0.00    -0.351 OA
BRANCH  28  29
ATOM     29  C14 ZIN A   1      16.560  -4.814  11.354  0.00  0.00     0.177 C 
BRANCH  29  30
ATOM     30  C15 ZIN A   1      16.331  -5.302   9.922  0.00  0.00     0.054 C 
BRANCH  30  31
ATOM     31  C16 ZIN A   1      17.399  -6.337   9.559  0.00  0.00     0.237 C 
BRANCH  31  32
ATOM     32  N17 ZIN A   1      17.869  -6.094   8.188  0.00  0.00    -0.071 N 
ATOM     33  H18 ZIN A   1      18.148  -6.967   7.768  0.00  0.00     0.279 HD
BRANCH  32  34
ATOM     34  C19 ZIN A   1      16.785  -5.494   7.399  0.00  0.00     0.234 C 
BRANCH  34  35
ATOM     35  C20 ZIN A   1      16.330  -6.483   6.324  0.00  0.00     0.027 C 
BRANCH  35  36
ATOM     36  C21 ZIN A   1      16.991  -6.128   4.991  0.00  0.00    -0.003 C 
ATOM     37  C22 ZIN A   1      16.127  -5.107   4.249  0.00  0.00     0.005 C 
ENDBRANCH  35  36
ENDBRANCH  34  35
ENDBRANCH  32  34
BRANCH  32  38
ATOM     38  C23 ZIN A   1      19.016  -5.177   8.220  0.00  0.00     0.234 C 
BRANCH  38  39
ATOM     39  C24 ZIN A   1      18.600  -3.820   7.648  0.00  0.00     0.027 C 
BRANCH  39  40
ATOM     40  C25 ZIN A   1      19.701  -3.296   6.724  0.00  0.00    -0.003 C 
ATOM     41  C26 ZIN A   1      19.123  -3.054   5.328  0.00  0.00     0.005 C 
ENDBRANCH  39  40
ENDBRANCH  38  39
ENDBRANCH  32  38
ENDBRANCH  31  32
ENDBRANCH  30  31
ENDBRANCH  29  30
ENDBRANCH  28  29
ENDBRANCH  25  28
ENDBRANCH   1  22
TORSDOF 18
ENDMDL
MODEL 3
REMARK VINA RESULT:      -7.5      0.834      2.990
REMARK  18 active torsions:
REMARK  status: ('A' for Active; 'I' for Inactive)
REMARK    1  A    between atoms: C2_2  and  C3_3 
REMARK    2  A    between atoms: C3_3  and  C4_4 
REMARK    3  A    between atoms: C4_4  and  C5_5 
REMARK    4  A    between atoms: C6_6  and  C7_7 
REMARK    5  A    between atoms: C7_7  and  C9_9 
REMARK    6  A    between atoms: C12_12  and  O13_13 
REMARK    7  A    between atoms: O13_13  and  C14_14 
REMARK    8  A    between atoms: C14_14  and  C15_15 
REMARK    9  A    between atoms: C15_15  and  C16_16 
REMARK   10  A    between atoms: C16_16  and  N17_17 
REMARK   11  A    between atoms: N17_17  and  C19_19 
REMARK   12  A    between atoms: N17_17  and  C23_23 
REMARK   13  A    between atoms: C19_19  and  C20_20 
REMARK   14  A    between atoms: C20_20  and  C21_21 
REMARK   15  A    between atoms: C23_23  and  C24_24 
REMARK   16  A    between atoms: C24_24  and  C25_25 
REMARK   17  A    between atoms: C31_31  and  N32_32 
REMARK   18  A    between atoms: N32_32  and  S33_33 
ROOT
ATOM      1  C7  ZIN A   1      17.623  -7.321   7.100  0.00  0.00     0.195 C 
ATOM      2  O8  ZIN A   1      18.104  -8.431   6.965  0.00  0.00    -0.287 OA
ENDROOT
BRANCH   1   3
ATOM      3  C6  ZIN A   1      16.713  -6.785   6.080  0.00  0.00     0.058 A 
ATOM      4  C5  ZIN A   1      15.486  -7.268   5.734  0.00  0.00     0.069 A 
ATOM      5  O40 ZIN A   1      14.960  -6.516   4.760  0.00  0.00    -0.313 OA
ATOM      6  C39 ZIN A   1      15.788  -5.506   4.417  0.00  0.00     0.087 A 
ATOM      7  C29 ZIN A   1      16.936  -5.608   5.215  0.00  0.00     0.017 A 
ATOM      8  C38 ZIN A   1      15.694  -4.480   3.486  0.00  0.00     0.040 A 
ATOM      9  C30 ZIN A   1      17.973  -4.691   5.076  0.00  0.00     0.045 A 
ATOM     10  C31 ZIN A   1      17.865  -3.674   4.142  0.00  0.00     0.043 A 
ATOM     11  C37 ZIN A   1      16.723  -3.574   3.349  0.00  0.00     0.033 A 
BRANCH   4  12
ATOM     12  C4  ZIN A   1      14.825  -8.473   6.351  0.00  0.00     0.066 C 
BRANCH  12  13
ATOM     13  C3  ZIN A   1      14.058  -8.049   7.605  0.00  0.00     0.006 C 
BRANCH  13  14
ATOM     14  C2  ZIN A   1      12.742  -7.386   7.197  0.00  0.00    -0.004 C 
ATOM     15  C1  ZIN A   1      12.532  -6.116   8.025  0.00  0.00     0.005 C 
ENDBRANCH  13  14
ENDBRANCH  12  13
ENDBRANCH   4  12
BRANCH  10  16
ATOM     16  N32 ZIN A   1      18.902  -2.747   3.994  0.00  0.00    -0.285 N 
ATOM     17  H79 ZIN A   1      19.442  -2.747   3.188  0.00  0.00     0.178 HD
BRANCH  16  18
ATOM     18  S33 ZIN A   1      19.206  -1.648   5.195  0.00  0.00     0.227 S 
ATOM     19  C34 ZIN A   1      17.575  -0.976   5.618  0.00  0.00     0.186 C 
ATOM     20  O35 ZIN A   1      19.716  -2.430   6.266  0.00  0.00    -0.206 OA
ATOM     21  O36 ZIN A   1      20.007  -0.656   4.567  0.00  0.00    -0.206 OA
ENDBRANCH  16  18
ENDBRANCH  10  16
ENDBRANCH   1   3
BRANCH   1  22
ATOM     22  C9  ZIN A   1      17.956  -6.514   8.291  0.00  0.00     0.015 A 
ATOM     23  C28 ZIN A   1      17.018  -6.354   9.314  0.00  0.00     0.018 A 
ATOM     24  C27 ZIN A   1      17.334  -5.603  10.424  0.00  0.00     0.037 A 
ATOM     25  C12 ZIN A   1      18.583  -4.998  10.525  0.00  0.00     0.068 A 
ATOM     26  C11 ZIN A   1      19.517  -5.152   9.506  0.00  0.00     0.037 A 
ATOM     27  C10 ZIN A   1      19.210  -5.904   8.394  0.00  0.00     0.018 A 
BRANCH  25  28
ATOM     28  O13 ZIN A   1      18.888  -4.256  11.618  0.00  0.00    -0.351 OA
BRANCH  28  29
ATOM     29  C14 ZIN A   1      17.938  -3.269  12.019  0.00  0.00     0.177 C 
BRANCH  29  30
ATOM     30  C15 ZIN A   1      18.662  -1.952  12.308  0.00  0.00     0.054 C 
BRANCH  30  31
ATOM     31  C16 ZIN A   1      17.633  -0.861  12.615  0.00  0.00     0.237 C 
BRANCH  31  32
ATOM     32  N17 ZIN A   1      18.278   0.457  12.535  0.00  0.00    -0.071 N 
ATOM     33  H18 ZIN A   1      17.572   1.175  12.480  0.00  0.00     0.279 HD
BRANCH  32  34
ATOM     34  C19 ZIN A   1      19.103   0.670  13.732  0.00  0.00     0.234 C 
BRANCH  34  35
ATOM     35  C20 ZIN A   1      18.206   0.694  14.971  0.00  0.00     0.027 C 
BRANCH  35  36
ATOM     36  C21 ZIN A   1      18.834  -0.163  16.072  0.00  0.00    -0.003 C 
ATOM     37  C22 ZIN A   1      17.947  -1.381  16.338  0.00  0.00     0.005 C 
ENDBRANCH  35  36
ENDBRANCH  34  35
ENDBRANCH  32  34
BRANCH  32  38
ATOM     38  C23 ZIN A   1      19.129   0.514  11.338  0.00  0.00     0.234 C 
BRANCH  38  39
ATOM     39  C24 ZIN A   1      18.464   1.398  10.282  0.00  0.00     0.027 C 
BRANCH  39  40
ATOM     40  C25 ZIN A   1      18.461   0.671   8.936  0.00  0.00    -0.003 C 
ATOM     41  C26 ZIN A   1      19.178   1.529   7.892  0.00  0.00     0.005 C 
ENDBRANCH  39  40
ENDBRANCH  38  39
ENDBRANCH  32  38
ENDBRANCH  31  32
ENDBRANCH  30  31
ENDBRANCH  29  30
ENDBRANCH  28  29
ENDBRANCH  25  28
ENDBRANCH   1  22
TORSDOF 18
ENDMDL
MODEL 4
REMARK VINA RESULT:      -7.3      4.047      9.368
REMARK  18 active torsions:
REMARK  status: ('A' for Active; 'I' for Inactive)
REMARK    1  A    between atoms: C2_2  and  C3_3 
REMARK    2  A    between atoms: C3_3  and  C4_4 
REMARK    3  A    between atoms: C4_4  and  C5_5 
REMARK    4  A    between atoms: C6_6  and  C7_7 
REMARK    5  A    between atoms: C7_7  and  C9_9 
REMARK    6  A    between atoms: C12_12  and  O13_13 
REMARK    7  A    between atoms: O13_13  and  C14_14 
REMARK    8  A    between atoms: C14_14  and  C15_15 
REMARK    9  A    between atoms: C15_15  and  C16_16 
REMARK   10  A    between atoms: C16_16  and  N17_17 
REMARK   11  A    between atoms: N17_17  and  C19_19 
REMARK   12  A    between atoms: N17_17  and  C23_23 
REMARK   13  A    between atoms: C19_19  and  C20_20 
REMARK   14  A    between atoms: C20_20  and  C21_21 
REMARK   15  A    between atoms: C23_23  and  C24_24 
REMARK   16  A    between atoms: C24_24  and  C25_25 
REMARK   17  A    between atoms: C31_31  and  N32_32 
REMARK   18  A    between atoms: N32_32  and  S33_33 
ROOT
ATOM      1  C7  ZIN A   1      19.984   0.392  11.505  0.00  0.00     0.195 C 
ATOM      2  O8  ZIN A   1      21.098   0.615  11.943  0.00  0.00    -0.287 OA
ENDROOT
BRANCH   1   3
ATOM      3  C6  ZIN A   1      19.204   1.475  10.891  0.00  0.00     0.058 A 
ATOM      4  C5  ZIN A   1      18.889   1.619   9.573  0.00  0.00     0.069 A 
ATOM      5  O40 ZIN A   1      18.170   2.734   9.397  0.00  0.00    -0.313 OA
ATOM      6  C39 ZIN A   1      17.965   3.376  10.566  0.00  0.00     0.087 A 
ATOM      7  C29 ZIN A   1      18.598   2.636  11.575  0.00  0.00     0.017 A 
ATOM      8  C38 ZIN A   1      17.292   4.545  10.899  0.00  0.00     0.040 A 
ATOM      9  C30 ZIN A   1      18.555   3.067  12.897  0.00  0.00     0.045 A 
ATOM     10  C31 ZIN A   1      17.881   4.236  13.212  0.00  0.00     0.043 A 
ATOM     11  C37 ZIN A   1      17.253   4.971  12.209  0.00  0.00     0.033 A 
BRANCH   4  12
ATOM     12  C4  ZIN A   1      19.295   0.667   8.477  0.00  0.00     0.066 C 
BRANCH  12  13
ATOM     13  C3  ZIN A   1      18.045   0.039   7.858  0.00  0.00     0.006 C 
BRANCH  13  14
ATOM     14  C2  ZIN A   1      17.970   0.408   6.375  0.00  0.00    -0.004 C 
ATOM     15  C1  ZIN A   1      19.118  -0.266   5.622  0.00  0.00     0.005 C 
ENDBRANCH  13  14
ENDBRANCH  12  13
ENDBRANCH   4  12
BRANCH  10  16
ATOM     16  N32 ZIN A   1      17.832   4.679  14.538  0.00  0.00    -0.285 N 
ATOM     17  H79 ZIN A   1      17.028   4.549  15.064  0.00  0.00     0.178 HD
BRANCH  16  18
ATOM     18  S33 ZIN A   1      19.150   5.424  15.211  0.00  0.00     0.227 S 
ATOM     19  C34 ZIN A   1      18.457   6.817  16.142  0.00  0.00     0.186 C 
ATOM     20  O35 ZIN A   1      19.688   4.451  16.096  0.00  0.00    -0.206 OA
ATOM     21  O36 ZIN A   1      19.896   5.891  14.095  0.00  0.00    -0.206 OA
ENDBRANCH  16  18
ENDBRANCH  10  16
ENDBRANCH   1   3
BRANCH   1  22
ATOM     22  C9  ZIN A   1      19.417  -0.969  11.591  0.00  0.00     0.015 A 
ATOM     23  C28 ZIN A   1      18.058  -1.145  11.863  0.00  0.00     0.018 A 
ATOM     24  C27 ZIN A   1      17.532  -2.415  11.939  0.00  0.00     0.037 A 
ATOM     25  C12 ZIN A   1      18.354  -3.522  11.753  0.00  0.00     0.068 A 
ATOM     26  C11 ZIN A   1      19.707  -3.350  11.487  0.00  0.00     0.037 A 
ATOM     27  C10 ZIN A   1      20.240  -2.083  11.406  0.00  0.00     0.018 A 
BRANCH  25  28
ATOM     28  O13 ZIN A   1      17.832  -4.772  11.833  0.00  0.00    -0.351 OA
BRANCH  28  29
ATOM     29  C14 ZIN A   1      16.617  -5.015  11.124  0.00  0.00     0.177 C 
BRANCH  29  30
ATOM     30  C15 ZIN A   1      16.930  -5.719   9.801  0.00  0.00     0.054 C 
BRANCH  30  31
ATOM     31  C16 ZIN A   1      15.733  -5.585   8.857  0.00  0.00     0.237 C 
BRANCH  31  32
ATOM     32  N17 ZIN A   1      16.211  -5.523   7.468  0.00  0.00    -0.071 N 
ATOM     33  H18 ZIN A   1      16.219  -4.563   7.158  0.00  0.00     0.279 HD
BRANCH  32  34
ATOM     34  C19 ZIN A   1      17.570  -6.075   7.394  0.00  0.00     0.234 C 
BRANCH  34  35
ATOM     35  C20 ZIN A   1      18.366  -5.325   6.323  0.00  0.00     0.027 C 
BRANCH  35  36
ATOM     36  C21 ZIN A   1      18.293  -3.821   6.592  0.00  0.00    -0.003 C 
ATOM     37  C22 ZIN A   1      19.203  -3.470   7.771  0.00  0.00     0.005 C 
ENDBRANCH  35  36
ENDBRANCH  34  35
ENDBRANCH  32  34
BRANCH  32  38
ATOM     38  C23 ZIN A   1      15.316  -6.309   6.608  0.00  0.00     0.234 C 
BRANCH  38  39
ATOM     39  C24 ZIN A   1      14.404  -7.176   7.478  0.00  0.00     0.027 C 
BRANCH  39  40
ATOM     40  C25 ZIN A   1      12.949  -6.977   7.047  0.00  0.00    -0.003 C 
ATOM     41  C26 ZIN A   1      12.076  -8.061   7.683  0.00  0.00     0.005 C 
ENDBRANCH  39  40
ENDBRANCH  38  39
ENDBRANCH  32  38
ENDBRANCH  31  32
ENDBRANCH  30  31
ENDBRANCH  29  30
ENDBRANCH  28  29
ENDBRANCH  25  28
ENDBRANCH   1  22
TORSDOF 18
ENDMDL
MODEL 5
REMARK VINA RESULT:      -7.2      5.929     10.055
REMARK  18 active torsions:
REMARK  status: ('A' for Active; 'I' for Inactive)
REMARK    1  A    between atoms: C2_2  and  C3_3 
REMARK    2  A    between atoms: C3_3  and  C4_4 
REMARK    3  A    between atoms: C4_4  and  C5_5 
REMARK    4  A    between atoms: C6_6  and  C7_7 
REMARK    5  A    between atoms: C7_7  and  C9_9 
REMARK    6  A    between atoms: C12_12  and  O13_13 
REMARK    7  A    between atoms: O13_13  and  C14_14 
REMARK    8  A    between atoms: C14_14  and  C15_15 
REMARK    9  A    between atoms: C15_15  and  C16_16 
REMARK   10  A    between atoms: C16_16  and  N17_17 
REMARK   11  A    between atoms: N17_17  and  C19_19 
REMARK   12  A    between atoms: N17_17  and  C23_23 
REMARK   13  A    between atoms: C19_19  and  C20_20 
REMARK   14  A    between atoms: C20_20  and  C21_21 
REMARK   15  A    between atoms: C23_23  and  C24_24 
REMARK   16  A    between atoms: C24_24  and  C25_25 
REMARK   17  A    between atoms: C31_31  and  N32_32 
REMARK   18  A    between atoms: N32_32  and  S33_33 
ROOT
ATOM      1  C7  ZIN A   1      20.185   0.345  12.123  0.00  0.00     0.195 C 
ATOM      2  O8  ZIN A   1      21.322   0.136  11.744  0.00  0.00    -0.287 OA
ENDROOT
BRANCH   1   3
ATOM      3  C6  ZIN A   1      19.558  -0.556  13.100  0.00  0.00     0.058 A 
ATOM      4  C5  ZIN A   1      19.411  -1.907  12.999  0.00  0.00     0.069 A 
ATOM      5  O40 ZIN A   1      18.787  -2.378  14.084  0.00  0.00    -0.313 OA
ATOM      6  C39 ZIN A   1      18.498  -1.387  14.955  0.00  0.00     0.087 A 
ATOM      7  C29 ZIN A   1      18.957  -0.185  14.398  0.00  0.00     0.017 A 
ATOM      8  C38 ZIN A   1      17.874  -1.369  16.196  0.00  0.00     0.040 A 
ATOM      9  C30 ZIN A   1      18.790   1.015  15.080  0.00  0.00     0.045 A 
ATOM     10  C31 ZIN A   1      18.164   1.017  16.316  0.00  0.00     0.043 A 
ATOM     11  C37 ZIN A   1      17.708  -0.178  16.869  0.00  0.00     0.033 A 
BRANCH   4  12
ATOM     12  C4  ZIN A   1      19.876  -2.743  11.835  0.00  0.00     0.066 C 
BRANCH  12  13
ATOM     13  C3  ZIN A   1      18.833  -2.687  10.717  0.00  0.00     0.006 C 
BRANCH  13  14
ATOM     14  C2  ZIN A   1      17.443  -2.943  11.302  0.00  0.00    -0.004 C 
ATOM     15  C1  ZIN A   1      17.107  -4.431  11.191  0.00  0.00     0.005 C 
ENDBRANCH  13  14
ENDBRANCH  12  13
ENDBRANCH   4  12
BRANCH  10  16
ATOM     16  N32 ZIN A   1      17.990   2.219  17.010  0.00  0.00    -0.285 N 
ATOM     17  H79 ZIN A   1      17.177   2.734  16.893  0.00  0.00     0.178 HD
BRANCH  16  18
ATOM     18  S33 ZIN A   1      19.174   2.762  18.034  0.00  0.00     0.227 S 
ATOM     19  C34 ZIN A   1      18.311   3.878  19.173  0.00  0.00     0.186 C 
ATOM     20  O35 ZIN A   1      19.610   1.594  18.716  0.00  0.00    -0.206 OA
ATOM     21  O36 ZIN A   1      20.057   3.492  17.193  0.00  0.00    -0.206 OA
ENDBRANCH  16  18
ENDBRANCH  10  16
ENDBRANCH   1   3
BRANCH   1  22
ATOM     22  C9  ZIN A   1      19.434   1.504  11.600  0.00  0.00     0.015 A 
ATOM     23  C28 ZIN A   1      19.981   2.788  11.680  0.00  0.00     0.018 A 
ATOM     24  C27 ZIN A   1      19.280   3.865  11.187  0.00  0.00     0.037 A 
ATOM     25  C12 ZIN A   1      18.024   3.678  10.618  0.00  0.00     0.068 A 
ATOM     26  C11 ZIN A   1      17.475   2.403  10.541  0.00  0.00     0.037 A 
ATOM     27  C10 ZIN A   1      18.172   1.320  11.029  0.00  0.00     0.018 A 
BRANCH  25  28
ATOM     28  O13 ZIN A   1      17.335   4.743  10.137  0.00  0.00    -0.351 OA
BRANCH  28  29
ATOM     29  C14 ZIN A   1      16.778   5.642  11.097  0.00  0.00     0.177 C 
BRANCH  29  30
ATOM     30  C15 ZIN A   1      16.782   4.982  12.478  0.00  0.00     0.054 C 
BRANCH  30  31
ATOM     31  C16 ZIN A   1      15.833   5.740  13.409  0.00  0.00     0.237 C 
BRANCH  31  32
ATOM     32  N17 ZIN A   1      16.137   5.395  14.804  0.00  0.00    -0.071 N 
ATOM     33  H18 ZIN A   1      15.616   4.572  15.069  0.00  0.00     0.279 HD
BRANCH  32  34
ATOM     34  C19 ZIN A   1      17.576   5.130  14.940  0.00  0.00     0.234 C 
BRANCH  34  35
ATOM     35  C20 ZIN A   1      18.208   6.195  15.839  0.00  0.00     0.027 C 
BRANCH  35  36
ATOM     36  C21 ZIN A   1      19.687   6.349  15.484  0.00  0.00    -0.003 C 
ATOM     37  C22 ZIN A   1      19.969   5.648  14.154  0.00  0.00     0.005 C 
ENDBRANCH  35  36
ENDBRANCH  34  35
ENDBRANCH  32  34
BRANCH  32  38
ATOM     38  C23 ZIN A   1      15.762   6.514  15.678  0.00  0.00     0.234 C 
BRANCH  38  39
ATOM     39  C24 ZIN A   1      14.272   6.421  16.014  0.00  0.00     0.027 C 
BRANCH  39  40
ATOM     40  C25 ZIN A   1      14.080   6.559  17.525  0.00  0.00    -0.003 C 
ATOM     41  C26 ZIN A   1      15.154   5.747  18.252  0.00  0.00     0.005 C 
ENDBRANCH  39  40
ENDBRANCH  38  39
ENDBRANCH  32  38
ENDBRANCH  31  32
ENDBRANCH  30  31
ENDBRANCH  29  30
ENDBRANCH  28  29
ENDBRANCH  25  28
ENDBRANCH   1  22
TORSDOF 18
ENDMDL
MODEL 6
REMARK VINA RESULT:      -7.1      4.034      9.462
REMARK  18 active torsions:
REMARK  status: ('A' for Active; 'I' for Inactive)
REMARK    1  A    between atoms: C2_2  and  C3_3 
REMARK    2  A    between atoms: C3_3  and  C4_4 
REMARK    3  A    between atoms: C4_4  and  C5_5 
REMARK    4  A    between atoms: C6_6  and  C7_7 
REMARK    5  A    between atoms: C7_7  and  C9_9 
REMARK    6  A    between atoms: C12_12  and  O13_13 
REMARK    7  A    between atoms: O13_13  and  C14_14 
REMARK    8  A    between atoms: C14_14  and  C15_15 
REMARK    9  A    between atoms: C15_15  and  C16_16 
REMARK   10  A    between atoms: C16_16  and  N17_17 
REMARK   11  A    between atoms: N17_17  and  C19_19 
REMARK   12  A    between atoms: N17_17  and  C23_23 
REMARK   13  A    between atoms: C19_19  and  C20_20 
REMARK   14  A    between atoms: C20_20  and  C21_21 
REMARK   15  A    between atoms: C23_23  and  C24_24 
REMARK   16  A    between atoms: C24_24  and  C25_25 
REMARK   17  A    between atoms: C31_31  and  N32_32 
REMARK   18  A    between atoms: N32_32  and  S33_33 
ROOT
ATOM      1  C7  ZIN A   1      19.837   0.595  11.602  0.00  0.00     0.195 C 
ATOM      2  O8  ZIN A   1      20.921   0.799  12.115  0.00  0.00    -0.287 OA
ENDROOT
BRANCH   1   3
ATOM      3  C6  ZIN A   1      19.099   1.701  10.977  0.00  0.00     0.058 A 
ATOM      4  C5  ZIN A   1      18.954   1.947   9.645  0.00  0.00     0.069 A 
ATOM      5  O40 ZIN A   1      18.218   3.049   9.463  0.00  0.00    -0.313 OA
ATOM      6  C39 ZIN A   1      17.833   3.583  10.642  0.00  0.00     0.087 A 
ATOM      7  C29 ZIN A   1      18.359   2.780  11.664  0.00  0.00     0.017 A 
ATOM      8  C38 ZIN A   1      17.073   4.697  10.973  0.00  0.00     0.040 A 
ATOM      9  C30 ZIN A   1      18.123   3.095  12.998  0.00  0.00     0.045 A 
ATOM     10  C31 ZIN A   1      17.364   4.211  13.312  0.00  0.00     0.043 A 
ATOM     11  C37 ZIN A   1      16.842   5.008  12.296  0.00  0.00     0.033 A 
BRANCH   4  12
ATOM     12  C4  ZIN A   1      19.542   1.105   8.541  0.00  0.00     0.066 C 
BRANCH  12  13
ATOM     13  C3  ZIN A   1      18.441   0.723   7.549  0.00  0.00     0.006 C 
BRANCH  13  14
ATOM     14  C2  ZIN A   1      17.650  -0.465   8.097  0.00  0.00    -0.004 C 
ATOM     15  C1  ZIN A   1      18.492  -1.737   7.980  0.00  0.00     0.005 C 
ENDBRANCH  13  14
ENDBRANCH  12  13
ENDBRANCH   4  12
BRANCH  10  16
ATOM     16  N32 ZIN A   1      17.122   4.537  14.651  0.00  0.00    -0.285 N 
ATOM     17  H79 ZIN A   1      16.226   4.460  15.015  0.00  0.00     0.178 HD
BRANCH  16  18
ATOM     18  S33 ZIN A   1      18.365   5.054  15.615  0.00  0.00     0.227 S 
ATOM     19  C34 ZIN A   1      19.417   6.036  14.510  0.00  0.00     0.186 C 
ATOM     20  O35 ZIN A   1      17.738   5.889  16.578  0.00  0.00    -0.206 OA
ATOM     21  O36 ZIN A   1      19.028   3.858  16.002  0.00  0.00    -0.206 OA
ENDBRANCH  16  18
ENDBRANCH  10  16
ENDBRANCH   1   3
BRANCH   1  22
ATOM     22  C9  ZIN A   1      19.262  -0.765  11.608  0.00  0.00     0.015 A 
ATOM     23  C28 ZIN A   1      20.085  -1.875  11.397  0.00  0.00     0.018 A 
ATOM     24  C27 ZIN A   1      19.546  -3.142  11.408  0.00  0.00     0.037 A 
ATOM     25  C12 ZIN A   1      18.183  -3.317  11.621  0.00  0.00     0.068 A 
ATOM     26  C11 ZIN A   1      17.360  -2.215  11.827  0.00  0.00     0.037 A 
ATOM     27  C10 ZIN A   1      17.892  -0.945  11.821  0.00  0.00     0.018 A 
BRANCH  25  28
ATOM     28  O13 ZIN A   1      17.655  -4.567  11.627  0.00  0.00    -0.351 OA
BRANCH  28  29
ATOM     29  C14 ZIN A   1      16.735  -4.888  10.583  0.00  0.00     0.177 C 
BRANCH  29  30
ATOM     30  C15 ZIN A   1      17.100  -6.246   9.980  0.00  0.00     0.054 C 
BRANCH  30  31
ATOM     31  C16 ZIN A   1      18.103  -6.047   8.841  0.00  0.00     0.237 C 
BRANCH  31  32
ATOM     32  N17 ZIN A   1      17.386  -6.023   7.558  0.00  0.00    -0.071 N 
ATOM     33  H18 ZIN A   1      17.031  -5.095   7.388  0.00  0.00     0.279 HD
BRANCH  32  34
ATOM     34  C19 ZIN A   1      18.307  -6.402   6.478  0.00  0.00     0.234 C 
BRANCH  34  35
ATOM     35  C20 ZIN A   1      17.871  -5.725   5.176  0.00  0.00     0.027 C 
BRANCH  35  36
ATOM     36  C21 ZIN A   1      17.943  -4.206   5.342  0.00  0.00    -0.003 C 
ATOM     37  C22 ZIN A   1      17.204  -3.531   4.185  0.00  0.00     0.005 C 
ENDBRANCH  35  36
ENDBRANCH  34  35
ENDBRANCH  32  34
BRANCH  32  38
ATOM     38  C23 ZIN A   1      16.269  -6.975   7.604  0.00  0.00     0.234 C 
BRANCH  38  39
ATOM     39  C24 ZIN A   1      14.972  -6.257   7.225  0.00  0.00     0.027 C 
BRANCH  39  40
ATOM     40  C25 ZIN A   1      13.777  -7.043   7.767  0.00  0.00    -0.003 C 
ATOM     41  C26 ZIN A   1      13.749  -8.434   7.131  0.00  0.00     0.005 C 
ENDBRANCH  39  40
ENDBRANCH  38  39
ENDBRANCH  32  38
ENDBRANCH  31  32
ENDBRANCH  30  31
ENDBRANCH  29  30
ENDBRANCH  28  29
ENDBRANCH  25  28
ENDBRANCH   1  22
TORSDOF 18
ENDMDL
MODEL 7
REMARK VINA RESULT:      -7.1      4.350      8.287
REMARK  18 active torsions:
REMARK  status: ('A' for Active; 'I' for Inactive)
REMARK    1  A    between atoms: C2_2  and  C3_3 
REMARK    2  A    between atoms: C3_3  and  C4_4 
REMARK    3  A    between atoms: C4_4  and  C5_5 
REMARK    4  A    between atoms: C6_6  and  C7_7 
REMARK    5  A    between atoms: C7_7  and  C9_9 
REMARK    6  A    between atoms: C12_12  and  O13_13 
REMARK    7  A    between atoms: O13_13  and  C14_14 
REMARK    8  A    between atoms: C14_14  and  C15_15 
REMARK    9  A    between atoms: C15_15  and  C16_16 
REMARK   10  A    between atoms: C16_16  and  N17_17 
REMARK   11  A    between atoms: N17_17  and  C19_19 
REMARK   12  A    between atoms: N17_17  and  C23_23 
REMARK   13  A    between atoms: C19_19  and  C20_20 
REMARK   14  A    between atoms: C20_20  and  C21_21 
REMARK   15  A    between atoms: C23_23  and  C24_24 
REMARK   16  A    between atoms: C24_24  and  C25_25 
REMARK   17  A    between atoms: C31_31  and  N32_32 
REMARK   18  A    between atoms: N32_32  and  S33_33 
ROOT
ATOM      1  C7  ZIN A   1      20.049   0.650  11.857  0.00  0.00     0.195 C 
ATOM      2  O8  ZIN A   1      21.244   0.821  12.010  0.00  0.00    -0.287 OA
ENDROOT
BRANCH   1   3
ATOM      3  C6  ZIN A   1      19.530  -0.693  11.568  0.00  0.00     0.058 A 
ATOM      4  C5  ZIN A   1      19.165  -1.648  12.470  0.00  0.00     0.069 A 
ATOM      5  O40 ZIN A   1      18.745  -2.743  11.827  0.00  0.00    -0.313 OA
ATOM      6  C39 ZIN A   1      18.797  -2.578  10.488  0.00  0.00     0.087 A 
ATOM      7  C29 ZIN A   1      19.293  -1.291  10.238  0.00  0.00     0.017 A 
ATOM      8  C38 ZIN A   1      18.473  -3.404   9.419  0.00  0.00     0.040 A 
ATOM      9  C30 ZIN A   1      19.458  -0.843   8.931  0.00  0.00     0.045 A 
ATOM     10  C31 ZIN A   1      19.131  -1.678   7.876  0.00  0.00     0.043 A 
ATOM     11  C37 ZIN A   1      18.640  -2.958   8.126  0.00  0.00     0.033 A 
BRANCH   4  12
ATOM     12  C4  ZIN A   1      19.232  -1.494  13.967  0.00  0.00     0.066 C 
BRANCH  12  13
ATOM     13  C3  ZIN A   1      17.938  -0.855  14.474  0.00  0.00     0.006 C 
BRANCH  13  14
ATOM     14  C2  ZIN A   1      18.151  -0.323  15.892  0.00  0.00    -0.004 C 
ATOM     15  C1  ZIN A   1      18.984  -1.325  16.693  0.00  0.00     0.005 C 
ENDBRANCH  13  14
ENDBRANCH  12  13
ENDBRANCH   4  12
BRANCH  10  16
ATOM     16  N32 ZIN A   1      19.295  -1.238   6.559  0.00  0.00    -0.285 N 
ATOM     17  H79 ZIN A   1      19.941  -1.670   5.978  0.00  0.00     0.178 HD
BRANCH  16  18
ATOM     18  S33 ZIN A   1      18.383   0.022   5.989  0.00  0.00     0.227 S 
ATOM     19  C34 ZIN A   1      19.017   1.475   6.869  0.00  0.00     0.186 C 
ATOM     20  O35 ZIN A   1      18.709   0.094   4.607  0.00  0.00    -0.206 OA
ATOM     21  O36 ZIN A   1      17.062  -0.282   6.414  0.00  0.00    -0.206 OA
ENDBRANCH  16  18
ENDBRANCH  10  16
ENDBRANCH   1   3
BRANCH   1  22
ATOM     22  C9  ZIN A   1      19.121   1.794  11.961  0.00  0.00     0.015 A 
ATOM     23  C28 ZIN A   1      18.900   2.407  13.198  0.00  0.00     0.018 A 
ATOM     24  C27 ZIN A   1      18.038   3.476  13.289  0.00  0.00     0.037 A 
ATOM     25  C12 ZIN A   1      17.381   3.941  12.155  0.00  0.00     0.068 A 
ATOM     26  C11 ZIN A   1      17.595   3.331  10.924  0.00  0.00     0.037 A 
ATOM     27  C10 ZIN A   1      18.459   2.264  10.823  0.00  0.00     0.018 A 
BRANCH  25  28
ATOM     28  O13 ZIN A   1      16.528   4.992  12.251  0.00  0.00    -0.351 OA
BRANCH  28  29
ATOM     29  C14 ZIN A   1      16.822   5.978  13.241  0.00  0.00     0.177 C 
BRANCH  29  30
ATOM     30  C15 ZIN A   1      15.801   5.881  14.377  0.00  0.00     0.054 C 
BRANCH  30  31
ATOM     31  C16 ZIN A   1      16.422   6.416  15.669  0.00  0.00     0.237 C 
BRANCH  31  32
ATOM     32  N17 ZIN A   1      16.588   5.313  16.626  0.00  0.00    -0.071 N 
ATOM     33  H18 ZIN A   1      16.100   4.498  16.287  0.00  0.00     0.279 HD
BRANCH  32  34
ATOM     34  C19 ZIN A   1      18.017   5.003  16.773  0.00  0.00     0.234 C 
BRANCH  34  35
ATOM     35  C20 ZIN A   1      18.846   6.231  16.388  0.00  0.00     0.027 C 
BRANCH  35  36
ATOM     36  C21 ZIN A   1      20.236   5.785  15.933  0.00  0.00    -0.003 C 
ATOM     37  C22 ZIN A   1      20.394   6.057  14.436  0.00  0.00     0.005 C 
ENDBRANCH  35  36
ENDBRANCH  34  35
ENDBRANCH  32  34
BRANCH  32  38
ATOM     38  C23 ZIN A   1      16.036   5.708  17.928  0.00  0.00     0.234 C 
BRANCH  38  39
ATOM     39  C24 ZIN A   1      16.923   5.155  19.046  0.00  0.00     0.027 C 
BRANCH  39  40
ATOM     40  C25 ZIN A   1      16.295   5.480  20.403  0.00  0.00    -0.003 C 
ATOM     41  C26 ZIN A   1      15.590   4.237  20.949  0.00  0.00     0.005 C 
ENDBRANCH  39  40
ENDBRANCH  38  39
ENDBRANCH  32  38
ENDBRANCH  31  32
ENDBRANCH  30  31
ENDBRANCH  29  30
ENDBRANCH  28  29
ENDBRANCH  25  28
ENDBRANCH   1  22
TORSDOF 18
ENDMDL
MODEL 8
REMARK VINA RESULT:      -7.1      4.323      9.984
REMARK  18 active torsions:
REMARK  status: ('A' for Active; 'I' for Inactive)
REMARK    1  A    between atoms: C2_2  and  C3_3 
REMARK    2  A    between atoms: C3_3  and  C4_4 
REMARK    3  A    between atoms: C4_4  and  C5_5 
REMARK    4  A    between atoms: C6_6  and  C7_7 
REMARK    5  A    between atoms: C7_7  and  C9_9 
REMARK    6  A    between atoms: C12_12  and  O13_13 
REMARK    7  A    between atoms: O13_13  and  C14_14 
REMARK    8  A    between atoms: C14_14  and  C15_15 
REMARK    9  A    between atoms: C15_15  and  C16_16 
REMARK   10  A    between atoms: C16_16  and  N17_17 
REMARK   11  A    between atoms: N17_17  and  C19_19 
REMARK   12  A    between atoms: N17_17  and  C23_23 
REMARK   13  A    between atoms: C19_19  and  C20_20 
REMARK   14  A    between atoms: C20_20  and  C21_21 
REMARK   15  A    between atoms: C23_23  and  C24_24 
REMARK   16  A    between atoms: C24_24  and  C25_25 
REMARK   17  A    between atoms: C31_31  and  N32_32 
REMARK   18  A    between atoms: N32_32  and  S33_33 
ROOT
ATOM      1  C7  ZIN A   1      19.743   1.033  11.539  0.00  0.00     0.195 C 
ATOM      2  O8  ZIN A   1      20.861   1.207  11.986  0.00  0.00    -0.287 OA
ENDROOT
BRANCH   1   3
ATOM      3  C6  ZIN A   1      18.987   2.165  10.986  0.00  0.00     0.058 A 
ATOM      4  C5  ZIN A   1      18.827   2.486   9.671  0.00  0.00     0.069 A 
ATOM      5  O40 ZIN A   1      18.077   3.588   9.561  0.00  0.00    -0.313 OA
ATOM      6  C39 ZIN A   1      17.696   4.047  10.773  0.00  0.00     0.087 A 
ATOM      7  C29 ZIN A   1      18.241   3.193  11.741  0.00  0.00     0.017 A 
ATOM      8  C38 ZIN A   1      16.927   5.132  11.175  0.00  0.00     0.040 A 
ATOM      9  C30 ZIN A   1      18.014   3.427  13.094  0.00  0.00     0.045 A 
ATOM     10  C31 ZIN A   1      17.246   4.513  13.479  0.00  0.00     0.043 A 
ATOM     11  C37 ZIN A   1      16.705   5.362  12.516  0.00  0.00     0.033 A 
BRANCH   4  12
ATOM     12  C4  ZIN A   1      19.413   1.718   8.515  0.00  0.00     0.066 C 
BRANCH  12  13
ATOM     13  C3  ZIN A   1      18.412   0.661   8.044  0.00  0.00     0.006 C 
BRANCH  13  14
ATOM     14  C2  ZIN A   1      19.139  -0.663   7.810  0.00  0.00    -0.004 C 
ATOM     15  C1  ZIN A   1      18.173  -1.825   8.048  0.00  0.00     0.005 C 
ENDBRANCH  13  14
ENDBRANCH  12  13
ENDBRANCH   4  12
BRANCH  10  16
ATOM     16  N32 ZIN A   1      17.012   4.758  14.836  0.00  0.00    -0.285 N 
ATOM     17  H79 ZIN A   1      16.206   4.422  15.258  0.00  0.00     0.178 HD
BRANCH  16  18
ATOM     18  S33 ZIN A   1      18.114   5.620  15.723  0.00  0.00     0.227 S 
ATOM     19  C34 ZIN A   1      19.145   4.356  16.516  0.00  0.00     0.186 C 
ATOM     20  O35 ZIN A   1      18.863   6.336  14.751  0.00  0.00    -0.206 OA
ATOM     21  O36 ZIN A   1      17.328   6.301  16.691  0.00  0.00    -0.206 OA
ENDBRANCH  16  18
ENDBRANCH  10  16
ENDBRANCH   1   3
BRANCH   1  22
ATOM     22  C9  ZIN A   1      19.146  -0.318  11.552  0.00  0.00     0.015 A 
ATOM     23  C28 ZIN A   1      19.959  -1.445  11.405  0.00  0.00     0.018 A 
ATOM     24  C27 ZIN A   1      19.398  -2.703  11.423  0.00  0.00     0.037 A 
ATOM     25  C12 ZIN A   1      18.024  -2.852  11.578  0.00  0.00     0.068 A 
ATOM     26  C11 ZIN A   1      17.212  -1.732  11.719  0.00  0.00     0.037 A 
ATOM     27  C10 ZIN A   1      17.765  -0.471  11.706  0.00  0.00     0.018 A 
BRANCH  25  28
ATOM     28  O13 ZIN A   1      17.476  -4.092  11.590  0.00  0.00    -0.351 OA
BRANCH  28  29
ATOM     29  C14 ZIN A   1      18.022  -5.052  10.684  0.00  0.00     0.177 C 
BRANCH  29  30
ATOM     30  C15 ZIN A   1      16.887  -5.723   9.906  0.00  0.00     0.054 C 
BRANCH  30  31
ATOM     31  C16 ZIN A   1      17.014  -5.379   8.420  0.00  0.00     0.237 C 
BRANCH  31  32
ATOM     32  N17 ZIN A   1      16.442  -6.468   7.616  0.00  0.00    -0.071 N 
ATOM     33  H18 ZIN A   1      16.386  -6.180   6.651  0.00  0.00     0.279 HD
BRANCH  32  34
ATOM     34  C19 ZIN A   1      17.297  -7.658   7.725  0.00  0.00     0.234 C 
BRANCH  34  35
ATOM     35  C20 ZIN A   1      16.877  -8.686   6.672  0.00  0.00     0.027 C 
BRANCH  35  36
ATOM     36  C21 ZIN A   1      16.460  -9.984   7.364  0.00  0.00    -0.003 C 
ATOM     37  C22 ZIN A   1      14.980 -10.257   7.089  0.00  0.00     0.005 C 
ENDBRANCH  35  36
ENDBRANCH  34  35
ENDBRANCH  32  34
BRANCH  32  38
ATOM     38  C23 ZIN A   1      15.096  -6.787   8.111  0.00  0.00     0.234 C 
BRANCH  38  39
ATOM     39  C24 ZIN A   1      14.055  -6.331   7.087  0.00  0.00     0.027 C 
BRANCH  39  40
ATOM     40  C25 ZIN A   1      12.688  -6.220   7.765  0.00  0.00    -0.003 C 
ATOM     41  C26 ZIN A   1      12.136  -7.622   8.032  0.00  0.00     0.005 C 
ENDBRANCH  39  40
ENDBRANCH  38  39
ENDBRANCH  32  38
ENDBRANCH  31  32
ENDBRANCH  30  31
ENDBRANCH  29  30
ENDBRANCH  28  29
ENDBRANCH  25  28
ENDBRANCH   1  22
TORSDOF 18
ENDMDL
MODEL 9
REMARK VINA RESULT:      -6.9      3.030      5.686
REMARK  18 active torsions:
REMARK  status: ('A' for Active; 'I' for Inactive)
REMARK    1  A    between atoms: C2_2  and  C3_3 
REMARK    2  A    between atoms: C3_3  and  C4_4 
REMARK    3  A    between atoms: C4_4  and  C5_5 
REMARK    4  A    between atoms: C6_6  and  C7_7 
REMARK    5  A    between atoms: C7_7  and  C9_9 
REMARK    6  A    between atoms: C12_12  and  O13_13 
REMARK    7  A    between atoms: O13_13  and  C14_14 
REMARK    8  A    between atoms: C14_14  and  C15_15 
REMARK    9  A    between atoms: C15_15  and  C16_16 
REMARK   10  A    between atoms: C16_16  and  N17_17 
REMARK   11  A    between atoms: N17_17  and  C19_19 
REMARK   12  A    between atoms: N17_17  and  C23_23 
REMARK   13  A    between atoms: C19_19  and  C20_20 
REMARK   14  A    between atoms: C20_20  and  C21_21 
REMARK   15  A    between atoms: C23_23  and  C24_24 
REMARK   16  A    between atoms: C24_24  and  C25_25 
REMARK   17  A    between atoms: C31_31  and  N32_32 
REMARK   18  A    between atoms: N32_32  and  S33_33 
ROOT
ATOM      1  C7  ZIN A   1      18.931  -5.633   8.718  0.00  0.00     0.195 C 
ATOM      2  O8  ZIN A   1      19.687  -6.578   8.841  0.00  0.00    -0.287 OA
ENDROOT
BRANCH   1   3
ATOM      3  C6  ZIN A   1      18.176  -5.452   7.470  0.00  0.00     0.058 A 
ATOM      4  C5  ZIN A   1      18.471  -4.606   6.444  0.00  0.00     0.069 A 
ATOM      5  O40 ZIN A   1      17.548  -4.719   5.482  0.00  0.00    -0.313 OA
ATOM      6  C39 ZIN A   1      16.610  -5.635   5.806  0.00  0.00     0.087 A 
ATOM      7  C29 ZIN A   1      16.938  -6.151   7.067  0.00  0.00     0.017 A 
ATOM      8  C38 ZIN A   1      15.478  -6.103   5.151  0.00  0.00     0.040 A 
ATOM      9  C30 ZIN A   1      16.137  -7.121   7.660  0.00  0.00     0.045 A 
ATOM     10  C31 ZIN A   1      15.010  -7.576   6.996  0.00  0.00     0.043 A 
ATOM     11  C37 ZIN A   1      14.685  -7.063   5.742  0.00  0.00     0.033 A 
BRANCH   4  12
ATOM     12  C4  ZIN A   1      19.657  -3.677   6.402  0.00  0.00     0.066 C 
BRANCH  12  13
ATOM     13  C3  ZIN A   1      19.169  -2.231   6.288  0.00  0.00     0.006 C 
BRANCH  13  14
ATOM     14  C2  ZIN A   1      19.300  -1.761   4.838  0.00  0.00    -0.004 C 
ATOM     15  C1  ZIN A   1      19.063  -0.251   4.768  0.00  0.00     0.005 C 
ENDBRANCH  13  14
ENDBRANCH  12  13
ENDBRANCH   4  12
BRANCH  10  16
ATOM     16  N32 ZIN A   1      14.197  -8.551   7.583  0.00  0.00    -0.285 N 
ATOM     17  H79 ZIN A   1      14.588  -9.377   7.909  0.00  0.00     0.178 HD
BRANCH  16  18
ATOM     18  S33 ZIN A   1      12.567  -8.295   7.725  0.00  0.00     0.227 S 
ATOM     19  C34 ZIN A   1      12.424  -6.558   8.226  0.00  0.00     0.186 C 
ATOM     20  O35 ZIN A   1      12.068  -8.476   6.406  0.00  0.00    -0.206 OA
ATOM     21  O36 ZIN A   1      12.168  -9.154   8.783  0.00  0.00    -0.206 OA
ENDBRANCH  16  18
ENDBRANCH  10  16
ENDBRANCH   1   3
BRANCH   1  22
ATOM     22  C9  ZIN A   1      18.773  -4.666   9.823  0.00  0.00     0.015 A 
ATOM     23  C28 ZIN A   1      19.825  -4.445  10.716  0.00  0.00     0.018 A 
ATOM     24  C27 ZIN A   1      19.675  -3.540  11.742  0.00  0.00     0.037 A 
ATOM     25  C12 ZIN A   1      18.476  -2.851  11.896  0.00  0.00     0.068 A 
ATOM     26  C11 ZIN A   1      17.426  -3.072  11.011  0.00  0.00     0.037 A 
ATOM     27  C10 ZIN A   1      17.569  -3.973   9.980  0.00  0.00     0.018 A 
BRANCH  25  28
ATOM     28  O13 ZIN A   1      18.332  -1.963  12.911  0.00  0.00    -0.351 OA
BRANCH  28  29
ATOM     29  C14 ZIN A   1      19.316  -0.934  13.018  0.00  0.00     0.177 C 
BRANCH  29  30
ATOM     30  C15 ZIN A   1      18.628   0.402  13.310  0.00  0.00     0.054 C 
BRANCH  30  31
ATOM     31  C16 ZIN A   1      17.672   0.744  12.165  0.00  0.00     0.237 C 
BRANCH  31  32
ATOM     32  N17 ZIN A   1      17.993   2.081  11.645  0.00  0.00    -0.071 N 
ATOM     33  H18 ZIN A   1      17.166   2.489  11.235  0.00  0.00     0.279 HD
BRANCH  32  34
ATOM     34  C19 ZIN A   1      18.468   2.933  12.743  0.00  0.00     0.234 C 
BRANCH  34  35
ATOM     35  C20 ZIN A   1      19.076   4.214  12.168  0.00  0.00     0.027 C 
BRANCH  35  36
ATOM     36  C21 ZIN A   1      19.671   5.050  13.302  0.00  0.00    -0.003 C 
ATOM     37  C22 ZIN A   1      19.063   4.608  14.634  0.00  0.00     0.005 C 
ENDBRANCH  35  36
ENDBRANCH  34  35
ENDBRANCH  32  34
BRANCH  32  38
ATOM     38  C23 ZIN A   1      19.042   1.969  10.623  0.00  0.00     0.234 C 
BRANCH  38  39
ATOM     39  C24 ZIN A   1      18.407   1.617   9.276  0.00  0.00     0.027 C 
BRANCH  39  40
ATOM     40  C25 ZIN A   1      19.398   0.803   8.442  0.00  0.00    -0.003 C 
ATOM     41  C26 ZIN A   1      19.991  -0.315   9.302  0.00  0.00     0.005 C 
ENDBRANCH  39  40
ENDBRANCH  38  39
ENDBRANCH  32  38
ENDBRANCH  31  32
ENDBRANCH  30  31
ENDBRANCH  29  30
ENDBRANCH  28  29
ENDBRANCH  25  28
ENDBRANCH   1  22
TORSDOF 18
ENDMDL
