MODEL 1
REMARK VINA RESULT:      -6.4      0.000      0.000
REMARK  4 active torsions:
REMARK  status: ('A' for Active; 'I' for Inactive)
REMARK    1  A    between atoms: C2_2  and  N4_3 
REMARK    2  A    between atoms: C2_2  and  C11_10 
REMARK    3  A    between atoms: N4_3  and  C7_6 
REMARK    4  A    between atoms: C11_10  and  C13_12 
ROOT
ATOM      1  C1  ZIN A   1      17.851  -2.290  11.942  0.00  0.00     0.049 C 
ATOM      2  C2  ZIN A   1      18.032  -0.782  12.121  0.00  0.00     0.257 C 
ENDROOT
BRANCH   2   3
ATOM      3  N4  ZIN A   1      17.635  -0.398  13.483  0.00  0.00    -0.056 N 
ATOM      4  H5  ZIN A   1      17.020   0.400  13.441  0.00  0.00     0.279 HD
ATOM      5  H6  ZIN A   1      17.154  -1.170  13.922  0.00  0.00     0.279 HD
BRANCH   3   6
ATOM      6  C7  ZIN A   1      18.831  -0.057  14.264  0.00  0.00     0.116 C 
ATOM      7  C8  ZIN A   1      19.996   0.230  13.315  0.00  0.00     0.045 C 
ATOM      8  C9  ZIN A   1      18.548   1.184  15.114  0.00  0.00     0.045 C 
ATOM      9  C10 ZIN A   1      19.194  -1.230  15.179  0.00  0.00     0.045 C 
ENDBRANCH   3   6
ENDBRANCH   2   3
BRANCH   2  10
ATOM     10  C11 ZIN A   1      17.171  -0.050  11.123  0.00  0.00     0.189 C 
ATOM     11  O12 ZIN A   1      15.997   0.139  11.359  0.00  0.00    -0.290 OA
BRANCH  10  12
ATOM     12  C13 ZIN A   1      17.756   0.432   9.861  0.00  0.00     0.013 A 
ATOM     13  C19 ZIN A   1      17.350  -0.120   8.643  0.00  0.00     0.039 A 
ATOM     14  C17 ZIN A   1      17.897   0.343   7.463  0.00  0.00     0.035 A 
ATOM     15  C16 ZIN A   1      18.857   1.342   7.487  0.00  0.00     0.024 A 
ATOM     16 Cl18 ZIN A   1      17.389  -0.334   5.948  0.00  0.00    -0.084 Cl
ATOM     17  C15 ZIN A   1      19.267   1.889   8.689  0.00  0.00     0.003 A 
ATOM     18  C14 ZIN A   1      18.725   1.441   9.875  0.00  0.00     0.015 A 
ENDBRANCH  10  12
ENDBRANCH   2  10
TORSDOF 4
ENDMDL
MODEL 2
REMARK VINA RESULT:      -6.3      1.457      2.932
REMARK  4 active torsions:
REMARK  status: ('A' for Active; 'I' for Inactive)
REMARK    1  A    between atoms: C2_2  and  N4_3 
REMARK    2  A    between atoms: C2_2  and  C11_10 
REMARK    3  A    between atoms: N4_3  and  C7_6 
REMARK    4  A    between atoms: C11_10  and  C13_12 
ROOT
ATOM      1  C1  ZIN A   1      18.099  -0.865  13.205  0.00  0.00     0.049 C 
ATOM      2  C2  ZIN A   1      17.689  -1.366  11.819  0.00  0.00     0.257 C 
ENDROOT
BRANCH   2   3
ATOM      3  N4  ZIN A   1      18.881  -1.814  11.086  0.00  0.00    -0.056 N 
ATOM      4  H5  ZIN A   1      18.958  -1.298  10.223  0.00  0.00     0.279 HD
ATOM      5  H6  ZIN A   1      19.703  -1.650  11.650  0.00  0.00     0.279 HD
BRANCH   3   6
ATOM      6  C7  ZIN A   1      18.766  -3.248  10.792  0.00  0.00     0.116 C 
ATOM      7  C8  ZIN A   1      19.899  -4.004  11.490  0.00  0.00     0.045 C 
ATOM      8  C9  ZIN A   1      17.419  -3.766  11.300  0.00  0.00     0.045 C 
ATOM      9  C10 ZIN A   1      18.861  -3.469   9.281  0.00  0.00     0.045 C 
ENDBRANCH   3   6
ENDBRANCH   2   3
BRANCH   2  10
ATOM     10  C11 ZIN A   1      17.023  -0.249  11.057  0.00  0.00     0.189 C 
ATOM     11  O12 ZIN A   1      15.953   0.184  11.428  0.00  0.00    -0.290 OA
BRANCH  10  12
ATOM     12  C13 ZIN A   1      17.671   0.315   9.861  0.00  0.00     0.013 A 
ATOM     13  C19 ZIN A   1      17.353  -0.178   8.592  0.00  0.00     0.039 A 
ATOM     14  C17 ZIN A   1      17.959   0.361   7.475  0.00  0.00     0.035 A 
ATOM     15  C16 ZIN A   1      18.890   1.377   7.612  0.00  0.00     0.024 A 
ATOM     16 Cl18 ZIN A   1      17.561  -0.243   5.897  0.00  0.00    -0.084 Cl
ATOM     17  C15 ZIN A   1      19.214   1.865   8.865  0.00  0.00     0.003 A 
ATOM     18  C14 ZIN A   1      18.612   1.341   9.989  0.00  0.00     0.015 A 
ENDBRANCH  10  12
ENDBRANCH   2  10
TORSDOF 4
ENDMDL
MODEL 3
REMARK VINA RESULT:      -6.2      3.225      6.014
REMARK  4 active torsions:
REMARK  status: ('A' for Active; 'I' for Inactive)
REMARK    1  A    between atoms: C2_2  and  N4_3 
REMARK    2  A    between atoms: C2_2  and  C11_10 
REMARK    3  A    between atoms: N4_3  and  C7_6 
REMARK    4  A    between atoms: C11_10  and  C13_12 
ROOT
ATOM      1  C1  ZIN A   1      18.439   2.503  11.596  0.00  0.00     0.049 C 
ATOM      2  C2  ZIN A   1      18.205   1.094  11.050  0.00  0.00     0.257 C 
ENDROOT
BRANCH   2   3
ATOM      3  N4  ZIN A   1      17.553   1.179   9.736  0.00  0.00    -0.056 N 
ATOM      4  H5  ZIN A   1      16.694   0.651   9.751  0.00  0.00     0.279 HD
ATOM      5  H6  ZIN A   1      17.350   2.145   9.524  0.00  0.00     0.279 HD
BRANCH   3   6
ATOM      6  C7  ZIN A   1      18.448   0.629   8.709  0.00  0.00     0.116 C 
ATOM      7  C8  ZIN A   1      19.125   1.775   7.955  0.00  0.00     0.045 C 
ATOM      8  C9  ZIN A   1      19.514  -0.243   9.375  0.00  0.00     0.045 C 
ATOM      9  C10 ZIN A   1      17.637  -0.219   7.726  0.00  0.00     0.045 C 
ENDBRANCH   3   6
ENDBRANCH   2   3
BRANCH   2  10
ATOM     10  C11 ZIN A   1      17.320   0.327  11.999  0.00  0.00     0.189 C 
ATOM     11  O12 ZIN A   1      16.154   0.141  11.725  0.00  0.00    -0.290 OA
BRANCH  10  12
ATOM     12  C13 ZIN A   1      17.871  -0.194  13.261  0.00  0.00     0.013 A 
ATOM     13  C19 ZIN A   1      17.272   0.139  14.480  0.00  0.00     0.039 A 
ATOM     14  C17 ZIN A   1      17.790  -0.360  15.658  0.00  0.00     0.035 A 
ATOM     15  C16 ZIN A   1      18.910  -1.175  15.634  0.00  0.00     0.024 A 
ATOM     16 Cl18 ZIN A   1      17.044   0.045  17.172  0.00  0.00    -0.084 Cl
ATOM     17  C15 ZIN A   1      19.511  -1.503  14.433  0.00  0.00     0.003 A 
ATOM     18  C14 ZIN A   1      19.001  -1.018  13.247  0.00  0.00     0.015 A 
ENDBRANCH  10  12
ENDBRANCH   2  10
TORSDOF 4
ENDMDL
MODEL 4
REMARK VINA RESULT:      -6.0      2.157      2.423
REMARK  4 active torsions:
REMARK  status: ('A' for Active; 'I' for Inactive)
REMARK    1  A    between atoms: C2_2  and  N4_3 
REMARK    2  A    between atoms: C2_2  and  C11_10 
REMARK    3  A    between atoms: N4_3  and  C7_6 
REMARK    4  A    between atoms: C11_10  and  C13_12 
ROOT
ATOM      1  C1  ZIN A   1      19.524  -2.641  11.964  0.00  0.00     0.049 C 
ATOM      2  C2  ZIN A   1      18.934  -1.330  12.488  0.00  0.00     0.257 C 
ENDROOT
BRANCH   2   3
ATOM      3  N4  ZIN A   1      18.280  -1.569  13.781  0.00  0.00    -0.056 N 
ATOM      4  H5  ZIN A   1      17.279  -1.509  13.669  0.00  0.00     0.279 HD
ATOM      5  H6  ZIN A   1      18.525  -2.489  14.117  0.00  0.00     0.279 HD
BRANCH   3   6
ATOM      6  C7  ZIN A   1      18.726  -0.559  14.750  0.00  0.00     0.116 C 
ATOM      7  C8  ZIN A   1      19.930   0.195  14.182  0.00  0.00     0.045 C 
ATOM      8  C9  ZIN A   1      17.587   0.426  15.020  0.00  0.00     0.045 C 
ATOM      9  C10 ZIN A   1      19.126  -1.248  16.057  0.00  0.00     0.045 C 
ENDBRANCH   3   6
ENDBRANCH   2   3
BRANCH   2  10
ATOM     10  C11 ZIN A   1      17.920  -0.806  11.503  0.00  0.00     0.189 C 
ATOM     11  O12 ZIN A   1      16.888  -1.414  11.313  0.00  0.00    -0.290 OA
BRANCH  10  12
ATOM     12  C13 ZIN A   1      18.183   0.443  10.770  0.00  0.00     0.013 A 
ATOM     13  C19 ZIN A   1      17.582   1.637  11.179  0.00  0.00     0.039 A 
ATOM     14  C17 ZIN A   1      17.840   2.806  10.491  0.00  0.00     0.035 A 
ATOM     15  C16 ZIN A   1      18.682   2.794   9.391  0.00  0.00     0.024 A 
ATOM     16 Cl18 ZIN A   1      17.100   4.292  11.000  0.00  0.00    -0.084 Cl
ATOM     17  C15 ZIN A   1      19.276   1.615   8.979  0.00  0.00     0.003 A 
ATOM     18  C14 ZIN A   1      19.033   0.441   9.659  0.00  0.00     0.015 A 
ENDBRANCH  10  12
ENDBRANCH   2  10
TORSDOF 4
ENDMDL
MODEL 5
REMARK VINA RESULT:      -6.0      3.581      5.657
REMARK  4 active torsions:
REMARK  status: ('A' for Active; 'I' for Inactive)
REMARK    1  A    between atoms: C2_2  and  N4_3 
REMARK    2  A    between atoms: C2_2  and  C11_10 
REMARK    3  A    between atoms: N4_3  and  C7_6 
REMARK    4  A    between atoms: C11_10  and  C13_12 
ROOT
ATOM      1  C1  ZIN A   1      18.708   1.143  10.228  0.00  0.00     0.049 C 
ATOM      2  C2  ZIN A   1      17.910   1.691  11.413  0.00  0.00     0.257 C 
ENDROOT
BRANCH   2   3
ATOM      3  N4  ZIN A   1      18.824   2.343  12.361  0.00  0.00    -0.056 N 
ATOM      4  H5  ZIN A   1      18.801   1.853  13.241  0.00  0.00     0.279 HD
ATOM      5  H6  ZIN A   1      19.762   2.323  11.989  0.00  0.00     0.279 HD
BRANCH   3   6
ATOM      6  C7  ZIN A   1      18.406   3.737  12.564  0.00  0.00     0.116 C 
ATOM      7  C8  ZIN A   1      17.774   3.883  13.950  0.00  0.00     0.045 C 
ATOM      8  C9  ZIN A   1      19.626   4.654  12.461  0.00  0.00     0.045 C 
ATOM      9  C10 ZIN A   1      17.384   4.124  11.493  0.00  0.00     0.045 C 
ENDBRANCH   3   6
ENDBRANCH   2   3
BRANCH   2  10
ATOM     10  C11 ZIN A   1      17.195   0.558  12.105  0.00  0.00     0.189 C 
ATOM     11  O12 ZIN A   1      16.139   0.153  11.671  0.00  0.00    -0.290 OA
BRANCH  10  12
ATOM     12  C13 ZIN A   1      17.780  -0.054  13.309  0.00  0.00     0.013 A 
ATOM     13  C19 ZIN A   1      17.289   0.279  14.575  0.00  0.00     0.039 A 
ATOM     14  C17 ZIN A   1      17.837  -0.304  15.700  0.00  0.00     0.035 A 
ATOM     15  C16 ZIN A   1      18.880  -1.207  15.575  0.00  0.00     0.024 A 
ATOM     16 Cl18 ZIN A   1      17.225   0.101  17.272  0.00  0.00    -0.084 Cl
ATOM     17  C15 ZIN A   1      19.374  -1.537  14.326  0.00  0.00     0.003 A 
ATOM     18  C14 ZIN A   1      18.832  -0.967  13.194  0.00  0.00     0.015 A 
ENDBRANCH  10  12
ENDBRANCH   2  10
TORSDOF 4
ENDMDL
MODEL 6
REMARK VINA RESULT:      -5.9      4.156      6.559
REMARK  4 active torsions:
REMARK  status: ('A' for Active; 'I' for Inactive)
REMARK    1  A    between atoms: C2_2  and  N4_3 
REMARK    2  A    between atoms: C2_2  and  C11_10 
REMARK    3  A    between atoms: N4_3  and  C7_6 
REMARK    4  A    between atoms: C11_10  and  C13_12 
ROOT
ATOM      1  C1  ZIN A   1      16.987   0.147  12.221  0.00  0.00     0.049 C 
ATOM      2  C2  ZIN A   1      18.022   1.201  12.620  0.00  0.00     0.257 C 
ENDROOT
BRANCH   2   3
ATOM      3  N4  ZIN A   1      18.500   1.899  11.418  0.00  0.00    -0.056 N 
ATOM      4  H5  ZIN A   1      19.445   1.613  11.217  0.00  0.00     0.279 HD
ATOM      5  H6  ZIN A   1      17.904   1.667  10.636  0.00  0.00     0.279 HD
BRANCH   3   6
ATOM      6  C7  ZIN A   1      18.465   3.350  11.647  0.00  0.00     0.116 C 
ATOM      7  C8  ZIN A   1      19.881   3.856  11.929  0.00  0.00     0.045 C 
ATOM      8  C9  ZIN A   1      17.911   4.049  10.404  0.00  0.00     0.045 C 
ATOM      9  C10 ZIN A   1      17.565   3.655  12.847  0.00  0.00     0.045 C 
ENDBRANCH   3   6
ENDBRANCH   2   3
BRANCH   2  10
ATOM     10  C11 ZIN A   1      19.185   0.531  13.306  0.00  0.00     0.189 C 
ATOM     11  O12 ZIN A   1      20.193   0.280  12.682  0.00  0.00    -0.290 OA
BRANCH  10  12
ATOM     12  C13 ZIN A   1      19.094   0.179  14.732  0.00  0.00     0.013 A 
ATOM     13  C19 ZIN A   1      19.141   1.181  15.707  0.00  0.00     0.039 A 
ATOM     14  C17 ZIN A   1      19.048   0.844  17.042  0.00  0.00     0.035 A 
ATOM     15  C16 ZIN A   1      18.921  -0.484  17.417  0.00  0.00     0.024 A 
ATOM     16 Cl18 ZIN A   1      19.099   2.085  18.254  0.00  0.00    -0.084 Cl
ATOM     17  C15 ZIN A   1      18.878  -1.480  16.458  0.00  0.00     0.003 A 
ATOM     18  C14 ZIN A   1      18.964  -1.158  15.120  0.00  0.00     0.015 A 
ENDBRANCH  10  12
ENDBRANCH   2  10
TORSDOF 4
ENDMDL
MODEL 7
REMARK VINA RESULT:      -5.8      3.466      5.978
REMARK  4 active torsions:
REMARK  status: ('A' for Active; 'I' for Inactive)
REMARK    1  A    between atoms: C2_2  and  N4_3 
REMARK    2  A    between atoms: C2_2  and  C11_10 
REMARK    3  A    between atoms: N4_3  and  C7_6 
REMARK    4  A    between atoms: C11_10  and  C13_12 
ROOT
ATOM      1  C1  ZIN A   1      19.565  -2.229  10.667  0.00  0.00     0.049 C 
ATOM      2  C2  ZIN A   1      19.286  -0.725  10.702  0.00  0.00     0.257 C 
ENDROOT
BRANCH   2   3
ATOM      3  N4  ZIN A   1      19.855  -0.093   9.503  0.00  0.00    -0.056 N 
ATOM      4  H5  ZIN A   1      20.653   0.466   9.764  0.00  0.00     0.279 HD
ATOM      5  H6  ZIN A   1      20.144  -0.808   8.852  0.00  0.00     0.279 HD
BRANCH   3   6
ATOM      6  C7  ZIN A   1      18.841   0.764   8.873  0.00  0.00     0.116 C 
ATOM      7  C8  ZIN A   1      18.983   0.687   7.352  0.00  0.00     0.045 C 
ATOM      8  C9  ZIN A   1      17.446   0.286   9.281  0.00  0.00     0.045 C 
ATOM      9  C10 ZIN A   1      19.040   2.211   9.332  0.00  0.00     0.045 C 
ENDBRANCH   3   6
ENDBRANCH   2   3
BRANCH   2  10
ATOM     10  C11 ZIN A   1      19.917  -0.125  11.932  0.00  0.00     0.189 C 
ATOM     11  O12 ZIN A   1      21.046   0.313  11.882  0.00  0.00    -0.290 OA
BRANCH  10  12
ATOM     12  C13 ZIN A   1      19.162  -0.072  13.195  0.00  0.00     0.013 A 
ATOM     13  C19 ZIN A   1      19.548  -0.868  14.277  0.00  0.00     0.039 A 
ATOM     14  C17 ZIN A   1      18.840  -0.807  15.461  0.00  0.00     0.035 A 
ATOM     15  C16 ZIN A   1      17.741   0.029  15.571  0.00  0.00     0.024 A 
ATOM     16 Cl18 ZIN A   1      19.321  -1.788  16.809  0.00  0.00    -0.084 Cl
ATOM     17  C15 ZIN A   1      17.351   0.815  14.502  0.00  0.00     0.003 A 
ATOM     18  C14 ZIN A   1      18.052   0.770  13.316  0.00  0.00     0.015 A 
ENDBRANCH  10  12
ENDBRANCH   2  10
TORSDOF 4
ENDMDL
MODEL 8
REMARK VINA RESULT:      -5.8      3.115      4.246
REMARK  4 active torsions:
REMARK  status: ('A' for Active; 'I' for Inactive)
REMARK    1  A    between atoms: C2_2  and  N4_3 
REMARK    2  A    between atoms: C2_2  and  C11_10 
REMARK    3  A    between atoms: N4_3  and  C7_6 
REMARK    4  A    between atoms: C11_10  and  C13_12 
ROOT
ATOM      1  C1  ZIN A   1      17.442   4.846  10.277  0.00  0.00     0.049 C 
ATOM      2  C2  ZIN A   1      18.034   4.007  11.410  0.00  0.00     0.257 C 
ENDROOT
BRANCH   2   3
ATOM      3  N4  ZIN A   1      18.701   4.890  12.377  0.00  0.00    -0.056 N 
ATOM      4  H5  ZIN A   1      19.664   4.611  12.479  0.00  0.00     0.279 HD
ATOM      5  H6  ZIN A   1      18.659   5.843  12.046  0.00  0.00     0.279 HD
BRANCH   3   6
ATOM      6  C7  ZIN A   1      18.023   4.793  13.677  0.00  0.00     0.116 C 
ATOM      7  C8  ZIN A   1      17.883   3.321  14.071  0.00  0.00     0.045 C 
ATOM      8  C9  ZIN A   1      18.845   5.529  14.737  0.00  0.00     0.045 C 
ATOM      9  C10 ZIN A   1      16.634   5.428  13.577  0.00  0.00     0.045 C 
ENDBRANCH   3   6
ENDBRANCH   2   3
BRANCH   2  10
ATOM     10  C11 ZIN A   1      19.038   3.035  10.845  0.00  0.00     0.189 C 
ATOM     11  O12 ZIN A   1      20.204   3.113  11.164  0.00  0.00    -0.290 OA
BRANCH  10  12
ATOM     12  C13 ZIN A   1      18.601   1.991   9.902  0.00  0.00     0.013 A 
ATOM     13  C19 ZIN A   1      19.060   2.001   8.582  0.00  0.00     0.039 A 
ATOM     14  C17 ZIN A   1      18.652   1.015   7.706  0.00  0.00     0.035 A 
ATOM     15  C16 ZIN A   1      17.779   0.027   8.131  0.00  0.00     0.024 A 
ATOM     16 Cl18 ZIN A   1      19.226   1.019   6.068  0.00  0.00    -0.084 Cl
ATOM     17  C15 ZIN A   1      17.317   0.015   9.434  0.00  0.00     0.003 A 
ATOM     18  C14 ZIN A   1      17.721   0.989  10.322  0.00  0.00     0.015 A 
ENDBRANCH  10  12
ENDBRANCH   2  10
TORSDOF 4
ENDMDL
MODEL 9
REMARK VINA RESULT:      -5.8      3.651      5.473
REMARK  4 active torsions:
REMARK  status: ('A' for Active; 'I' for Inactive)
REMARK    1  A    between atoms: C2_2  and  N4_3 
REMARK    2  A    between atoms: C2_2  and  C11_10 
REMARK    3  A    between atoms: N4_3  and  C7_6 
REMARK    4  A    between atoms: C11_10  and  C13_12 
ROOT
ATOM      1  C1  ZIN A   1      18.986  -1.778  10.634  0.00  0.00     0.049 C 
ATOM      2  C2  ZIN A   1      19.004  -0.388   9.996  0.00  0.00     0.257 C 
ENDROOT
BRANCH   2   3
ATOM      3  N4  ZIN A   1      19.739  -0.440   8.725  0.00  0.00    -0.056 N 
ATOM      4  H5  ZIN A   1      20.463   0.262   8.726  0.00  0.00     0.279 HD
ATOM      5  H6  ZIN A   1      20.156  -1.353   8.616  0.00  0.00     0.279 HD
BRANCH   3   6
ATOM      6  C7  ZIN A   1      18.814  -0.188   7.613  0.00  0.00     0.116 C 
ATOM      7  C8  ZIN A   1      17.372  -0.329   8.106  0.00  0.00     0.045 C 
ATOM      8  C9  ZIN A   1      19.033   1.229   7.078  0.00  0.00     0.045 C 
ATOM      9  C10 ZIN A   1      19.072  -1.201   6.495  0.00  0.00     0.045 C 
ENDBRANCH   3   6
ENDBRANCH   2   3
BRANCH   2  10
ATOM     10  C11 ZIN A   1      19.682   0.584  10.927  0.00  0.00     0.189 C 
ATOM     11  O12 ZIN A   1      20.664   0.242  11.550  0.00  0.00    -0.290 OA
BRANCH  10  12
ATOM     12  C13 ZIN A   1      19.150   1.948  11.082  0.00  0.00     0.013 A 
ATOM     13  C19 ZIN A   1      19.762   2.846  11.962  0.00  0.00     0.039 A 
ATOM     14  C17 ZIN A   1      19.263   4.125  12.095  0.00  0.00     0.035 A 
ATOM     15  C16 ZIN A   1      18.148   4.515  11.370  0.00  0.00     0.024 A 
ATOM     16 Cl18 ZIN A   1      20.025   5.244  13.181  0.00  0.00    -0.084 Cl
ATOM     17  C15 ZIN A   1      17.534   3.631  10.502  0.00  0.00     0.003 A 
ATOM     18  C14 ZIN A   1      18.026   2.351  10.353  0.00  0.00     0.015 A 
ENDBRANCH  10  12
ENDBRANCH   2  10
TORSDOF 4
ENDMDL
