MODEL 1
REMARK VINA RESULT:      -6.5      0.000      0.000
REMARK  13 active torsions:
REMARK  status: ('A' for Active; 'I' for Inactive)
REMARK    1  A    between atoms: N1_1  and  C2_2 
REMARK    2  A    between atoms: C2_2  and  N3_3 
REMARK    3  A    between atoms: C2_2  and  C6_6 
REMARK    4  A    between atoms: C9_9  and  O10_10 
REMARK    5  A    between atoms: O10_10  and  C11_11 
REMARK    6  A    between atoms: C11_11  and  C12_12 
REMARK    7  A    between atoms: C12_12  and  C13_13 
REMARK    8  A    between atoms: C13_13  and  C14_14 
REMARK    9  A    between atoms: C14_14  and  C15_15 
REMARK   10  A    between atoms: C15_15  and  O16_16 
REMARK   11  A    between atoms: O16_16  and  C17_17 
REMARK   12  A    between atoms: C20_20  and  C21_21 
REMARK   13  A    between atoms: C21_21  and  N22_22 
ROOT
ATOM      1  C13 ZIN A   1      19.500  -3.110   6.363  0.00  0.00     0.004 C 
ENDROOT
BRANCH   1   2
ATOM      2  C12 ZIN A   1      18.955  -2.620   5.020  0.00  0.00     0.027 C 
BRANCH   2   3
ATOM      3  C11 ZIN A   1      19.178  -1.111   4.901  0.00  0.00     0.175 C 
BRANCH   3   4
ATOM      4  O10 ZIN A   1      18.037  -0.418   5.413  0.00  0.00    -0.351 OA
BRANCH   4   5
ATOM      5  C9  ZIN A   1      18.172   0.181   6.624  0.00  0.00     0.068 A 
ATOM      6  C8  ZIN A   1      19.115   1.186   6.799  0.00  0.00     0.037 A 
ATOM      7  C7  ZIN A   1      19.254   1.795   8.026  0.00  0.00     0.018 A 
ATOM      8  C6  ZIN A   1      18.445   1.403   9.095  0.00  0.00     0.007 A 
ATOM      9  C29 ZIN A   1      17.502   0.389   8.916  0.00  0.00     0.018 A 
ATOM     10  C28 ZIN A   1      17.364  -0.213   7.685  0.00  0.00     0.037 A 
BRANCH   8  11
ATOM     11  C2  ZIN A   1      18.591   2.055  10.413  0.00  0.00     0.102 C 
BRANCH  11  12
ATOM     12  N1  ZIN A   1      19.752   2.610  10.756  0.00  0.00    -0.385 N 
ATOM     13  H30 ZIN A   1      20.007   2.662  11.691  0.00  0.00     0.157 HD
ATOM     14  H31 ZIN A   1      20.344   2.961  10.072  0.00  0.00     0.157 HD
ENDBRANCH  11  12
BRANCH  11  15
ATOM     15  N3  ZIN A   1      17.561   2.087  11.258  0.00  0.00    -0.385 N 
ATOM     16  H4  ZIN A   1      17.108   2.925  11.439  0.00  0.00     0.157 HD
ATOM     17  H5  ZIN A   1      17.264   1.271  11.691  0.00  0.00     0.157 HD
ENDBRANCH  11  15
ENDBRANCH   8  11
ENDBRANCH   4   5
ENDBRANCH   3   4
ENDBRANCH   2   3
ENDBRANCH   1   2
BRANCH   1  18
ATOM     18  C14 ZIN A   1      18.358  -3.709   7.188  0.00  0.00     0.027 C 
BRANCH  18  19
ATOM     19  C15 ZIN A   1      18.913  -4.258   8.504  0.00  0.00     0.175 C 
BRANCH  19  20
ATOM     20  O16 ZIN A   1      18.007  -3.953   9.567  0.00  0.00    -0.351 OA
BRANCH  20  21
ATOM     21  C17 ZIN A   1      18.401  -3.011  10.461  0.00  0.00     0.068 A 
ATOM     22  C27 ZIN A   1      19.589  -2.319  10.261  0.00  0.00     0.037 A 
ATOM     23  C26 ZIN A   1      19.990  -1.359  11.163  0.00  0.00     0.018 A 
ATOM     24  C20 ZIN A   1      19.205  -1.088  12.286  0.00  0.00     0.007 A 
ATOM     25  C19 ZIN A   1      18.014  -1.789  12.487  0.00  0.00     0.018 A 
ATOM     26  C18 ZIN A   1      17.617  -2.744  11.578  0.00  0.00     0.037 A 
BRANCH  24  27
ATOM     27  C21 ZIN A   1      19.634  -0.062  13.259  0.00  0.00     0.102 C 
ATOM     28  N23 ZIN A   1      18.765   0.416  14.149  0.00  0.00    -0.385 N 
ATOM     29  H24 ZIN A   1      17.852   0.092  14.158  0.00  0.00     0.157 HD
ATOM     30  H25 ZIN A   1      19.047   1.089  14.788  0.00  0.00     0.157 HD
BRANCH  27  31
ATOM     31  N22 ZIN A   1      20.890   0.384  13.248  0.00  0.00    -0.385 N 
ATOM     32  H46 ZIN A   1      21.234   0.884  14.004  0.00  0.00     0.157 HD
ATOM     33  H47 ZIN A   1      21.460   0.207  12.484  0.00  0.00     0.157 HD
ENDBRANCH  27  31
ENDBRANCH  24  27
ENDBRANCH  20  21
ENDBRANCH  19  20
ENDBRANCH  18  19
ENDBRANCH   1  18
TORSDOF 13
ENDMDL
MODEL 2
REMARK VINA RESULT:      -6.5      3.368      5.650
REMARK  13 active torsions:
REMARK  status: ('A' for Active; 'I' for Inactive)
REMARK    1  A    between atoms: N1_1  and  C2_2 
REMARK    2  A    between atoms: C2_2  and  N3_3 
REMARK    3  A    between atoms: C2_2  and  C6_6 
REMARK    4  A    between atoms: C9_9  and  O10_10 
REMARK    5  A    between atoms: O10_10  and  C11_11 
REMARK    6  A    between atoms: C11_11  and  C12_12 
REMARK    7  A    between atoms: C12_12  and  C13_13 
REMARK    8  A    between atoms: C13_13  and  C14_14 
REMARK    9  A    between atoms: C14_14  and  C15_15 
REMARK   10  A    between atoms: C15_15  and  O16_16 
REMARK   11  A    between atoms: O16_16  and  C17_17 
REMARK   12  A    between atoms: C20_20  and  C21_21 
REMARK   13  A    between atoms: C21_21  and  N22_22 
ROOT
ATOM      1  C13 ZIN A   1      17.831   3.672  12.436  0.00  0.00     0.004 C 
ENDROOT
BRANCH   1   2
ATOM      2  C12 ZIN A   1      19.327   3.546  12.140  0.00  0.00     0.027 C 
BRANCH   2   3
ATOM      3  C11 ZIN A   1      19.535   2.576  10.975  0.00  0.00     0.175 C 
BRANCH   3   4
ATOM      4  O10 ZIN A   1      18.266   2.132  10.492  0.00  0.00    -0.351 OA
BRANCH   4   5
ATOM      5  C9  ZIN A   1      18.249   1.503   9.289  0.00  0.00     0.068 A 
ATOM      6  C8  ZIN A   1      17.433   0.395   9.097  0.00  0.00     0.037 A 
ATOM      7  C7  ZIN A   1      17.414  -0.245   7.877  0.00  0.00     0.018 A 
ATOM      8  C6  ZIN A   1      18.216   0.221   6.833  0.00  0.00     0.007 A 
ATOM      9  C29 ZIN A   1      19.039   1.332   7.032  0.00  0.00     0.018 A 
ATOM     10  C28 ZIN A   1      19.048   1.971   8.252  0.00  0.00     0.037 A 
BRANCH   8  11
ATOM     11  C2  ZIN A   1      18.198  -0.462   5.524  0.00  0.00     0.102 C 
BRANCH  11  12
ATOM     12  N1  ZIN A   1      19.211  -0.299   4.673  0.00  0.00    -0.385 N 
ATOM     13  H30 ZIN A   1      19.612  -1.071   4.243  0.00  0.00     0.157 HD
ATOM     14  H31 ZIN A   1      19.545   0.591   4.481  0.00  0.00     0.157 HD
ENDBRANCH  11  12
BRANCH  11  15
ATOM     15  N3  ZIN A   1      17.169  -1.240   5.192  0.00  0.00    -0.385 N 
ATOM     16  H4  ZIN A   1      17.106  -2.140   5.548  0.00  0.00     0.157 HD
ATOM     17  H5  ZIN A   1      16.481  -0.907   4.595  0.00  0.00     0.157 HD
ENDBRANCH  11  15
ENDBRANCH   8  11
ENDBRANCH   4   5
ENDBRANCH   3   4
ENDBRANCH   2   3
ENDBRANCH   1   2
BRANCH   1  18
ATOM     18  C14 ZIN A   1      17.614   3.730  13.950  0.00  0.00     0.027 C 
BRANCH  18  19
ATOM     19  C15 ZIN A   1      18.434   2.628  14.624  0.00  0.00     0.175 C 
BRANCH  19  20
ATOM     20  O16 ZIN A   1      17.635   1.450  14.752  0.00  0.00    -0.351 OA
BRANCH  20  21
ATOM     21  C17 ZIN A   1      18.052   0.347  14.080  0.00  0.00     0.068 A 
ATOM     22  C27 ZIN A   1      19.147  -0.373  14.541  0.00  0.00     0.037 A 
ATOM     23  C26 ZIN A   1      19.570  -1.496  13.864  0.00  0.00     0.018 A 
ATOM     24  C20 ZIN A   1      18.902  -1.904  12.707  0.00  0.00     0.007 A 
ATOM     25  C19 ZIN A   1      17.805  -1.174  12.244  0.00  0.00     0.018 A 
ATOM     26  C18 ZIN A   1      17.385  -0.056  12.929  0.00  0.00     0.037 A 
BRANCH  24  27
ATOM     27  C21 ZIN A   1      19.356  -3.105  11.975  0.00  0.00     0.102 C 
ATOM     28  N23 ZIN A   1      20.613  -3.184  11.541  0.00  0.00    -0.385 N 
ATOM     29  H24 ZIN A   1      21.230  -2.455  11.706  0.00  0.00     0.157 HD
ATOM     30  H25 ZIN A   1      20.910  -3.973  11.060  0.00  0.00     0.157 HD
BRANCH  27  31
ATOM     31  N22 ZIN A   1      18.508  -4.107  11.748  0.00  0.00    -0.385 N 
ATOM     32  H46 ZIN A   1      18.846  -4.982  11.500  0.00  0.00     0.157 HD
ATOM     33  H47 ZIN A   1      17.553  -3.963  11.832  0.00  0.00     0.157 HD
ENDBRANCH  27  31
ENDBRANCH  24  27
ENDBRANCH  20  21
ENDBRANCH  19  20
ENDBRANCH  18  19
ENDBRANCH   1  18
TORSDOF 13
ENDMDL
MODEL 3
REMARK VINA RESULT:      -6.5      3.379      6.951
REMARK  13 active torsions:
REMARK  status: ('A' for Active; 'I' for Inactive)
REMARK    1  A    between atoms: N1_1  and  C2_2 
REMARK    2  A    between atoms: C2_2  and  N3_3 
REMARK    3  A    between atoms: C2_2  and  C6_6 
REMARK    4  A    between atoms: C9_9  and  O10_10 
REMARK    5  A    between atoms: O10_10  and  C11_11 
REMARK    6  A    between atoms: C11_11  and  C12_12 
REMARK    7  A    between atoms: C12_12  and  C13_13 
REMARK    8  A    between atoms: C13_13  and  C14_14 
REMARK    9  A    between atoms: C14_14  and  C15_15 
REMARK   10  A    between atoms: C15_15  and  O16_16 
REMARK   11  A    between atoms: O16_16  and  C17_17 
REMARK   12  A    between atoms: C20_20  and  C21_21 
REMARK   13  A    between atoms: C21_21  and  N22_22 
ROOT
ATOM      1  C13 ZIN A   1      18.897   4.518  12.731  0.00  0.00     0.004 C 
ENDROOT
BRANCH   1   2
ATOM      2  C12 ZIN A   1      18.671   4.440  14.242  0.00  0.00     0.027 C 
BRANCH   2   3
ATOM      3  C11 ZIN A   1      19.009   3.032  14.736  0.00  0.00     0.175 C 
BRANCH   3   4
ATOM      4  O10 ZIN A   1      17.982   2.125  14.330  0.00  0.00    -0.351 OA
BRANCH   4   5
ATOM      5  C9  ZIN A   1      18.373   1.001  13.679  0.00  0.00     0.068 A 
ATOM      6  C8  ZIN A   1      17.549  -0.118  13.671  0.00  0.00     0.037 A 
ATOM      7  C7  ZIN A   1      17.943  -1.261  13.011  0.00  0.00     0.018 A 
ATOM      8  C6  ZIN A   1      19.174  -1.295  12.350  0.00  0.00     0.007 A 
ATOM      9  C29 ZIN A   1      20.001  -0.170  12.366  0.00  0.00     0.018 A 
ATOM     10  C28 ZIN A   1      19.598   0.971  13.023  0.00  0.00     0.037 A 
BRANCH   8  11
ATOM     11  C2  ZIN A   1      19.600  -2.519  11.642  0.00  0.00     0.102 C 
BRANCH  11  12
ATOM     12  N1  ZIN A   1      20.882  -2.692  11.324  0.00  0.00    -0.385 N 
ATOM     13  H30 ZIN A   1      21.233  -2.320  10.500  0.00  0.00     0.157 HD
ATOM     14  H31 ZIN A   1      21.467  -3.189  11.918  0.00  0.00     0.157 HD
ENDBRANCH  11  12
BRANCH  11  15
ATOM     15  N3  ZIN A   1      18.702  -3.449  11.319  0.00  0.00    -0.385 N 
ATOM     16  H4  ZIN A   1      17.762  -3.301  11.503  0.00  0.00     0.157 HD
ATOM     17  H5  ZIN A   1      18.990  -4.275  10.900  0.00  0.00     0.157 HD
ENDBRANCH  11  15
ENDBRANCH   8  11
ENDBRANCH   4   5
ENDBRANCH   3   4
ENDBRANCH   2   3
ENDBRANCH   1   2
BRANCH   1  18
ATOM     18  C14 ZIN A   1      17.582   4.877  12.036  0.00  0.00     0.027 C 
BRANCH  18  19
ATOM     19  C15 ZIN A   1      17.470   4.098  10.724  0.00  0.00     0.175 C 
BRANCH  19  20
ATOM     20  O16 ZIN A   1      17.173   2.729  11.007  0.00  0.00    -0.351 OA
BRANCH  20  21
ATOM     21  C17 ZIN A   1      17.670   1.801  10.150  0.00  0.00     0.068 A 
ATOM     22  C27 ZIN A   1      17.040   0.570  10.018  0.00  0.00     0.037 A 
ATOM     23  C26 ZIN A   1      17.538  -0.372   9.147  0.00  0.00     0.018 A 
ATOM     24  C20 ZIN A   1      18.686  -0.092   8.401  0.00  0.00     0.007 A 
ATOM     25  C19 ZIN A   1      19.320   1.144   8.540  0.00  0.00     0.018 A 
ATOM     26  C18 ZIN A   1      18.813   2.083   9.410  0.00  0.00     0.037 A 
BRANCH  24  27
ATOM     27  C21 ZIN A   1      19.228  -1.102   7.468  0.00  0.00     0.102 C 
ATOM     28  N23 ZIN A   1      19.675  -2.267   7.935  0.00  0.00    -0.385 N 
ATOM     29  H24 ZIN A   1      19.646  -2.452   8.886  0.00  0.00     0.157 HD
ATOM     30  H25 ZIN A   1      20.031  -2.930   7.322  0.00  0.00     0.157 HD
BRANCH  27  31
ATOM     31  N22 ZIN A   1      19.269  -0.848   6.161  0.00  0.00    -0.385 N 
ATOM     32  H46 ZIN A   1      19.952  -1.260   5.608  0.00  0.00     0.157 HD
ATOM     33  H47 ZIN A   1      18.616  -0.253   5.762  0.00  0.00     0.157 HD
ENDBRANCH  27  31
ENDBRANCH  24  27
ENDBRANCH  20  21
ENDBRANCH  19  20
ENDBRANCH  18  19
ENDBRANCH   1  18
TORSDOF 13
ENDMDL
MODEL 4
REMARK VINA RESULT:      -6.5      2.711      4.169
REMARK  13 active torsions:
REMARK  status: ('A' for Active; 'I' for Inactive)
REMARK    1  A    between atoms: N1_1  and  C2_2 
REMARK    2  A    between atoms: C2_2  and  N3_3 
REMARK    3  A    between atoms: C2_2  and  C6_6 
REMARK    4  A    between atoms: C9_9  and  O10_10 
REMARK    5  A    between atoms: O10_10  and  C11_11 
REMARK    6  A    between atoms: C11_11  and  C12_12 
REMARK    7  A    between atoms: C12_12  and  C13_13 
REMARK    8  A    between atoms: C13_13  and  C14_14 
REMARK    9  A    between atoms: C14_14  and  C15_15 
REMARK   10  A    between atoms: C15_15  and  O16_16 
REMARK   11  A    between atoms: O16_16  and  C17_17 
REMARK   12  A    between atoms: C20_20  and  C21_21 
REMARK   13  A    between atoms: C21_21  and  N22_22 
ROOT
ATOM      1  C13 ZIN A   1      17.771  -0.097   8.018  0.00  0.00     0.004 C 
ENDROOT
BRANCH   1   2
ATOM      2  C12 ZIN A   1      18.651   0.924   7.294  0.00  0.00     0.027 C 
BRANCH   2   3
ATOM      3  C11 ZIN A   1      19.457   1.721   8.322  0.00  0.00     0.175 C 
BRANCH   3   4
ATOM      4  O10 ZIN A   1      18.667   2.808   8.808  0.00  0.00    -0.351 OA
BRANCH   4   5
ATOM      5  C9  ZIN A   1      18.614   2.980  10.153  0.00  0.00     0.068 A 
ATOM      6  C8  ZIN A   1      17.579   3.715  10.718  0.00  0.00     0.037 A 
ATOM      7  C7  ZIN A   1      17.523   3.891  12.083  0.00  0.00     0.018 A 
ATOM      8  C6  ZIN A   1      18.509   3.331  12.899  0.00  0.00     0.007 A 
ATOM      9  C29 ZIN A   1      19.550   2.598  12.327  0.00  0.00     0.018 A 
ATOM     10  C28 ZIN A   1      19.597   2.421  10.962  0.00  0.00     0.037 A 
BRANCH   8  11
ATOM     11  C2  ZIN A   1      18.452   3.518  14.363  0.00  0.00     0.102 C 
BRANCH  11  12
ATOM     12  N1  ZIN A   1      17.395   4.109  14.919  0.00  0.00    -0.385 N 
ATOM     13  H30 ZIN A   1      17.311   5.075  14.894  0.00  0.00     0.157 HD
ATOM     14  H31 ZIN A   1      16.708   3.574  15.346  0.00  0.00     0.157 HD
ENDBRANCH  11  12
BRANCH  11  15
ATOM     15  N3  ZIN A   1      19.457   3.095  15.129  0.00  0.00    -0.385 N 
ATOM     16  H4  ZIN A   1      19.444   2.197  15.495  0.00  0.00     0.157 HD
ATOM     17  H5  ZIN A   1      20.203   3.685  15.319  0.00  0.00     0.157 HD
ENDBRANCH  11  15
ENDBRANCH   8  11
ENDBRANCH   4   5
ENDBRANCH   3   4
ENDBRANCH   2   3
ENDBRANCH   1   2
BRANCH   1  18
ATOM     18  C14 ZIN A   1      18.599  -0.819   9.084  0.00  0.00     0.027 C 
BRANCH  18  19
ATOM     19  C15 ZIN A   1      17.827  -0.833  10.405  0.00  0.00     0.175 C 
BRANCH  19  20
ATOM     20  O16 ZIN A   1      18.579  -1.550  11.388  0.00  0.00    -0.351 OA
BRANCH  20  21
ATOM     21  C17 ZIN A   1      18.451  -1.145  12.677  0.00  0.00     0.068 A 
ATOM     22  C27 ZIN A   1      17.430  -0.272  13.031  0.00  0.00     0.037 A 
ATOM     23  C26 ZIN A   1      17.294   0.138  14.339  0.00  0.00     0.018 A 
ATOM     24  C20 ZIN A   1      18.190  -0.319  15.309  0.00  0.00     0.007 A 
ATOM     25  C19 ZIN A   1      19.218  -1.193  14.947  0.00  0.00     0.018 A 
ATOM     26  C18 ZIN A   1      19.345  -1.601  13.639  0.00  0.00     0.037 A 
BRANCH  24  27
ATOM     27  C21 ZIN A   1      18.051   0.122  16.712  0.00  0.00     0.102 C 
ATOM     28  N23 ZIN A   1      19.108   0.107  17.522  0.00  0.00    -0.385 N 
ATOM     29  H24 ZIN A   1      19.969  -0.193  17.192  0.00  0.00     0.157 HD
ATOM     30  H25 ZIN A   1      19.017   0.397  18.444  0.00  0.00     0.157 HD
BRANCH  27  31
ATOM     31  N22 ZIN A   1      16.868   0.534  17.167  0.00  0.00    -0.385 N 
ATOM     32  H46 ZIN A   1      16.486   0.128  17.961  0.00  0.00     0.157 HD
ATOM     33  H47 ZIN A   1      16.391   1.240  16.705  0.00  0.00     0.157 HD
ENDBRANCH  27  31
ENDBRANCH  24  27
ENDBRANCH  20  21
ENDBRANCH  19  20
ENDBRANCH  18  19
ENDBRANCH   1  18
TORSDOF 13
ENDMDL
MODEL 5
REMARK VINA RESULT:      -6.4      2.780      5.836
REMARK  13 active torsions:
REMARK  status: ('A' for Active; 'I' for Inactive)
REMARK    1  A    between atoms: N1_1  and  C2_2 
REMARK    2  A    between atoms: C2_2  and  N3_3 
REMARK    3  A    between atoms: C2_2  and  C6_6 
REMARK    4  A    between atoms: C9_9  and  O10_10 
REMARK    5  A    between atoms: O10_10  and  C11_11 
REMARK    6  A    between atoms: C11_11  and  C12_12 
REMARK    7  A    between atoms: C12_12  and  C13_13 
REMARK    8  A    between atoms: C13_13  and  C14_14 
REMARK    9  A    between atoms: C14_14  and  C15_15 
REMARK   10  A    between atoms: C15_15  and  O16_16 
REMARK   11  A    between atoms: O16_16  and  C17_17 
REMARK   12  A    between atoms: C20_20  and  C21_21 
REMARK   13  A    between atoms: C21_21  and  N22_22 
ROOT
ATOM      1  C13 ZIN A   1      18.239  -0.357   9.005  0.00  0.00     0.004 C 
ENDROOT
BRANCH   1   2
ATOM      2  C12 ZIN A   1      19.596  -0.720   9.610  0.00  0.00     0.027 C 
BRANCH   2   3
ATOM      3  C11 ZIN A   1      19.402  -1.773  10.702  0.00  0.00     0.175 C 
BRANCH   3   4
ATOM      4  O10 ZIN A   1      18.168  -1.531  11.382  0.00  0.00    -0.351 OA
BRANCH   4   5
ATOM      5  C9  ZIN A   1      18.246  -1.062  12.654  0.00  0.00     0.068 A 
ATOM      6  C8  ZIN A   1      19.121  -1.652  13.558  0.00  0.00     0.037 A 
ATOM      7  C7  ZIN A   1      19.201  -1.177  14.849  0.00  0.00     0.018 A 
ATOM      8  C6  ZIN A   1      18.403  -0.103  15.248  0.00  0.00     0.007 A 
ATOM      9  C29 ZIN A   1      17.521   0.482  14.338  0.00  0.00     0.018 A 
ATOM     10  C28 ZIN A   1      17.449   0.007  13.047  0.00  0.00     0.037 A 
BRANCH   8  11
ATOM     11  C2  ZIN A   1      18.487   0.408  16.632  0.00  0.00     0.102 C 
BRANCH  11  12
ATOM     12  N1  ZIN A   1      17.844   1.525  16.969  0.00  0.00    -0.385 N 
ATOM     13  H30 ZIN A   1      16.886   1.593  16.835  0.00  0.00     0.157 HD
ATOM     14  H31 ZIN A   1      18.334   2.270  17.353  0.00  0.00     0.157 HD
ENDBRANCH  11  12
BRANCH  11  15
ATOM     15  N3  ZIN A   1      19.206  -0.247  17.542  0.00  0.00    -0.385 N 
ATOM     16  H4  ZIN A   1      20.077   0.088  17.805  0.00  0.00     0.157 HD
ATOM     17  H5  ZIN A   1      18.858  -1.060  17.942  0.00  0.00     0.157 HD
ENDBRANCH  11  15
ENDBRANCH   8  11
ENDBRANCH   4   5
ENDBRANCH   3   4
ENDBRANCH   2   3
ENDBRANCH   1   2
BRANCH   1  18
ATOM     18  C14 ZIN A   1      18.438   0.661   7.879  0.00  0.00     0.027 C 
BRANCH  18  19
ATOM     19  C15 ZIN A   1      19.397   1.757   8.348  0.00  0.00     0.175 C 
BRANCH  19  20
ATOM     20  O16 ZIN A   1      18.647   2.909   8.743  0.00  0.00    -0.351 OA
BRANCH  20  21
ATOM     21  C17 ZIN A   1      18.581   3.174  10.072  0.00  0.00     0.068 A 
ATOM     22  C27 ZIN A   1      17.526   3.924  10.578  0.00  0.00     0.037 A 
ATOM     23  C26 ZIN A   1      17.453   4.191  11.927  0.00  0.00     0.018 A 
ATOM     24  C20 ZIN A   1      18.447   3.716  12.786  0.00  0.00     0.007 A 
ATOM     25  C19 ZIN A   1      19.509   2.968  12.273  0.00  0.00     0.018 A 
ATOM     26  C18 ZIN A   1      19.572   2.700  10.924  0.00  0.00     0.037 A 
BRANCH  24  27
ATOM     27  C21 ZIN A   1      18.375   4.006  14.233  0.00  0.00     0.102 C 
ATOM     28  N23 ZIN A   1      17.206   4.312  14.794  0.00  0.00    -0.385 N 
ATOM     29  H24 ZIN A   1      16.403   4.345  14.253  0.00  0.00     0.157 HD
ATOM     30  H25 ZIN A   1      17.160   4.502  15.744  0.00  0.00     0.157 HD
BRANCH  27  31
ATOM     31  N22 ZIN A   1      19.480   3.961  14.977  0.00  0.00    -0.385 N 
ATOM     32  H46 ZIN A   1      20.333   3.749  14.566  0.00  0.00     0.157 HD
ATOM     33  H47 ZIN A   1      19.432   4.141  15.928  0.00  0.00     0.157 HD
ENDBRANCH  27  31
ENDBRANCH  24  27
ENDBRANCH  20  21
ENDBRANCH  19  20
ENDBRANCH  18  19
ENDBRANCH   1  18
TORSDOF 13
ENDMDL
MODEL 6
REMARK VINA RESULT:      -6.4      3.444      5.982
REMARK  13 active torsions:
REMARK  status: ('A' for Active; 'I' for Inactive)
REMARK    1  A    between atoms: N1_1  and  C2_2 
REMARK    2  A    between atoms: C2_2  and  N3_3 
REMARK    3  A    between atoms: C2_2  and  C6_6 
REMARK    4  A    between atoms: C9_9  and  O10_10 
REMARK    5  A    between atoms: O10_10  and  C11_11 
REMARK    6  A    between atoms: C11_11  and  C12_12 
REMARK    7  A    between atoms: C12_12  and  C13_13 
REMARK    8  A    between atoms: C13_13  and  C14_14 
REMARK    9  A    between atoms: C14_14  and  C15_15 
REMARK   10  A    between atoms: C15_15  and  O16_16 
REMARK   11  A    between atoms: O16_16  and  C17_17 
REMARK   12  A    between atoms: C20_20  and  C21_21 
REMARK   13  A    between atoms: C21_21  and  N22_22 
ROOT
ATOM      1  C13 ZIN A   1      17.753   4.822  13.581  0.00  0.00     0.004 C 
ENDROOT
BRANCH   1   2
ATOM      2  C12 ZIN A   1      18.744   4.439  12.480  0.00  0.00     0.027 C 
BRANCH   2   3
ATOM      3  C11 ZIN A   1      17.997   4.293  11.152  0.00  0.00     0.175 C 
BRANCH   3   4
ATOM      4  O10 ZIN A   1      17.292   3.050  11.137  0.00  0.00    -0.351 OA
BRANCH   4   5
ATOM      5  C9  ZIN A   1      17.748   2.092  10.290  0.00  0.00     0.068 A 
ATOM      6  C8  ZIN A   1      17.193   0.818  10.322  0.00  0.00     0.037 A 
ATOM      7  C7  ZIN A   1      17.655  -0.157   9.465  0.00  0.00     0.018 A 
ATOM      8  C6  ZIN A   1      18.681   0.137   8.563  0.00  0.00     0.007 A 
ATOM      9  C29 ZIN A   1      19.239   1.417   8.539  0.00  0.00     0.018 A 
ATOM     10  C28 ZIN A   1      18.769   2.388   9.395  0.00  0.00     0.037 A 
BRANCH   8  11
ATOM     11  C2  ZIN A   1      19.177  -0.906   7.642  0.00  0.00     0.102 C 
BRANCH  11  12
ATOM     12  N1  ZIN A   1      19.674  -2.042   8.128  0.00  0.00    -0.385 N 
ATOM     13  H30 ZIN A   1      20.606  -2.092   8.391  0.00  0.00     0.157 HD
ATOM     14  H31 ZIN A   1      19.101  -2.821   8.221  0.00  0.00     0.157 HD
ENDBRANCH  11  12
BRANCH  11  15
ATOM     15  N3  ZIN A   1      19.130  -0.709   6.325  0.00  0.00    -0.385 N 
ATOM     16  H4  ZIN A   1      18.317  -0.903   5.834  0.00  0.00     0.157 HD
ATOM     17  H5  ZIN A   1      19.909  -0.370   5.857  0.00  0.00     0.157 HD
ENDBRANCH  11  15
ENDBRANCH   8  11
ENDBRANCH   4   5
ENDBRANCH   3   4
ENDBRANCH   2   3
ENDBRANCH   1   2
BRANCH   1  18
ATOM     18  C14 ZIN A   1      17.709   3.712  14.635  0.00  0.00     0.027 C 
BRANCH  18  19
ATOM     19  C15 ZIN A   1      19.095   3.077  14.764  0.00  0.00     0.175 C 
BRANCH  19  20
ATOM     20  O16 ZIN A   1      18.967   1.765  15.318  0.00  0.00    -0.351 OA
BRANCH  20  21
ATOM     21  C17 ZIN A   1      19.094   0.719  14.462  0.00  0.00     0.068 A 
ATOM     22  C27 ZIN A   1      18.521  -0.507  14.777  0.00  0.00     0.037 A 
ATOM     23  C26 ZIN A   1      18.644  -1.569  13.909  0.00  0.00     0.018 A 
ATOM     24  C20 ZIN A   1      19.353  -1.415  12.715  0.00  0.00     0.007 A 
ATOM     25  C19 ZIN A   1      19.933  -0.183  12.406  0.00  0.00     0.018 A 
ATOM     26  C18 ZIN A   1      19.802   0.876  13.276  0.00  0.00     0.037 A 
BRANCH  24  27
ATOM     27  C21 ZIN A   1      19.492  -2.554  11.784  0.00  0.00     0.102 C 
ATOM     28  N23 ZIN A   1      20.703  -3.006  11.460  0.00  0.00    -0.385 N 
ATOM     29  H24 ZIN A   1      21.493  -2.588  11.836  0.00  0.00     0.157 HD
ATOM     30  H25 ZIN A   1      20.793  -3.754  10.849  0.00  0.00     0.157 HD
BRANCH  27  31
ATOM     31  N22 ZIN A   1      18.406  -3.129  11.268  0.00  0.00    -0.385 N 
ATOM     32  H46 ZIN A   1      18.469  -4.009  10.865  0.00  0.00     0.157 HD
ATOM     33  H47 ZIN A   1      17.554  -2.668  11.296  0.00  0.00     0.157 HD
ENDBRANCH  27  31
ENDBRANCH  24  27
ENDBRANCH  20  21
ENDBRANCH  19  20
ENDBRANCH  18  19
ENDBRANCH   1  18
TORSDOF 13
ENDMDL
MODEL 7
REMARK VINA RESULT:      -6.4      1.850      2.607
REMARK  13 active torsions:
REMARK  status: ('A' for Active; 'I' for Inactive)
REMARK    1  A    between atoms: N1_1  and  C2_2 
REMARK    2  A    between atoms: C2_2  and  N3_3 
REMARK    3  A    between atoms: C2_2  and  C6_6 
REMARK    4  A    between atoms: C9_9  and  O10_10 
REMARK    5  A    between atoms: O10_10  and  C11_11 
REMARK    6  A    between atoms: C11_11  and  C12_12 
REMARK    7  A    between atoms: C12_12  and  C13_13 
REMARK    8  A    between atoms: C13_13  and  C14_14 
REMARK    9  A    between atoms: C14_14  and  C15_15 
REMARK   10  A    between atoms: C15_15  and  O16_16 
REMARK   11  A    between atoms: O16_16  and  C17_17 
REMARK   12  A    between atoms: C20_20  and  C21_21 
REMARK   13  A    between atoms: C21_21  and  N22_22 
ROOT
ATOM      1  C13 ZIN A   1      18.218  -4.347   9.348  0.00  0.00     0.004 C 
ENDROOT
BRANCH   1   2
ATOM      2  C12 ZIN A   1      18.499  -4.110   7.863  0.00  0.00     0.027 C 
BRANCH   2   3
ATOM      3  C11 ZIN A   1      19.052  -2.697   7.669  0.00  0.00     0.175 C 
BRANCH   3   4
ATOM      4  O10 ZIN A   1      18.035  -1.741   7.976  0.00  0.00    -0.351 OA
BRANCH   4   5
ATOM      5  C9  ZIN A   1      18.396  -0.681   8.744  0.00  0.00     0.068 A 
ATOM      6  C8  ZIN A   1      19.636  -0.669   9.369  0.00  0.00     0.037 A 
ATOM      7  C7  ZIN A   1      20.005   0.405  10.149  0.00  0.00     0.018 A 
ATOM      8  C6  ZIN A   1      19.131   1.482  10.311  0.00  0.00     0.007 A 
ATOM      9  C29 ZIN A   1      17.883   1.463   9.685  0.00  0.00     0.018 A 
ATOM     10  C28 ZIN A   1      17.523   0.389   8.902  0.00  0.00     0.037 A 
BRANCH   8  11
ATOM     11  C2  ZIN A   1      19.523   2.636  11.146  0.00  0.00     0.102 C 
BRANCH  11  12
ATOM     12  N1  ZIN A   1      20.775   2.742  11.590  0.00  0.00    -0.385 N 
ATOM     13  H30 ZIN A   1      20.990   3.378  12.289  0.00  0.00     0.157 HD
ATOM     14  H31 ZIN A   1      21.472   2.180  11.215  0.00  0.00     0.157 HD
ENDBRANCH  11  12
BRANCH  11  15
ATOM     15  N3  ZIN A   1      18.625   3.570  11.457  0.00  0.00    -0.385 N 
ATOM     16  H4  ZIN A   1      18.798   4.185  12.185  0.00  0.00     0.157 HD
ATOM     17  H5  ZIN A   1      17.799   3.634  10.953  0.00  0.00     0.157 HD
ENDBRANCH  11  15
ENDBRANCH   8  11
ENDBRANCH   4   5
ENDBRANCH   3   4
ENDBRANCH   2   3
ENDBRANCH   1   2
BRANCH   1  18
ATOM     18  C14 ZIN A   1      19.513  -4.760  10.052  0.00  0.00     0.027 C 
BRANCH  18  19
ATOM     19  C15 ZIN A   1      19.695  -3.919  11.317  0.00  0.00     0.175 C 
BRANCH  19  20
ATOM     20  O16 ZIN A   1      18.434  -3.375  11.714  0.00  0.00    -0.351 OA
BRANCH  20  21
ATOM     21  C17 ZIN A   1      18.456  -2.197  12.386  0.00  0.00     0.068 A 
ATOM     22  C27 ZIN A   1      17.377  -1.326  12.293  0.00  0.00     0.037 A 
ATOM     23  C26 ZIN A   1      17.392  -0.131  12.978  0.00  0.00     0.018 A 
ATOM     24  C20 ZIN A   1      18.500   0.210  13.759  0.00  0.00     0.007 A 
ATOM     25  C19 ZIN A   1      19.584  -0.666  13.845  0.00  0.00     0.018 A 
ATOM     26  C18 ZIN A   1      19.559  -1.861  13.162  0.00  0.00     0.037 A 
BRANCH  24  27
ATOM     27  C21 ZIN A   1      18.523   1.493  14.490  0.00  0.00     0.102 C 
ATOM     28  N23 ZIN A   1      19.653   1.918  15.053  0.00  0.00    -0.385 N 
ATOM     29  H24 ZIN A   1      20.460   1.385  14.983  0.00  0.00     0.157 HD
ATOM     30  H25 ZIN A   1      19.669   2.761  15.533  0.00  0.00     0.157 HD
BRANCH  27  31
ATOM     31  N22 ZIN A   1      17.414   2.225  14.587  0.00  0.00    -0.385 N 
ATOM     32  H46 ZIN A   1      17.282   2.986  14.000  0.00  0.00     0.157 HD
ATOM     33  H47 ZIN A   1      16.739   1.998  15.244  0.00  0.00     0.157 HD
ENDBRANCH  27  31
ENDBRANCH  24  27
ENDBRANCH  20  21
ENDBRANCH  19  20
ENDBRANCH  18  19
ENDBRANCH   1  18
TORSDOF 13
ENDMDL
MODEL 8
REMARK VINA RESULT:      -6.4      0.572      4.203
REMARK  13 active torsions:
REMARK  status: ('A' for Active; 'I' for Inactive)
REMARK    1  A    between atoms: N1_1  and  C2_2 
REMARK    2  A    between atoms: C2_2  and  N3_3 
REMARK    3  A    between atoms: C2_2  and  C6_6 
REMARK    4  A    between atoms: C9_9  and  O10_10 
REMARK    5  A    between atoms: O10_10  and  C11_11 
REMARK    6  A    between atoms: C11_11  and  C12_12 
REMARK    7  A    between atoms: C12_12  and  C13_13 
REMARK    8  A    between atoms: C13_13  and  C14_14 
REMARK    9  A    between atoms: C14_14  and  C15_15 
REMARK   10  A    between atoms: C15_15  and  O16_16 
REMARK   11  A    between atoms: O16_16  and  C17_17 
REMARK   12  A    between atoms: C20_20  and  C21_21 
REMARK   13  A    between atoms: C21_21  and  N22_22 
ROOT
ATOM      1  C13 ZIN A   1      18.246  -3.888   6.459  0.00  0.00     0.004 C 
ENDROOT
BRANCH   1   2
ATOM      2  C12 ZIN A   1      18.479  -5.047   7.431  0.00  0.00     0.027 C 
BRANCH   2   3
ATOM      3  C11 ZIN A   1      19.101  -4.512   8.721  0.00  0.00     0.175 C 
BRANCH   3   4
ATOM      4  O10 ZIN A   1      18.068  -4.034   9.586  0.00  0.00    -0.351 OA
BRANCH   4   5
ATOM      5  C9  ZIN A   1      18.394  -3.033  10.443  0.00  0.00     0.068 A 
ATOM      6  C8  ZIN A   1      19.607  -2.370  10.304  0.00  0.00     0.037 A 
ATOM      7  C7  ZIN A   1      19.941  -1.353  11.172  0.00  0.00     0.018 A 
ATOM      8  C6  ZIN A   1      19.059  -0.991  12.193  0.00  0.00     0.007 A 
ATOM      9  C29 ZIN A   1      17.844  -1.665  12.333  0.00  0.00     0.018 A 
ATOM     10  C28 ZIN A   1      17.514  -2.675  11.458  0.00  0.00     0.037 A 
BRANCH   8  11
ATOM     11  C2  ZIN A   1      19.414   0.098  13.126  0.00  0.00     0.102 C 
BRANCH  11  12
ATOM     12  N1  ZIN A   1      18.454   0.810  13.715  0.00  0.00    -0.385 N 
ATOM     13  H30 ZIN A   1      18.670   1.395  14.458  0.00  0.00     0.157 HD
ATOM     14  H31 ZIN A   1      17.539   0.746  13.398  0.00  0.00     0.157 HD
ENDBRANCH  11  12
BRANCH  11  15
ATOM     15  N3  ZIN A   1      20.694   0.370  13.378  0.00  0.00    -0.385 N 
ATOM     16  H4  ZIN A   1      21.062   1.234  13.139  0.00  0.00     0.157 HD
ATOM     17  H5  ZIN A   1      21.257  -0.297  13.801  0.00  0.00     0.157 HD
ENDBRANCH  11  15
ENDBRANCH   8  11
ENDBRANCH   4   5
ENDBRANCH   3   4
ENDBRANCH   2   3
ENDBRANCH   1   2
BRANCH   1  18
ATOM     18  C14 ZIN A   1      19.424  -2.915   6.535  0.00  0.00     0.027 C 
BRANCH  18  19
ATOM     19  C15 ZIN A   1      19.143  -1.704   5.643  0.00  0.00     0.175 C 
BRANCH  19  20
ATOM     20  O16 ZIN A   1      17.976  -1.026   6.114  0.00  0.00    -0.351 OA
BRANCH  20  21
ATOM     21  C17 ZIN A   1      18.142  -0.155   7.141  0.00  0.00     0.068 A 
ATOM     22  C27 ZIN A   1      19.101   0.847   7.052  0.00  0.00     0.037 A 
ATOM     23  C26 ZIN A   1      19.270   1.736   8.089  0.00  0.00     0.018 A 
ATOM     24  C20 ZIN A   1      18.481   1.625   9.237  0.00  0.00     0.007 A 
ATOM     25  C19 ZIN A   1      17.522   0.613   9.325  0.00  0.00     0.018 A 
ATOM     26  C18 ZIN A   1      17.356  -0.269   8.282  0.00  0.00     0.037 A 
BRANCH  24  27
ATOM     27  C21 ZIN A   1      18.662   2.573  10.356  0.00  0.00     0.102 C 
ATOM     28  N23 ZIN A   1      19.877   2.780  10.863  0.00  0.00    -0.385 N 
ATOM     29  H24 ZIN A   1      20.641   2.308  10.498  0.00  0.00     0.157 HD
ATOM     30  H25 ZIN A   1      19.995   3.403  11.597  0.00  0.00     0.157 HD
BRANCH  27  31
ATOM     31  N22 ZIN A   1      17.611   3.222  10.856  0.00  0.00    -0.385 N 
ATOM     32  H46 ZIN A   1      17.493   4.167  10.674  0.00  0.00     0.157 HD
ATOM     33  H47 ZIN A   1      16.965   2.749  11.402  0.00  0.00     0.157 HD
ENDBRANCH  27  31
ENDBRANCH  24  27
ENDBRANCH  20  21
ENDBRANCH  19  20
ENDBRANCH  18  19
ENDBRANCH   1  18
TORSDOF 13
ENDMDL
MODEL 9
REMARK VINA RESULT:      -6.4      3.350      7.052
REMARK  13 active torsions:
REMARK  status: ('A' for Active; 'I' for Inactive)
REMARK    1  A    between atoms: N1_1  and  C2_2 
REMARK    2  A    between atoms: C2_2  and  N3_3 
REMARK    3  A    between atoms: C2_2  and  C6_6 
REMARK    4  A    between atoms: C9_9  and  O10_10 
REMARK    5  A    between atoms: O10_10  and  C11_11 
REMARK    6  A    between atoms: C11_11  and  C12_12 
REMARK    7  A    between atoms: C12_12  and  C13_13 
REMARK    8  A    between atoms: C13_13  and  C14_14 
REMARK    9  A    between atoms: C14_14  and  C15_15 
REMARK   10  A    between atoms: C15_15  and  O16_16 
REMARK   11  A    between atoms: O16_16  and  C17_17 
REMARK   12  A    between atoms: C20_20  and  C21_21 
REMARK   13  A    between atoms: C21_21  and  N22_22 
ROOT
ATOM      1  C13 ZIN A   1      18.987   4.345  13.018  0.00  0.00     0.004 C 
ENDROOT
BRANCH   1   2
ATOM      2  C12 ZIN A   1      18.431   4.054  14.414  0.00  0.00     0.027 C 
BRANCH   2   3
ATOM      3  C11 ZIN A   1      18.781   2.619  14.811  0.00  0.00     0.175 C 
BRANCH   3   4
ATOM      4  O10 ZIN A   1      17.835   1.719  14.229  0.00  0.00    -0.351 OA
BRANCH   4   5
ATOM      5  C9  ZIN A   1      18.331   0.698  13.485  0.00  0.00     0.068 A 
ATOM      6  C8  ZIN A   1      17.545  -0.419  13.229  0.00  0.00     0.037 A 
ATOM      7  C7  ZIN A   1      18.047  -1.457  12.475  0.00  0.00     0.018 A 
ATOM      8  C6  ZIN A   1      19.346  -1.385  11.967  0.00  0.00     0.007 A 
ATOM      9  C29 ZIN A   1      20.134  -0.263  12.232  0.00  0.00     0.018 A 
ATOM     10  C28 ZIN A   1      19.624   0.773  12.982  0.00  0.00     0.037 A 
BRANCH   8  11
ATOM     11  C2  ZIN A   1      19.886  -2.496  11.157  0.00  0.00     0.102 C 
BRANCH  11  12
ATOM     12  N1  ZIN A   1      20.839  -3.282  11.656  0.00  0.00    -0.385 N 
ATOM     13  H30 ZIN A   1      20.613  -3.963  12.310  0.00  0.00     0.157 HD
ATOM     14  H31 ZIN A   1      21.758  -3.177  11.363  0.00  0.00     0.157 HD
ENDBRANCH  11  12
BRANCH  11  15
ATOM     15  N3  ZIN A   1      19.422  -2.711   9.927  0.00  0.00    -0.385 N 
ATOM     16  H4  ZIN A   1      19.745  -3.466   9.411  0.00  0.00     0.157 HD
ATOM     17  H5  ZIN A   1      18.761  -2.112   9.547  0.00  0.00     0.157 HD
ENDBRANCH  11  15
ENDBRANCH   8  11
ENDBRANCH   4   5
ENDBRANCH   3   4
ENDBRANCH   2   3
ENDBRANCH   1   2
BRANCH   1  18
ATOM     18  C14 ZIN A   1      17.841   4.756  12.089  0.00  0.00     0.027 C 
BRANCH  18  19
ATOM     19  C15 ZIN A   1      17.472   3.579  11.185  0.00  0.00     0.175 C 
BRANCH  19  20
ATOM     20  O16 ZIN A   1      18.659   3.026  10.613  0.00  0.00    -0.351 OA
BRANCH  20  21
ATOM     21  C17 ZIN A   1      18.498   2.102   9.632  0.00  0.00     0.068 A 
ATOM     22  C27 ZIN A   1      19.222   2.211   8.451  0.00  0.00     0.037 A 
ATOM     23  C26 ZIN A   1      19.065   1.273   7.456  0.00  0.00     0.018 A 
ATOM     24  C20 ZIN A   1      18.169   0.215   7.631  0.00  0.00     0.007 A 
ATOM     25  C19 ZIN A   1      17.439   0.112   8.817  0.00  0.00     0.018 A 
ATOM     26  C18 ZIN A   1      17.605   1.051   9.810  0.00  0.00     0.037 A 
BRANCH  24  27
ATOM     27  C21 ZIN A   1      17.993  -0.791   6.563  0.00  0.00     0.102 C 
ATOM     28  N23 ZIN A   1      18.022  -0.417   5.284  0.00  0.00    -0.385 N 
ATOM     29  H24 ZIN A   1      18.158   0.515   5.055  0.00  0.00     0.157 HD
ATOM     30  H25 ZIN A   1      17.906  -1.078   4.583  0.00  0.00     0.157 HD
BRANCH  27  31
ATOM     31  N22 ZIN A   1      17.806  -2.072   6.878  0.00  0.00    -0.385 N 
ATOM     32  H46 ZIN A   1      18.382  -2.754   6.498  0.00  0.00     0.157 HD
ATOM     33  H47 ZIN A   1      17.096  -2.322   7.488  0.00  0.00     0.157 HD
ENDBRANCH  27  31
ENDBRANCH  24  27
ENDBRANCH  20  21
ENDBRANCH  19  20
ENDBRANCH  18  19
ENDBRANCH   1  18
TORSDOF 13
ENDMDL
