MODEL 1
REMARK VINA RESULT:      -8.0      0.000      0.000
REMARK  4 active torsions:
REMARK  status: ('A' for Active; 'I' for Inactive)
REMARK    1  A    between atoms: O2_2  and  C3_3 
REMARK    2  A    between atoms: C8_8  and  O9_9 
REMARK    3  A    between atoms: C16_15  and  C18_16 
REMARK    4  A    between atoms: C18_16  and  C19_17 
ROOT
ATOM      1  C3  ZIN A   1      18.426   0.118  15.890  0.00  0.00     0.102 A 
ATOM      2  C4  ZIN A   1      18.582  -0.966  15.043  0.00  0.00     0.047 A 
ATOM      3  C5  ZIN A   1      18.833  -0.769  13.694  0.00  0.00    -0.045 A 
ATOM      4  C6  ZIN A   1      18.930   0.509  13.188  0.00  0.00    -0.015 A 
ATOM      5  C7  ZIN A   1      18.772   1.598  14.034  0.00  0.00     0.049 A 
ATOM      6  C8  ZIN A   1      18.515   1.409  15.380  0.00  0.00     0.102 A 
ATOM      7  C11 ZIN A   1      19.209   0.772  11.732  0.00  0.00     0.263 C 
ATOM      8  C13 ZIN A   1      18.290   1.897  11.240  0.00  0.00     0.119 C 
ATOM      9  C14 ZIN A   1      18.505   2.067   9.750  0.00  0.00     0.135 C 
ATOM     10  O15 ZIN A   1      18.697   3.158   9.269  0.00  0.00    -0.297 OA
ATOM     11  C16 ZIN A   1      18.471   0.824   8.887  0.00  0.00     0.084 C 
ATOM     12  C22 ZIN A   1      19.381  -0.229   9.528  0.00  0.00     0.285 C 
ATOM     13  N23 ZIN A   1      18.965  -0.426  10.926  0.00  0.00     0.099 N 
ATOM     14  C24 ZIN A   1      19.662  -1.578  11.517  0.00  0.00     0.278 C 
ATOM     15  C25 ZIN A   1      18.992  -1.981  12.810  0.00  0.00     0.069 C 
ENDROOT
BRANCH  11  16
ATOM     16  C18 ZIN A   1      18.977   1.158   7.482  0.00  0.00     0.018 C 
BRANCH  16  17
ATOM     17  C19 ZIN A   1      18.608   0.022   6.524  0.00  0.00    -0.022 C 
ATOM     18  C20 ZIN A   1      17.088  -0.018   6.345  0.00  0.00     0.009 C 
ATOM     19  C21 ZIN A   1      19.275   0.261   5.169  0.00  0.00     0.009 C 
ENDBRANCH  16  17
ENDBRANCH  11  16
BRANCH   6  20
ATOM     20  O9  ZIN A   1      18.362   2.481  16.202  0.00  0.00    -0.353 OA
ATOM     21  C10 ZIN A   1      19.537   3.228  16.522  0.00  0.00     0.210 C 
ENDBRANCH   6  20
BRANCH   1  22
ATOM     22  O2  ZIN A   1      18.181  -0.079  17.213  0.00  0.00    -0.353 OA
ATOM     23  C1  ZIN A   1      19.314  -0.281  18.061  0.00  0.00     0.210 C 
ENDBRANCH   1  22
TORSDOF 4
ENDMDL
MODEL 2
REMARK VINA RESULT:      -7.7      1.994      7.767
REMARK  4 active torsions:
REMARK  status: ('A' for Active; 'I' for Inactive)
REMARK    1  A    between atoms: O2_2  and  C3_3 
REMARK    2  A    between atoms: C8_8  and  O9_9 
REMARK    3  A    between atoms: C16_15  and  C18_16 
REMARK    4  A    between atoms: C18_16  and  C19_17 
ROOT
ATOM      1  C3  ZIN A   1      19.125   0.771   7.675  0.00  0.00     0.102 A 
ATOM      2  C4  ZIN A   1      18.906   1.913   8.427  0.00  0.00     0.047 A 
ATOM      3  C5  ZIN A   1      19.045   1.880   9.807  0.00  0.00    -0.045 A 
ATOM      4  C6  ZIN A   1      19.403   0.708  10.438  0.00  0.00    -0.015 A 
ATOM      5  C7  ZIN A   1      19.622  -0.439   9.687  0.00  0.00     0.049 A 
ATOM      6  C8  ZIN A   1      19.479  -0.415   8.312  0.00  0.00     0.102 A 
ATOM      7  C11 ZIN A   1      19.573   0.625  11.931  0.00  0.00     0.263 C 
ATOM      8  C13 ZIN A   1      18.918  -0.665  12.440  0.00  0.00     0.119 C 
ATOM      9  C14 ZIN A   1      18.999  -0.672  13.953  0.00  0.00     0.135 C 
ATOM     10  O15 ZIN A   1      19.405  -1.640  14.551  0.00  0.00    -0.297 OA
ATOM     11  C16 ZIN A   1      18.555   0.574  14.689  0.00  0.00     0.084 C 
ATOM     12  C22 ZIN A   1      19.236   1.783  14.038  0.00  0.00     0.285 C 
ATOM     13  N23 ZIN A   1      18.944   1.769  12.595  0.00  0.00     0.099 N 
ATOM     14  C24 ZIN A   1      19.391   3.021  11.964  0.00  0.00     0.278 C 
ATOM     15  C25 ZIN A   1      18.791   3.147  10.583  0.00  0.00     0.069 C 
ENDROOT
BRANCH  11  16
ATOM     16  C18 ZIN A   1      18.967   0.479  16.159  0.00  0.00     0.018 C 
BRANCH  16  17
ATOM     17  C19 ZIN A   1      17.715   0.484  17.040  0.00  0.00    -0.022 C 
ATOM     18  C20 ZIN A   1      17.015  -0.873  16.937  0.00  0.00     0.009 C 
ATOM     19  C21 ZIN A   1      18.115   0.742  18.493  0.00  0.00     0.009 C 
ENDBRANCH  16  17
ENDBRANCH  11  16
BRANCH   6  20
ATOM     20  O9  ZIN A   1      19.695  -1.542   7.583  0.00  0.00    -0.353 OA
ATOM     21  C10 ZIN A   1      18.904  -2.687   7.909  0.00  0.00     0.210 C 
ENDBRANCH   6  20
BRANCH   1  22
ATOM     22  O2  ZIN A   1      18.989   0.808   6.323  0.00  0.00    -0.353 OA
ATOM     23  C1  ZIN A   1      17.742   0.367   5.783  0.00  0.00     0.210 C 
ENDBRANCH   1  22
TORSDOF 4
ENDMDL
MODEL 3
REMARK VINA RESULT:      -7.7      3.578      7.306
REMARK  4 active torsions:
REMARK  status: ('A' for Active; 'I' for Inactive)
REMARK    1  A    between atoms: O2_2  and  C3_3 
REMARK    2  A    between atoms: C8_8  and  O9_9 
REMARK    3  A    between atoms: C16_15  and  C18_16 
REMARK    4  A    between atoms: C18_16  and  C19_17 
ROOT
ATOM      1  C3  ZIN A   1      19.491  -2.615   6.947  0.00  0.00     0.102 A 
ATOM      2  C4  ZIN A   1      19.146  -2.810   8.273  0.00  0.00     0.047 A 
ATOM      3  C5  ZIN A   1      18.665  -1.755   9.034  0.00  0.00    -0.045 A 
ATOM      4  C6  ZIN A   1      18.527  -0.504   8.472  0.00  0.00    -0.015 A 
ATOM      5  C7  ZIN A   1      18.874  -0.305   7.142  0.00  0.00     0.049 A 
ATOM      6  C8  ZIN A   1      19.360  -1.351   6.380  0.00  0.00     0.102 A 
ATOM      7  C11 ZIN A   1      18.003   0.669   9.255  0.00  0.00     0.263 C 
ATOM      8  C13 ZIN A   1      18.861   1.903   8.946  0.00  0.00     0.119 C 
ATOM      9  C14 ZIN A   1      18.390   3.041   9.829  0.00  0.00     0.135 C 
ATOM     10  O15 ZIN A   1      18.155   4.131   9.367  0.00  0.00    -0.297 OA
ATOM     11  C16 ZIN A   1      18.223   2.763  11.308  0.00  0.00     0.084 C 
ATOM     12  C22 ZIN A   1      17.403   1.477  11.464  0.00  0.00     0.285 C 
ATOM     13  N23 ZIN A   1      18.055   0.405  10.695  0.00  0.00     0.099 N 
ATOM     14  C24 ZIN A   1      17.432  -0.895  10.987  0.00  0.00     0.278 C 
ATOM     15  C25 ZIN A   1      18.306  -2.016  10.475  0.00  0.00     0.069 C 
ENDROOT
BRANCH  11  16
ATOM     16  C18 ZIN A   1      17.487   3.929  11.971  0.00  0.00     0.018 C 
BRANCH  16  17
ATOM     17  C19 ZIN A   1      18.272   4.393  13.201  0.00  0.00    -0.022 C 
ATOM     18  C20 ZIN A   1      19.678   4.820  12.775  0.00  0.00     0.009 C 
ATOM     19  C21 ZIN A   1      17.552   5.576  13.848  0.00  0.00     0.009 C 
ENDBRANCH  16  17
ENDBRANCH  11  16
BRANCH   6  20
ATOM     20  O9  ZIN A   1      19.698  -1.148   5.079  0.00  0.00    -0.353 OA
ATOM     21  C10 ZIN A   1      18.982  -0.133   4.373  0.00  0.00     0.210 C 
ENDBRANCH   6  20
BRANCH   1  22
ATOM     22  O2  ZIN A   1      19.961  -3.653   6.204  0.00  0.00    -0.353 OA
ATOM     23  C1  ZIN A   1      20.153  -4.899   6.877  0.00  0.00     0.210 C 
ENDBRANCH   1  22
TORSDOF 4
ENDMDL
MODEL 4
REMARK VINA RESULT:      -7.4      2.573      8.183
REMARK  4 active torsions:
REMARK  status: ('A' for Active; 'I' for Inactive)
REMARK    1  A    between atoms: O2_2  and  C3_3 
REMARK    2  A    between atoms: C8_8  and  O9_9 
REMARK    3  A    between atoms: C16_15  and  C18_16 
REMARK    4  A    between atoms: C18_16  and  C19_17 
ROOT
ATOM      1  C3  ZIN A   1      18.999  -0.236   5.826  0.00  0.00     0.102 A 
ATOM      2  C4  ZIN A   1      18.784   0.876   6.622  0.00  0.00     0.047 A 
ATOM      3  C5  ZIN A   1      18.976   0.803   7.993  0.00  0.00    -0.045 A 
ATOM      4  C6  ZIN A   1      19.384  -0.380   8.572  0.00  0.00    -0.015 A 
ATOM      5  C7  ZIN A   1      19.598  -1.497   7.776  0.00  0.00     0.049 A 
ATOM      6  C8  ZIN A   1      19.402  -1.433   6.409  0.00  0.00     0.102 A 
ATOM      7  C11 ZIN A   1      19.612  -0.505  10.054  0.00  0.00     0.263 C 
ATOM      8  C13 ZIN A   1      19.005  -1.826  10.546  0.00  0.00     0.119 C 
ATOM      9  C14 ZIN A   1      19.144  -1.879  12.053  0.00  0.00     0.135 C 
ATOM     10  O15 ZIN A   1      19.594  -2.856  12.604  0.00  0.00    -0.297 OA
ATOM     11  C16 ZIN A   1      18.702  -0.667  12.845  0.00  0.00     0.084 C 
ATOM     12  C22 ZIN A   1      19.331   0.577  12.209  0.00  0.00     0.285 C 
ATOM     13  N23 ZIN A   1      18.985   0.602  10.779  0.00  0.00     0.099 N 
ATOM     14  C24 ZIN A   1      19.379   1.883  10.172  0.00  0.00     0.278 C 
ATOM     15  C25 ZIN A   1      18.725   2.039   8.820  0.00  0.00     0.069 C 
ENDROOT
BRANCH  11  16
ATOM     16  C18 ZIN A   1      19.172  -0.799  14.296  0.00  0.00     0.018 C 
BRANCH  16  17
ATOM     17  C19 ZIN A   1      17.981  -0.599  15.237  0.00  0.00    -0.022 C 
ATOM     18  C20 ZIN A   1      18.055  -1.620  16.374  0.00  0.00     0.009 C 
ATOM     19  C21 ZIN A   1      18.023   0.815  15.817  0.00  0.00     0.009 C 
ENDBRANCH  16  17
ENDBRANCH  11  16
BRANCH   6  20
ATOM     20  O9  ZIN A   1      19.615  -2.531   5.637  0.00  0.00    -0.353 OA
ATOM     21  C10 ZIN A   1      19.134  -3.781   6.139  0.00  0.00     0.210 C 
ENDBRANCH   6  20
BRANCH   1  22
ATOM     22  O2  ZIN A   1      18.810  -0.160   4.481  0.00  0.00    -0.353 OA
ATOM     23  C1  ZIN A   1      17.637  -0.781   3.953  0.00  0.00     0.210 C 
ENDBRANCH   1  22
TORSDOF 4
ENDMDL
MODEL 5
REMARK VINA RESULT:      -7.4      1.816      3.196
REMARK  4 active torsions:
REMARK  status: ('A' for Active; 'I' for Inactive)
REMARK    1  A    between atoms: O2_2  and  C3_3 
REMARK    2  A    between atoms: C8_8  and  O9_9 
REMARK    3  A    between atoms: C16_15  and  C18_16 
REMARK    4  A    between atoms: C18_16  and  C19_17 
ROOT
ATOM      1  C3  ZIN A   1      19.195   1.906  16.843  0.00  0.00     0.102 A 
ATOM      2  C4  ZIN A   1      19.123   2.915  15.898  0.00  0.00     0.047 A 
ATOM      3  C5  ZIN A   1      18.683   2.639  14.612  0.00  0.00    -0.045 A 
ATOM      4  C6  ZIN A   1      18.312   1.357  14.268  0.00  0.00    -0.015 A 
ATOM      5  C7  ZIN A   1      18.385   0.343  15.213  0.00  0.00     0.049 A 
ATOM      6  C8  ZIN A   1      18.829   0.609  16.495  0.00  0.00     0.102 A 
ATOM      7  C11 ZIN A   1      17.821   1.012  12.888  0.00  0.00     0.263 C 
ATOM      8  C13 ZIN A   1      18.473  -0.303  12.437  0.00  0.00     0.119 C 
ATOM      9  C14 ZIN A   1      18.055  -0.571  11.006  0.00  0.00     0.135 C 
ATOM     10  O15 ZIN A   1      17.625  -1.650  10.674  0.00  0.00    -0.297 OA
ATOM     11  C16 ZIN A   1      18.194   0.558  10.007  0.00  0.00     0.084 C 
ATOM     12  C22 ZIN A   1      17.558   1.814  10.612  0.00  0.00     0.285 C 
ATOM     13  N23 ZIN A   1      18.166   2.064  11.929  0.00  0.00     0.099 N 
ATOM     14  C24 ZIN A   1      17.748   3.373  12.452  0.00  0.00     0.278 C 
ATOM     15  C25 ZIN A   1      18.626   3.770  13.616  0.00  0.00     0.069 C 
ENDROOT
BRANCH  11  16
ATOM     16  C18 ZIN A   1      17.475   0.189   8.708  0.00  0.00     0.018 C 
BRANCH  16  17
ATOM     17  C19 ZIN A   1      18.461   0.266   7.540  0.00  0.00    -0.022 C 
ATOM     18  C20 ZIN A   1      17.691   0.210   6.219  0.00  0.00     0.009 C 
ATOM     19  C21 ZIN A   1      19.244   1.577   7.619  0.00  0.00     0.009 C 
ENDBRANCH  16  17
ENDBRANCH  11  16
BRANCH   6  20
ATOM     20  O9  ZIN A   1      18.897  -0.390  17.415  0.00  0.00    -0.353 OA
ATOM     21  C10 ZIN A   1      19.252  -1.690  16.937  0.00  0.00     0.210 C 
ENDBRANCH   6  20
BRANCH   1  22
ATOM     22  O2  ZIN A   1      19.627   2.180  18.103  0.00  0.00    -0.353 OA
ATOM     23  C1  ZIN A   1      18.876   3.138  18.852  0.00  0.00     0.210 C 
ENDBRANCH   1  22
TORSDOF 4
ENDMDL
MODEL 6
REMARK VINA RESULT:      -7.3      3.252      7.958
REMARK  4 active torsions:
REMARK  status: ('A' for Active; 'I' for Inactive)
REMARK    1  A    between atoms: O2_2  and  C3_3 
REMARK    2  A    between atoms: C8_8  and  O9_9 
REMARK    3  A    between atoms: C16_15  and  C18_16 
REMARK    4  A    between atoms: C18_16  and  C19_17 
ROOT
ATOM      1  C3  ZIN A   1      18.779  -3.494   6.390  0.00  0.00     0.102 A 
ATOM      2  C4  ZIN A   1      18.273  -4.165   7.491  0.00  0.00     0.047 A 
ATOM      3  C5  ZIN A   1      18.240  -3.548   8.732  0.00  0.00    -0.045 A 
ATOM      4  C6  ZIN A   1      18.709  -2.261   8.878  0.00  0.00    -0.015 A 
ATOM      5  C7  ZIN A   1      19.219  -1.586   7.777  0.00  0.00     0.049 A 
ATOM      6  C8  ZIN A   1      19.261  -2.197   6.537  0.00  0.00     0.102 A 
ATOM      7  C11 ZIN A   1      18.687  -1.548  10.203  0.00  0.00     0.263 C 
ATOM      8  C13 ZIN A   1      20.020  -0.815  10.402  0.00  0.00     0.119 C 
ATOM      9  C14 ZIN A   1      20.021  -0.201  11.787  0.00  0.00     0.135 C 
ATOM     10  O15 ZIN A   1      20.325   0.955  11.956  0.00  0.00    -0.297 OA
ATOM     11  C16 ZIN A   1      19.626  -1.086  12.951  0.00  0.00     0.084 C 
ATOM     12  C22 ZIN A   1      18.317  -1.797  12.589  0.00  0.00     0.285 C 
ATOM     13  N23 ZIN A   1      18.497  -2.494  11.305  0.00  0.00     0.099 N 
ATOM     14  C24 ZIN A   1      17.347  -3.366  11.023  0.00  0.00     0.278 C 
ATOM     15  C25 ZIN A   1      17.683  -4.321   9.902  0.00  0.00     0.069 C 
ENDROOT
BRANCH  11  16
ATOM     16  C18 ZIN A   1      19.420  -0.230  14.202  0.00  0.00     0.018 C 
BRANCH  16  17
ATOM     17  C19 ZIN A   1      18.384  -0.898  15.111  0.00  0.00    -0.022 C 
ATOM     18  C20 ZIN A   1      19.095  -1.558  16.294  0.00  0.00     0.009 C 
ATOM     19  C21 ZIN A   1      17.405   0.157  15.628  0.00  0.00     0.009 C 
ENDBRANCH  16  17
ENDBRANCH  11  16
BRANCH   6  20
ATOM     20  O9  ZIN A   1      19.761  -1.529   5.464  0.00  0.00    -0.353 OA
ATOM     21  C10 ZIN A   1      19.217  -0.236   5.192  0.00  0.00     0.210 C 
ENDBRANCH   6  20
BRANCH   1  22
ATOM     22  O2  ZIN A   1      18.809  -4.102   5.174  0.00  0.00    -0.353 OA
ATOM     23  C1  ZIN A   1      17.570  -4.605   4.669  0.00  0.00     0.210 C 
ENDBRANCH   1  22
TORSDOF 4
ENDMDL
MODEL 7
REMARK VINA RESULT:      -7.1      3.800      8.142
REMARK  4 active torsions:
REMARK  status: ('A' for Active; 'I' for Inactive)
REMARK    1  A    between atoms: O2_2  and  C3_3 
REMARK    2  A    between atoms: C8_8  and  O9_9 
REMARK    3  A    between atoms: C16_15  and  C18_16 
REMARK    4  A    between atoms: C18_16  and  C19_17 
ROOT
ATOM      1  C3  ZIN A   1      18.398  -3.743   5.338  0.00  0.00     0.102 A 
ATOM      2  C4  ZIN A   1      18.340  -2.449   4.849  0.00  0.00     0.047 A 
ATOM      3  C5  ZIN A   1      18.609  -1.373   5.680  0.00  0.00    -0.045 A 
ATOM      4  C6  ZIN A   1      18.939  -1.586   7.002  0.00  0.00    -0.015 A 
ATOM      5  C7  ZIN A   1      18.996  -2.882   7.496  0.00  0.00     0.049 A 
ATOM      6  C8  ZIN A   1      18.722  -3.959   6.674  0.00  0.00     0.102 A 
ATOM      7  C11 ZIN A   1      19.247  -0.450   7.940  0.00  0.00     0.263 C 
ATOM      8  C13 ZIN A   1      18.549  -0.705   9.283  0.00  0.00     0.119 C 
ATOM      9  C14 ZIN A   1      18.777   0.501  10.171  0.00  0.00     0.135 C 
ATOM     10  O15 ZIN A   1      19.166   0.373  11.308  0.00  0.00    -0.297 OA
ATOM     11  C16 ZIN A   1      18.502   1.869   9.586  0.00  0.00     0.084 C 
ATOM     12  C22 ZIN A   1      19.206   1.960   8.227  0.00  0.00     0.285 C 
ATOM     13  N23 ZIN A   1      18.774   0.825   7.396  0.00  0.00     0.099 N 
ATOM     14  C24 ZIN A   1      19.249   0.985   6.013  0.00  0.00     0.278 C 
ATOM     15  C25 ZIN A   1      18.529   0.018   5.102  0.00  0.00     0.069 C 
ENDROOT
BRANCH  11  16
ATOM     16  C18 ZIN A   1      19.047   2.950  10.522  0.00  0.00     0.018 C 
BRANCH  16  17
ATOM     17  C19 ZIN A   1      17.882   3.647  11.229  0.00  0.00    -0.022 C 
ATOM     18  C20 ZIN A   1      18.352   4.174  12.587  0.00  0.00     0.009 C 
ATOM     19  C21 ZIN A   1      17.391   4.814  10.371  0.00  0.00     0.009 C 
ENDBRANCH  16  17
ENDBRANCH  11  16
BRANCH   6  20
ATOM     20  O9  ZIN A   1      18.781  -5.225   7.166  0.00  0.00    -0.353 OA
ATOM     21  C10 ZIN A   1      17.804  -5.588   8.145  0.00  0.00     0.210 C 
ENDBRANCH   6  20
BRANCH   1  22
ATOM     22  O2  ZIN A   1      18.134  -4.796   4.519  0.00  0.00    -0.353 OA
ATOM     23  C1  ZIN A   1      16.759  -5.086   4.258  0.00  0.00     0.210 C 
ENDBRANCH   1  22
TORSDOF 4
ENDMDL
MODEL 8
REMARK VINA RESULT:      -7.1      1.698      3.211
REMARK  4 active torsions:
REMARK  status: ('A' for Active; 'I' for Inactive)
REMARK    1  A    between atoms: O2_2  and  C3_3 
REMARK    2  A    between atoms: C8_8  and  O9_9 
REMARK    3  A    between atoms: C16_15  and  C18_16 
REMARK    4  A    between atoms: C18_16  and  C19_17 
ROOT
ATOM      1  C3  ZIN A   1      18.443   2.799  15.057  0.00  0.00     0.102 A 
ATOM      2  C4  ZIN A   1      18.647   3.568  13.924  0.00  0.00     0.047 A 
ATOM      3  C5  ZIN A   1      18.587   2.991  12.665  0.00  0.00    -0.045 A 
ATOM      4  C6  ZIN A   1      18.320   1.645  12.533  0.00  0.00    -0.015 A 
ATOM      5  C7  ZIN A   1      18.116   0.870  13.667  0.00  0.00     0.049 A 
ATOM      6  C8  ZIN A   1      18.182   1.438  14.926  0.00  0.00     0.102 A 
ATOM      7  C11 ZIN A   1      18.237   0.976  11.188  0.00  0.00     0.263 C 
ATOM      8  C13 ZIN A   1      18.981  -0.365  11.247  0.00  0.00     0.119 C 
ATOM      9  C14 ZIN A   1      18.983  -0.967   9.856  0.00  0.00     0.135 C 
ATOM     10  O15 ZIN A   1      18.657  -2.115   9.674  0.00  0.00    -0.297 OA
ATOM     11  C16 ZIN A   1      19.406  -0.079   8.705  0.00  0.00     0.084 C 
ATOM     12  C22 ZIN A   1      18.632   1.240   8.807  0.00  0.00     0.285 C 
ATOM     13  N23 ZIN A   1      18.845   1.809  10.148  0.00  0.00     0.099 N 
ATOM     14  C24 ZIN A   1      18.304   3.175  10.223  0.00  0.00     0.278 C 
ATOM     15  C25 ZIN A   1      18.820   3.870  11.461  0.00  0.00     0.069 C 
ENDROOT
BRANCH  11  16
ATOM     16  C18 ZIN A   1      19.080  -0.767   7.377  0.00  0.00     0.018 C 
BRANCH  16  17
ATOM     17  C19 ZIN A   1      18.461   0.250   6.415  0.00  0.00    -0.022 C 
ATOM     18  C20 ZIN A   1      19.251   0.256   5.104  0.00  0.00     0.009 C 
ATOM     19  C21 ZIN A   1      17.008  -0.134   6.134  0.00  0.00     0.009 C 
ENDBRANCH  16  17
ENDBRANCH  11  16
BRANCH   6  20
ATOM     20  O9  ZIN A   1      17.981   0.672  16.031  0.00  0.00    -0.353 OA
ATOM     21  C10 ZIN A   1      17.762  -0.725  15.823  0.00  0.00     0.210 C 
ENDBRANCH   6  20
BRANCH   1  22
ATOM     22  O2  ZIN A   1      18.502   3.369  16.290  0.00  0.00    -0.353 OA
ATOM     23  C1  ZIN A   1      19.757   3.927  16.687  0.00  0.00     0.210 C 
ENDBRANCH   1  22
TORSDOF 4
ENDMDL
MODEL 9
REMARK VINA RESULT:      -7.0      3.169      6.177
REMARK  4 active torsions:
REMARK  status: ('A' for Active; 'I' for Inactive)
REMARK    1  A    between atoms: O2_2  and  C3_3 
REMARK    2  A    between atoms: C8_8  and  O9_9 
REMARK    3  A    between atoms: C16_15  and  C18_16 
REMARK    4  A    between atoms: C18_16  and  C19_17 
ROOT
ATOM      1  C3  ZIN A   1      18.406  -2.992  11.795  0.00  0.00     0.102 A 
ATOM      2  C4  ZIN A   1      18.780  -2.399  12.990  0.00  0.00     0.047 A 
ATOM      3  C5  ZIN A   1      18.493  -1.063  13.228  0.00  0.00    -0.045 A 
ATOM      4  C6  ZIN A   1      17.832  -0.318  12.276  0.00  0.00    -0.015 A 
ATOM      5  C7  ZIN A   1      17.458  -0.909  11.076  0.00  0.00     0.049 A 
ATOM      6  C8  ZIN A   1      17.747  -2.238  10.830  0.00  0.00     0.102 A 
ATOM      7  C11 ZIN A   1      17.493   1.133  12.492  0.00  0.00     0.263 C 
ATOM      8  C13 ZIN A   1      17.805   1.918  11.211  0.00  0.00     0.119 C 
ATOM      9  C14 ZIN A   1      17.565   3.388  11.487  0.00  0.00     0.135 C 
ATOM     10  O15 ZIN A   1      16.905   4.064  10.735  0.00  0.00    -0.297 OA
ATOM     11  C16 ZIN A   1      18.181   3.980  12.737  0.00  0.00     0.084 C 
ATOM     12  C22 ZIN A   1      17.840   3.065  13.918  0.00  0.00     0.285 C 
ATOM     13  N23 ZIN A   1      18.273   1.696  13.595  0.00  0.00     0.099 N 
ATOM     14  C24 ZIN A   1      18.168   0.827  14.777  0.00  0.00     0.278 C 
ATOM     15  C25 ZIN A   1      18.923  -0.461  14.542  0.00  0.00     0.069 C 
ENDROOT
BRANCH  11  16
ATOM     16  C18 ZIN A   1      17.605   5.377  12.983  0.00  0.00     0.018 C 
BRANCH  16  17
ATOM     17  C19 ZIN A   1      16.966   5.427  14.373  0.00  0.00    -0.022 C 
ATOM     18  C20 ZIN A   1      17.726   6.427  15.247  0.00  0.00     0.009 C 
ATOM     19  C21 ZIN A   1      15.506   5.865  14.247  0.00  0.00     0.009 C 
ENDBRANCH  16  17
ENDBRANCH  11  16
BRANCH   6  20
ATOM     20  O9  ZIN A   1      17.377  -2.810   9.653  0.00  0.00    -0.353 OA
ATOM     21  C10 ZIN A   1      18.164  -2.496   8.502  0.00  0.00     0.210 C 
ENDBRANCH   6  20
BRANCH   1  22
ATOM     22  O2  ZIN A   1      18.689  -4.302  11.566  0.00  0.00    -0.353 OA
ATOM     23  C1  ZIN A   1      20.003  -4.611  11.098  0.00  0.00     0.210 C 
ENDBRANCH   1  22
TORSDOF 4
ENDMDL
