MODEL 1
REMARK VINA RESULT:      -9.0      0.000      0.000
REMARK  8 active torsions:
REMARK  status: ('A' for Active; 'I' for Inactive)
REMARK    1  A    between atoms: C2_2  and  C3_3 
REMARK    2  A    between atoms: C8_8  and  C9_9 
REMARK    3  A    between atoms: C12_12  and  N13_13 
REMARK    4  A    between atoms: N13_13  and  C16_16 
REMARK    5  A    between atoms: C16_16  and  C17_17 
REMARK    6  A    between atoms: C17_17  and  O19_18 
REMARK    7  A    between atoms: C17_17  and  C20_19 
REMARK    8  A    between atoms: C23_22  and  O24_23 
ROOT
ATOM      1  C16 ZIN A   1      19.350   4.363  12.925  0.00  0.00     0.269 C 
ENDROOT
BRANCH   1   2
ATOM      2  N13 ZIN A   1      20.184   3.428  12.159  0.00  0.00    -0.068 N 
ATOM      3  H14 ZIN A   1      20.792   2.926  12.788  0.00  0.00     0.277 HD
ATOM      4  H15 ZIN A   1      20.741   3.944  11.493  0.00  0.00     0.277 HD
BRANCH   2   5
ATOM      5  C12 ZIN A   1      19.323   2.477  11.445  0.00  0.00     0.194 C 
ATOM      6  C11 ZIN A   1      20.001   1.095  11.342  0.00  0.00     0.072 C 
ATOM      7  C6  ZIN A   1      19.584   0.548   9.993  0.00  0.00    -0.049 A 
ATOM      8  C5  ZIN A   1      19.106   1.575   9.201  0.00  0.00    -0.049 A 
ATOM      9  C7  ZIN A   1      19.621  -0.745   9.497  0.00  0.00     0.015 A 
ATOM     10  C4  ZIN A   1      18.665   1.306   7.916  0.00  0.00     0.015 A 
ATOM     11  C32 ZIN A   1      19.168   2.881   9.964  0.00  0.00     0.072 C 
ATOM     12  C3  ZIN A   1      18.703   0.017   7.423  0.00  0.00    -0.052 A 
ATOM     13  C8  ZIN A   1      19.177  -1.011   8.217  0.00  0.00    -0.052 A 
BRANCH  12  14
ATOM     14  C2  ZIN A   1      18.222  -0.271   6.024  0.00  0.00     0.034 C 
ATOM     15  C1  ZIN A   1      19.252   0.243   5.016  0.00  0.00     0.010 C 
ENDBRANCH  12  14
BRANCH  13  16
ATOM     16  C9  ZIN A   1      19.218  -2.420   7.683  0.00  0.00     0.034 C 
ATOM     17  C10 ZIN A   1      18.175  -3.270   8.409  0.00  0.00     0.010 C 
ENDBRANCH  13  16
ENDBRANCH   2   5
ENDBRANCH   1   2
BRANCH   1  18
ATOM     18  C17 ZIN A   1      18.179   3.605  13.554  0.00  0.00     0.177 C 
BRANCH  18  19
ATOM     19  O19 ZIN A   1      17.044   4.469  13.637  0.00  0.00    -0.389 OA
ATOM     20  H50 ZIN A   1      17.122   5.159  14.309  0.00  0.00     0.210 HD
ENDBRANCH  18  19
BRANCH  18  21
ATOM     21  C20 ZIN A   1      18.562   3.145  14.937  0.00  0.00    -0.015 A 
ATOM     22  C26 ZIN A   1      18.433   1.797  15.289  0.00  0.00     0.003 A 
ATOM     23  C25 ZIN A   1      18.796   1.370  16.578  0.00  0.00     0.079 A 
ATOM     24  C27 ZIN A   1      17.933   0.809  14.329  0.00  0.00     0.020 A 
ATOM     25  C23 ZIN A   1      19.273   2.305  17.499  0.00  0.00     0.093 A 
ATOM     26  N31 ZIN A   1      18.672   0.039  16.917  0.00  0.00    -0.321 N 
ATOM     27  C22 ZIN A   1      19.386   3.633  17.129  0.00  0.00     0.039 A 
ATOM     28  C21 ZIN A   1      19.031   4.044  15.852  0.00  0.00     0.013 A 
ATOM     29  C29 ZIN A   1      18.216  -0.861  16.028  0.00  0.00     0.245 A 
ATOM     30  H56 ZIN A   1      18.922  -0.253  17.807  0.00  0.00     0.169 HD
ATOM     31  C28 ZIN A   1      17.838  -0.485  14.723  0.00  0.00     0.075 A 
ATOM     32  O30 ZIN A   1      18.123  -2.030  16.362  0.00  0.00    -0.268 OA
BRANCH  25  33
ATOM     33  O24 ZIN A   1      19.624   1.912  18.752  0.00  0.00    -0.358 OA
ATOM     34  H53 ZIN A   1      20.576   1.932  18.918  0.00  0.00     0.217 HD
ENDBRANCH  25  33
ENDBRANCH  18  21
ENDBRANCH   1  18
TORSDOF 8
ENDMDL
MODEL 2
REMARK VINA RESULT:      -8.6      1.643      2.399
REMARK  8 active torsions:
REMARK  status: ('A' for Active; 'I' for Inactive)
REMARK    1  A    between atoms: C2_2  and  C3_3 
REMARK    2  A    between atoms: C8_8  and  C9_9 
REMARK    3  A    between atoms: C12_12  and  N13_13 
REMARK    4  A    between atoms: N13_13  and  C16_16 
REMARK    5  A    between atoms: C16_16  and  C17_17 
REMARK    6  A    between atoms: C17_17  and  O19_18 
REMARK    7  A    between atoms: C17_17  and  C20_19 
REMARK    8  A    between atoms: C23_22  and  O24_23 
ROOT
ATOM      1  C16 ZIN A   1      19.412   3.832  11.740  0.00  0.00     0.269 C 
ENDROOT
BRANCH   1   2
ATOM      2  N13 ZIN A   1      20.083   2.593  11.328  0.00  0.00    -0.068 N 
ATOM      3  H14 ZIN A   1      20.413   2.101  12.145  0.00  0.00     0.277 HD
ATOM      4  H15 ZIN A   1      20.866   2.817  10.732  0.00  0.00     0.277 HD
BRANCH   2   5
ATOM      5  C12 ZIN A   1      19.136   1.744  10.593  0.00  0.00     0.194 C 
ATOM      6  C11 ZIN A   1      19.624   0.280  10.561  0.00  0.00     0.072 C 
ATOM      7  C6  ZIN A   1      19.202  -0.247   9.205  0.00  0.00    -0.049 A 
ATOM      8  C5  ZIN A   1      18.907   0.809   8.364  0.00  0.00    -0.049 A 
ATOM      9  C7  ZIN A   1      19.087  -1.548   8.744  0.00  0.00     0.015 A 
ATOM     10  C4  ZIN A   1      18.497   0.561   7.065  0.00  0.00     0.015 A 
ATOM     11  C32 ZIN A   1      19.110   2.118   9.097  0.00  0.00     0.072 C 
ATOM     12  C3  ZIN A   1      18.383  -0.736   6.607  0.00  0.00    -0.052 A 
ATOM     13  C8  ZIN A   1      18.674  -1.792   7.450  0.00  0.00    -0.052 A 
BRANCH  12  14
ATOM     14  C2  ZIN A   1      17.936  -1.000   5.192  0.00  0.00     0.034 C 
ATOM     15  C1  ZIN A   1      18.710  -0.092   4.235  0.00  0.00     0.010 C 
ENDBRANCH  12  14
BRANCH  13  16
ATOM     16  C9  ZIN A   1      18.548  -3.210   6.953  0.00  0.00     0.034 C 
ATOM     17  C10 ZIN A   1      19.934  -3.746   6.588  0.00  0.00     0.010 C 
ENDBRANCH  13  16
ENDBRANCH   2   5
ENDBRANCH   1   2
BRANCH   1  18
ATOM     18  C17 ZIN A   1      18.306   3.505  12.746  0.00  0.00     0.177 C 
BRANCH  18  19
ATOM     19  O19 ZIN A   1      17.035   3.827  12.178  0.00  0.00    -0.389 OA
ATOM     20  H50 ZIN A   1      16.376   4.112  12.826  0.00  0.00     0.210 HD
ENDBRANCH  18  19
BRANCH  18  21
ATOM     21  C20 ZIN A   1      18.515   4.311  14.002  0.00  0.00    -0.015 A 
ATOM     22  C26 ZIN A   1      18.790   3.666  15.213  0.00  0.00     0.003 A 
ATOM     23  C25 ZIN A   1      18.989   4.422  16.381  0.00  0.00     0.079 A 
ATOM     24  C27 ZIN A   1      18.889   2.206  15.287  0.00  0.00     0.020 A 
ATOM     25  C23 ZIN A   1      18.897   5.814  16.319  0.00  0.00     0.093 A 
ATOM     26  N31 ZIN A   1      19.267   3.781  17.570  0.00  0.00    -0.321 N 
ATOM     27  C22 ZIN A   1      18.618   6.428  15.112  0.00  0.00     0.039 A 
ATOM     28  C21 ZIN A   1      18.429   5.674  13.963  0.00  0.00     0.013 A 
ATOM     29  C29 ZIN A   1      19.359   2.441  17.628  0.00  0.00     0.245 A 
ATOM     30  H56 ZIN A   1      19.402   4.305  18.375  0.00  0.00     0.169 HD
ATOM     31  C28 ZIN A   1      19.168   1.636  16.486  0.00  0.00     0.075 A 
ATOM     32  O30 ZIN A   1      19.609   1.908  18.697  0.00  0.00    -0.268 OA
BRANCH  25  33
ATOM     33  O24 ZIN A   1      19.081   6.562  17.440  0.00  0.00    -0.358 OA
ATOM     34  H53 ZIN A   1      18.377   6.467  18.096  0.00  0.00     0.217 HD
ENDBRANCH  25  33
ENDBRANCH  18  21
ENDBRANCH   1  18
TORSDOF 8
ENDMDL
MODEL 3
REMARK VINA RESULT:      -8.5      1.686      3.151
REMARK  8 active torsions:
REMARK  status: ('A' for Active; 'I' for Inactive)
REMARK    1  A    between atoms: C2_2  and  C3_3 
REMARK    2  A    between atoms: C8_8  and  C9_9 
REMARK    3  A    between atoms: C12_12  and  N13_13 
REMARK    4  A    between atoms: N13_13  and  C16_16 
REMARK    5  A    between atoms: C16_16  and  C17_17 
REMARK    6  A    between atoms: C17_17  and  O19_18 
REMARK    7  A    between atoms: C17_17  and  C20_19 
REMARK    8  A    between atoms: C23_22  and  O24_23 
ROOT
ATOM      1  C16 ZIN A   1      19.446   3.007  11.563  0.00  0.00     0.269 C 
ENDROOT
BRANCH   1   2
ATOM      2  N13 ZIN A   1      18.805   3.040  10.241  0.00  0.00    -0.068 N 
ATOM      3  H14 ZIN A   1      18.844   3.978   9.872  0.00  0.00     0.277 HD
ATOM      4  H15 ZIN A   1      17.842   2.753  10.328  0.00  0.00     0.277 HD
BRANCH   2   5
ATOM      5  C12 ZIN A   1      19.509   2.126   9.333  0.00  0.00     0.194 C 
ATOM      6  C11 ZIN A   1      18.866   2.144   7.931  0.00  0.00     0.072 C 
ATOM      7  C6  ZIN A   1      18.981   0.721   7.424  0.00  0.00    -0.049 A 
ATOM      8  C5  ZIN A   1      19.237  -0.131   8.481  0.00  0.00    -0.049 A 
ATOM      9  C7  ZIN A   1      18.870   0.214   6.140  0.00  0.00     0.015 A 
ATOM     10  C4  ZIN A   1      19.382  -1.490   8.251  0.00  0.00     0.015 A 
ATOM     11  C32 ZIN A   1      19.312   0.659   9.769  0.00  0.00     0.072 C 
ATOM     12  C3  ZIN A   1      19.271  -1.994   6.971  0.00  0.00    -0.052 A 
ATOM     13  C8  ZIN A   1      19.019  -1.139   5.913  0.00  0.00    -0.052 A 
BRANCH  12  14
ATOM     14  C2  ZIN A   1      19.429  -3.472   6.725  0.00  0.00     0.034 C 
ATOM     15  C1  ZIN A   1      18.325  -4.233   7.462  0.00  0.00     0.010 C 
ENDBRANCH  12  14
BRANCH  13  16
ATOM     16  C9  ZIN A   1      18.899  -1.687   4.513  0.00  0.00     0.034 C 
ATOM     17  C10 ZIN A   1      17.420  -1.799   4.136  0.00  0.00     0.010 C 
ENDBRANCH  13  16
ENDBRANCH   2   5
ENDBRANCH   1   2
BRANCH   1  18
ATOM     18  C17 ZIN A   1      18.371   2.937  12.650  0.00  0.00     0.177 C 
BRANCH  18  19
ATOM     19  O19 ZIN A   1      17.109   3.316  12.097  0.00  0.00    -0.389 OA
ATOM     20  H50 ZIN A   1      17.176   3.830  11.281  0.00  0.00     0.210 HD
ENDBRANCH  18  19
BRANCH  18  21
ATOM     21  C20 ZIN A   1      18.730   3.875  13.773  0.00  0.00    -0.015 A 
ATOM     22  C26 ZIN A   1      18.940   3.377  15.064  0.00  0.00     0.003 A 
ATOM     23  C25 ZIN A   1      19.280   4.255  16.108  0.00  0.00     0.079 A 
ATOM     24  C27 ZIN A   1      18.825   1.945  15.350  0.00  0.00     0.020 A 
ATOM     25  C23 ZIN A   1      19.392   5.621  15.843  0.00  0.00     0.093 A 
ATOM     26  N31 ZIN A   1      19.492   3.757  17.376  0.00  0.00    -0.321 N 
ATOM     27  C22 ZIN A   1      19.174   6.090  14.561  0.00  0.00     0.039 A 
ATOM     28  C21 ZIN A   1      18.844   5.215  13.535  0.00  0.00     0.013 A 
ATOM     29  C29 ZIN A   1      19.388   2.441  17.629  0.00  0.00     0.245 A 
ATOM     30  H56 ZIN A   1      19.726   4.365  18.095  0.00  0.00     0.169 HD
ATOM     31  C28 ZIN A   1      19.050   1.518  16.617  0.00  0.00     0.075 A 
ATOM     32  O30 ZIN A   1      19.586   2.036  18.762  0.00  0.00    -0.268 OA
BRANCH  25  33
ATOM     33  O24 ZIN A   1      19.715   6.486  16.842  0.00  0.00    -0.358 OA
ATOM     34  H53 ZIN A   1      18.965   6.745  17.395  0.00  0.00     0.217 HD
ENDBRANCH  25  33
ENDBRANCH  18  21
ENDBRANCH   1  18
TORSDOF 8
ENDMDL
MODEL 4
REMARK VINA RESULT:      -8.4      0.681      2.031
REMARK  8 active torsions:
REMARK  status: ('A' for Active; 'I' for Inactive)
REMARK    1  A    between atoms: C2_2  and  C3_3 
REMARK    2  A    between atoms: C8_8  and  C9_9 
REMARK    3  A    between atoms: C12_12  and  N13_13 
REMARK    4  A    between atoms: N13_13  and  C16_16 
REMARK    5  A    between atoms: C16_16  and  C17_17 
REMARK    6  A    between atoms: C17_17  and  O19_18 
REMARK    7  A    between atoms: C17_17  and  C20_19 
REMARK    8  A    between atoms: C23_22  and  O24_23 
ROOT
ATOM      1  C16 ZIN A   1      19.173   3.528  12.639  0.00  0.00     0.269 C 
ENDROOT
BRANCH   1   2
ATOM      2  N13 ZIN A   1      18.683   3.641  11.259  0.00  0.00    -0.068 N 
ATOM      3  H14 ZIN A   1      18.863   4.571  10.913  0.00  0.00     0.277 HD
ATOM      4  H15 ZIN A   1      17.691   3.461  11.240  0.00  0.00     0.277 HD
BRANCH   2   5
ATOM      5  C12 ZIN A   1      19.375   2.660  10.412  0.00  0.00     0.194 C 
ATOM      6  C11 ZIN A   1      18.829   2.701   8.969  0.00  0.00     0.072 C 
ATOM      7  C6  ZIN A   1      18.870   1.265   8.490  0.00  0.00    -0.049 A 
ATOM      8  C5  ZIN A   1      18.990   0.415   9.572  0.00  0.00    -0.049 A 
ATOM      9  C7  ZIN A   1      18.807   0.744   7.208  0.00  0.00     0.015 A 
ATOM     10  C4  ZIN A   1      19.047  -0.955   9.370  0.00  0.00     0.015 A 
ATOM     11  C32 ZIN A   1      19.039   1.220  10.853  0.00  0.00     0.072 C 
ATOM     12  C3  ZIN A   1      18.984  -1.472   8.092  0.00  0.00    -0.052 A 
ATOM     13  C8  ZIN A   1      18.868  -0.620   7.009  0.00  0.00    -0.052 A 
BRANCH  12  14
ATOM     14  C2  ZIN A   1      19.046  -2.962   7.876  0.00  0.00     0.034 C 
ATOM     15  C1  ZIN A   1      19.016  -3.674   9.230  0.00  0.00     0.010 C 
ENDBRANCH  12  14
BRANCH  13  16
ATOM     16  C9  ZIN A   1      18.800  -1.182   5.611  0.00  0.00     0.034 C 
ATOM     17  C10 ZIN A   1      19.179  -0.094   4.606  0.00  0.00     0.010 C 
ENDBRANCH  13  16
ENDBRANCH   2   5
ENDBRANCH   1   2
BRANCH   1  18
ATOM     18  C17 ZIN A   1      17.993   3.620  13.609  0.00  0.00     0.177 C 
BRANCH  18  19
ATOM     19  O19 ZIN A   1      17.534   4.971  13.672  0.00  0.00    -0.389 OA
ATOM     20  H50 ZIN A   1      17.246   5.329  12.821  0.00  0.00     0.210 HD
ENDBRANCH  18  19
BRANCH  18  21
ATOM     21  C20 ZIN A   1      18.434   3.174  14.980  0.00  0.00    -0.015 A 
ATOM     22  C26 ZIN A   1      18.368   1.821  15.333  0.00  0.00     0.003 A 
ATOM     23  C25 ZIN A   1      18.784   1.409  16.611  0.00  0.00     0.079 A 
ATOM     24  C27 ZIN A   1      17.879   0.815  14.387  0.00  0.00     0.020 A 
ATOM     25  C23 ZIN A   1      19.250   2.362  17.519  0.00  0.00     0.093 A 
ATOM     26  N31 ZIN A   1      18.722   0.074  16.951  0.00  0.00    -0.321 N 
ATOM     27  C22 ZIN A   1      19.301   3.692  17.148  0.00  0.00     0.039 A 
ATOM     28  C21 ZIN A   1      18.893   4.090  15.883  0.00  0.00     0.013 A 
ATOM     29  C29 ZIN A   1      18.277  -0.843  16.074  0.00  0.00     0.245 A 
ATOM     30  H56 ZIN A   1      19.009  -0.209  17.833  0.00  0.00     0.169 HD
ATOM     31  C28 ZIN A   1      17.847  -0.482  14.781  0.00  0.00     0.075 A 
ATOM     32  O30 ZIN A   1      18.239  -2.015  16.409  0.00  0.00    -0.268 OA
BRANCH  25  33
ATOM     33  O24 ZIN A   1      19.653   1.981  18.761  0.00  0.00    -0.358 OA
ATOM     34  H53 ZIN A   1      18.925   1.817  19.376  0.00  0.00     0.217 HD
ENDBRANCH  25  33
ENDBRANCH  18  21
ENDBRANCH   1  18
TORSDOF 8
ENDMDL
MODEL 5
REMARK VINA RESULT:      -8.2      5.147      9.812
REMARK  8 active torsions:
REMARK  status: ('A' for Active; 'I' for Inactive)
REMARK    1  A    between atoms: C2_2  and  C3_3 
REMARK    2  A    between atoms: C8_8  and  C9_9 
REMARK    3  A    between atoms: C12_12  and  N13_13 
REMARK    4  A    between atoms: N13_13  and  C16_16 
REMARK    5  A    between atoms: C16_16  and  C17_17 
REMARK    6  A    between atoms: C17_17  and  O19_18 
REMARK    7  A    between atoms: C17_17  and  C20_19 
REMARK    8  A    between atoms: C23_22  and  O24_23 
ROOT
ATOM      1  C16 ZIN A   1      19.876  -5.190   8.840  0.00  0.00     0.269 C 
ENDROOT
BRANCH   1   2
ATOM      2  N13 ZIN A   1      18.531  -5.664   9.186  0.00  0.00    -0.068 N 
ATOM      3  H14 ZIN A   1      18.567  -6.649   9.403  0.00  0.00     0.277 HD
ATOM      4  H15 ZIN A   1      17.911  -5.515   8.405  0.00  0.00     0.277 HD
BRANCH   2   5
ATOM      5  C12 ZIN A   1      18.035  -4.923  10.354  0.00  0.00     0.194 C 
ATOM      6  C11 ZIN A   1      17.478  -3.548   9.933  0.00  0.00     0.072 C 
ATOM      7  C6  ZIN A   1      17.835  -2.611  11.068  0.00  0.00    -0.049 A 
ATOM      8  C5  ZIN A   1      18.824  -3.180  11.849  0.00  0.00    -0.049 A 
ATOM      9  C7  ZIN A   1      17.335  -1.361  11.392  0.00  0.00     0.015 A 
ATOM     10  C4  ZIN A   1      19.309  -2.497  12.951  0.00  0.00     0.015 A 
ATOM     11  C32 ZIN A   1      19.198  -4.537  11.292  0.00  0.00     0.072 C 
ATOM     12  C3  ZIN A   1      18.810  -1.251  13.273  0.00  0.00    -0.052 A 
ATOM     13  C8  ZIN A   1      17.818  -0.684  12.494  0.00  0.00    -0.052 A 
BRANCH  12  14
ATOM     14  C2  ZIN A   1      19.341  -0.511  14.473  0.00  0.00     0.034 C 
ATOM     15  C1  ZIN A   1      18.998  -1.290  15.745  0.00  0.00     0.010 C 
ENDBRANCH  12  14
BRANCH  13  16
ATOM     16  C9  ZIN A   1      17.269   0.676  12.843  0.00  0.00     0.034 C 
ATOM     17  C10 ZIN A   1      17.609   1.664  11.726  0.00  0.00     0.010 C 
ENDBRANCH  13  16
ENDBRANCH   2   5
ENDBRANCH   1   2
BRANCH   1  18
ATOM     18  C17 ZIN A   1      20.026  -5.145   7.317  0.00  0.00     0.177 C 
BRANCH  18  19
ATOM     19  O19 ZIN A   1      21.413  -5.135   6.976  0.00  0.00    -0.389 OA
ATOM     20  H50 ZIN A   1      21.888  -4.351   7.283  0.00  0.00     0.210 HD
ENDBRANCH  18  19
BRANCH  18  21
ATOM     21  C20 ZIN A   1      19.367  -3.899   6.783  0.00  0.00    -0.015 A 
ATOM     22  C26 ZIN A   1      18.374  -3.996   5.802  0.00  0.00     0.003 A 
ATOM     23  C25 ZIN A   1      17.759  -2.831   5.310  0.00  0.00     0.079 A 
ATOM     24  C27 ZIN A   1      17.950  -5.297   5.280  0.00  0.00     0.020 A 
ATOM     25  C23 ZIN A   1      18.157  -1.587   5.803  0.00  0.00     0.093 A 
ATOM     26  N31 ZIN A   1      16.776  -2.933   4.348  0.00  0.00    -0.321 N 
ATOM     27  C22 ZIN A   1      19.145  -1.517   6.768  0.00  0.00     0.039 A 
ATOM     28  C21 ZIN A   1      19.743  -2.672   7.252  0.00  0.00     0.013 A 
ATOM     29  C29 ZIN A   1      16.390  -4.132   3.878  0.00  0.00     0.245 A 
ATOM     30  H56 ZIN A   1      16.354  -2.128   4.009  0.00  0.00     0.169 HD
ATOM     31  C28 ZIN A   1      16.976  -5.330   4.337  0.00  0.00     0.075 A 
ATOM     32  O30 ZIN A   1      15.516  -4.184   3.029  0.00  0.00    -0.268 OA
BRANCH  25  33
ATOM     33  O24 ZIN A   1      17.577  -0.449   5.335  0.00  0.00    -0.358 OA
ATOM     34  H53 ZIN A   1      18.141   0.333   5.395  0.00  0.00     0.217 HD
ENDBRANCH  25  33
ENDBRANCH  18  21
ENDBRANCH   1  18
TORSDOF 8
ENDMDL
MODEL 6
REMARK VINA RESULT:      -8.1      2.342      3.740
REMARK  8 active torsions:
REMARK  status: ('A' for Active; 'I' for Inactive)
REMARK    1  A    between atoms: C2_2  and  C3_3 
REMARK    2  A    between atoms: C8_8  and  C9_9 
REMARK    3  A    between atoms: C12_12  and  N13_13 
REMARK    4  A    between atoms: N13_13  and  C16_16 
REMARK    5  A    between atoms: C16_16  and  C17_17 
REMARK    6  A    between atoms: C17_17  and  O19_18 
REMARK    7  A    between atoms: C17_17  and  C20_19 
REMARK    8  A    between atoms: C23_22  and  O24_23 
ROOT
ATOM      1  C16 ZIN A   1      18.976   2.729  11.576  0.00  0.00     0.269 C 
ENDROOT
BRANCH   1   2
ATOM      2  N13 ZIN A   1      18.261   2.630  10.297  0.00  0.00    -0.068 N 
ATOM      3  H14 ZIN A   1      18.769   3.138   9.588  0.00  0.00     0.277 HD
ATOM      4  H15 ZIN A   1      17.338   3.025  10.397  0.00  0.00     0.277 HD
BRANCH   2   5
ATOM      5  C12 ZIN A   1      18.151   1.219   9.904  0.00  0.00     0.194 C 
ATOM      6  C11 ZIN A   1      17.199   0.460  10.851  0.00  0.00     0.072 C 
ATOM      7  C6  ZIN A   1      17.791  -0.928  10.980  0.00  0.00    -0.049 A 
ATOM      8  C5  ZIN A   1      19.108  -0.914  10.561  0.00  0.00    -0.049 A 
ATOM      9  C7  ZIN A   1      17.223  -2.108  11.429  0.00  0.00     0.015 A 
ATOM     10  C4  ZIN A   1      19.853  -2.081  10.591  0.00  0.00     0.015 A 
ATOM     11  C32 ZIN A   1      19.490   0.483  10.121  0.00  0.00     0.072 C 
ATOM     12  C3  ZIN A   1      19.285  -3.257  11.040  0.00  0.00    -0.052 A 
ATOM     13  C8  ZIN A   1      17.966  -3.271  11.455  0.00  0.00    -0.052 A 
BRANCH  12  14
ATOM     14  C2  ZIN A   1      20.100  -4.524  11.071  0.00  0.00     0.034 C 
ATOM     15  C1  ZIN A   1      20.025  -5.212   9.706  0.00  0.00     0.010 C 
ENDBRANCH  12  14
BRANCH  13  16
ATOM     16  C9  ZIN A   1      17.343  -4.554  11.943  0.00  0.00     0.034 C 
ATOM     17  C10 ZIN A   1      16.479  -5.155  10.834  0.00  0.00     0.010 C 
ENDBRANCH  13  16
ENDBRANCH   2   5
ENDBRANCH   1   2
BRANCH   1  18
ATOM     18  C17 ZIN A   1      18.002   3.170  12.672  0.00  0.00     0.177 C 
BRANCH  18  19
ATOM     19  O19 ZIN A   1      16.956   3.951  12.093  0.00  0.00    -0.389 OA
ATOM     20  H50 ZIN A   1      16.345   4.332  12.738  0.00  0.00     0.210 HD
ENDBRANCH  18  19
BRANCH  18  21
ATOM     21  C20 ZIN A   1      18.739   3.995  13.696  0.00  0.00    -0.015 A 
ATOM     22  C26 ZIN A   1      18.938   3.496  14.987  0.00  0.00     0.003 A 
ATOM     23  C25 ZIN A   1      19.630   4.268  15.938  0.00  0.00     0.079 A 
ATOM     24  C27 ZIN A   1      18.448   2.171  15.371  0.00  0.00     0.020 A 
ATOM     25  C23 ZIN A   1      20.101   5.533  15.580  0.00  0.00     0.093 A 
ATOM     26  N31 ZIN A   1      19.829   3.768  17.208  0.00  0.00    -0.321 N 
ATOM     27  C22 ZIN A   1      19.886   6.006  14.300  0.00  0.00     0.039 A 
ATOM     28  C21 ZIN A   1      19.207   5.235  13.366  0.00  0.00     0.013 A 
ATOM     29  C29 ZIN A   1      19.379   2.549  17.550  0.00  0.00     0.245 A 
ATOM     30  H56 ZIN A   1      20.306   4.303  17.862  0.00  0.00     0.169 HD
ATOM     31  C28 ZIN A   1      18.679   1.735  16.634  0.00  0.00     0.075 A 
ATOM     32  O30 ZIN A   1      19.576   2.138  18.681  0.00  0.00    -0.268 OA
BRANCH  25  33
ATOM     33  O24 ZIN A   1      20.768   6.295  16.488  0.00  0.00    -0.358 OA
ATOM     34  H53 ZIN A   1      21.495   5.835  16.929  0.00  0.00     0.217 HD
ENDBRANCH  25  33
ENDBRANCH  18  21
ENDBRANCH   1  18
TORSDOF 8
ENDMDL
MODEL 7
REMARK VINA RESULT:      -8.1      3.778      8.889
REMARK  8 active torsions:
REMARK  status: ('A' for Active; 'I' for Inactive)
REMARK    1  A    between atoms: C2_2  and  C3_3 
REMARK    2  A    between atoms: C8_8  and  C9_9 
REMARK    3  A    between atoms: C12_12  and  N13_13 
REMARK    4  A    between atoms: N13_13  and  C16_16 
REMARK    5  A    between atoms: C16_16  and  C17_17 
REMARK    6  A    between atoms: C17_17  and  O19_18 
REMARK    7  A    between atoms: C17_17  and  C20_19 
REMARK    8  A    between atoms: C23_22  and  O24_23 
ROOT
ATOM      1  C16 ZIN A   1      17.681   0.771   9.950  0.00  0.00     0.269 C 
ENDROOT
BRANCH   1   2
ATOM      2  N13 ZIN A   1      17.143  -0.247  10.862  0.00  0.00    -0.068 N 
ATOM      3  H14 ZIN A   1      17.795  -1.013  10.933  0.00  0.00     0.277 HD
ATOM      4  H15 ZIN A   1      16.263  -0.587  10.503  0.00  0.00     0.277 HD
BRANCH   2   5
ATOM      5  C12 ZIN A   1      16.934   0.346  12.189  0.00  0.00     0.194 C 
ATOM      6  C11 ZIN A   1      17.720   1.667  12.329  0.00  0.00     0.072 C 
ATOM      7  C6  ZIN A   1      18.178   1.705  13.771  0.00  0.00    -0.049 A 
ATOM      8  C5  ZIN A   1      18.090   0.440  14.322  0.00  0.00    -0.049 A 
ATOM      9  C7  ZIN A   1      18.636   2.762  14.541  0.00  0.00     0.015 A 
ATOM     10  C4  ZIN A   1      18.460   0.236  15.642  0.00  0.00     0.015 A 
ATOM     11  C32 ZIN A   1      17.567  -0.533  13.289  0.00  0.00     0.072 C 
ATOM     12  C3  ZIN A   1      18.916   1.291  16.407  0.00  0.00    -0.052 A 
ATOM     13  C8  ZIN A   1      19.000   2.556  15.856  0.00  0.00    -0.052 A 
BRANCH  12  14
ATOM     14  C2  ZIN A   1      19.318   1.064  17.841  0.00  0.00     0.034 C 
ATOM     15  C1  ZIN A   1      19.265  -0.433  18.155  0.00  0.00     0.010 C 
ENDBRANCH  12  14
BRANCH  13  16
ATOM     16  C9  ZIN A   1      19.497   3.710  16.690  0.00  0.00     0.034 C 
ATOM     17  C10 ZIN A   1      19.731   4.925  15.790  0.00  0.00     0.010 C 
ENDBRANCH  13  16
ENDBRANCH   2   5
ENDBRANCH   1   2
BRANCH   1  18
ATOM     18  C17 ZIN A   1      19.095   0.375   9.519  0.00  0.00     0.177 C 
BRANCH  18  19
ATOM     19  O19 ZIN A   1      19.987   1.466   9.755  0.00  0.00    -0.389 OA
ATOM     20  H50 ZIN A   1      20.475   1.403  10.588  0.00  0.00     0.210 HD
ENDBRANCH  18  19
BRANCH  18  21
ATOM     21  C20 ZIN A   1      19.096   0.032   8.052  0.00  0.00    -0.015 A 
ATOM     22  C26 ZIN A   1      19.120  -1.306   7.644  0.00  0.00     0.003 A 
ATOM     23  C25 ZIN A   1      19.116  -1.621   6.273  0.00  0.00     0.079 A 
ATOM     24  C27 ZIN A   1      19.137  -2.396   8.623  0.00  0.00     0.020 A 
ATOM     25  C23 ZIN A   1      19.100  -0.589   5.334  0.00  0.00     0.093 A 
ATOM     26  N31 ZIN A   1      19.133  -2.942   5.877  0.00  0.00    -0.321 N 
ATOM     27  C22 ZIN A   1      19.082   0.725   5.762  0.00  0.00     0.039 A 
ATOM     28  C21 ZIN A   1      19.081   1.028   7.116  0.00  0.00     0.013 A 
ATOM     29  C29 ZIN A   1      19.145  -3.936   6.783  0.00  0.00     0.245 A 
ATOM     30  H56 ZIN A   1      19.131  -3.158   4.932  0.00  0.00     0.169 HD
ATOM     31  C28 ZIN A   1      19.150  -3.673   8.169  0.00  0.00     0.075 A 
ATOM     32  O30 ZIN A   1      19.157  -5.092   6.396  0.00  0.00    -0.268 OA
BRANCH  25  33
ATOM     33  O24 ZIN A   1      19.101  -0.875   4.004  0.00  0.00    -0.358 OA
ATOM     34  H53 ZIN A   1      19.447  -1.752   3.792  0.00  0.00     0.217 HD
ENDBRANCH  25  33
ENDBRANCH  18  21
ENDBRANCH   1  18
TORSDOF 8
ENDMDL
MODEL 8
REMARK VINA RESULT:      -8.1      3.723      8.712
REMARK  8 active torsions:
REMARK  status: ('A' for Active; 'I' for Inactive)
REMARK    1  A    between atoms: C2_2  and  C3_3 
REMARK    2  A    between atoms: C8_8  and  C9_9 
REMARK    3  A    between atoms: C12_12  and  N13_13 
REMARK    4  A    between atoms: N13_13  and  C16_16 
REMARK    5  A    between atoms: C16_16  and  C17_17 
REMARK    6  A    between atoms: C17_17  and  O19_18 
REMARK    7  A    between atoms: C17_17  and  C20_19 
REMARK    8  A    between atoms: C23_22  and  O24_23 
ROOT
ATOM      1  C16 ZIN A   1      17.463   0.895   9.576  0.00  0.00     0.269 C 
ENDROOT
BRANCH   1   2
ATOM      2  N13 ZIN A   1      17.116   0.260  10.854  0.00  0.00    -0.068 N 
ATOM      3  H14 ZIN A   1      17.071  -0.741  10.732  0.00  0.00     0.277 HD
ATOM      4  H15 ZIN A   1      16.220   0.601  11.166  0.00  0.00     0.277 HD
BRANCH   2   5
ATOM      5  C12 ZIN A   1      18.140   0.585  11.856  0.00  0.00     0.194 C 
ATOM      6  C11 ZIN A   1      17.957  -0.273  13.125  0.00  0.00     0.072 C 
ATOM      7  C6  ZIN A   1      18.343   0.633  14.275  0.00  0.00    -0.049 A 
ATOM      8  C5  ZIN A   1      18.335   1.950  13.855  0.00  0.00    -0.049 A 
ATOM      9  C7  ZIN A   1      18.674   0.330  15.586  0.00  0.00     0.015 A 
ATOM     10  C4  ZIN A   1      18.659   2.959  14.746  0.00  0.00     0.015 A 
ATOM     11  C32 ZIN A   1      17.945   2.018  12.394  0.00  0.00     0.072 C 
ATOM     12  C3  ZIN A   1      18.989   2.655  16.052  0.00  0.00    -0.052 A 
ATOM     13  C8  ZIN A   1      19.000   1.337  16.471  0.00  0.00    -0.052 A 
BRANCH  12  14
ATOM     14  C2  ZIN A   1      19.341   3.757  17.018  0.00  0.00     0.034 C 
ATOM     15  C1  ZIN A   1      18.070   4.512  17.415  0.00  0.00     0.010 C 
ENDBRANCH  12  14
BRANCH  13  16
ATOM     16  C9  ZIN A   1      19.361   1.002  17.895  0.00  0.00     0.034 C 
ATOM     17  C10 ZIN A   1      19.138  -0.492  18.139  0.00  0.00     0.010 C 
ENDBRANCH  13  16
ENDBRANCH   2   5
ENDBRANCH   1   2
BRANCH   1  18
ATOM     18  C17 ZIN A   1      18.941   0.647   9.267  0.00  0.00     0.177 C 
BRANCH  18  19
ATOM     19  O19 ZIN A   1      19.647   1.888   9.294  0.00  0.00    -0.389 OA
ATOM     20  H50 ZIN A   1      19.095   2.651   9.514  0.00  0.00     0.210 HD
ENDBRANCH  18  19
BRANCH  18  21
ATOM     21  C20 ZIN A   1      19.071   0.024   7.900  0.00  0.00    -0.015 A 
ATOM     22  C26 ZIN A   1      19.135  -1.367   7.766  0.00  0.00     0.003 A 
ATOM     23  C25 ZIN A   1      19.252  -1.943   6.489  0.00  0.00     0.079 A 
ATOM     24  C27 ZIN A   1      19.072  -2.244   8.937  0.00  0.00     0.020 A 
ATOM     25  C23 ZIN A   1      19.313  -1.114   5.367  0.00  0.00     0.093 A 
ATOM     26  N31 ZIN A   1      19.308  -3.316   6.362  0.00  0.00    -0.321 N 
ATOM     27  C22 ZIN A   1      19.253   0.257   5.526  0.00  0.00     0.039 A 
ATOM     28  C21 ZIN A   1      19.133   0.818   6.790  0.00  0.00     0.013 A 
ATOM     29  C29 ZIN A   1      19.245  -4.113   7.443  0.00  0.00     0.245 A 
ATOM     30  H56 ZIN A   1      19.390  -3.711   5.480  0.00  0.00     0.169 HD
ATOM     31  C28 ZIN A   1      19.129  -3.585   8.746  0.00  0.00     0.075 A 
ATOM     32  O30 ZIN A   1      19.295  -5.322   7.292  0.00  0.00    -0.268 OA
BRANCH  25  33
ATOM     33  O24 ZIN A   1      19.431  -1.654   4.124  0.00  0.00    -0.358 OA
ATOM     34  H53 ZIN A   1      20.027  -1.168   3.539  0.00  0.00     0.217 HD
ENDBRANCH  25  33
ENDBRANCH  18  21
ENDBRANCH   1  18
TORSDOF 8
ENDMDL
MODEL 9
REMARK VINA RESULT:      -8.0      2.003      3.286
REMARK  8 active torsions:
REMARK  status: ('A' for Active; 'I' for Inactive)
REMARK    1  A    between atoms: C2_2  and  C3_3 
REMARK    2  A    between atoms: C8_8  and  C9_9 
REMARK    3  A    between atoms: C12_12  and  N13_13 
REMARK    4  A    between atoms: N13_13  and  C16_16 
REMARK    5  A    between atoms: C16_16  and  C17_17 
REMARK    6  A    between atoms: C17_17  and  O19_18 
REMARK    7  A    between atoms: C17_17  and  C20_19 
REMARK    8  A    between atoms: C23_22  and  O24_23 
ROOT
ATOM      1  C16 ZIN A   1      18.440  -0.233  12.819  0.00  0.00     0.269 C 
ENDROOT
BRANCH   1   2
ATOM      2  N13 ZIN A   1      17.482   0.616  12.099  0.00  0.00    -0.068 N 
ATOM      3  H14 ZIN A   1      17.868   1.542  11.991  0.00  0.00     0.277 HD
ATOM      4  H15 ZIN A   1      16.622   0.670  12.623  0.00  0.00     0.277 HD
BRANCH   2   5
ATOM      5  C12 ZIN A   1      17.215   0.039  10.775  0.00  0.00     0.194 C 
ATOM      6  C11 ZIN A   1      18.021  -1.261  10.571  0.00  0.00     0.072 C 
ATOM      7  C6  ZIN A   1      18.400  -1.267   9.106  0.00  0.00    -0.049 A 
ATOM      8  C5  ZIN A   1      18.254   0.004   8.581  0.00  0.00    -0.049 A 
ATOM      9  C7  ZIN A   1      18.838  -2.301   8.295  0.00  0.00     0.015 A 
ATOM     10  C4  ZIN A   1      18.547   0.236   7.247  0.00  0.00     0.015 A 
ATOM     11  C32 ZIN A   1      17.767   0.949   9.658  0.00  0.00     0.072 C 
ATOM     12  C3  ZIN A   1      18.984  -0.795   6.441  0.00  0.00    -0.052 A 
ATOM     13  C8  ZIN A   1      19.125  -2.067   6.965  0.00  0.00    -0.052 A 
BRANCH  12  14
ATOM     14  C2  ZIN A   1      19.301  -0.538   4.991  0.00  0.00     0.034 C 
ATOM     15  C1  ZIN A   1      18.001  -0.494   4.185  0.00  0.00     0.010 C 
ENDBRANCH  12  14
BRANCH  13  16
ATOM     16  C9  ZIN A   1      19.601  -3.196   6.087  0.00  0.00     0.034 C 
ATOM     17  C10 ZIN A   1      19.803  -4.452   6.937  0.00  0.00     0.010 C 
ENDBRANCH  13  16
ENDBRANCH   2   5
ENDBRANCH   1   2
BRANCH   1  18
ATOM     18  C17 ZIN A   1      19.417   0.648  13.601  0.00  0.00     0.177 C 
BRANCH  18  19
ATOM     19  O19 ZIN A   1      20.756   0.230  13.331  0.00  0.00    -0.389 OA
ATOM     20  H50 ZIN A   1      21.245  -0.055  14.115  0.00  0.00     0.210 HD
ENDBRANCH  18  19
BRANCH  18  21
ATOM     21  C20 ZIN A   1      19.139   0.520  15.077  0.00  0.00    -0.015 A 
ATOM     22  C26 ZIN A   1      18.875   1.661  15.843  0.00  0.00     0.003 A 
ATOM     23  C25 ZIN A   1      18.611   1.537  17.218  0.00  0.00     0.079 A 
ATOM     24  C27 ZIN A   1      18.857   2.994  15.234  0.00  0.00     0.020 A 
ATOM     25  C23 ZIN A   1      18.626   0.271  17.806  0.00  0.00     0.093 A 
ATOM     26  N31 ZIN A   1      18.345   2.665  17.967  0.00  0.00    -0.321 N 
ATOM     27  C22 ZIN A   1      18.895  -0.841  17.029  0.00  0.00     0.039 A 
ATOM     28  C21 ZIN A   1      19.149  -0.710  15.671  0.00  0.00     0.013 A 
ATOM     29  C29 ZIN A   1      18.327   3.883  17.398  0.00  0.00     0.245 A 
ATOM     30  H56 ZIN A   1      18.164   2.577  18.915  0.00  0.00     0.169 HD
ATOM     31  C28 ZIN A   1      18.585   4.062  16.024  0.00  0.00     0.075 A 
ATOM     32  O30 ZIN A   1      18.085   4.858  18.091  0.00  0.00    -0.268 OA
BRANCH  25  33
ATOM     33  O24 ZIN A   1      18.378   0.132  19.136  0.00  0.00    -0.358 OA
ATOM     34  H53 ZIN A   1      19.134   0.343  19.701  0.00  0.00     0.217 HD
ENDBRANCH  25  33
ENDBRANCH  18  21
ENDBRANCH   1  18
TORSDOF 8
ENDMDL
