MODEL 1
REMARK VINA RESULT:      -8.1      0.000      0.000
REMARK  7 active torsions:
REMARK  status: ('A' for Active; 'I' for Inactive)
REMARK    1  A    between atoms: C2_2  and  O4_4 
REMARK    2  A    between atoms: O4_4  and  C5_5 
REMARK    3  A    between atoms: C5_5  and  C7_7 
REMARK    4  A    between atoms: C7_7  and  O10_10 
REMARK    5  A    between atoms: O10_10  and  C11_11 
REMARK    6  A    between atoms: C14_14  and  C15_15 
REMARK    7  A    between atoms: C15_15  and  C17_17 
ROOT
ATOM      1  C11 <0> d   1      18.761   0.577   8.471  0.00  0.00     0.070 A 
ATOM      2  C12 <0> d   1      19.278   1.867   8.419  0.00  0.00     0.038 A 
ATOM      3  C13 <0> d   1      18.851   2.818   9.319  0.00  0.00     0.018 A 
ATOM      4  C14 <0> d   1      17.896   2.484  10.285  0.00  0.00     0.015 A 
ATOM      5  C24 <0> d   1      17.380   1.186  10.333  0.00  0.00     0.018 A 
ATOM      6  C25 <0> d   1      17.809   0.242   9.426  0.00  0.00     0.038 A 
ENDROOT
BRANCH   1   7
ATOM      7  O10 <0> d   1      19.184  -0.357   7.582  0.00  0.00    -0.331 OA
BRANCH   7   8
ATOM      8  C7  <0> d   1      18.674  -0.263   6.250  0.00  0.00     0.148 C 
ATOM      9  C8  <0> d   1      19.255   0.977   5.567  0.00  0.00     0.057 C 
ATOM     10  C9  <0> d   1      17.148  -0.152   6.295  0.00  0.00     0.057 C 
BRANCH   8  11
ATOM     11  C5  <0> d   1      19.065  -1.494   5.473  0.00  0.00     0.294 C 
ATOM     12  O6  <0> d   1      19.922  -1.425   4.625  0.00  0.00    -0.262 OA
BRANCH  11  13
ATOM     13  O4  <0> d   1      18.461  -2.666   5.723  0.00  0.00    -0.314 OA
BRANCH  13  14
ATOM     14  C2  <0> d   1      18.206  -3.533   4.586  0.00  0.00     0.123 C 
ATOM     15  C1  <0> d   1      17.945  -4.957   5.078  0.00  0.00     0.040 C 
ATOM     16  C3  <0> d   1      16.982  -3.025   3.821  0.00  0.00     0.040 C 
ENDBRANCH  13  14
ENDBRANCH  11  13
ENDBRANCH   8  11
ENDBRANCH   7   8
ENDBRANCH   1   7
BRANCH   4  17
ATOM     17  C15 <0> d   1      17.436   3.499  11.251  0.00  0.00     0.192 C 
ATOM     18  O16 <0> d   1      16.559   4.282  10.939  0.00  0.00    -0.287 OA
BRANCH  17  19
ATOM     19  C17 <0> d   1      18.040   3.566  12.597  0.00  0.00     0.015 A 
ATOM     20  C23 <0> d   1      18.667   4.738  13.028  0.00  0.00     0.017 A 
ATOM     21  C22 <0> d   1      19.224   4.794  14.288  0.00  0.00     0.025 A 
ATOM     22  C20 <0> d   1      19.172   3.690  15.122  0.00  0.00     0.034 A 
ATOM     23  C19 <0> d   1      18.557   2.522  14.699  0.00  0.00     0.025 A 
ATOM     24 Cl21 <0> d   1      19.881   3.767  16.705  0.00  0.00    -0.084 Cl
ATOM     25  C18 <0> d   1      17.991   2.455  13.444  0.00  0.00     0.017 A 
ENDBRANCH  17  19
ENDBRANCH   4  17
TORSDOF 7
ENDMDL
MODEL 2
REMARK VINA RESULT:      -7.9      4.643     10.055
REMARK  7 active torsions:
REMARK  status: ('A' for Active; 'I' for Inactive)
REMARK    1  A    between atoms: C2_2  and  O4_4 
REMARK    2  A    between atoms: O4_4  and  C5_5 
REMARK    3  A    between atoms: C5_5  and  C7_7 
REMARK    4  A    between atoms: C7_7  and  O10_10 
REMARK    5  A    between atoms: O10_10  and  C11_11 
REMARK    6  A    between atoms: C14_14  and  C15_15 
REMARK    7  A    between atoms: C15_15  and  C17_17 
ROOT
ATOM      1  C11 <0> d   1      18.815   0.153  14.879  0.00  0.00     0.070 A 
ATOM      2  C12 <0> d   1      19.485  -1.002  14.488  0.00  0.00     0.038 A 
ATOM      3  C13 <0> d   1      19.110  -1.660  13.338  0.00  0.00     0.018 A 
ATOM      4  C14 <0> d   1      18.056  -1.166  12.563  0.00  0.00     0.015 A 
ATOM      5  C24 <0> d   1      17.387  -0.004  12.960  0.00  0.00     0.018 A 
ATOM      6  C25 <0> d   1      17.764   0.645  14.114  0.00  0.00     0.038 A 
ENDROOT
BRANCH   1   7
ATOM      7  O10 <0> d   1      19.187   0.799  16.013  0.00  0.00    -0.331 OA
BRANCH   7   8
ATOM      8  C7  <0> d   1      18.608   0.343  17.238  0.00  0.00     0.148 C 
ATOM      9  C8  <0> d   1      19.377  -0.881  17.741  0.00  0.00     0.057 C 
ATOM     10  C9  <0> d   1      17.145  -0.037  17.001  0.00  0.00     0.057 C 
BRANCH   8  11
ATOM     11  C5  <0> d   1      18.681   1.441  18.268  0.00  0.00     0.294 C 
ATOM     12  O6  <0> d   1      19.743   1.732  18.765  0.00  0.00    -0.262 OA
BRANCH  11  13
ATOM     13  O4  <0> d   1      17.567   2.094  18.633  0.00  0.00    -0.314 OA
BRANCH  13  14
ATOM     14  C2  <0> d   1      17.714   3.489  19.008  0.00  0.00     0.123 C 
ATOM     15  C1  <0> d   1      17.885   4.340  17.749  0.00  0.00     0.040 C 
ATOM     16  C3  <0> d   1      16.466   3.947  19.767  0.00  0.00     0.040 C 
ENDBRANCH  13  14
ENDBRANCH  11  13
ENDBRANCH   8  11
ENDBRANCH   7   8
ENDBRANCH   1   7
BRANCH   4  17
ATOM     17  C15 <0> d   1      17.652  -1.868  11.331  0.00  0.00     0.192 C 
ATOM     18  O16 <0> d   1      17.036  -2.914  11.401  0.00  0.00    -0.287 OA
BRANCH  17  19
ATOM     19  C17 <0> d   1      17.996  -1.301  10.011  0.00  0.00     0.015 A 
ATOM     20  C23 <0> d   1      19.014  -1.873   9.245  0.00  0.00     0.017 A 
ATOM     21  C22 <0> d   1      19.327  -1.342   8.012  0.00  0.00     0.025 A 
ATOM     22  C20 <0> d   1      18.640  -0.237   7.536  0.00  0.00     0.034 A 
ATOM     23  C19 <0> d   1      17.632   0.339   8.293  0.00  0.00     0.025 A 
ATOM     24 Cl21 <0> d   1      19.043   0.430   5.984  0.00  0.00    -0.084 Cl
ATOM     25  C18 <0> d   1      17.307  -0.186   9.526  0.00  0.00     0.017 A 
ENDBRANCH  17  19
ENDBRANCH   4  17
TORSDOF 7
ENDMDL
MODEL 3
REMARK VINA RESULT:      -7.9      3.918      8.838
REMARK  7 active torsions:
REMARK  status: ('A' for Active; 'I' for Inactive)
REMARK    1  A    between atoms: C2_2  and  O4_4 
REMARK    2  A    between atoms: O4_4  and  C5_5 
REMARK    3  A    between atoms: C5_5  and  C7_7 
REMARK    4  A    between atoms: C7_7  and  O10_10 
REMARK    5  A    between atoms: O10_10  and  C11_11 
REMARK    6  A    between atoms: C14_14  and  C15_15 
REMARK    7  A    between atoms: C15_15  and  C17_17 
ROOT
ATOM      1  C11 <0> d   1      17.967   1.152  10.143  0.00  0.00     0.070 A 
ATOM      2  C12 <0> d   1      18.963   1.865   9.484  0.00  0.00     0.038 A 
ATOM      3  C13 <0> d   1      19.267   1.572   8.173  0.00  0.00     0.018 A 
ATOM      4  C14 <0> d   1      18.575   0.557   7.506  0.00  0.00     0.015 A 
ATOM      5  C24 <0> d   1      17.574  -0.156   8.173  0.00  0.00     0.018 A 
ATOM      6  C25 <0> d   1      17.279   0.138   9.485  0.00  0.00     0.038 A 
ENDROOT
BRANCH   1   7
ATOM      7  O10 <0> d   1      17.669   1.443  11.435  0.00  0.00    -0.331 OA
BRANCH   7   8
ATOM      8  C7  <0> d   1      18.156   0.541  12.431  0.00  0.00     0.148 C 
ATOM      9  C8  <0> d   1      19.648   0.290  12.207  0.00  0.00     0.057 C 
ATOM     10  C9  <0> d   1      17.396  -0.784  12.336  0.00  0.00     0.057 C 
BRANCH   8  11
ATOM     11  C5  <0> d   1      17.948   1.142  13.798  0.00  0.00     0.294 C 
ATOM     12  O6  <0> d   1      18.361   2.251  14.039  0.00  0.00    -0.262 OA
BRANCH  11  13
ATOM     13  O4  <0> d   1      17.304   0.445  14.747  0.00  0.00    -0.314 OA
BRANCH  13  14
ATOM     14  C2  <0> d   1      18.052   0.123  15.950  0.00  0.00     0.123 C 
ATOM     15  C1  <0> d   1      17.079  -0.132  17.103  0.00  0.00     0.040 C 
ATOM     16  C3  <0> d   1      18.894  -1.132  15.707  0.00  0.00     0.040 C 
ENDBRANCH  13  14
ENDBRANCH  11  13
ENDBRANCH   8  11
ENDBRANCH   7   8
ENDBRANCH   1   7
BRANCH   4  17
ATOM     17  C15 <0> d   1      18.899   0.240   6.103  0.00  0.00     0.192 C 
ATOM     18  O16 <0> d   1      19.414   1.081   5.393  0.00  0.00    -0.287 OA
BRANCH  17  19
ATOM     19  C17 <0> d   1      18.596  -1.100   5.559  0.00  0.00     0.015 A 
ATOM     20  C23 <0> d   1      19.332  -2.211   5.980  0.00  0.00     0.017 A 
ATOM     21  C22 <0> d   1      19.041  -3.459   5.472  0.00  0.00     0.025 A 
ATOM     22  C20 <0> d   1      18.029  -3.611   4.539  0.00  0.00     0.034 A 
ATOM     23  C19 <0> d   1      17.299  -2.513   4.112  0.00  0.00     0.025 A 
ATOM     24 Cl21 <0> d   1      17.673  -5.186   3.899  0.00  0.00    -0.084 Cl
ATOM     25  C18 <0> d   1      17.577  -1.261   4.617  0.00  0.00     0.017 A 
ENDBRANCH  17  19
ENDBRANCH   4  17
TORSDOF 7
ENDMDL
MODEL 4
REMARK VINA RESULT:      -7.9      3.932      8.673
REMARK  7 active torsions:
REMARK  status: ('A' for Active; 'I' for Inactive)
REMARK    1  A    between atoms: C2_2  and  O4_4 
REMARK    2  A    between atoms: O4_4  and  C5_5 
REMARK    3  A    between atoms: C5_5  and  C7_7 
REMARK    4  A    between atoms: C7_7  and  O10_10 
REMARK    5  A    between atoms: O10_10  and  C11_11 
REMARK    6  A    between atoms: C14_14  and  C15_15 
REMARK    7  A    between atoms: C15_15  and  C17_17 
ROOT
ATOM      1  C11 <0> d   1      17.964   1.334   9.876  0.00  0.00     0.070 A 
ATOM      2  C12 <0> d   1      18.910   2.065   9.166  0.00  0.00     0.038 A 
ATOM      3  C13 <0> d   1      19.237   1.701   7.878  0.00  0.00     0.018 A 
ATOM      4  C14 <0> d   1      18.616   0.597   7.287  0.00  0.00     0.015 A 
ATOM      5  C24 <0> d   1      17.664  -0.133   8.005  0.00  0.00     0.018 A 
ATOM      6  C25 <0> d   1      17.347   0.233   9.294  0.00  0.00     0.038 A 
ENDROOT
BRANCH   1   7
ATOM      7  O10 <0> d   1      17.644   1.695  11.145  0.00  0.00    -0.331 OA
BRANCH   7   8
ATOM      8  C7  <0> d   1      18.415   1.113  12.198  0.00  0.00     0.148 C 
ATOM      9  C8  <0> d   1      19.068   2.222  13.026  0.00  0.00     0.057 C 
ATOM     10  C9  <0> d   1      19.502   0.217  11.600  0.00  0.00     0.057 C 
BRANCH   8  11
ATOM     11  C5  <0> d   1      17.516   0.288  13.084  0.00  0.00     0.294 C 
ATOM     12  O6  <0> d   1      16.786  -0.542  12.596  0.00  0.00    -0.262 OA
BRANCH  11  13
ATOM     13  O4  <0> d   1      17.526   0.476  14.412  0.00  0.00    -0.314 OA
BRANCH  13  14
ATOM     14  C2  <0> d   1      17.752  -0.694  15.242  0.00  0.00     0.123 C 
ATOM     15  C1  <0> d   1      19.227  -1.092  15.172  0.00  0.00     0.040 C 
ATOM     16  C3  <0> d   1      17.379  -0.371  16.691  0.00  0.00     0.040 C 
ENDBRANCH  13  14
ENDBRANCH  11  13
ENDBRANCH   8  11
ENDBRANCH   7   8
ENDBRANCH   1   7
BRANCH   4  17
ATOM     17  C15 <0> d   1      18.964   0.204   5.908  0.00  0.00     0.192 C 
ATOM     18  O16 <0> d   1      19.564   0.978   5.188  0.00  0.00    -0.287 OA
BRANCH  17  19
ATOM     19  C17 <0> d   1      18.582  -1.130   5.401  0.00  0.00     0.015 A 
ATOM     20  C23 <0> d   1      17.549  -1.258   4.470  0.00  0.00     0.017 A 
ATOM     21  C22 <0> d   1      17.201  -2.506   3.998  0.00  0.00     0.025 A 
ATOM     22  C20 <0> d   1      17.867  -3.632   4.453  0.00  0.00     0.034 A 
ATOM     23  C19 <0> d   1      18.890  -3.513   5.381  0.00  0.00     0.025 A 
ATOM     24 Cl21 <0> d   1      17.420  -5.201   3.857  0.00  0.00    -0.084 Cl
ATOM     25  C18 <0> d   1      19.250  -2.270   5.856  0.00  0.00     0.017 A 
ENDBRANCH  17  19
ENDBRANCH   4  17
TORSDOF 7
ENDMDL
MODEL 5
REMARK VINA RESULT:      -7.9      3.950      5.375
REMARK  7 active torsions:
REMARK  status: ('A' for Active; 'I' for Inactive)
REMARK    1  A    between atoms: C2_2  and  O4_4 
REMARK    2  A    between atoms: O4_4  and  C5_5 
REMARK    3  A    between atoms: C5_5  and  C7_7 
REMARK    4  A    between atoms: C7_7  and  O10_10 
REMARK    5  A    between atoms: O10_10  and  C11_11 
REMARK    6  A    between atoms: C14_14  and  C15_15 
REMARK    7  A    between atoms: C15_15  and  C17_17 
ROOT
ATOM      1  C11 <0> d   1      18.106  -5.097  10.687  0.00  0.00     0.070 A 
ATOM      2  C12 <0> d   1      19.462  -4.806  10.788  0.00  0.00     0.038 A 
ATOM      3  C13 <0> d   1      19.871  -3.600  11.312  0.00  0.00     0.018 A 
ATOM      4  C14 <0> d   1      18.921  -2.669  11.743  0.00  0.00     0.015 A 
ATOM      5  C24 <0> d   1      17.559  -2.967  11.640  0.00  0.00     0.018 A 
ATOM      6  C25 <0> d   1      17.158  -4.172  11.109  0.00  0.00     0.038 A 
ENDROOT
BRANCH   1   7
ATOM      7  O10 <0> d   1      17.706  -6.286  10.169  0.00  0.00    -0.331 OA
BRANCH   7   8
ATOM      8  C7  <0> d   1      17.139  -6.265   8.857  0.00  0.00     0.148 C 
ATOM      9  C8  <0> d   1      15.871  -5.410   8.863  0.00  0.00     0.057 C 
ATOM     10  C9  <0> d   1      16.789  -7.693   8.429  0.00  0.00     0.057 C 
BRANCH   8  11
ATOM     11  C5  <0> d   1      18.135  -5.680   7.888  0.00  0.00     0.294 C 
ATOM     12  O6  <0> d   1      19.149  -6.283   7.628  0.00  0.00    -0.262 OA
BRANCH  11  13
ATOM     13  O4  <0> d   1      17.895  -4.491   7.315  0.00  0.00    -0.314 OA
BRANCH  13  14
ATOM     14  C2  <0> d   1      18.963  -3.508   7.365  0.00  0.00     0.123 C 
ATOM     15  C1  <0> d   1      19.410  -3.168   5.942  0.00  0.00     0.040 C 
ATOM     16  C3  <0> d   1      18.456  -2.240   8.057  0.00  0.00     0.040 C 
ENDBRANCH  13  14
ENDBRANCH  11  13
ENDBRANCH   8  11
ENDBRANCH   7   8
ENDBRANCH   1   7
BRANCH   4  17
ATOM     17  C15 <0> d   1      19.355  -1.376  12.305  0.00  0.00     0.192 C 
ATOM     18  O16 <0> d   1      20.119  -0.667  11.679  0.00  0.00    -0.287 OA
BRANCH  17  19
ATOM     19  C17 <0> d   1      18.863  -0.943  13.629  0.00  0.00     0.015 A 
ATOM     20  C23 <0> d   1      17.914   0.077  13.725  0.00  0.00     0.017 A 
ATOM     21  C22 <0> d   1      17.455   0.473  14.964  0.00  0.00     0.025 A 
ATOM     22  C20 <0> d   1      17.941  -0.132  16.111  0.00  0.00     0.034 A 
ATOM     23  C19 <0> d   1      18.887  -1.140  16.023  0.00  0.00     0.025 A 
ATOM     24 Cl21 <0> d   1      17.363   0.376  17.668  0.00  0.00    -0.084 Cl
ATOM     25  C18 <0> d   1      19.350  -1.549  14.790  0.00  0.00     0.017 A 
ENDBRANCH  17  19
ENDBRANCH   4  17
TORSDOF 7
ENDMDL
MODEL 6
REMARK VINA RESULT:      -7.8      3.637      8.887
REMARK  7 active torsions:
REMARK  status: ('A' for Active; 'I' for Inactive)
REMARK    1  A    between atoms: C2_2  and  O4_4 
REMARK    2  A    between atoms: O4_4  and  C5_5 
REMARK    3  A    between atoms: C5_5  and  C7_7 
REMARK    4  A    between atoms: C7_7  and  O10_10 
REMARK    5  A    between atoms: O10_10  and  C11_11 
REMARK    6  A    between atoms: C14_14  and  C15_15 
REMARK    7  A    between atoms: C15_15  and  C17_17 
ROOT
ATOM      1  C11 <0> d   1      17.773   1.279  10.034  0.00  0.00     0.070 A 
ATOM      2  C12 <0> d   1      17.228   0.152   9.427  0.00  0.00     0.038 A 
ATOM      3  C13 <0> d   1      17.600  -0.187   8.145  0.00  0.00     0.018 A 
ATOM      4  C14 <0> d   1      18.525   0.603   7.455  0.00  0.00     0.015 A 
ATOM      5  C24 <0> d   1      19.070   1.734   8.070  0.00  0.00     0.018 A 
ATOM      6  C25 <0> d   1      18.689   2.070   9.351  0.00  0.00     0.038 A 
ENDROOT
BRANCH   1   7
ATOM      7  O10 <0> d   1      17.404   1.611  11.298  0.00  0.00    -0.331 OA
BRANCH   7   8
ATOM      8  C7  <0> d   1      18.127   0.996  12.367  0.00  0.00     0.148 C 
ATOM      9  C8  <0> d   1      19.508   0.567  11.868  0.00  0.00     0.057 C 
ATOM     10  C9  <0> d   1      17.360  -0.232  12.862  0.00  0.00     0.057 C 
BRANCH   8  11
ATOM     11  C5  <0> d   1      18.285   1.979  13.498  0.00  0.00     0.294 C 
ATOM     12  O6  <0> d   1      18.909   1.669  14.484  0.00  0.00    -0.262 OA
BRANCH  11  13
ATOM     13  O4  <0> d   1      17.731   3.198  13.411  0.00  0.00    -0.314 OA
BRANCH  13  14
ATOM     14  C2  <0> d   1      18.623   4.338  13.535  0.00  0.00     0.123 C 
ATOM     15  C1  <0> d   1      19.483   4.453  12.276  0.00  0.00     0.040 C 
ATOM     16  C3  <0> d   1      17.797   5.615  13.707  0.00  0.00     0.040 C 
ENDBRANCH  13  14
ENDBRANCH  11  13
ENDBRANCH   8  11
ENDBRANCH   7   8
ENDBRANCH   1   7
BRANCH   4  17
ATOM     17  C15 <0> d   1      18.924   0.243   6.082  0.00  0.00     0.192 C 
ATOM     18  O16 <0> d   1      19.520   1.047   5.391  0.00  0.00    -0.287 OA
BRANCH  17  19
ATOM     19  C17 <0> d   1      18.600  -1.094   5.544  0.00  0.00     0.015 A 
ATOM     20  C23 <0> d   1      17.548  -1.251   4.638  0.00  0.00     0.017 A 
ATOM     21  C22 <0> d   1      17.254  -2.501   4.137  0.00  0.00     0.025 A 
ATOM     22  C20 <0> d   1      17.993  -3.602   4.538  0.00  0.00     0.034 A 
ATOM     23  C19 <0> d   1      19.034  -3.455   5.441  0.00  0.00     0.025 A 
ATOM     24 Cl21 <0> d   1      17.613  -5.175   3.907  0.00  0.00    -0.084 Cl
ATOM     25  C18 <0> d   1      19.341  -2.210   5.945  0.00  0.00     0.017 A 
ENDBRANCH  17  19
ENDBRANCH   4  17
TORSDOF 7
ENDMDL
MODEL 7
REMARK VINA RESULT:      -7.8      2.286      3.398
REMARK  7 active torsions:
REMARK  status: ('A' for Active; 'I' for Inactive)
REMARK    1  A    between atoms: C2_2  and  O4_4 
REMARK    2  A    between atoms: O4_4  and  C5_5 
REMARK    3  A    between atoms: C5_5  and  C7_7 
REMARK    4  A    between atoms: C7_7  and  O10_10 
REMARK    5  A    between atoms: O10_10  and  C11_11 
REMARK    6  A    between atoms: C14_14  and  C15_15 
REMARK    7  A    between atoms: C15_15  and  C17_17 
ROOT
ATOM      1  C11 <0> d   1      19.106   0.535   9.309  0.00  0.00     0.070 A 
ATOM      2  C12 <0> d   1      18.405   0.666  10.503  0.00  0.00     0.038 A 
ATOM      3  C13 <0> d   1      17.976   1.908  10.917  0.00  0.00     0.018 A 
ATOM      4  C14 <0> d   1      18.247   3.035  10.136  0.00  0.00     0.015 A 
ATOM      5  C24 <0> d   1      18.952   2.897   8.936  0.00  0.00     0.018 A 
ATOM      6  C25 <0> d   1      19.382   1.653   8.531  0.00  0.00     0.038 A 
ENDROOT
BRANCH   1   7
ATOM      7  O10 <0> d   1      19.527  -0.691   8.904  0.00  0.00    -0.331 OA
BRANCH   7   8
ATOM      8  C7  <0> d   1      18.627  -1.451   8.096  0.00  0.00     0.148 C 
ATOM      9  C8  <0> d   1      19.252  -1.689   6.720  0.00  0.00     0.057 C 
ATOM     10  C9  <0> d   1      17.313  -0.682   7.933  0.00  0.00     0.057 C 
BRANCH   8  11
ATOM     11  C5  <0> d   1      18.353  -2.777   8.759  0.00  0.00     0.294 C 
ATOM     12  O6  <0> d   1      18.886  -3.779   8.346  0.00  0.00    -0.262 OA
BRANCH  11  13
ATOM     13  O4  <0> d   1      17.518  -2.844   9.807  0.00  0.00    -0.314 OA
BRANCH  13  14
ATOM     14  C2  <0> d   1      17.944  -3.647  10.940  0.00  0.00     0.123 C 
ATOM     15  C1  <0> d   1      18.252  -2.732  12.127  0.00  0.00     0.040 C 
ATOM     16  C3  <0> d   1      16.828  -4.621  11.324  0.00  0.00     0.040 C 
ENDBRANCH  13  14
ENDBRANCH  11  13
ENDBRANCH   8  11
ENDBRANCH   7   8
ENDBRANCH   1   7
BRANCH   4  17
ATOM     17  C15 <0> d   1      17.791   4.367  10.577  0.00  0.00     0.192 C 
ATOM     18  O16 <0> d   1      17.188   5.089   9.806  0.00  0.00    -0.287 OA
BRANCH  17  19
ATOM     19  C17 <0> d   1      18.065   4.823  11.955  0.00  0.00     0.015 A 
ATOM     20  C23 <0> d   1      19.366   4.778  12.463  0.00  0.00     0.017 A 
ATOM     21  C22 <0> d   1      19.616   5.210  13.748  0.00  0.00     0.025 A 
ATOM     22  C20 <0> d   1      18.579   5.679  14.538  0.00  0.00     0.034 A 
ATOM     23  C19 <0> d   1      17.286   5.720  14.043  0.00  0.00     0.025 A 
ATOM     24 Cl21 <0> d   1      18.901   6.216  16.158  0.00  0.00    -0.084 Cl
ATOM     25  C18 <0> d   1      17.024   5.296  12.758  0.00  0.00     0.017 A 
ENDBRANCH  17  19
ENDBRANCH   4  17
TORSDOF 7
ENDMDL
MODEL 8
REMARK VINA RESULT:      -7.8      3.962      8.017
REMARK  7 active torsions:
REMARK  status: ('A' for Active; 'I' for Inactive)
REMARK    1  A    between atoms: C2_2  and  O4_4 
REMARK    2  A    between atoms: O4_4  and  C5_5 
REMARK    3  A    between atoms: C5_5  and  C7_7 
REMARK    4  A    between atoms: C7_7  and  O10_10 
REMARK    5  A    between atoms: O10_10  and  C11_11 
REMARK    6  A    between atoms: C14_14  and  C15_15 
REMARK    7  A    between atoms: C15_15  and  C17_17 
ROOT
ATOM      1  C11 <0> d   1      17.961   1.233   9.628  0.00  0.00     0.070 A 
ATOM      2  C12 <0> d   1      19.016   1.823   8.940  0.00  0.00     0.038 A 
ATOM      3  C13 <0> d   1      19.322   1.411   7.662  0.00  0.00     0.018 A 
ATOM      4  C14 <0> d   1      18.569   0.399   7.057  0.00  0.00     0.015 A 
ATOM      5  C24 <0> d   1      17.509  -0.189   7.752  0.00  0.00     0.018 A 
ATOM      6  C25 <0> d   1      17.213   0.224   9.032  0.00  0.00     0.038 A 
ENDROOT
BRANCH   1   7
ATOM      7  O10 <0> d   1      17.663   1.642  10.888  0.00  0.00    -0.331 OA
BRANCH   7   8
ATOM      8  C7  <0> d   1      18.245   0.904  11.964  0.00  0.00     0.148 C 
ATOM      9  C8  <0> d   1      18.092   1.693  13.265  0.00  0.00     0.057 C 
ATOM     10  C9  <0> d   1      19.731   0.674  11.679  0.00  0.00     0.057 C 
BRANCH   8  11
ATOM     11  C5  <0> d   1      17.548  -0.426  12.097  0.00  0.00     0.294 C 
ATOM     12  O6  <0> d   1      16.342  -0.472  12.149  0.00  0.00    -0.262 OA
BRANCH  11  13
ATOM     13  O4  <0> d   1      18.267  -1.558  12.159  0.00  0.00    -0.314 OA
BRANCH  13  14
ATOM     14  C2  <0> d   1      17.954  -2.591  11.187  0.00  0.00     0.123 C 
ATOM     15  C1  <0> d   1      19.060  -2.651  10.132  0.00  0.00     0.040 C 
ATOM     16  C3  <0> d   1      17.853  -3.944  11.897  0.00  0.00     0.040 C 
ENDBRANCH  13  14
ENDBRANCH  11  13
ENDBRANCH   8  11
ENDBRANCH   7   8
ENDBRANCH   1   7
BRANCH   4  17
ATOM     17  C15 <0> d   1      18.894  -0.045   5.689  0.00  0.00     0.192 C 
ATOM     18  O16 <0> d   1      19.480   0.701   4.930  0.00  0.00    -0.287 OA
BRANCH  17  19
ATOM     19  C17 <0> d   1      18.506  -1.399   5.240  0.00  0.00     0.015 A 
ATOM     20  C23 <0> d   1      19.185  -2.520   5.722  0.00  0.00     0.017 A 
ATOM     21  C22 <0> d   1      18.815  -3.780   5.303  0.00  0.00     0.025 A 
ATOM     22  C20 <0> d   1      17.778  -3.934   4.397  0.00  0.00     0.034 A 
ATOM     23  C19 <0> d   1      17.104  -2.826   3.910  0.00  0.00     0.025 A 
ATOM     24 Cl21 <0> d   1      17.321  -5.524   3.869  0.00  0.00    -0.084 Cl
ATOM     25  C18 <0> d   1      17.461  -1.561   4.326  0.00  0.00     0.017 A 
ENDBRANCH  17  19
ENDBRANCH   4  17
TORSDOF 7
ENDMDL
MODEL 9
REMARK VINA RESULT:      -7.7      1.755      2.122
REMARK  7 active torsions:
REMARK  status: ('A' for Active; 'I' for Inactive)
REMARK    1  A    between atoms: C2_2  and  O4_4 
REMARK    2  A    between atoms: O4_4  and  C5_5 
REMARK    3  A    between atoms: C5_5  and  C7_7 
REMARK    4  A    between atoms: C7_7  and  O10_10 
REMARK    5  A    between atoms: O10_10  and  C11_11 
REMARK    6  A    between atoms: C14_14  and  C15_15 
REMARK    7  A    between atoms: C15_15  and  C17_17 
ROOT
ATOM      1  C11 <0> d   1      18.601  -0.260   8.556  0.00  0.00     0.070 A 
ATOM      2  C12 <0> d   1      19.631   0.377   9.239  0.00  0.00     0.038 A 
ATOM      3  C13 <0> d   1      19.371   1.041  10.416  0.00  0.00     0.018 A 
ATOM      4  C14 <0> d   1      18.068   1.075  10.924  0.00  0.00     0.015 A 
ATOM      5  C24 <0> d   1      17.036   0.432  10.234  0.00  0.00     0.018 A 
ATOM      6  C25 <0> d   1      17.304  -0.226   9.055  0.00  0.00     0.038 A 
ENDROOT
BRANCH   1   7
ATOM      7  O10 <0> d   1      18.861  -0.915   7.395  0.00  0.00    -0.331 OA
BRANCH   7   8
ATOM      8  C7  <0> d   1      18.465  -0.269   6.184  0.00  0.00     0.148 C 
ATOM      9  C8  <0> d   1      19.090   1.126   6.120  0.00  0.00     0.057 C 
ATOM     10  C9  <0> d   1      16.940  -0.145   6.147  0.00  0.00     0.057 C 
BRANCH   8  11
ATOM     11  C5  <0> d   1      18.931  -1.083   5.004  0.00  0.00     0.294 C 
ATOM     12  O6  <0> d   1      20.041  -0.916   4.557  0.00  0.00    -0.262 OA
BRANCH  11  13
ATOM     13  O4  <0> d   1      18.113  -1.992   4.450  0.00  0.00    -0.314 OA
BRANCH  13  14
ATOM     14  C2  <0> d   1      18.624  -3.345   4.318  0.00  0.00     0.123 C 
ATOM     15  C1  <0> d   1      18.695  -4.000   5.699  0.00  0.00     0.040 C 
ATOM     16  C3  <0> d   1      17.692  -4.156   3.415  0.00  0.00     0.040 C 
ENDBRANCH  13  14
ENDBRANCH  11  13
ENDBRANCH   8  11
ENDBRANCH   7   8
ENDBRANCH   1   7
BRANCH   4  17
ATOM     17  C15 <0> d   1      17.785   1.787  12.185  0.00  0.00     0.192 C 
ATOM     18  O16 <0> d   1      17.270   2.887  12.159  0.00  0.00    -0.287 OA
BRANCH  17  19
ATOM     19  C17 <0> d   1      18.128   1.162  13.479  0.00  0.00     0.015 A 
ATOM     20  C23 <0> d   1      18.647   1.938  14.517  0.00  0.00     0.017 A 
ATOM     21  C22 <0> d   1      18.961   1.350  15.724  0.00  0.00     0.025 A 
ATOM     22  C20 <0> d   1      18.770  -0.010  15.904  0.00  0.00     0.034 A 
ATOM     23  C19 <0> d   1      18.261  -0.788  14.877  0.00  0.00     0.025 A 
ATOM     24 Cl21 <0> d   1      19.173  -0.745  17.425  0.00  0.00    -0.084 Cl
ATOM     25  C18 <0> d   1      17.939  -0.210  13.667  0.00  0.00     0.017 A 
ENDBRANCH  17  19
ENDBRANCH   4  17
TORSDOF 7
ENDMDL
