MODEL 1
REMARK VINA RESULT:      -7.8      0.000      0.000
REMARK  2 active torsions:
REMARK  status: ('A' for Active; 'I' for Inactive)
REMARK    1  A    between atoms: C4_4  and  C5_5 
REMARK       I    between atoms: C5_5  and  N7_7 
REMARK    2  A    between atoms: N7_7  and  C8_8 
ROOT
ATOM      1  C5  ZIN A   1      19.256  -0.153  11.196  0.00  0.00     0.273 C 
ATOM      2  O6  ZIN A   1      20.055   0.754  11.340  0.00  0.00    -0.266 OA
ATOM      3  N7  ZIN A   1      18.515  -0.571  12.242  0.00  0.00    -0.351 N 
ATOM      4  H29 ZIN A   1      17.878  -1.294  12.126  0.00  0.00     0.163 HD
ENDROOT
BRANCH   1   5
ATOM      5  C4  ZIN A   1      19.099  -0.794   9.878  0.00  0.00     0.157 A 
ATOM      6  N3  ZIN A   1      18.979  -2.082   9.637  0.00  0.00    -0.166 NA
ATOM      7  N2  ZIN A   1      18.858  -2.327   8.383  0.00  0.00    -0.273 N 
ATOM      8  C1  ZIN A   1      18.709  -3.668   7.813  0.00  0.00     0.180 C 
ATOM      9  C25 ZIN A   1      18.891  -1.172   7.645  0.00  0.00     0.065 A 
ATOM     10  C20 ZIN A   1      19.043  -0.122   8.573  0.00  0.00     0.028 A 
ATOM     11  C24 ZIN A   1      18.798  -0.873   6.290  0.00  0.00     0.032 A 
ATOM     12  C21 ZIN A   1      19.108   1.195   8.132  0.00  0.00     0.016 A 
ATOM     13  C22 ZIN A   1      19.019   1.467   6.794  0.00  0.00     0.001 A 
ATOM     14  C23 ZIN A   1      18.864   0.437   5.875  0.00  0.00     0.002 A 
ENDBRANCH   1   5
BRANCH   3  15
ATOM     15  C8  ZIN A   1      18.672   0.070  13.558  0.00  0.00     0.088 C 
ATOM     16  C17 ZIN A   1      19.613  -0.779  14.407  0.00  0.00     0.050 C 
ATOM     17  C15 ZIN A   1      19.626  -0.330  15.865  0.00  0.00     0.081 C 
ATOM     18  C14 ZIN A   1      19.113  -1.483  16.743  0.00  0.00     0.025 C 
ATOM     19  N18 ZIN A   1      18.776   0.827  16.084  0.00  0.00    -0.408 N 
ATOM     20  C13 ZIN A   1      17.653  -1.776  16.394  0.00  0.00     0.004 C 
ATOM     21  C12 ZIN A   1      16.808  -0.510  16.549  0.00  0.00     0.025 C 
ATOM     22  C10 ZIN A   1      17.399   0.608  15.675  0.00  0.00     0.081 C 
ATOM     23  C9  ZIN A   1      17.299   0.195  14.210  0.00  0.00     0.050 C 
ATOM     24  C19 ZIN A   1      19.347   2.118  15.770  0.00  0.00     0.144 C 
ENDBRANCH   3  15
TORSDOF 2
ENDMDL
MODEL 2
REMARK VINA RESULT:      -7.8      2.213      7.547
REMARK  2 active torsions:
REMARK  status: ('A' for Active; 'I' for Inactive)
REMARK    1  A    between atoms: C4_4  and  C5_5 
REMARK       I    between atoms: C5_5  and  N7_7 
REMARK    2  A    between atoms: N7_7  and  C8_8 
ROOT
ATOM      1  C5  ZIN A   1      18.804   0.495  13.002  0.00  0.00     0.273 C 
ATOM      2  O6  ZIN A   1      18.586   1.121  11.982  0.00  0.00    -0.266 OA
ATOM      3  N7  ZIN A   1      18.954  -0.844  12.952  0.00  0.00    -0.351 N 
ATOM      4  H29 ZIN A   1      19.127  -1.343  13.765  0.00  0.00     0.163 HD
ENDROOT
BRANCH   1   5
ATOM      5  C4  ZIN A   1      18.902   1.200  14.293  0.00  0.00     0.157 A 
ATOM      6  N3  ZIN A   1      18.937   2.501  14.480  0.00  0.00    -0.166 NA
ATOM      7  N2  ZIN A   1      19.025   2.806  15.724  0.00  0.00    -0.273 N 
ATOM      8  C1  ZIN A   1      19.084   4.176  16.238  0.00  0.00     0.180 C 
ATOM      9  C25 ZIN A   1      19.062   1.682  16.509  0.00  0.00     0.065 A 
ATOM     10  C20 ZIN A   1      18.979   0.587  15.627  0.00  0.00     0.028 A 
ATOM     11  C24 ZIN A   1      19.142   1.447  17.878  0.00  0.00     0.032 A 
ATOM     12  C21 ZIN A   1      18.989  -0.712  16.122  0.00  0.00     0.016 A 
ATOM     13  C22 ZIN A   1      19.074  -0.921  17.471  0.00  0.00     0.001 A 
ATOM     14  C23 ZIN A   1      19.150   0.154  18.347  0.00  0.00     0.002 A 
ENDBRANCH   1   5
BRANCH   3  15
ATOM     15  C8  ZIN A   1      18.855  -1.548  11.662  0.00  0.00     0.088 C 
ATOM     16  C17 ZIN A   1      17.448  -2.117  11.521  0.00  0.00     0.050 C 
ATOM     17  C15 ZIN A   1      17.337  -3.077  10.341  0.00  0.00     0.081 C 
ATOM     18  C14 ZIN A   1      16.967  -4.472  10.869  0.00  0.00     0.025 C 
ATOM     19  N18 ZIN A   1      18.586  -3.181   9.607  0.00  0.00    -0.408 N 
ATOM     20  C13 ZIN A   1      18.100  -4.999  11.750  0.00  0.00     0.004 C 
ATOM     21  C12 ZIN A   1      19.416  -5.006  10.970  0.00  0.00     0.025 C 
ATOM     22  C10 ZIN A   1      19.704  -3.592  10.441  0.00  0.00     0.081 C 
ATOM     23  C9  ZIN A   1      19.906  -2.653  11.625  0.00  0.00     0.050 C 
ATOM     24  C19 ZIN A   1      18.853  -2.147   8.632  0.00  0.00     0.144 C 
ENDBRANCH   3  15
TORSDOF 2
ENDMDL
MODEL 3
REMARK VINA RESULT:      -7.7      3.221      4.244
REMARK  2 active torsions:
REMARK  status: ('A' for Active; 'I' for Inactive)
REMARK    1  A    between atoms: C4_4  and  C5_5 
REMARK       I    between atoms: C5_5  and  N7_7 
REMARK    2  A    between atoms: N7_7  and  C8_8 
ROOT
ATOM      1  C5  ZIN A   1      17.688   2.620  11.545  0.00  0.00     0.273 C 
ATOM      2  O6  ZIN A   1      16.913   3.456  11.121  0.00  0.00    -0.266 OA
ATOM      3  N7  ZIN A   1      18.396   2.864  12.666  0.00  0.00    -0.351 N 
ATOM      4  H29 ZIN A   1      19.015   2.197  13.004  0.00  0.00     0.163 HD
ENDROOT
BRANCH   1   5
ATOM      5  C4  ZIN A   1      17.855   1.340  10.832  0.00  0.00     0.157 A 
ATOM      6  N3  ZIN A   1      17.621   0.136  11.308  0.00  0.00    -0.166 NA
ATOM      7  N2  ZIN A   1      17.862  -0.778  10.439  0.00  0.00    -0.273 N 
ATOM      8  C1  ZIN A   1      17.695  -2.213  10.682  0.00  0.00     0.180 C 
ATOM      9  C25 ZIN A   1      18.300  -0.239   9.258  0.00  0.00     0.065 A 
ATOM     10  C20 ZIN A   1      18.314   1.157   9.448  0.00  0.00     0.028 A 
ATOM     11  C24 ZIN A   1      18.682  -0.760   8.026  0.00  0.00     0.032 A 
ATOM     12  C21 ZIN A   1      18.714   1.999   8.416  0.00  0.00     0.016 A 
ATOM     13  C22 ZIN A   1      19.090   1.465   7.215  0.00  0.00     0.001 A 
ATOM     14  C23 ZIN A   1      19.075   0.091   7.018  0.00  0.00     0.002 A 
ENDBRANCH   1   5
BRANCH   3  15
ATOM     15  C8  ZIN A   1      18.230   4.142  13.378  0.00  0.00     0.088 C 
ATOM     16  C17 ZIN A   1      19.568   4.873  13.392  0.00  0.00     0.050 C 
ATOM     17  C15 ZIN A   1      19.551   6.077  14.329  0.00  0.00     0.081 C 
ATOM     18  C14 ZIN A   1      20.587   5.855  15.442  0.00  0.00     0.025 C 
ATOM     19  N18 ZIN A   1      18.249   6.265  14.944  0.00  0.00    -0.408 N 
ATOM     20  C13 ZIN A   1      20.177   4.646  16.284  0.00  0.00     0.004 C 
ATOM     21  C12 ZIN A   1      18.765   4.843  16.839  0.00  0.00     0.025 C 
ATOM     22  C10 ZIN A   1      17.791   5.097  15.677  0.00  0.00     0.081 C 
ATOM     23  C9  ZIN A   1      17.741   3.855  14.794  0.00  0.00     0.050 C 
ATOM     24  C19 ZIN A   1      17.257   6.967  14.161  0.00  0.00     0.144 C 
ENDBRANCH   3  15
TORSDOF 2
ENDMDL
MODEL 4
REMARK VINA RESULT:      -7.7      3.359      4.851
REMARK  2 active torsions:
REMARK  status: ('A' for Active; 'I' for Inactive)
REMARK    1  A    between atoms: C4_4  and  C5_5 
REMARK       I    between atoms: C5_5  and  N7_7 
REMARK    2  A    between atoms: N7_7  and  C8_8 
ROOT
ATOM      1  C5  ZIN A   1      17.737   3.137  11.307  0.00  0.00     0.273 C 
ATOM      2  O6  ZIN A   1      16.803   3.892  11.112  0.00  0.00    -0.266 OA
ATOM      3  N7  ZIN A   1      18.568   3.348  12.347  0.00  0.00    -0.351 N 
ATOM      4  H29 ZIN A   1      19.313   2.746  12.503  0.00  0.00     0.163 HD
ENDROOT
BRANCH   1   5
ATOM      5  C4  ZIN A   1      17.961   1.993  10.404  0.00  0.00     0.157 A 
ATOM      6  N3  ZIN A   1      18.343   2.045   9.146  0.00  0.00    -0.166 NA
ATOM      7  N2  ZIN A   1      18.450   0.874   8.629  0.00  0.00    -0.273 N 
ATOM      8  C1  ZIN A   1      18.855   0.616   7.245  0.00  0.00     0.180 C 
ATOM      9  C25 ZIN A   1      18.131  -0.102   9.537  0.00  0.00     0.065 A 
ATOM     10  C20 ZIN A   1      17.804   0.569  10.732  0.00  0.00     0.028 A 
ATOM     11  C24 ZIN A   1      18.089  -1.492   9.506  0.00  0.00     0.032 A 
ATOM     12  C21 ZIN A   1      17.434  -0.153  11.861  0.00  0.00     0.016 A 
ATOM     13  C22 ZIN A   1      17.394  -1.520  11.807  0.00  0.00     0.001 A 
ATOM     14  C23 ZIN A   1      17.720  -2.188  10.634  0.00  0.00     0.002 A 
ENDBRANCH   1   5
BRANCH   3  15
ATOM     15  C8  ZIN A   1      18.344   4.491  13.249  0.00  0.00     0.088 C 
ATOM     16  C17 ZIN A   1      19.679   5.181  13.504  0.00  0.00     0.050 C 
ATOM     17  C15 ZIN A   1      19.583   6.210  14.627  0.00  0.00     0.081 C 
ATOM     18  C14 ZIN A   1      20.513   5.783  15.773  0.00  0.00     0.025 C 
ATOM     19  N18 ZIN A   1      18.232   6.318  15.148  0.00  0.00    -0.408 N 
ATOM     20  C13 ZIN A   1      20.023   4.458  16.358  0.00  0.00     0.004 C 
ATOM     21  C12 ZIN A   1      18.567   4.587  16.812  0.00  0.00     0.025 C 
ATOM     22  C10 ZIN A   1      17.704   5.053  15.629  0.00  0.00     0.081 C 
ATOM     23  C9  ZIN A   1      17.728   3.979  14.546  0.00  0.00     0.050 C 
ATOM     24  C19 ZIN A   1      17.318   7.162  14.410  0.00  0.00     0.144 C 
ENDBRANCH   3  15
TORSDOF 2
ENDMDL
MODEL 5
REMARK VINA RESULT:      -7.5      2.848      6.401
REMARK  2 active torsions:
REMARK  status: ('A' for Active; 'I' for Inactive)
REMARK    1  A    between atoms: C4_4  and  C5_5 
REMARK       I    between atoms: C5_5  and  N7_7 
REMARK    2  A    between atoms: N7_7  and  C8_8 
ROOT
ATOM      1  C5  ZIN A   1      19.453  -0.678  11.172  0.00  0.00     0.273 C 
ATOM      2  O6  ZIN A   1      20.520  -0.822  10.605  0.00  0.00    -0.266 OA
ATOM      3  N7  ZIN A   1      18.533  -1.662  11.134  0.00  0.00    -0.351 N 
ATOM      4  H29 ZIN A   1      17.682  -1.547  11.586  0.00  0.00     0.163 HD
ENDROOT
BRANCH   1   5
ATOM      5  C4  ZIN A   1      19.166   0.573  11.897  0.00  0.00     0.157 A 
ATOM      6  N3  ZIN A   1      19.209   0.757  13.199  0.00  0.00    -0.166 NA
ATOM      7  N2  ZIN A   1      18.906   1.962  13.524  0.00  0.00    -0.273 N 
ATOM      8  C1  ZIN A   1      18.867   2.462  14.900  0.00  0.00     0.180 C 
ATOM      9  C25 ZIN A   1      18.618   2.717  12.417  0.00  0.00     0.065 A 
ATOM     10  C20 ZIN A   1      18.776   1.861  11.309  0.00  0.00     0.028 A 
ATOM     11  C24 ZIN A   1      18.250   4.042  12.205  0.00  0.00     0.032 A 
ATOM     12  C21 ZIN A   1      18.555   2.338  10.021  0.00  0.00     0.016 A 
ATOM     13  C22 ZIN A   1      18.189   3.643   9.836  0.00  0.00     0.001 A 
ATOM     14  C23 ZIN A   1      18.037   4.493  10.923  0.00  0.00     0.002 A 
ENDBRANCH   1   5
BRANCH   3  15
ATOM     15  C8  ZIN A   1      18.820  -2.912  10.410  0.00  0.00     0.088 C 
ATOM     16  C17 ZIN A   1      17.868  -3.019   9.223  0.00  0.00     0.050 C 
ATOM     17  C15 ZIN A   1      17.920  -4.399   8.574  0.00  0.00     0.081 C 
ATOM     18  C14 ZIN A   1      16.537  -5.057   8.697  0.00  0.00     0.025 C 
ATOM     19  N18 ZIN A   1      18.898  -5.262   9.213  0.00  0.00    -0.408 N 
ATOM     20  C13 ZIN A   1      16.213  -5.286  10.174  0.00  0.00     0.004 C 
ATOM     21  C12 ZIN A   1      17.313  -6.122  10.833  0.00  0.00     0.025 C 
ATOM     22  C10 ZIN A   1      18.669  -5.425  10.639  0.00  0.00     0.081 C 
ATOM     23  C9  ZIN A   1      18.645  -4.086  11.368  0.00  0.00     0.050 C 
ATOM     24  C19 ZIN A   1      20.273  -5.105   8.792  0.00  0.00     0.144 C 
ENDBRANCH   3  15
TORSDOF 2
ENDMDL
MODEL 6
REMARK VINA RESULT:      -7.3      2.594      7.695
REMARK  2 active torsions:
REMARK  status: ('A' for Active; 'I' for Inactive)
REMARK    1  A    between atoms: C4_4  and  C5_5 
REMARK       I    between atoms: C5_5  and  N7_7 
REMARK    2  A    between atoms: N7_7  and  C8_8 
ROOT
ATOM      1  C5  ZIN A   1      18.029  -1.814  11.571  0.00  0.00     0.273 C 
ATOM      2  O6  ZIN A   1      17.005  -2.401  11.863  0.00  0.00    -0.266 OA
ATOM      3  N7  ZIN A   1      18.826  -2.294  10.595  0.00  0.00    -0.351 N 
ATOM      4  H29 ZIN A   1      19.643  -1.826  10.362  0.00  0.00     0.163 HD
ENDROOT
BRANCH   1   5
ATOM      5  C4  ZIN A   1      18.401  -0.579  12.285  0.00  0.00     0.157 A 
ATOM      6  N3  ZIN A   1      18.647   0.597  11.750  0.00  0.00    -0.166 NA
ATOM      7  N2  ZIN A   1      18.945   1.475  12.638  0.00  0.00    -0.273 N 
ATOM      8  C1  ZIN A   1      19.269   2.873  12.343  0.00  0.00     0.180 C 
ATOM      9  C25 ZIN A   1      18.927   0.935  13.898  0.00  0.00     0.065 A 
ATOM     10  C20 ZIN A   1      18.570  -0.419  13.736  0.00  0.00     0.028 A 
ATOM     11  C24 ZIN A   1      19.158   1.428  15.177  0.00  0.00     0.032 A 
ATOM     12  C21 ZIN A   1      18.461  -1.250  14.845  0.00  0.00     0.016 A 
ATOM     13  C22 ZIN A   1      18.697  -0.746  16.094  0.00  0.00     0.001 A 
ATOM     14  C23 ZIN A   1      19.045   0.588  16.262  0.00  0.00     0.002 A 
ENDBRANCH   1   5
BRANCH   3  15
ATOM     15  C8  ZIN A   1      18.454  -3.528   9.881  0.00  0.00     0.088 C 
ATOM     16  C17 ZIN A   1      19.607  -4.520   9.987  0.00  0.00     0.050 C 
ATOM     17  C15 ZIN A   1      19.414  -5.718   9.062  0.00  0.00     0.081 C 
ATOM     18  C14 ZIN A   1      20.560  -5.745   8.039  0.00  0.00     0.025 C 
ATOM     19  N18 ZIN A   1      18.156  -5.648   8.340  0.00  0.00    -0.408 N 
ATOM     20  C13 ZIN A   1      20.482  -4.499   7.155  0.00  0.00     0.004 C 
ATOM     21  C12 ZIN A   1      19.110  -4.413   6.484  0.00  0.00     0.025 C 
ATOM     22  C10 ZIN A   1      18.013  -4.429   7.561  0.00  0.00     0.081 C 
ATOM     23  C9  ZIN A   1      18.152  -3.182   8.427  0.00  0.00     0.050 C 
ATOM     24  C19 ZIN A   1      16.979  -6.108   9.042  0.00  0.00     0.144 C 
ENDBRANCH   3  15
TORSDOF 2
ENDMDL
MODEL 7
REMARK VINA RESULT:      -7.3      1.645      7.904
REMARK  2 active torsions:
REMARK  status: ('A' for Active; 'I' for Inactive)
REMARK    1  A    between atoms: C4_4  and  C5_5 
REMARK       I    between atoms: C5_5  and  N7_7 
REMARK    2  A    between atoms: N7_7  and  C8_8 
ROOT
ATOM      1  C5  ZIN A   1      18.443  -0.033  12.966  0.00  0.00     0.273 C 
ATOM      2  O6  ZIN A   1      17.788  -1.045  13.125  0.00  0.00    -0.266 OA
ATOM      3  N7  ZIN A   1      18.983   0.237  11.760  0.00  0.00    -0.351 N 
ATOM      4  H29 ZIN A   1      19.506   1.045  11.633  0.00  0.00     0.163 HD
ENDROOT
BRANCH   1   5
ATOM      5  C4  ZIN A   1      18.649   0.898  14.091  0.00  0.00     0.157 A 
ATOM      6  N3  ZIN A   1      18.703   2.210  14.028  0.00  0.00    -0.166 NA
ATOM      7  N2  ZIN A   1      18.893   2.739  15.183  0.00  0.00    -0.273 N 
ATOM      8  C1  ZIN A   1      18.998   4.180  15.426  0.00  0.00     0.180 C 
ATOM      9  C25 ZIN A   1      18.990   1.780  16.158  0.00  0.00     0.065 A 
ATOM     10  C20 ZIN A   1      18.832   0.542  15.504  0.00  0.00     0.028 A 
ATOM     11  C24 ZIN A   1      19.182   1.801  17.535  0.00  0.00     0.032 A 
ATOM     12  C21 ZIN A   1      18.878  -0.643  16.231  0.00  0.00     0.016 A 
ATOM     13  C22 ZIN A   1      19.073  -0.599  17.584  0.00  0.00     0.001 A 
ATOM     14  C23 ZIN A   1      19.224   0.617  18.236  0.00  0.00     0.002 A 
ENDBRANCH   1   5
BRANCH   3  15
ATOM     15  C8  ZIN A   1      18.778  -0.692  10.636  0.00  0.00     0.088 C 
ATOM     16  C17 ZIN A   1      19.886  -0.474   9.612  0.00  0.00     0.050 C 
ATOM     17  C15 ZIN A   1      19.606  -1.207   8.304  0.00  0.00     0.081 C 
ATOM     18  C14 ZIN A   1      19.477  -0.174   7.174  0.00  0.00     0.025 C 
ATOM     19  N18 ZIN A   1      18.375  -1.975   8.366  0.00  0.00    -0.408 N 
ATOM     20  C13 ZIN A   1      18.263   0.719   7.437  0.00  0.00     0.004 C 
ATOM     21  C12 ZIN A   1      17.003  -0.134   7.588  0.00  0.00     0.025 C 
ATOM     22  C10 ZIN A   1      17.216  -1.167   8.706  0.00  0.00     0.081 C 
ATOM     23  C9  ZIN A   1      17.403  -0.431  10.029  0.00  0.00     0.050 C 
ATOM     24  C19 ZIN A   1      18.456  -3.281   8.983  0.00  0.00     0.144 C 
ENDBRANCH   3  15
TORSDOF 2
ENDMDL
MODEL 8
REMARK VINA RESULT:      -7.2      2.974      4.275
REMARK  2 active torsions:
REMARK  status: ('A' for Active; 'I' for Inactive)
REMARK    1  A    between atoms: C4_4  and  C5_5 
REMARK       I    between atoms: C5_5  and  N7_7 
REMARK    2  A    between atoms: N7_7  and  C8_8 
ROOT
ATOM      1  C5  ZIN A   1      19.311   2.390  12.170  0.00  0.00     0.273 C 
ATOM      2  O6  ZIN A   1      20.314   3.005  11.858  0.00  0.00    -0.266 OA
ATOM      3  N7  ZIN A   1      18.628   2.734  13.279  0.00  0.00    -0.351 N 
ATOM      4  H29 ZIN A   1      17.828   2.244  13.528  0.00  0.00     0.163 HD
ENDROOT
BRANCH   1   5
ATOM      5  C4  ZIN A   1      18.846   1.267  11.335  0.00  0.00     0.157 A 
ATOM      6  N3  ZIN A   1      18.411   0.100  11.757  0.00  0.00    -0.166 NA
ATOM      7  N2  ZIN A   1      18.077  -0.668  10.783  0.00  0.00    -0.273 N 
ATOM      8  C1  ZIN A   1      17.559  -2.029  10.943  0.00  0.00     0.180 C 
ATOM      9  C25 ZIN A   1      18.273  -0.051   9.574  0.00  0.00     0.065 A 
ATOM     10  C20 ZIN A   1      18.774   1.232   9.868  0.00  0.00     0.028 A 
ATOM     11  C24 ZIN A   1      18.074  -0.416   8.247  0.00  0.00     0.032 A 
ATOM     12  C21 ZIN A   1      19.075   2.117   8.839  0.00  0.00     0.016 A 
ATOM     13  C22 ZIN A   1      18.877   1.737   7.540  0.00  0.00     0.001 A 
ATOM     14  C23 ZIN A   1      18.379   0.475   7.243  0.00  0.00     0.002 A 
ENDBRANCH   1   5
BRANCH   3  15
ATOM     15  C8  ZIN A   1      19.093   3.856  14.113  0.00  0.00     0.088 C 
ATOM     16  C17 ZIN A   1      18.599   3.643  15.540  0.00  0.00     0.050 C 
ATOM     17  C15 ZIN A   1      18.812   4.880  16.407  0.00  0.00     0.081 C 
ATOM     18  C14 ZIN A   1      17.444   5.396  16.880  0.00  0.00     0.025 C 
ATOM     19  N18 ZIN A   1      19.477   5.945  15.678  0.00  0.00    -0.408 N 
ATOM     20  C13 ZIN A   1      16.627   5.852  15.670  0.00  0.00     0.004 C 
ATOM     21  C12 ZIN A   1      17.401   6.907  14.877  0.00  0.00     0.025 C 
ATOM     22  C10 ZIN A   1      18.769   6.337  14.471  0.00  0.00     0.081 C 
ATOM     23  C9  ZIN A   1      18.554   5.158  13.529  0.00  0.00     0.050 C 
ATOM     24  C19 ZIN A   1      20.918   5.865  15.586  0.00  0.00     0.144 C 
ENDBRANCH   3  15
TORSDOF 2
ENDMDL
MODEL 9
REMARK VINA RESULT:      -7.1      2.029      3.128
REMARK  2 active torsions:
REMARK  status: ('A' for Active; 'I' for Inactive)
REMARK    1  A    between atoms: C4_4  and  C5_5 
REMARK       I    between atoms: C5_5  and  N7_7 
REMARK    2  A    between atoms: N7_7  and  C8_8 
ROOT
ATOM      1  C5  ZIN A   1      19.064  -1.136   8.563  0.00  0.00     0.273 C 
ATOM      2  O6  ZIN A   1      19.522  -0.085   8.156  0.00  0.00    -0.266 OA
ATOM      3  N7  ZIN A   1      18.701  -1.257   9.856  0.00  0.00    -0.351 N 
ATOM      4  H29 ZIN A   1      18.337  -2.095  10.181  0.00  0.00     0.163 HD
ENDROOT
BRANCH   1   5
ATOM      5  C4  ZIN A   1      18.909  -2.279   7.644  0.00  0.00     0.157 A 
ATOM      6  N3  ZIN A   1      19.250  -3.528   7.876  0.00  0.00    -0.166 NA
ATOM      7  N2  ZIN A   1      18.987  -4.290   6.876  0.00  0.00    -0.273 N 
ATOM      8  C1  ZIN A   1      19.257  -5.730   6.841  0.00  0.00     0.180 C 
ATOM      9  C25 ZIN A   1      18.427  -3.582   5.845  0.00  0.00     0.065 A 
ATOM     10  C20 ZIN A   1      18.342  -2.247   6.289  0.00  0.00     0.028 A 
ATOM     11  C24 ZIN A   1      17.959  -3.906   4.576  0.00  0.00     0.032 A 
ATOM     12  C21 ZIN A   1      17.806  -1.268   5.461  0.00  0.00     0.016 A 
ATOM     13  C22 ZIN A   1      17.357  -1.607   4.214  0.00  0.00     0.001 A 
ATOM     14  C23 ZIN A   1      17.432  -2.921   3.772  0.00  0.00     0.002 A 
ENDBRANCH   1   5
BRANCH   3  15
ATOM     15  C8  ZIN A   1      18.856  -0.116  10.774  0.00  0.00     0.088 C 
ATOM     16  C17 ZIN A   1      19.993  -0.419  11.744  0.00  0.00     0.050 C 
ATOM     17  C15 ZIN A   1      20.051   0.590  12.887  0.00  0.00     0.081 C 
ATOM     18  C14 ZIN A   1      19.813  -0.150  14.214  0.00  0.00     0.025 C 
ATOM     19  N18 ZIN A   1      19.039   1.623  12.750  0.00  0.00    -0.408 N 
ATOM     20  C13 ZIN A   1      18.400  -0.735  14.223  0.00  0.00     0.004 C 
ATOM     21  C12 ZIN A   1      17.369   0.371  13.985  0.00  0.00     0.025 C 
ATOM     22  C10 ZIN A   1      17.689   1.090  12.665  0.00  0.00     0.081 C 
ATOM     23  C9  ZIN A   1      17.540   0.101  11.514  0.00  0.00     0.050 C 
ATOM     24  C19 ZIN A   1      19.356   2.727  11.873  0.00  0.00     0.144 C 
ENDBRANCH   3  15
TORSDOF 2
ENDMDL
