MODEL 1
REMARK VINA RESULT:      -7.6      0.000      0.000
REMARK  9 active torsions:
REMARK  status: ('A' for Active; 'I' for Inactive)
REMARK    1  A    between atoms: O2_2  and  C3_3 
REMARK    2  A    between atoms: C4_4  and  O5_5 
REMARK    3  A    between atoms: C9_9  and  N10_10 
REMARK    4  A    between atoms: C12_12  and  N13_13 
REMARK    5  A    between atoms: N13_13  and  C15_15 
REMARK    6  A    between atoms: C15_15  and  C16_16 
REMARK    7  A    between atoms: C16_16  and  C17_17 
REMARK    8  A    between atoms: C17_17  and  N18_18 
REMARK       I    between atoms: N18_18  and  C19_19 
REMARK    9  A    between atoms: C19_19  and  C21_21 
ROOT
ATOM      1  C3  <0> d   1      18.931  -0.368   7.281  0.00  0.00     0.103 A 
ATOM      2  C4  <0> d   1      18.305  -1.346   8.065  0.00  0.00     0.102 A 
ATOM      3  C7  <0> d   1      17.765  -1.027   9.279  0.00  0.00     0.057 A 
ATOM      4  C8  <0> d   1      17.839   0.290   9.747  0.00  0.00     0.040 A 
ATOM      5  C9  <0> d   1      17.297   0.670  11.000  0.00  0.00     0.153 A 
ATOM      6  N11 <0> d   1      17.406   1.937  11.374  0.00  0.00    -0.046 NA
ATOM      7  C12 <0> d   1      18.008   2.839  10.605  0.00  0.00     0.704 A 
ATOM      8  N27 <0> d   1      18.531   2.540   9.431  0.00  0.00    -0.189 N 
ATOM      9  H28 <0> d   1      18.960   3.232   8.904  0.00  0.00     0.184 HD
ATOM     10  C29 <0> d   1      18.472   1.284   8.960  0.00  0.00     0.066 A 
ATOM     11  C30 <0> d   1      19.023   0.935   7.721  0.00  0.00     0.070 A 
ENDROOT
BRANCH   7  12
ATOM     12  N13 <0> d   1      18.090   4.145  11.054  0.00  0.00    -0.220 N 
ATOM     13  C14 <0> d   1      17.287   5.191  10.415  0.00  0.00     0.168 C 
BRANCH  12  14
ATOM     14  C15 <0> d   1      18.981   4.482  12.167  0.00  0.00     0.142 C 
BRANCH  14  15
ATOM     15  C16 <0> d   1      18.172   5.139  13.288  0.00  0.00     0.040 C 
BRANCH  15  16
ATOM     16  C17 <0> d   1      18.396   4.375  14.594  0.00  0.00     0.124 C 
BRANCH  16  17
ATOM     17  N18 <0> d   1      17.842   3.025  14.472  0.00  0.00    -0.359 N 
ATOM     18  C19 <0> d   1      18.343   2.020  15.217  0.00  0.00     0.246 C 
ATOM     19  O20 <0> d   1      19.254   2.234  15.988  0.00  0.00    -0.271 OA
ATOM     20  H49 <0> d   1      17.112   2.855  13.855  0.00  0.00     0.162 HD
BRANCH  18  21
ATOM     21  C21 <0> d   1      17.771   0.631  15.091  0.00  0.00     0.213 C 
ATOM     22  O26 <0> d   1      18.577  -0.146  14.198  0.00  0.00    -0.376 OA
ATOM     23  C25 <0> d   1      19.143  -1.266  14.899  0.00  0.00     0.168 C 
ATOM     24  C24 <0> d   1      18.188  -1.522  16.092  0.00  0.00     0.029 C 
ATOM     25  C23 <0> d   1      17.788  -0.069  16.467  0.00  0.00     0.043 C 
ENDBRANCH  18  21
ENDBRANCH  16  17
ENDBRANCH  15  16
ENDBRANCH  14  15
ENDBRANCH  12  14
ENDBRANCH   7  12
BRANCH   5  26
ATOM     26  N10 <0> d   1      16.670  -0.256  11.807  0.00  0.00    -0.383 N 
ATOM     27  H38 <0> d   1      17.041  -0.472  12.676  0.00  0.00     0.157 HD
ATOM     28  H39 <0> d   1      15.857  -0.690  11.505  0.00  0.00     0.157 HD
ENDBRANCH   5  26
BRANCH   1  29
ATOM     29  O2  <0> d   1      19.461  -0.709   6.078  0.00  0.00    -0.353 OA
ATOM     30  C1  <0> d   1      19.205   0.173   4.983  0.00  0.00     0.210 C 
ENDBRANCH   1  29
BRANCH   2  31
ATOM     31  O5  <0> d   1      18.232  -2.626   7.612  0.00  0.00    -0.353 OA
ATOM     32  C6  <0> d   1      18.973  -3.613   8.334  0.00  0.00     0.210 C 
ENDBRANCH   2  31
TORSDOF 9
ENDMDL
MODEL 2
REMARK VINA RESULT:      -7.6      2.856      6.981
REMARK  9 active torsions:
REMARK  status: ('A' for Active; 'I' for Inactive)
REMARK    1  A    between atoms: O2_2  and  C3_3 
REMARK    2  A    between atoms: C4_4  and  O5_5 
REMARK    3  A    between atoms: C9_9  and  N10_10 
REMARK    4  A    between atoms: C12_12  and  N13_13 
REMARK    5  A    between atoms: N13_13  and  C15_15 
REMARK    6  A    between atoms: C15_15  and  C16_16 
REMARK    7  A    between atoms: C16_16  and  C17_17 
REMARK    8  A    between atoms: C17_17  and  N18_18 
REMARK       I    between atoms: N18_18  and  C19_19 
REMARK    9  A    between atoms: C19_19  and  C21_21 
ROOT
ATOM      1  C3  <0> d   1      17.826   2.857  11.574  0.00  0.00     0.103 A 
ATOM      2  C4  <0> d   1      18.882   2.402  12.375  0.00  0.00     0.102 A 
ATOM      3  C7  <0> d   1      19.712   1.409  11.937  0.00  0.00     0.057 A 
ATOM      4  C8  <0> d   1      19.506   0.838  10.676  0.00  0.00     0.040 A 
ATOM      5  C9  <0> d   1      20.338  -0.195  10.178  0.00  0.00     0.153 A 
ATOM      6  N11 <0> d   1      20.080  -0.685   8.974  0.00  0.00    -0.046 NA
ATOM      7  C12 <0> d   1      19.069  -0.230   8.241  0.00  0.00     0.704 A 
ATOM      8  N27 <0> d   1      18.262   0.729   8.655  0.00  0.00    -0.189 N 
ATOM      9  H28 <0> d   1      17.538   1.029   8.085  0.00  0.00     0.184 HD
ATOM     10  C29 <0> d   1      18.440   1.293   9.861  0.00  0.00     0.066 A 
ATOM     11  C30 <0> d   1      17.598   2.308  10.331  0.00  0.00     0.070 A 
ENDROOT
BRANCH   7  12
ATOM     12  N13 <0> d   1      18.852  -0.784   6.992  0.00  0.00    -0.220 N 
ATOM     13  C14 <0> d   1      19.037   0.028   5.787  0.00  0.00     0.168 C 
BRANCH  12  14
ATOM     14  C15 <0> d   1      18.436  -2.184   6.875  0.00  0.00     0.142 C 
BRANCH  14  15
ATOM     15  C16 <0> d   1      19.430  -2.940   5.990  0.00  0.00     0.040 C 
BRANCH  15  16
ATOM     16  C17 <0> d   1      20.107  -4.041   6.808  0.00  0.00     0.124 C 
BRANCH  16  17
ATOM     17  N18 <0> d   1      19.698  -3.929   8.210  0.00  0.00    -0.359 N 
ATOM     18  C19 <0> d   1      19.545  -5.040   8.958  0.00  0.00     0.246 C 
ATOM     19  O20 <0> d   1      19.744  -6.132   8.470  0.00  0.00    -0.271 OA
ATOM     20  H49 <0> d   1      19.540  -3.055   8.600  0.00  0.00     0.162 HD
BRANCH  18  21
ATOM     21  C21 <0> d   1      19.125  -4.924  10.401  0.00  0.00     0.213 C 
ATOM     22  O26 <0> d   1      18.972  -3.544  10.752  0.00  0.00    -0.376 OA
ATOM     23  C25 <0> d   1      17.609  -3.283  11.127  0.00  0.00     0.168 C 
ATOM     24  C24 <0> d   1      17.049  -4.650  11.595  0.00  0.00     0.029 C 
ATOM     25  C23 <0> d   1      17.759  -5.613  10.606  0.00  0.00     0.043 C 
ENDBRANCH  18  21
ENDBRANCH  16  17
ENDBRANCH  15  16
ENDBRANCH  14  15
ENDBRANCH  12  14
ENDBRANCH   7  12
BRANCH   5  26
ATOM     26  N10 <0> d   1      21.391  -0.677  10.928  0.00  0.00    -0.383 N 
ATOM     27  H38 <0> d   1      22.054  -1.252  10.519  0.00  0.00     0.157 HD
ATOM     28  H39 <0> d   1      21.465  -0.439  11.866  0.00  0.00     0.157 HD
ENDBRANCH   5  26
BRANCH   1  29
ATOM     29  O2  <0> d   1      17.013   3.844  12.031  0.00  0.00    -0.353 OA
ATOM     30  C1  <0> d   1      16.716   4.911  11.127  0.00  0.00     0.210 C 
ENDBRANCH   1  29
BRANCH   2  31
ATOM     31  O5  <0> d   1      19.083   2.955  13.601  0.00  0.00    -0.353 OA
ATOM     32  C6  <0> d   1      18.473   2.301  14.716  0.00  0.00     0.210 C 
ENDBRANCH   2  31
TORSDOF 9
ENDMDL
MODEL 3
REMARK VINA RESULT:      -7.5      2.440      5.000
REMARK  9 active torsions:
REMARK  status: ('A' for Active; 'I' for Inactive)
REMARK    1  A    between atoms: O2_2  and  C3_3 
REMARK    2  A    between atoms: C4_4  and  O5_5 
REMARK    3  A    between atoms: C9_9  and  N10_10 
REMARK    4  A    between atoms: C12_12  and  N13_13 
REMARK    5  A    between atoms: N13_13  and  C15_15 
REMARK    6  A    between atoms: C15_15  and  C16_16 
REMARK    7  A    between atoms: C16_16  and  C17_17 
REMARK    8  A    between atoms: C17_17  and  N18_18 
REMARK       I    between atoms: N18_18  and  C19_19 
REMARK    9  A    between atoms: C19_19  and  C21_21 
ROOT
ATOM      1  C3  <0> d   1      18.033  -2.680  10.470  0.00  0.00     0.103 A 
ATOM      2  C4  <0> d   1      19.082  -1.995   9.843  0.00  0.00     0.102 A 
ATOM      3  C7  <0> d   1      19.860  -1.117  10.544  0.00  0.00     0.057 A 
ATOM      4  C8  <0> d   1      19.608  -0.900  11.904  0.00  0.00     0.040 A 
ATOM      5  C9  <0> d   1      20.385   0.001  12.673  0.00  0.00     0.153 A 
ATOM      6  N11 <0> d   1      20.085   0.154  13.955  0.00  0.00    -0.046 NA
ATOM      7  C12 <0> d   1      19.082  -0.514  14.518  0.00  0.00     0.704 A 
ATOM      8  N27 <0> d   1      18.325  -1.363  13.849  0.00  0.00    -0.189 N 
ATOM      9  H28 <0> d   1      17.605  -1.827  14.302  0.00  0.00     0.184 HD
ATOM     10  C29 <0> d   1      18.549  -1.589  12.545  0.00  0.00     0.066 A 
ATOM     11  C30 <0> d   1      17.760  -2.479  11.806  0.00  0.00     0.070 A 
ENDROOT
BRANCH   7  12
ATOM     12  N13 <0> d   1      18.820  -0.309  15.861  0.00  0.00    -0.220 N 
ATOM     13  C14 <0> d   1      19.292  -1.275  16.856  0.00  0.00     0.168 C 
BRANCH  12  14
ATOM     14  C15 <0> d   1      18.068   0.874  16.288  0.00  0.00     0.142 C 
BRANCH  14  15
ATOM     15  C16 <0> d   1      19.043   1.963  16.741  0.00  0.00     0.040 C 
BRANCH  15  16
ATOM     16  C17 <0> d   1      18.869   3.202  15.861  0.00  0.00     0.124 C 
BRANCH  16  17
ATOM     17  N18 <0> d   1      18.223   2.821  14.603  0.00  0.00    -0.359 N 
ATOM     18  C19 <0> d   1      18.585   3.419  13.451  0.00  0.00     0.246 C 
ATOM     19  O20 <0> d   1      19.445   4.273  13.455  0.00  0.00    -0.271 OA
ATOM     20  H49 <0> d   1      17.535   2.137  14.600  0.00  0.00     0.162 HD
BRANCH  18  21
ATOM     21  C21 <0> d   1      17.919   3.025  12.156  0.00  0.00     0.213 C 
ATOM     22  O26 <0> d   1      16.887   3.965  11.836  0.00  0.00    -0.376 OA
ATOM     23  C25 <0> d   1      17.193   4.624  10.596  0.00  0.00     0.168 C 
ATOM     24  C24 <0> d   1      18.122   3.644   9.835  0.00  0.00     0.029 C 
ATOM     25  C23 <0> d   1      18.950   3.053  11.008  0.00  0.00     0.043 C 
ENDBRANCH  18  21
ENDBRANCH  16  17
ENDBRANCH  15  16
ENDBRANCH  14  15
ENDBRANCH  12  14
ENDBRANCH   7  12
BRANCH   5  26
ATOM     26  N10 <0> d   1      21.428   0.699  12.102  0.00  0.00    -0.383 N 
ATOM     27  H38 <0> d   1      21.675   0.533  11.180  0.00  0.00     0.157 HD
ATOM     28  H39 <0> d   1      21.913   1.357  12.624  0.00  0.00     0.157 HD
ENDBRANCH   5  26
BRANCH   1  29
ATOM     29  O2  <0> d   1      17.272  -3.547   9.752  0.00  0.00    -0.353 OA
ATOM     30  C1  <0> d   1      17.439  -4.939  10.027  0.00  0.00     0.210 C 
ENDBRANCH   1  29
BRANCH   2  31
ATOM     31  O5  <0> d   1      19.327  -2.205   8.522  0.00  0.00    -0.353 OA
ATOM     32  C6  <0> d   1      19.209  -1.077   7.652  0.00  0.00     0.210 C 
ENDBRANCH   2  31
TORSDOF 9
ENDMDL
MODEL 4
REMARK VINA RESULT:      -7.3      2.192      3.591
REMARK  9 active torsions:
REMARK  status: ('A' for Active; 'I' for Inactive)
REMARK    1  A    between atoms: O2_2  and  C3_3 
REMARK    2  A    between atoms: C4_4  and  O5_5 
REMARK    3  A    between atoms: C9_9  and  N10_10 
REMARK    4  A    between atoms: C12_12  and  N13_13 
REMARK    5  A    between atoms: N13_13  and  C15_15 
REMARK    6  A    between atoms: C15_15  and  C16_16 
REMARK    7  A    between atoms: C16_16  and  C17_17 
REMARK    8  A    between atoms: C17_17  and  N18_18 
REMARK       I    between atoms: N18_18  and  C19_19 
REMARK    9  A    between atoms: C19_19  and  C21_21 
ROOT
ATOM      1  C3  <0> d   1      19.701   0.709  10.590  0.00  0.00     0.103 A 
ATOM      2  C4  <0> d   1      19.031   1.335   9.531  0.00  0.00     0.102 A 
ATOM      3  C7  <0> d   1      18.477   2.574   9.691  0.00  0.00     0.057 A 
ATOM      4  C8  <0> d   1      18.578   3.225  10.925  0.00  0.00     0.040 A 
ATOM      5  C9  <0> d   1      18.019   4.509  11.142  0.00  0.00     0.153 A 
ATOM      6  N11 <0> d   1      18.155   5.061  12.338  0.00  0.00    -0.046 NA
ATOM      7  C12 <0> d   1      18.798   4.438  13.322  0.00  0.00     0.704 A 
ATOM      8  N27 <0> d   1      19.337   3.242  13.176  0.00  0.00    -0.189 N 
ATOM      9  H28 <0> d   1      19.796   2.827  13.922  0.00  0.00     0.184 HD
ATOM     10  C29 <0> d   1      19.254   2.598  12.001  0.00  0.00     0.066 A 
ATOM     11  C30 <0> d   1      19.810   1.326  11.817  0.00  0.00     0.070 A 
ENDROOT
BRANCH   7  12
ATOM     12  N13 <0> d   1      18.906   5.069  14.549  0.00  0.00    -0.220 N 
ATOM     13  C14 <0> d   1      18.476   6.461  14.698  0.00  0.00     0.168 C 
BRANCH  12  14
ATOM     14  C15 <0> d   1      19.452   4.343  15.698  0.00  0.00     0.142 C 
BRANCH  14  15
ATOM     15  C16 <0> d   1      18.684   4.738  16.963  0.00  0.00     0.040 C 
BRANCH  15  16
ATOM     16  C17 <0> d   1      18.763   3.601  17.983  0.00  0.00     0.124 C 
BRANCH  16  17
ATOM     17  N18 <0> d   1      18.151   2.395  17.419  0.00  0.00    -0.359 N 
ATOM     18  C19 <0> d   1      18.698   1.187  17.657  0.00  0.00     0.246 C 
ATOM     19  O20 <0> d   1      19.698   1.097  18.338  0.00  0.00    -0.271 OA
ATOM     20  H49 <0> d   1      17.351   2.467  16.875  0.00  0.00     0.162 HD
BRANCH  18  21
ATOM     21  C21 <0> d   1      18.067  -0.054  17.077  0.00  0.00     0.213 C 
ATOM     22  O26 <0> d   1      17.351   0.279  15.883  0.00  0.00    -0.376 OA
ATOM     23  C25 <0> d   1      17.925  -0.409  14.760  0.00  0.00     0.168 C 
ATOM     24  C24 <0> d   1      18.626  -1.653  15.363  0.00  0.00     0.029 C 
ATOM     25  C23 <0> d   1      19.165  -1.071  16.697  0.00  0.00     0.043 C 
ENDBRANCH  18  21
ENDBRANCH  16  17
ENDBRANCH  15  16
ENDBRANCH  14  15
ENDBRANCH  12  14
ENDBRANCH   7  12
BRANCH   5  26
ATOM     26  N10 <0> d   1      17.349   5.166  10.131  0.00  0.00    -0.383 N 
ATOM     27  H38 <0> d   1      17.779   5.894   9.658  0.00  0.00     0.157 HD
ATOM     28  H39 <0> d   1      16.447   4.898   9.893  0.00  0.00     0.157 HD
ENDBRANCH   5  26
BRANCH   1  29
ATOM     29  O2  <0> d   1      20.244  -0.523  10.408  0.00  0.00    -0.353 OA
ATOM     30  C1  <0> d   1      19.689  -1.596  11.172  0.00  0.00     0.210 C 
ENDBRANCH   1  29
BRANCH   2  31
ATOM     31  O5  <0> d   1      18.932   0.704   8.331  0.00  0.00    -0.353 OA
ATOM     32  C6  <0> d   1      17.694   0.050   8.042  0.00  0.00     0.210 C 
ENDBRANCH   2  31
TORSDOF 9
ENDMDL
MODEL 5
REMARK VINA RESULT:      -7.3      2.506      7.799
REMARK  9 active torsions:
REMARK  status: ('A' for Active; 'I' for Inactive)
REMARK    1  A    between atoms: O2_2  and  C3_3 
REMARK    2  A    between atoms: C4_4  and  O5_5 
REMARK    3  A    between atoms: C9_9  and  N10_10 
REMARK    4  A    between atoms: C12_12  and  N13_13 
REMARK    5  A    between atoms: N13_13  and  C15_15 
REMARK    6  A    between atoms: C15_15  and  C16_16 
REMARK    7  A    between atoms: C16_16  and  C17_17 
REMARK    8  A    between atoms: C17_17  and  N18_18 
REMARK       I    between atoms: N18_18  and  C19_19 
REMARK    9  A    between atoms: C19_19  and  C21_21 
ROOT
ATOM      1  C3  <0> d   1      18.360   0.122  15.329  0.00  0.00     0.103 A 
ATOM      2  C4  <0> d   1      19.301   0.991  14.761  0.00  0.00     0.102 A 
ATOM      3  C7  <0> d   1      19.930   0.671  13.591  0.00  0.00     0.057 A 
ATOM      4  C8  <0> d   1      19.631  -0.539  12.952  0.00  0.00     0.040 A 
ATOM      5  C9  <0> d   1      20.257  -0.917  11.738  0.00  0.00     0.153 A 
ATOM      6  N11 <0> d   1      19.923  -2.078  11.193  0.00  0.00    -0.046 NA
ATOM      7  C12 <0> d   1      19.025  -2.878  11.760  0.00  0.00     0.704 A 
ATOM      8  N27 <0> d   1      18.413  -2.577  12.890  0.00  0.00    -0.189 N 
ATOM      9  H28 <0> d   1      17.765  -3.192  13.266  0.00  0.00     0.184 HD
ATOM     10  C29 <0> d   1      18.681  -1.422  13.520  0.00  0.00     0.066 A 
ATOM     11  C30 <0> d   1      18.053  -1.077  14.723  0.00  0.00     0.070 A 
ENDROOT
BRANCH   7  12
ATOM     12  N13 <0> d   1      18.720  -4.078  11.141  0.00  0.00    -0.220 N 
ATOM     13  C14 <0> d   1      17.813  -5.027  11.789  0.00  0.00     0.168 C 
BRANCH  12  14
ATOM     14  C15 <0> d   1      19.307  -4.398   9.838  0.00  0.00     0.142 C 
BRANCH  14  15
ATOM     15  C16 <0> d   1      18.203  -4.446   8.778  0.00  0.00     0.040 C 
BRANCH  15  16
ATOM     16  C17 <0> d   1      18.478  -3.389   7.707  0.00  0.00     0.124 C 
BRANCH  16  17
ATOM     17  N18 <0> d   1      17.766  -2.154   8.045  0.00  0.00    -0.359 N 
ATOM     18  C19 <0> d   1      18.447  -1.000   8.186  0.00  0.00     0.246 C 
ATOM     19  O20 <0> d   1      19.650  -0.983   8.034  0.00  0.00    -0.271 OA
ATOM     20  H49 <0> d   1      16.803  -2.167   8.166  0.00  0.00     0.162 HD
BRANCH  18  21
ATOM     21  C21 <0> d   1      17.714   0.271   8.533  0.00  0.00     0.213 C 
ATOM     22  O26 <0> d   1      16.948   0.078   9.727  0.00  0.00    -0.376 OA
ATOM     23  C25 <0> d   1      17.414   0.966  10.757  0.00  0.00     0.168 C 
ATOM     24  C24 <0> d   1      18.077   2.147  10.003  0.00  0.00     0.029 C 
ATOM     25  C23 <0> d   1      18.727   1.403   8.805  0.00  0.00     0.043 C 
ENDBRANCH  18  21
ENDBRANCH  16  17
ENDBRANCH  15  16
ENDBRANCH  14  15
ENDBRANCH  12  14
ENDBRANCH   7  12
BRANCH   5  26
ATOM     26  N10 <0> d   1      21.190  -0.096  11.140  0.00  0.00    -0.383 N 
ATOM     27  H38 <0> d   1      20.935   0.464  10.391  0.00  0.00     0.157 HD
ATOM     28  H39 <0> d   1      22.103  -0.080  11.469  0.00  0.00     0.157 HD
ENDBRANCH   5  26
BRANCH   1  29
ATOM     29  O2  <0> d   1      17.749   0.462  16.494  0.00  0.00    -0.353 OA
ATOM     30  C1  <0> d   1      18.277  -0.106  17.694  0.00  0.00     0.210 C 
ENDBRANCH   1  29
BRANCH   2  31
ATOM     31  O5  <0> d   1      19.591   2.166  15.380  0.00  0.00    -0.353 OA
ATOM     32  C6  <0> d   1      18.822   3.309  14.999  0.00  0.00     0.210 C 
ENDBRANCH   2  31
TORSDOF 9
ENDMDL
MODEL 6
REMARK VINA RESULT:      -7.1      2.725      6.627
REMARK  9 active torsions:
REMARK  status: ('A' for Active; 'I' for Inactive)
REMARK    1  A    between atoms: O2_2  and  C3_3 
REMARK    2  A    between atoms: C4_4  and  O5_5 
REMARK    3  A    between atoms: C9_9  and  N10_10 
REMARK    4  A    between atoms: C12_12  and  N13_13 
REMARK    5  A    between atoms: N13_13  and  C15_15 
REMARK    6  A    between atoms: C15_15  and  C16_16 
REMARK    7  A    between atoms: C16_16  and  C17_17 
REMARK    8  A    between atoms: C17_17  and  N18_18 
REMARK       I    between atoms: N18_18  and  C19_19 
REMARK    9  A    between atoms: C19_19  and  C21_21 
ROOT
ATOM      1  C3  <0> d   1      18.207   4.364  15.195  0.00  0.00     0.103 A 
ATOM      2  C4  <0> d   1      17.948   5.527  14.458  0.00  0.00     0.102 A 
ATOM      3  C7  <0> d   1      17.668   5.458  13.122  0.00  0.00     0.057 A 
ATOM      4  C8  <0> d   1      17.639   4.213  12.483  0.00  0.00     0.040 A 
ATOM      5  C9  <0> d   1      17.355   4.089  11.100  0.00  0.00     0.153 A 
ATOM      6  N11 <0> d   1      17.346   2.877  10.565  0.00  0.00    -0.046 NA
ATOM      7  C12 <0> d   1      17.597   1.794  11.296  0.00  0.00     0.704 A 
ATOM      8  N27 <0> d   1      17.868   1.851  12.586  0.00  0.00    -0.189 N 
ATOM      9  H28 <0> d   1      18.044   1.034  13.078  0.00  0.00     0.184 HD
ATOM     10  C29 <0> d   1      17.900   3.033  13.222  0.00  0.00     0.066 A 
ATOM     11  C30 <0> d   1      18.191   3.127  14.589  0.00  0.00     0.070 A 
ENDROOT
BRANCH   7  12
ATOM     12  N13 <0> d   1      17.573   0.556  10.678  0.00  0.00    -0.220 N 
ATOM     13  C14 <0> d   1      18.052   0.415   9.301  0.00  0.00     0.168 C 
BRANCH  12  14
ATOM     14  C15 <0> d   1      17.066  -0.613  11.401  0.00  0.00     0.142 C 
BRANCH  14  15
ATOM     15  C16 <0> d   1      18.049  -1.776  11.244  0.00  0.00     0.040 C 
BRANCH  15  16
ATOM     16  C17 <0> d   1      19.156  -1.653  12.293  0.00  0.00     0.124 C 
BRANCH  16  17
ATOM     17  N18 <0> d   1      18.588  -1.849  13.629  0.00  0.00    -0.359 N 
ATOM     18  C19 <0> d   1      18.877  -0.982  14.619  0.00  0.00     0.246 C 
ATOM     19  O20 <0> d   1      19.610  -0.040  14.405  0.00  0.00    -0.271 OA
ATOM     20  H49 <0> d   1      18.001  -2.603  13.800  0.00  0.00     0.162 HD
BRANCH  18  21
ATOM     21  C21 <0> d   1      18.291  -1.184  15.993  0.00  0.00     0.213 C 
ATOM     22  O26 <0> d   1      19.342  -1.244  16.965  0.00  0.00    -0.376 OA
ATOM     23  C25 <0> d   1      19.206  -0.159  17.899  0.00  0.00     0.168 C 
ATOM     24  C24 <0> d   1      17.705   0.222  17.861  0.00  0.00     0.029 C 
ATOM     25  C23 <0> d   1      17.384   0.011  16.357  0.00  0.00     0.043 C 
ENDBRANCH  18  21
ENDBRANCH  16  17
ENDBRANCH  15  16
ENDBRANCH  14  15
ENDBRANCH  12  14
ENDBRANCH   7  12
BRANCH   5  26
ATOM     26  N10 <0> d   1      17.094   5.204  10.331  0.00  0.00    -0.383 N 
ATOM     27  H38 <0> d   1      16.845   6.039  10.755  0.00  0.00     0.157 HD
ATOM     28  H39 <0> d   1      17.161   5.151   9.364  0.00  0.00     0.157 HD
ENDBRANCH   5  26
BRANCH   1  29
ATOM     29  O2  <0> d   1      18.484   4.458  16.522  0.00  0.00    -0.353 OA
ATOM     30  C1  <0> d   1      19.476   3.569  17.042  0.00  0.00     0.210 C 
ENDBRANCH   1  29
BRANCH   2  31
ATOM     31  O5  <0> d   1      17.976   6.736  15.078  0.00  0.00    -0.353 OA
ATOM     32  C6  <0> d   1      17.120   7.754  14.553  0.00  0.00     0.210 C 
ENDBRANCH   2  31
TORSDOF 9
ENDMDL
MODEL 7
REMARK VINA RESULT:      -7.1      2.611      7.720
REMARK  9 active torsions:
REMARK  status: ('A' for Active; 'I' for Inactive)
REMARK    1  A    between atoms: O2_2  and  C3_3 
REMARK    2  A    between atoms: C4_4  and  O5_5 
REMARK    3  A    between atoms: C9_9  and  N10_10 
REMARK    4  A    between atoms: C12_12  and  N13_13 
REMARK    5  A    between atoms: N13_13  and  C15_15 
REMARK    6  A    between atoms: C15_15  and  C16_16 
REMARK    7  A    between atoms: C16_16  and  C17_17 
REMARK    8  A    between atoms: C17_17  and  N18_18 
REMARK       I    between atoms: N18_18  and  C19_19 
REMARK    9  A    between atoms: C19_19  and  C21_21 
ROOT
ATOM      1  C3  <0> d   1      17.632   1.992  11.623  0.00  0.00     0.103 A 
ATOM      2  C4  <0> d   1      18.515   2.013  12.710  0.00  0.00     0.102 A 
ATOM      3  C7  <0> d   1      19.023   0.851  13.219  0.00  0.00     0.057 A 
ATOM      4  C8  <0> d   1      18.658  -0.374  12.649  0.00  0.00     0.040 A 
ATOM      5  C9  <0> d   1      19.156  -1.605  13.141  0.00  0.00     0.153 A 
ATOM      6  N11 <0> d   1      18.765  -2.725  12.549  0.00  0.00    -0.046 NA
ATOM      7  C12 <0> d   1      17.924  -2.707  11.519  0.00  0.00     0.704 A 
ATOM      8  N27 <0> d   1      17.429  -1.590  11.021  0.00  0.00    -0.189 N 
ATOM      9  H28 <0> d   1      16.819  -1.627  10.267  0.00  0.00     0.184 HD
ATOM     10  C29 <0> d   1      17.765  -0.403  11.549  0.00  0.00     0.066 A 
ATOM     11  C30 <0> d   1      17.252   0.799  11.047  0.00  0.00     0.070 A 
ENDROOT
BRANCH   7  12
ATOM     12  N13 <0> d   1      17.553  -3.911  10.945  0.00  0.00    -0.220 N 
ATOM     13  C14 <0> d   1      17.289  -5.076  11.792  0.00  0.00     0.168 C 
BRANCH  12  14
ATOM     14  C15 <0> d   1      17.426  -4.019   9.489  0.00  0.00     0.142 C 
BRANCH  14  15
ATOM     15  C16 <0> d   1      18.254  -5.206   8.991  0.00  0.00     0.040 C 
BRANCH  15  16
ATOM     16  C17 <0> d   1      19.532  -4.693   8.325  0.00  0.00     0.124 C 
BRANCH  16  17
ATOM     17  N18 <0> d   1      19.407  -3.256   8.069  0.00  0.00    -0.359 N 
ATOM     18  C19 <0> d   1      19.519  -2.783   6.812  0.00  0.00     0.246 C 
ATOM     19  O20 <0> d   1      19.725  -3.547   5.893  0.00  0.00    -0.271 OA
ATOM     20  H49 <0> d   1      19.241  -2.645   8.804  0.00  0.00     0.162 HD
BRANCH  18  21
ATOM     21  C21 <0> d   1      19.389  -1.304   6.549  0.00  0.00     0.213 C 
ATOM     22  O26 <0> d   1      18.284  -1.064   5.670  0.00  0.00    -0.376 OA
ATOM     23  C25 <0> d   1      17.296  -0.259   6.335  0.00  0.00     0.168 C 
ATOM     24  C24 <0> d   1      18.074   0.513   7.431  0.00  0.00     0.029 C 
ATOM     25  C23 <0> d   1      19.106  -0.560   7.871  0.00  0.00     0.043 C 
ENDBRANCH  18  21
ENDBRANCH  16  17
ENDBRANCH  15  16
ENDBRANCH  14  15
ENDBRANCH  12  14
ENDBRANCH   7  12
BRANCH   5  26
ATOM     26  N10 <0> d   1      20.028  -1.637  14.210  0.00  0.00    -0.383 N 
ATOM     27  H38 <0> d   1      20.815  -2.202  14.177  0.00  0.00     0.157 HD
ATOM     28  H39 <0> d   1      19.853  -1.093  14.994  0.00  0.00     0.157 HD
ENDBRANCH   5  26
BRANCH   1  29
ATOM     29  O2  <0> d   1      17.138   3.160  11.135  0.00  0.00    -0.353 OA
ATOM     30  C1  <0> d   1      17.903   3.814  10.120  0.00  0.00     0.210 C 
ENDBRANCH   1  29
BRANCH   2  31
ATOM     31  O5  <0> d   1      18.870   3.203  13.265  0.00  0.00    -0.353 OA
ATOM     32  C6  <0> d   1      18.182   3.595  14.455  0.00  0.00     0.210 C 
ENDBRANCH   2  31
TORSDOF 9
ENDMDL
MODEL 8
REMARK VINA RESULT:      -6.9      2.401      8.324
REMARK  9 active torsions:
REMARK  status: ('A' for Active; 'I' for Inactive)
REMARK    1  A    between atoms: O2_2  and  C3_3 
REMARK    2  A    between atoms: C4_4  and  O5_5 
REMARK    3  A    between atoms: C9_9  and  N10_10 
REMARK    4  A    between atoms: C12_12  and  N13_13 
REMARK    5  A    between atoms: N13_13  and  C15_15 
REMARK    6  A    between atoms: C15_15  and  C16_16 
REMARK    7  A    between atoms: C16_16  and  C17_17 
REMARK    8  A    between atoms: C17_17  and  N18_18 
REMARK       I    between atoms: N18_18  and  C19_19 
REMARK    9  A    between atoms: C19_19  and  C21_21 
ROOT
ATOM      1  C3  <0> d   1      18.589   0.345  16.032  0.00  0.00     0.103 A 
ATOM      2  C4  <0> d   1      19.182   1.434  15.379  0.00  0.00     0.102 A 
ATOM      3  C7  <0> d   1      19.575   1.334  14.074  0.00  0.00     0.057 A 
ATOM      4  C8  <0> d   1      19.384   0.133  13.381  0.00  0.00     0.040 A 
ATOM      5  C9  <0> d   1      19.776  -0.020  12.028  0.00  0.00     0.153 A 
ATOM      6  N11 <0> d   1      19.562  -1.188  11.440  0.00  0.00    -0.046 NA
ATOM      7  C12 <0> d   1      18.996  -2.200  12.090  0.00  0.00     0.704 A 
ATOM      8  N27 <0> d   1      18.613  -2.113  13.350  0.00  0.00    -0.189 N 
ATOM      9  H28 <0> d   1      18.204  -2.878  13.784  0.00  0.00     0.184 HD
ATOM     10  C29 <0> d   1      18.784  -0.971  14.035  0.00  0.00     0.066 A 
ATOM     11  C30 <0> d   1      18.394  -0.850  15.375  0.00  0.00     0.070 A 
ENDROOT
BRANCH   7  12
ATOM     12  N13 <0> d   1      18.800  -3.395  11.419  0.00  0.00    -0.220 N 
ATOM     13  C14 <0> d   1      19.834  -4.432  11.453  0.00  0.00     0.168 C 
BRANCH  12  14
ATOM     14  C15 <0> d   1      17.560  -3.621  10.674  0.00  0.00     0.142 C 
BRANCH  14  15
ATOM     15  C16 <0> d   1      17.784  -4.717   9.629  0.00  0.00     0.040 C 
BRANCH  15  16
ATOM     16  C17 <0> d   1      18.056  -4.075   8.268  0.00  0.00     0.124 C 
BRANCH  16  17
ATOM     17  N18 <0> d   1      17.671  -2.663   8.306  0.00  0.00    -0.359 N 
ATOM     18  C19 <0> d   1      18.263  -1.779   7.479  0.00  0.00     0.246 C 
ATOM     19  O20 <0> d   1      19.116  -2.153   6.703  0.00  0.00    -0.271 OA
ATOM     20  H49 <0> d   1      16.987  -2.364   8.927  0.00  0.00     0.162 HD
BRANCH  18  21
ATOM     21  C21 <0> d   1      17.865  -0.325   7.519  0.00  0.00     0.213 C 
ATOM     22  O26 <0> d   1      18.486   0.317   8.638  0.00  0.00    -0.376 OA
ATOM     23  C25 <0> d   1      19.365   1.357   8.178  0.00  0.00     0.168 C 
ATOM     24  C24 <0> d   1      18.819   1.763   6.786  0.00  0.00     0.029 C 
ATOM     25  C23 <0> d   1      18.353   0.387   6.240  0.00  0.00     0.043 C 
ENDBRANCH  18  21
ENDBRANCH  16  17
ENDBRANCH  15  16
ENDBRANCH  14  15
ENDBRANCH  12  14
ENDBRANCH   7  12
BRANCH   5  26
ATOM     26  N10 <0> d   1      20.364   1.021  11.342  0.00  0.00    -0.383 N 
ATOM     27  H38 <0> d   1      20.262   1.931  11.660  0.00  0.00     0.157 HD
ATOM     28  H39 <0> d   1      20.881   0.842  10.540  0.00  0.00     0.157 HD
ENDBRANCH   5  26
BRANCH   1  29
ATOM     29  O2  <0> d   1      18.207   0.468  17.330  0.00  0.00    -0.353 OA
ATOM     30  C1  <0> d   1      19.041  -0.150  18.313  0.00  0.00     0.210 C 
ENDBRANCH   1  29
BRANCH   2  31
ATOM     31  O5  <0> d   1      19.369   2.601  16.050  0.00  0.00    -0.353 OA
ATOM     32  C6  <0> d   1      18.806   3.780  15.471  0.00  0.00     0.210 C 
ENDBRANCH   2  31
TORSDOF 9
ENDMDL
MODEL 9
REMARK VINA RESULT:      -6.8      1.603      2.906
REMARK  9 active torsions:
REMARK  status: ('A' for Active; 'I' for Inactive)
REMARK    1  A    between atoms: O2_2  and  C3_3 
REMARK    2  A    between atoms: C4_4  and  O5_5 
REMARK    3  A    between atoms: C9_9  and  N10_10 
REMARK    4  A    between atoms: C12_12  and  N13_13 
REMARK    5  A    between atoms: N13_13  and  C15_15 
REMARK    6  A    between atoms: C15_15  and  C16_16 
REMARK    7  A    between atoms: C16_16  and  C17_17 
REMARK    8  A    between atoms: C17_17  and  N18_18 
REMARK       I    between atoms: N18_18  and  C19_19 
REMARK    9  A    between atoms: C19_19  and  C21_21 
ROOT
ATOM      1  C3  <0> d   1      18.762  -2.794   9.436  0.00  0.00     0.103 A 
ATOM      2  C4  <0> d   1      18.885  -2.693   8.044  0.00  0.00     0.102 A 
ATOM      3  C7  <0> d   1      18.981  -1.471   7.439  0.00  0.00     0.057 A 
ATOM      4  C8  <0> d   1      18.957  -0.308   8.218  0.00  0.00     0.040 A 
ATOM      5  C9  <0> d   1      19.052   0.981   7.638  0.00  0.00     0.153 A 
ATOM      6  N11 <0> d   1      19.021   2.036   8.441  0.00  0.00    -0.046 NA
ATOM      7  C12 <0> d   1      18.903   1.902   9.758  0.00  0.00     0.704 A 
ATOM      8  N27 <0> d   1      18.810   0.727  10.351  0.00  0.00    -0.189 N 
ATOM      9  H28 <0> d   1      18.726   0.679  11.316  0.00  0.00     0.184 HD
ATOM     10  C29 <0> d   1      18.832  -0.403   9.626  0.00  0.00     0.066 A 
ATOM     11  C30 <0> d   1      18.729  -1.665  10.224  0.00  0.00     0.070 A 
ENDROOT
BRANCH   7  12
ATOM     12  N13 <0> d   1      18.877   3.043  10.541  0.00  0.00    -0.220 N 
ATOM     13  C14 <0> d   1      17.942   4.126  10.227  0.00  0.00     0.168 C 
BRANCH  12  14
ATOM     14  C15 <0> d   1      19.785   3.167  11.684  0.00  0.00     0.142 C 
BRANCH  14  15
ATOM     15  C16 <0> d   1      19.566   4.520  12.366  0.00  0.00     0.040 C 
BRANCH  15  16
ATOM     16  C17 <0> d   1      18.996   4.299  13.768  0.00  0.00     0.124 C 
BRANCH  16  17
ATOM     17  N18 <0> d   1      19.239   2.915  14.182  0.00  0.00    -0.359 N 
ATOM     18  C19 <0> d   1      18.921   2.518  15.430  0.00  0.00     0.246 C 
ATOM     19  O20 <0> d   1      18.434   3.308  16.211  0.00  0.00    -0.271 OA
ATOM     20  H49 <0> d   1      19.627   2.283  13.556  0.00  0.00     0.162 HD
BRANCH  18  21
ATOM     21  C21 <0> d   1      19.170   1.093  15.854  0.00  0.00     0.213 C 
ATOM     22  O26 <0> d   1      18.126   0.659  16.733  0.00  0.00    -0.376 OA
ATOM     23  C25 <0> d   1      17.416  -0.443  16.144  0.00  0.00     0.168 C 
ATOM     24  C24 <0> d   1      18.420  -1.089  15.156  0.00  0.00     0.029 C 
ATOM     25  C23 <0> d   1      19.155   0.168  14.618  0.00  0.00     0.043 C 
ENDBRANCH  18  21
ENDBRANCH  16  17
ENDBRANCH  15  16
ENDBRANCH  14  15
ENDBRANCH  12  14
ENDBRANCH   7  12
BRANCH   5  26
ATOM     26  N10 <0> d   1      19.174   1.134   6.273  0.00  0.00    -0.383 N 
ATOM     27  H38 <0> d   1      19.999   1.473   5.894  0.00  0.00     0.157 HD
ATOM     28  H39 <0> d   1      18.432   0.902   5.692  0.00  0.00     0.157 HD
ENDBRANCH   5  26
BRANCH   1  29
ATOM     29  O2  <0> d   1      18.667  -4.020  10.014  0.00  0.00    -0.353 OA
ATOM     30  C1  <0> d   1      19.808  -4.487  10.737  0.00  0.00     0.210 C 
ENDBRANCH   1  29
BRANCH   2  31
ATOM     31  O5  <0> d   1      18.909  -3.822   7.287  0.00  0.00    -0.353 OA
ATOM     32  C6  <0> d   1      19.032  -3.652   5.873  0.00  0.00     0.210 C 
ENDBRANCH   2  31
TORSDOF 9
ENDMDL
