MODEL 1
REMARK VINA RESULT:      -5.0      0.000      0.000
REMARK  1 active torsions:
REMARK  status: ('A' for Active; 'I' for Inactive)
REMARK    1  A    between atoms: N2_2  and  C5_5 
ROOT
ATOM      1  C5  <0> d   1      19.392   1.349  11.234  0.00  0.00     0.132 C 
ATOM      2  C6  <0> d   1      19.828   0.905  12.631  0.00  0.00     0.047 C 
ATOM      3  C7  <0> d   1      19.725   2.856  11.011  0.00  0.00     0.022 C 
ATOM      4  C9  <0> d   1      19.193   3.566  12.294  0.00  0.00     0.007 C 
ATOM      5  C10 <0> d   1      17.654   3.484  12.177  0.00  0.00     0.006 C 
ATOM      6  C11 <0> d   1      17.400   2.732  10.834  0.00  0.00    -0.004 C 
ATOM      7  C13 <0> d   1      18.624   3.245   9.962  0.00  0.00     0.012 C 
ATOM      8  C14 <0> d   1      17.855   1.263  11.096  0.00  0.00    -0.011 C 
ATOM      9  C15 <0> d   1      17.451   0.364   9.926  0.00  0.00     0.018 C 
ATOM     10  C16 <0> d   1      17.253   0.743  12.403  0.00  0.00     0.018 C 
ENDROOT
BRANCH   1  11
ATOM     11  N2  <0> d   1      20.045   0.524  10.208  0.00  0.00    -0.069 N 
ATOM     12  C1  <0> d   1      20.784  -0.568  10.856  0.00  0.00     0.267 C 
ATOM     13  H3  <0> d   1      20.685   1.094   9.675  0.00  0.00     0.277 HD
ATOM     14  H4  <0> d   1      19.346   0.138   9.592  0.00  0.00     0.277 HD
ENDBRANCH   1  11
TORSDOF 1
ENDMDL
MODEL 2
REMARK VINA RESULT:      -5.0      1.593      3.393
REMARK  1 active torsions:
REMARK  status: ('A' for Active; 'I' for Inactive)
REMARK    1  A    between atoms: N2_2  and  C5_5 
ROOT
ATOM      1  C5  <0> d   1      18.963   1.341  10.339  0.00  0.00     0.132 C 
ATOM      2  C6  <0> d   1      17.895   2.436  10.283  0.00  0.00     0.047 C 
ATOM      3  C7  <0> d   1      19.492   1.020   8.908  0.00  0.00     0.022 C 
ATOM      4  C9  <0> d   1      18.204   0.857   8.044  0.00  0.00     0.007 C 
ATOM      5  C10 <0> d   1      17.570  -0.465   8.533  0.00  0.00     0.006 C 
ATOM      6  C11 <0> d   1      18.534  -0.977   9.647  0.00  0.00    -0.004 C 
ATOM      7  C13 <0> d   1      19.934  -0.475   9.091  0.00  0.00     0.012 C 
ATOM      8  C14 <0> d   1      18.348   0.013  10.837  0.00  0.00    -0.011 C 
ATOM      9  C15 <0> d   1      19.073  -0.505  12.080  0.00  0.00     0.018 C 
ATOM     10  C16 <0> d   1      16.860   0.218  11.131  0.00  0.00     0.018 C 
ENDROOT
BRANCH   1  11
ATOM     11  N2  <0> d   1      20.070   1.752  11.214  0.00  0.00    -0.069 N 
ATOM     12  C1  <0> d   1      19.908   3.166  11.578  0.00  0.00     0.267 C 
ATOM     13  H3  <0> d   1      20.946   1.627  10.729  0.00  0.00     0.277 HD
ATOM     14  H4  <0> d   1      20.065   1.187  12.050  0.00  0.00     0.277 HD
ENDBRANCH   1  11
TORSDOF 1
ENDMDL
MODEL 3
REMARK VINA RESULT:      -5.0      2.403      3.577
REMARK  1 active torsions:
REMARK  status: ('A' for Active; 'I' for Inactive)
REMARK    1  A    between atoms: N2_2  and  C5_5 
ROOT
ATOM      1  C5  <0> d   1      19.173  -1.703  12.162  0.00  0.00     0.132 C 
ATOM      2  C6  <0> d   1      18.032  -2.722  12.152  0.00  0.00     0.047 C 
ATOM      3  C7  <0> d   1      19.519  -1.285  13.623  0.00  0.00     0.022 C 
ATOM      4  C9  <0> d   1      18.139  -0.966  14.275  0.00  0.00     0.007 C 
ATOM      5  C10 <0> d   1      17.677   0.341  13.593  0.00  0.00     0.006 C 
ATOM      6  C11 <0> d   1      18.821   0.690  12.592  0.00  0.00    -0.004 C 
ATOM      7  C13 <0> d   1      20.090   0.158  13.385  0.00  0.00     0.012 C 
ATOM      8  C14 <0> d   1      18.731  -0.392  11.473  0.00  0.00    -0.011 C 
ATOM      9  C15 <0> d   1      19.658  -0.035  10.310  0.00  0.00     0.018 C 
ATOM     10  C16 <0> d   1      17.288  -0.533  10.983  0.00  0.00     0.018 C 
ENDROOT
BRANCH   1  11
ATOM     11  N2  <0> d   1      20.359  -2.258  11.493  0.00  0.00    -0.069 N 
ATOM     12  C1  <0> d   1      20.274  -3.725  11.484  0.00  0.00     0.267 C 
ATOM     13  H3  <0> d   1      21.189  -1.972  11.990  0.00  0.00     0.277 HD
ATOM     14  H4  <0> d   1      20.400  -1.917  10.545  0.00  0.00     0.277 HD
ENDBRANCH   1  11
TORSDOF 1
ENDMDL
MODEL 4
REMARK VINA RESULT:      -4.8      1.435      2.354
REMARK  1 active torsions:
REMARK  status: ('A' for Active; 'I' for Inactive)
REMARK    1  A    between atoms: N2_2  and  C5_5 
ROOT
ATOM      1  C5  <0> d   1      18.462   0.463  11.574  0.00  0.00     0.132 C 
ATOM      2  C6  <0> d   1      16.994   0.053  11.702  0.00  0.00     0.047 C 
ATOM      3  C7  <0> d   1      18.712   1.830  12.281  0.00  0.00     0.022 C 
ATOM      4  C9  <0> d   1      17.563   2.751  11.766  0.00  0.00     0.007 C 
ATOM      5  C10 <0> d   1      17.904   3.010  10.281  0.00  0.00     0.006 C 
ATOM      6  C11 <0> d   1      19.228   2.221  10.037  0.00  0.00    -0.004 C 
ATOM      7  C13 <0> d   1      19.933   2.367  11.453  0.00  0.00     0.012 C 
ATOM      8  C14 <0> d   1      18.824   0.716  10.093  0.00  0.00    -0.011 C 
ATOM      9  C15 <0> d   1      19.992  -0.166   9.647  0.00  0.00     0.018 C 
ATOM     10  C16 <0> d   1      17.597   0.462   9.216  0.00  0.00     0.018 C 
ENDROOT
BRANCH   1  11
ATOM     11  N2  <0> d   1      19.334  -0.574  12.144  0.00  0.00    -0.069 N 
ATOM     12  C1  <0> d   1      18.514  -1.570  12.847  0.00  0.00     0.267 C 
ATOM     13  H3  <0> d   1      19.980  -0.151  12.793  0.00  0.00     0.277 HD
ATOM     14  H4  <0> d   1      19.848  -1.025  11.402  0.00  0.00     0.277 HD
ENDBRANCH   1  11
TORSDOF 1
ENDMDL
MODEL 5
REMARK VINA RESULT:      -4.8      2.151      3.771
REMARK  1 active torsions:
REMARK  status: ('A' for Active; 'I' for Inactive)
REMARK    1  A    between atoms: N2_2  and  C5_5 
ROOT
ATOM      1  C5  <0> d   1      18.982  -0.553  11.481  0.00  0.00     0.132 C 
ATOM      2  C6  <0> d   1      20.427  -0.569  10.979  0.00  0.00     0.047 C 
ATOM      3  C7  <0> d   1      18.817   0.479  12.638  0.00  0.00     0.022 C 
ATOM      4  C9  <0> d   1      20.009   0.181  13.599  0.00  0.00     0.007 C 
ATOM      5  C10 <0> d   1      19.663  -1.183  14.239  0.00  0.00     0.006 C 
ATOM      6  C11 <0> d   1      18.295  -1.581  13.604  0.00  0.00    -0.004 C 
ATOM      7  C13 <0> d   1      17.617  -0.156  13.426  0.00  0.00     0.012 C 
ATOM      8  C14 <0> d   1      18.616  -1.914  12.115  0.00  0.00    -0.011 C 
ATOM      9  C15 <0> d   1      17.396  -2.535  11.433  0.00  0.00     0.018 C 
ATOM     10  C16 <0> d   1      19.816  -2.858  12.027  0.00  0.00     0.018 C 
ENDROOT
BRANCH   1  11
ATOM     11  N2  <0> d   1      18.062  -0.237  10.379  0.00  0.00    -0.069 N 
ATOM     12  C1  <0> d   1      18.234   1.167   9.984  0.00  0.00     0.267 C 
ATOM     13  H3  <0> d   1      17.111  -0.388  10.682  0.00  0.00     0.277 HD
ATOM     14  H4  <0> d   1      18.263  -0.835   9.592  0.00  0.00     0.277 HD
ENDBRANCH   1  11
TORSDOF 1
ENDMDL
MODEL 6
REMARK VINA RESULT:      -4.8      1.700      2.836
REMARK  1 active torsions:
REMARK  status: ('A' for Active; 'I' for Inactive)
REMARK    1  A    between atoms: N2_2  and  C5_5 
ROOT
ATOM      1  C5  <0> d   1      19.102  -0.663  10.489  0.00  0.00     0.132 C 
ATOM      2  C6  <0> d   1      20.568  -0.466  10.879  0.00  0.00     0.047 C 
ATOM      3  C7  <0> d   1      18.900  -0.391   8.967  0.00  0.00     0.022 C 
ATOM      4  C9  <0> d   1      19.634   0.961   8.712  0.00  0.00     0.007 C 
ATOM      5  C10 <0> d   1      18.758   2.021   9.419  0.00  0.00     0.006 C 
ATOM      6  C11 <0> d   1      17.577   1.210  10.035  0.00  0.00    -0.004 C 
ATOM      7  C13 <0> d   1      17.397   0.064   8.951  0.00  0.00     0.012 C 
ATOM      8  C14 <0> d   1      18.210   0.382  11.196  0.00  0.00    -0.011 C 
ATOM      9  C15 <0> d   1      17.117  -0.290  12.029  0.00  0.00     0.018 C 
ATOM     10  C16 <0> d   1      19.078   1.281  12.079  0.00  0.00     0.018 C 
ENDROOT
BRANCH   1  11
ATOM     11  N2  <0> d   1      18.662  -2.024  10.828  0.00  0.00    -0.069 N 
ATOM     12  C1  <0> d   1      19.803  -2.793  11.343  0.00  0.00     0.267 C 
ATOM     13  H3  <0> d   1      18.297  -2.475  10.003  0.00  0.00     0.277 HD
ATOM     14  H4  <0> d   1      17.942  -1.978  11.533  0.00  0.00     0.277 HD
ENDBRANCH   1  11
TORSDOF 1
ENDMDL
MODEL 7
REMARK VINA RESULT:      -4.6      3.658      5.302
REMARK  1 active torsions:
REMARK  status: ('A' for Active; 'I' for Inactive)
REMARK    1  A    between atoms: N2_2  and  C5_5 
ROOT
ATOM      1  C5  <0> d   1      18.421  -1.499   7.460  0.00  0.00     0.132 C 
ATOM      2  C6  <0> d   1      19.827  -2.101   7.509  0.00  0.00     0.047 C 
ATOM      3  C7  <0> d   1      17.985  -1.250   5.984  0.00  0.00     0.022 C 
ATOM      4  C9  <0> d   1      19.203  -0.524   5.335  0.00  0.00     0.007 C 
ATOM      5  C10 <0> d   1      19.213   0.879   5.983  0.00  0.00     0.006 C 
ATOM      6  C11 <0> d   1      17.999   0.870   6.963  0.00  0.00    -0.004 C 
ATOM      7  C13 <0> d   1      16.980  -0.059   6.175  0.00  0.00     0.012 C 
ATOM      8  C14 <0> d   1      18.410  -0.099   8.113  0.00  0.00    -0.011 C 
ATOM      9  C15 <0> d   1      17.397  -0.027   9.258  0.00  0.00     0.018 C 
ATOM     10  C16 <0> d   1      19.814   0.240   8.619  0.00  0.00     0.018 C 
ENDROOT
BRANCH   1  11
ATOM     11  N2  <0> d   1      17.462  -2.386   8.133  0.00  0.00    -0.069 N 
ATOM     12  C1  <0> d   1      18.135  -3.635   8.515  0.00  0.00     0.267 C 
ATOM     13  H3  <0> d   1      16.698  -2.593   7.507  0.00  0.00     0.277 HD
ATOM     14  H4  <0> d   1      17.105  -1.930   8.959  0.00  0.00     0.277 HD
ENDBRANCH   1  11
TORSDOF 1
ENDMDL
MODEL 8
REMARK VINA RESULT:      -4.6      1.232      3.155
REMARK  1 active torsions:
REMARK  status: ('A' for Active; 'I' for Inactive)
REMARK    1  A    between atoms: N2_2  and  C5_5 
ROOT
ATOM      1  C5  <0> d   1      18.983   1.047  10.639  0.00  0.00     0.132 C 
ATOM      2  C6  <0> d   1      17.588   0.912  10.025  0.00  0.00     0.047 C 
ATOM      3  C7  <0> d   1      19.396  -0.276  11.352  0.00  0.00     0.022 C 
ATOM      4  C9  <0> d   1      18.158  -0.653  12.222  0.00  0.00     0.007 C 
ATOM      5  C10 <0> d   1      18.133   0.406  13.347  0.00  0.00     0.006 C 
ATOM      6  C11 <0> d   1      19.358   1.325  13.051  0.00  0.00    -0.004 C 
ATOM      7  C13 <0> d   1      20.383   0.277  12.440  0.00  0.00     0.012 C 
ATOM      8  C14 <0> d   1      18.978   2.111  11.760  0.00  0.00    -0.011 C 
ATOM      9  C15 <0> d   1      20.004   3.213  11.485  0.00  0.00     0.018 C 
ATOM     10  C16 <0> d   1      17.575   2.707  11.893  0.00  0.00     0.018 C 
ENDROOT
BRANCH   1  11
ATOM     11  N2  <0> d   1      19.964   1.399   9.603  0.00  0.00    -0.069 N 
ATOM     12  C1  <0> d   1      19.274   1.597   8.321  0.00  0.00     0.267 C 
ATOM     13  H3  <0> d   1      20.638   0.653   9.511  0.00  0.00     0.277 HD
ATOM     14  H4  <0> d   1      20.439   2.250   9.865  0.00  0.00     0.277 HD
ENDBRANCH   1  11
TORSDOF 1
ENDMDL
MODEL 9
REMARK VINA RESULT:      -4.6      1.288      3.457
REMARK  1 active torsions:
REMARK  status: ('A' for Active; 'I' for Inactive)
REMARK    1  A    between atoms: N2_2  and  C5_5 
ROOT
ATOM      1  C5  <0> d   1      19.250   1.361  11.436  0.00  0.00     0.132 C 
ATOM      2  C6  <0> d   1      18.000   2.228  11.270  0.00  0.00     0.047 C 
ATOM      3  C7  <0> d   1      19.580   0.617  10.107  0.00  0.00     0.022 C 
ATOM      4  C9  <0> d   1      18.219   0.003   9.656  0.00  0.00     0.007 C 
ATOM      5  C10 <0> d   1      17.940  -1.123  10.676  0.00  0.00     0.006 C 
ATOM      6  C11 <0> d   1      19.159  -1.085  11.649  0.00  0.00    -0.004 C 
ATOM      7  C13 <0> d   1      20.323  -0.650  10.660  0.00  0.00     0.012 C 
ATOM      8  C14 <0> d   1      18.991   0.235  12.463  0.00  0.00    -0.011 C 
ATOM      9  C15 <0> d   1      20.002   0.285  13.610  0.00  0.00     0.018 C 
ATOM     10  C16 <0> d   1      17.564   0.351  13.001  0.00  0.00     0.018 C 
ENDROOT
BRANCH   1  11
ATOM     11  N2  <0> d   1      20.391   2.186  11.858  0.00  0.00    -0.069 N 
ATOM     12  C1  <0> d   1      19.998   3.602  11.858  0.00  0.00     0.267 C 
ATOM     13  H3  <0> d   1      21.159   2.050  11.218  0.00  0.00     0.277 HD
ATOM     14  H4  <0> d   1      20.675   1.916  12.787  0.00  0.00     0.277 HD
ENDBRANCH   1  11
TORSDOF 1
ENDMDL
