MODEL 1
REMARK VINA RESULT:      -8.1      0.000      0.000
REMARK  4 active torsions:
REMARK  status: ('A' for Active; 'I' for Inactive)
REMARK    1  A    between atoms: N5_5  and  C6_6 
REMARK    2  A    between atoms: C6_6  and  C7_7 
REMARK    3  A    between atoms: C7_7  and  C8_8 
REMARK    4  A    between atoms: C8_8  and  N9_9 
ROOT
ATOM      1  N9  ZIN A   1      18.535  -1.764   8.467  0.00  0.00    -0.345 N 
ATOM      2  C10 ZIN A   1      18.594  -1.317   7.149  0.00  0.00     0.052 A 
ATOM      3  C11 ZIN A   1      18.115  -0.047   6.850  0.00  0.00     0.031 A 
ATOM      4  C12 ZIN A   1      18.162   0.430   5.554  0.00  0.00     0.002 A 
ATOM      5  C13 ZIN A   1      18.687  -0.353   4.545  0.00  0.00     0.002 A 
ATOM      6  C14 ZIN A   1      19.166  -1.618   4.830  0.00  0.00     0.021 A 
ATOM      7  C15 ZIN A   1      19.121  -2.105   6.130  0.00  0.00     0.032 A 
ATOM      8  S16 ZIN A   1      19.730  -3.722   6.466  0.00  0.00    -0.086 SA
ATOM      9  C17 ZIN A   1      19.025  -4.108   8.033  0.00  0.00     0.032 A 
ATOM     10  C18 ZIN A   1      18.988  -5.430   8.454  0.00  0.00     0.023 A 
ATOM     11  C19 ZIN A   1      18.437  -5.754   9.681  0.00  0.00     0.025 A 
ATOM     12  C20 ZIN A   1      17.921  -4.759  10.491  0.00  0.00     0.036 A 
ATOM     13 Cl21 ZIN A   1      17.229  -5.168  12.029  0.00  0.00    -0.084 Cl
ATOM     14  C22 ZIN A   1      17.955  -3.440  10.077  0.00  0.00     0.054 A 
ATOM     15  C23 ZIN A   1      18.514  -3.104   8.846  0.00  0.00     0.053 A 
ENDROOT
BRANCH   1  16
ATOM     16  C8  ZIN A   1      18.497  -0.754   9.528  0.00  0.00     0.131 C 
BRANCH  16  17
ATOM     17  C7  ZIN A   1      19.915  -0.250   9.804  0.00  0.00     0.050 C 
BRANCH  17  18
ATOM     18  C6  ZIN A   1      20.460  -0.926  11.064  0.00  0.00     0.274 C 
BRANCH  18  19
ATOM     19  N5  ZIN A   1      19.641  -0.538  12.220  0.00  0.00     0.091 N 
ATOM     20  C4  ZIN A   1      20.306   0.508  13.009  0.00  0.00     0.302 C 
ATOM     21  C3  ZIN A   1      19.388   0.939  14.156  0.00  0.00     0.302 C 
ATOM     22  N2  ZIN A   1      19.071  -0.227  14.992  0.00  0.00     0.087 N 
ATOM     23  C1  ZIN A   1      18.253   0.161  16.149  0.00  0.00     0.310 C 
ATOM     24  C25 ZIN A   1      18.407  -1.273  14.202  0.00  0.00     0.302 C 
ATOM     25  C24 ZIN A   1      19.325  -1.704  13.056  0.00  0.00     0.302 C 
ENDBRANCH  18  19
ENDBRANCH  17  18
ENDBRANCH  16  17
ENDBRANCH   1  16
TORSDOF 4
ENDMDL
MODEL 2
REMARK VINA RESULT:      -8.0      3.123      5.446
REMARK  4 active torsions:
REMARK  status: ('A' for Active; 'I' for Inactive)
REMARK    1  A    between atoms: N5_5  and  C6_6 
REMARK    2  A    between atoms: C6_6  and  C7_7 
REMARK    3  A    between atoms: C7_7  and  C8_8 
REMARK    4  A    between atoms: C8_8  and  N9_9 
ROOT
ATOM      1  N9  ZIN A   1      19.370  -0.999  11.696  0.00  0.00    -0.345 N 
ATOM      2  C10 ZIN A   1      19.358  -2.218  11.023  0.00  0.00     0.052 A 
ATOM      3  C11 ZIN A   1      20.013  -3.304  11.594  0.00  0.00     0.031 A 
ATOM      4  C12 ZIN A   1      20.018  -4.531  10.956  0.00  0.00     0.002 A 
ATOM      5  C13 ZIN A   1      19.371  -4.686   9.746  0.00  0.00     0.002 A 
ATOM      6  C14 ZIN A   1      18.718  -3.613   9.169  0.00  0.00     0.021 A 
ATOM      7  C15 ZIN A   1      18.709  -2.377   9.802  0.00  0.00     0.032 A 
ATOM      8  S16 ZIN A   1      17.877  -1.025   9.043  0.00  0.00    -0.086 SA
ATOM      9  C17 ZIN A   1      18.539   0.381   9.871  0.00  0.00     0.032 A 
ATOM     10  C18 ZIN A   1      18.389   1.637   9.301  0.00  0.00     0.023 A 
ATOM     11  C19 ZIN A   1      18.904   2.754   9.934  0.00  0.00     0.025 A 
ATOM     12  C20 ZIN A   1      19.570   2.620  11.138  0.00  0.00     0.036 A 
ATOM     13 Cl21 ZIN A   1      20.217   4.022  11.931  0.00  0.00    -0.084 Cl
ATOM     14  C22 ZIN A   1      19.722   1.371  11.711  0.00  0.00     0.054 A 
ATOM     15  C23 ZIN A   1      19.201   0.241  11.084  0.00  0.00     0.053 A 
ENDROOT
BRANCH   1  16
ATOM     16  C8  ZIN A   1      19.568  -1.022  13.147  0.00  0.00     0.131 C 
BRANCH  16  17
ATOM     17  C7  ZIN A   1      18.208  -1.004  13.848  0.00  0.00     0.050 C 
BRANCH  17  18
ATOM     18  C6  ZIN A   1      18.388  -1.386  15.318  0.00  0.00     0.274 C 
BRANCH  18  19
ATOM     19  N5  ZIN A   1      18.834  -0.210  16.078  0.00  0.00     0.091 N 
ATOM     20  C4  ZIN A   1      18.714  -0.441  17.524  0.00  0.00     0.302 C 
ATOM     21  C3  ZIN A   1      19.261   0.774  18.279  0.00  0.00     0.302 C 
ATOM     22  N2  ZIN A   1      18.517   1.975  17.876  0.00  0.00     0.087 N 
ATOM     23  C1  ZIN A   1      18.963   3.150  18.635  0.00  0.00     0.310 C 
ATOM     24  C25 ZIN A   1      18.637   2.205  16.429  0.00  0.00     0.302 C 
ATOM     25  C24 ZIN A   1      18.090   0.991  15.675  0.00  0.00     0.302 C 
ENDBRANCH  18  19
ENDBRANCH  17  18
ENDBRANCH  16  17
ENDBRANCH   1  16
TORSDOF 4
ENDMDL
MODEL 3
REMARK VINA RESULT:      -8.0      2.049      2.591
REMARK  4 active torsions:
REMARK  status: ('A' for Active; 'I' for Inactive)
REMARK    1  A    between atoms: N5_5  and  C6_6 
REMARK    2  A    between atoms: C6_6  and  C7_7 
REMARK    3  A    between atoms: C7_7  and  C8_8 
REMARK    4  A    between atoms: C8_8  and  N9_9 
ROOT
ATOM      1  N9  ZIN A   1      18.675  -1.849   8.716  0.00  0.00    -0.345 N 
ATOM      2  C10 ZIN A   1      18.711  -1.265   7.452  0.00  0.00     0.052 A 
ATOM      3  C11 ZIN A   1      18.256   0.041   7.305  0.00  0.00     0.031 A 
ATOM      4  C12 ZIN A   1      18.281   0.654   6.066  0.00  0.00     0.002 A 
ATOM      5  C13 ZIN A   1      18.760  -0.028   4.964  0.00  0.00     0.002 A 
ATOM      6  C14 ZIN A   1      19.214  -1.326   5.099  0.00  0.00     0.021 A 
ATOM      7  C15 ZIN A   1      19.191  -1.950   6.339  0.00  0.00     0.032 A 
ATOM      8  S16 ZIN A   1      19.769  -3.606   6.483  0.00  0.00    -0.086 SA
ATOM      9  C17 ZIN A   1      19.096  -4.143   8.019  0.00  0.00     0.032 A 
ATOM     10  C18 ZIN A   1      19.038  -5.501   8.298  0.00  0.00     0.023 A 
ATOM     11  C19 ZIN A   1      18.512  -5.944   9.498  0.00  0.00     0.025 A 
ATOM     12  C20 ZIN A   1      18.041  -5.031  10.424  0.00  0.00     0.036 A 
ATOM     13 Cl21 ZIN A   1      17.380  -5.587  11.930  0.00  0.00    -0.084 Cl
ATOM     14  C22 ZIN A   1      18.097  -3.676  10.153  0.00  0.00     0.054 A 
ATOM     15  C23 ZIN A   1      18.632  -3.221   8.950  0.00  0.00     0.053 A 
ENDROOT
BRANCH   1  16
ATOM     16  C8  ZIN A   1      18.690  -0.959   9.879  0.00  0.00     0.131 C 
BRANCH  16  17
ATOM     17  C7  ZIN A   1      20.125  -0.500  10.152  0.00  0.00     0.050 C 
BRANCH  17  18
ATOM     18  C6  ZIN A   1      20.139   0.431  11.366  0.00  0.00     0.274 C 
BRANCH  18  19
ATOM     19  N5  ZIN A   1      19.067   1.427  11.232  0.00  0.00     0.091 N 
ATOM     20  C4  ZIN A   1      19.383   2.404  10.181  0.00  0.00     0.302 C 
ATOM     21  C3  ZIN A   1      18.209   3.373  10.020  0.00  0.00     0.302 C 
ATOM     22  N2  ZIN A   1      17.952   4.046  11.301  0.00  0.00     0.087 N 
ATOM     23  C1  ZIN A   1      16.880   5.041  11.167  0.00  0.00     0.310 C 
ATOM     24  C25 ZIN A   1      17.637   3.068  12.352  0.00  0.00     0.302 C 
ATOM     25  C24 ZIN A   1      18.811   2.099  12.513  0.00  0.00     0.302 C 
ENDBRANCH  18  19
ENDBRANCH  17  18
ENDBRANCH  16  17
ENDBRANCH   1  16
TORSDOF 4
ENDMDL
MODEL 4
REMARK VINA RESULT:      -7.9      3.965      8.970
REMARK  4 active torsions:
REMARK  status: ('A' for Active; 'I' for Inactive)
REMARK    1  A    between atoms: N5_5  and  C6_6 
REMARK    2  A    between atoms: C6_6  and  C7_7 
REMARK    3  A    between atoms: C7_7  and  C8_8 
REMARK    4  A    between atoms: C8_8  and  N9_9 
ROOT
ATOM      1  N9  ZIN A   1      18.513   1.532  14.585  0.00  0.00    -0.345 N 
ATOM      2  C10 ZIN A   1      18.630   1.065  15.892  0.00  0.00     0.052 A 
ATOM      3  C11 ZIN A   1      18.323  -0.265  16.157  0.00  0.00     0.031 A 
ATOM      4  C12 ZIN A   1      18.432  -0.764  17.442  0.00  0.00     0.002 A 
ATOM      5  C13 ZIN A   1      18.849   0.056  18.472  0.00  0.00     0.002 A 
ATOM      6  C14 ZIN A   1      19.157   1.380  18.219  0.00  0.00     0.021 A 
ATOM      7  C15 ZIN A   1      19.048   1.889  16.932  0.00  0.00     0.032 A 
ATOM      8  S16 ZIN A   1      19.439   3.580  16.638  0.00  0.00    -0.086 SA
ATOM      9  C17 ZIN A   1      18.690   3.909  15.079  0.00  0.00     0.032 A 
ATOM     10  C18 ZIN A   1      18.479   5.224  14.690  0.00  0.00     0.023 A 
ATOM     11  C19 ZIN A   1      17.891   5.504  13.470  0.00  0.00     0.025 A 
ATOM     12  C20 ZIN A   1      17.510   4.470  12.634  0.00  0.00     0.036 A 
ATOM     13 Cl21 ZIN A   1      16.770   4.822  11.103  0.00  0.00    -0.084 Cl
ATOM     14  C22 ZIN A   1      17.717   3.157  13.015  0.00  0.00     0.054 A 
ATOM     15  C23 ZIN A   1      18.316   2.866  14.239  0.00  0.00     0.053 A 
ENDROOT
BRANCH   1  16
ATOM     16  C8  ZIN A   1      18.609   0.553  13.499  0.00  0.00     0.131 C 
BRANCH  16  17
ATOM     17  C7  ZIN A   1      20.081   0.249  13.215  0.00  0.00     0.050 C 
BRANCH  17  18
ATOM     18  C6  ZIN A   1      20.504   0.941  11.918  0.00  0.00     0.274 C 
BRANCH  18  19
ATOM     19  N5  ZIN A   1      19.611   0.525  10.828  0.00  0.00     0.091 N 
ATOM     20  C4  ZIN A   1      20.240  -0.513   9.999  0.00  0.00     0.302 C 
ATOM     21  C3  ZIN A   1      19.249  -0.974   8.926  0.00  0.00     0.302 C 
ATOM     22  N2  ZIN A   1      18.846   0.177   8.108  0.00  0.00     0.087 N 
ATOM     23  C1  ZIN A   1      17.953  -0.239   7.018  0.00  0.00     0.310 C 
ATOM     24  C25 ZIN A   1      18.217   1.215   8.937  0.00  0.00     0.302 C 
ATOM     25  C24 ZIN A   1      19.207   1.676  10.010  0.00  0.00     0.302 C 
ENDBRANCH  18  19
ENDBRANCH  17  18
ENDBRANCH  16  17
ENDBRANCH   1  16
TORSDOF 4
ENDMDL
MODEL 5
REMARK VINA RESULT:      -7.9      2.400      3.885
REMARK  4 active torsions:
REMARK  status: ('A' for Active; 'I' for Inactive)
REMARK    1  A    between atoms: N5_5  and  C6_6 
REMARK    2  A    between atoms: C6_6  and  C7_7 
REMARK    3  A    between atoms: C7_7  and  C8_8 
REMARK    4  A    between atoms: C8_8  and  N9_9 
ROOT
ATOM      1  N9  ZIN A   1      18.023  -0.587  11.419  0.00  0.00    -0.345 N 
ATOM      2  C10 ZIN A   1      18.151   0.701  10.906  0.00  0.00     0.052 A 
ATOM      3  C11 ZIN A   1      17.550   1.755  11.586  0.00  0.00     0.031 A 
ATOM      4  C12 ZIN A   1      17.660   3.047  11.108  0.00  0.00     0.002 A 
ATOM      5  C13 ZIN A   1      18.370   3.301   9.950  0.00  0.00     0.002 A 
ATOM      6  C14 ZIN A   1      18.972   2.261   9.266  0.00  0.00     0.021 A 
ATOM      7  C15 ZIN A   1      18.864   0.960   9.739  0.00  0.00     0.032 A 
ATOM      8  S16 ZIN A   1      19.633  -0.348   8.846  0.00  0.00    -0.086 SA
ATOM      9  C17 ZIN A   1      18.836  -1.791   9.466  0.00  0.00     0.032 A 
ATOM     10  C18 ZIN A   1      18.922  -2.975   8.748  0.00  0.00     0.023 A 
ATOM     11  C19 ZIN A   1      18.302  -4.120   9.217  0.00  0.00     0.025 A 
ATOM     12  C20 ZIN A   1      17.593  -4.084  10.404  0.00  0.00     0.036 A 
ATOM     13 Cl21 ZIN A   1      16.814  -5.521  10.990  0.00  0.00    -0.084 Cl
ATOM     14  C22 ZIN A   1      17.504  -2.907  11.124  0.00  0.00     0.054 A 
ATOM     15  C23 ZIN A   1      18.131  -1.752  10.663  0.00  0.00     0.053 A 
ENDROOT
BRANCH   1  16
ATOM     16  C8  ZIN A   1      17.762  -0.728  12.854  0.00  0.00     0.131 C 
BRANCH  16  17
ATOM     17  C7  ZIN A   1      19.089  -0.739  13.615  0.00  0.00     0.050 C 
BRANCH  17  18
ATOM     18  C6  ZIN A   1      18.862  -1.282  15.027  0.00  0.00     0.274 C 
BRANCH  18  19
ATOM     19  N5  ZIN A   1      18.573  -0.168  15.940  0.00  0.00     0.091 N 
ATOM     20  C4  ZIN A   1      19.208   1.073  15.473  0.00  0.00     0.302 C 
ATOM     21  C3  ZIN A   1      18.819   2.223  16.405  0.00  0.00     0.302 C 
ATOM     22  N2  ZIN A   1      19.239   1.903  17.776  0.00  0.00     0.087 N 
ATOM     23  C1  ZIN A   1      18.951   3.018  18.689  0.00  0.00     0.310 C 
ATOM     24  C25 ZIN A   1      18.605   0.662  18.243  0.00  0.00     0.302 C 
ATOM     25  C24 ZIN A   1      18.994  -0.488  17.311  0.00  0.00     0.302 C 
ENDBRANCH  18  19
ENDBRANCH  17  18
ENDBRANCH  16  17
ENDBRANCH   1  16
TORSDOF 4
ENDMDL
MODEL 6
REMARK VINA RESULT:      -7.8      3.911      8.331
REMARK  4 active torsions:
REMARK  status: ('A' for Active; 'I' for Inactive)
REMARK    1  A    between atoms: N5_5  and  C6_6 
REMARK    2  A    between atoms: C6_6  and  C7_7 
REMARK    3  A    between atoms: C7_7  and  C8_8 
REMARK    4  A    between atoms: C8_8  and  N9_9 
ROOT
ATOM      1  N9  ZIN A   1      18.538   1.155  13.763  0.00  0.00    -0.345 N 
ATOM      2  C10 ZIN A   1      18.632   0.533  15.006  0.00  0.00     0.052 A 
ATOM      3  C11 ZIN A   1      18.372  -0.830  15.094  0.00  0.00     0.031 A 
ATOM      4  C12 ZIN A   1      18.460  -1.481  16.310  0.00  0.00     0.002 A 
ATOM      5  C13 ZIN A   1      18.808  -0.780  17.448  0.00  0.00     0.002 A 
ATOM      6  C14 ZIN A   1      19.069   0.575  17.373  0.00  0.00     0.021 A 
ATOM      7  C15 ZIN A   1      18.981   1.237  16.155  0.00  0.00     0.032 A 
ATOM      8  S16 ZIN A   1      19.310   2.964  16.086  0.00  0.00    -0.086 SA
ATOM      9  C17 ZIN A   1      18.599   3.457  14.552  0.00  0.00     0.032 A 
ATOM     10  C18 ZIN A   1      18.347   4.801  14.321  0.00  0.00     0.023 A 
ATOM     11  C19 ZIN A   1      17.787   5.209  13.123  0.00  0.00     0.025 A 
ATOM     12  C20 ZIN A   1      17.478   4.274  12.153  0.00  0.00     0.036 A 
ATOM     13 Cl21 ZIN A   1      16.775   4.786  10.650  0.00  0.00    -0.084 Cl
ATOM     14  C22 ZIN A   1      17.727   2.932  12.377  0.00  0.00     0.054 A 
ATOM     15  C23 ZIN A   1      18.297   2.514  13.577  0.00  0.00     0.053 A 
ENDROOT
BRANCH   1  16
ATOM     16  C8  ZIN A   1      18.710   0.323  12.569  0.00  0.00     0.131 C 
BRANCH  16  17
ATOM     17  C7  ZIN A   1      20.199   0.216  12.233  0.00  0.00     0.050 C 
BRANCH  17  18
ATOM     18  C6  ZIN A   1      20.373  -0.581  10.939  0.00  0.00     0.274 C 
BRANCH  18  19
ATOM     19  N5  ZIN A   1      19.460  -1.732  10.946  0.00  0.00     0.091 N 
ATOM     20  C4  ZIN A   1      20.117  -2.922  11.506  0.00  0.00     0.302 C 
ATOM     21  C3  ZIN A   1      19.111  -4.074  11.569  0.00  0.00     0.302 C 
ATOM     22  N2  ZIN A   1      18.595  -4.346  10.221  0.00  0.00     0.087 N 
ATOM     23  C1  ZIN A   1      17.682  -5.497  10.228  0.00  0.00     0.310 C 
ATOM     24  C25 ZIN A   1      17.939  -3.156   9.661  0.00  0.00     0.302 C 
ATOM     25  C24 ZIN A   1      18.945  -2.004   9.598  0.00  0.00     0.302 C 
ENDBRANCH  18  19
ENDBRANCH  17  18
ENDBRANCH  16  17
ENDBRANCH   1  16
TORSDOF 4
ENDMDL
MODEL 7
REMARK VINA RESULT:      -7.7      3.624      7.713
REMARK  4 active torsions:
REMARK  status: ('A' for Active; 'I' for Inactive)
REMARK    1  A    between atoms: N5_5  and  C6_6 
REMARK    2  A    between atoms: C6_6  and  C7_7 
REMARK    3  A    between atoms: C7_7  and  C8_8 
REMARK    4  A    between atoms: C8_8  and  N9_9 
ROOT
ATOM      1  N9  ZIN A   1      17.915   1.333  11.593  0.00  0.00    -0.345 N 
ATOM      2  C10 ZIN A   1      18.049  -0.024  11.874  0.00  0.00     0.052 A 
ATOM      3  C11 ZIN A   1      17.456  -0.946  11.018  0.00  0.00     0.031 A 
ATOM      4  C12 ZIN A   1      17.572  -2.302  11.264  0.00  0.00     0.002 A 
ATOM      5  C13 ZIN A   1      18.280  -2.750  12.362  0.00  0.00     0.002 A 
ATOM      6  C14 ZIN A   1      18.873  -1.842  13.219  0.00  0.00     0.021 A 
ATOM      7  C15 ZIN A   1      18.760  -0.479  12.980  0.00  0.00     0.032 A 
ATOM      8  S16 ZIN A   1      19.519   0.656  14.091  0.00  0.00    -0.086 SA
ATOM      9  C17 ZIN A   1      18.716   2.182  13.729  0.00  0.00     0.032 A 
ATOM     10  C18 ZIN A   1      18.793   3.223  14.643  0.00  0.00     0.023 A 
ATOM     11  C19 ZIN A   1      18.168   4.429  14.379  0.00  0.00     0.025 A 
ATOM     12  C20 ZIN A   1      17.463   4.597  13.202  0.00  0.00     0.036 A 
ATOM     13 Cl21 ZIN A   1      16.678   6.110  12.872  0.00  0.00    -0.084 Cl
ATOM     14  C22 ZIN A   1      17.382   3.563  12.287  0.00  0.00     0.054 A 
ATOM     15  C23 ZIN A   1      18.015   2.349  12.541  0.00  0.00     0.053 A 
ENDROOT
BRANCH   1  16
ATOM     16  C8  ZIN A   1      17.657   1.721  10.204  0.00  0.00     0.131 C 
BRANCH  16  17
ATOM     17  C7  ZIN A   1      18.932   2.308   9.593  0.00  0.00     0.050 C 
BRANCH  17  18
ATOM     18  C6  ZIN A   1      19.738   1.192   8.926  0.00  0.00     0.274 C 
BRANCH  18  19
ATOM     19  N5  ZIN A   1      18.890   0.492   7.952  0.00  0.00     0.091 N 
ATOM     20  C4  ZIN A   1      19.269  -0.924   7.846  0.00  0.00     0.302 C 
ATOM     21  C3  ZIN A   1      18.313  -1.635   6.883  0.00  0.00     0.302 C 
ATOM     22  N2  ZIN A   1      18.368  -0.978   5.570  0.00  0.00     0.087 N 
ATOM     23  C1  ZIN A   1      17.520  -1.679   4.596  0.00  0.00     0.310 C 
ATOM     24  C25 ZIN A   1      17.990   0.438   5.676  0.00  0.00     0.302 C 
ATOM     25  C24 ZIN A   1      18.945   1.148   6.638  0.00  0.00     0.302 C 
ENDBRANCH  18  19
ENDBRANCH  17  18
ENDBRANCH  16  17
ENDBRANCH   1  16
TORSDOF 4
ENDMDL
MODEL 8
REMARK VINA RESULT:      -7.6      4.089      5.933
REMARK  4 active torsions:
REMARK  status: ('A' for Active; 'I' for Inactive)
REMARK    1  A    between atoms: N5_5  and  C6_6 
REMARK    2  A    between atoms: C6_6  and  C7_7 
REMARK    3  A    between atoms: C7_7  and  C8_8 
REMARK    4  A    between atoms: C8_8  and  N9_9 
ROOT
ATOM      1  N9  ZIN A   1      18.554   1.976  12.597  0.00  0.00    -0.345 N 
ATOM      2  C10 ZIN A   1      18.786   1.898  11.225  0.00  0.00     0.052 A 
ATOM      3  C11 ZIN A   1      18.287   2.903  10.404  0.00  0.00     0.031 A 
ATOM      4  C12 ZIN A   1      18.501   2.860   9.039  0.00  0.00     0.002 A 
ATOM      5  C13 ZIN A   1      19.215   1.817   8.481  0.00  0.00     0.002 A 
ATOM      6  C14 ZIN A   1      19.715   0.812   9.289  0.00  0.00     0.021 A 
ATOM      7  C15 ZIN A   1      19.503   0.847  10.660  0.00  0.00     0.032 A 
ATOM      8  S16 ZIN A   1      20.144  -0.447  11.665  0.00  0.00    -0.086 SA
ATOM      9  C17 ZIN A   1      19.234  -0.291  13.165  0.00  0.00     0.032 A 
ATOM     10  C18 ZIN A   1      19.208  -1.353  14.058  0.00  0.00     0.023 A 
ATOM     11  C19 ZIN A   1      18.498  -1.251  15.241  0.00  0.00     0.025 A 
ATOM     12  C20 ZIN A   1      17.811  -0.087  15.535  0.00  0.00     0.036 A 
ATOM     13 Cl21 ZIN A   1      16.920   0.039  17.019  0.00  0.00    -0.084 Cl
ATOM     14  C22 ZIN A   1      17.833   0.975  14.650  0.00  0.00     0.054 A 
ATOM     15  C23 ZIN A   1      18.552   0.883  13.460  0.00  0.00     0.053 A 
ENDROOT
BRANCH   1  16
ATOM     16  C8  ZIN A   1      18.301   3.300  13.172  0.00  0.00     0.131 C 
BRANCH  16  17
ATOM     17  C7  ZIN A   1      19.603   4.103  13.196  0.00  0.00     0.050 C 
BRANCH  17  18
ATOM     18  C6  ZIN A   1      19.524   5.168  14.291  0.00  0.00     0.274 C 
BRANCH  18  19
ATOM     19  N5  ZIN A   1      18.774   4.638  15.437  0.00  0.00     0.091 N 
ATOM     20  C4  ZIN A   1      18.071   5.713  16.149  0.00  0.00     0.302 C 
ATOM     21  C3  ZIN A   1      17.240   5.110  17.286  0.00  0.00     0.302 C 
ATOM     22  N2  ZIN A   1      18.124   4.370  18.196  0.00  0.00     0.087 N 
ATOM     23  C1  ZIN A   1      17.374   3.839  19.342  0.00  0.00     0.310 C 
ATOM     24  C25 ZIN A   1      18.828   3.295  17.483  0.00  0.00     0.302 C 
ATOM     25  C24 ZIN A   1      19.658   3.897  16.347  0.00  0.00     0.302 C 
ENDBRANCH  18  19
ENDBRANCH  17  18
ENDBRANCH  16  17
ENDBRANCH   1  16
TORSDOF 4
ENDMDL
MODEL 9
REMARK VINA RESULT:      -7.3      3.456      7.473
REMARK  4 active torsions:
REMARK  status: ('A' for Active; 'I' for Inactive)
REMARK    1  A    between atoms: N5_5  and  C6_6 
REMARK    2  A    between atoms: C6_6  and  C7_7 
REMARK    3  A    between atoms: C7_7  and  C8_8 
REMARK    4  A    between atoms: C8_8  and  N9_9 
ROOT
ATOM      1  N9  ZIN A   1      18.053   0.461  10.448  0.00  0.00    -0.345 N 
ATOM      2  C10 ZIN A   1      18.273  -0.743  11.114  0.00  0.00     0.052 A 
ATOM      3  C11 ZIN A   1      17.448  -1.825  10.830  0.00  0.00     0.031 A 
ATOM      4  C12 ZIN A   1      17.639  -3.036  11.469  0.00  0.00     0.002 A 
ATOM      5  C13 ZIN A   1      18.654  -3.178  12.396  0.00  0.00     0.002 A 
ATOM      6  C14 ZIN A   1      19.479  -2.108  12.687  0.00  0.00     0.021 A 
ATOM      7  C15 ZIN A   1      19.292  -0.888  12.050  0.00  0.00     0.032 A 
ATOM      8  S16 ZIN A   1      20.352   0.461  12.443  0.00  0.00    -0.086 SA
ATOM      9  C17 ZIN A   1      19.471   1.862  11.844  0.00  0.00     0.032 A 
ATOM     10  C18 ZIN A   1      19.822   3.128  12.292  0.00  0.00     0.023 A 
ATOM     11  C19 ZIN A   1      19.141   4.242  11.835  0.00  0.00     0.025 A 
ATOM     12  C20 ZIN A   1      18.106   4.095  10.929  0.00  0.00     0.036 A 
ATOM     13 Cl21 ZIN A   1      17.252   5.494  10.357  0.00  0.00    -0.084 Cl
ATOM     14  C22 ZIN A   1      17.752   2.837  10.479  0.00  0.00     0.054 A 
ATOM     15  C23 ZIN A   1      18.436   1.710  10.928  0.00  0.00     0.053 A 
ENDROOT
BRANCH   1  16
ATOM     16  C8  ZIN A   1      17.378   0.408   9.149  0.00  0.00     0.131 C 
BRANCH  16  17
ATOM     17  C7  ZIN A   1      18.406   0.594   8.031  0.00  0.00     0.050 C 
BRANCH  17  18
ATOM     18  C6  ZIN A   1      19.501  -0.466   8.165  0.00  0.00     0.274 C 
BRANCH  18  19
ATOM     19  N5  ZIN A   1      19.453  -1.368   7.007  0.00  0.00     0.091 N 
ATOM     20  C4  ZIN A   1      18.724  -0.753   5.889  0.00  0.00     0.302 C 
ATOM     21  C3  ZIN A   1      18.766  -1.690   4.679  0.00  0.00     0.302 C 
ATOM     22  N2  ZIN A   1      18.172  -2.983   5.043  0.00  0.00     0.087 N 
ATOM     23  C1  ZIN A   1      18.124  -3.886   3.885  0.00  0.00     0.310 C 
ATOM     24  C25 ZIN A   1      18.901  -3.598   6.162  0.00  0.00     0.302 C 
ATOM     25  C24 ZIN A   1      18.859  -2.662   7.371  0.00  0.00     0.302 C 
ENDBRANCH  18  19
ENDBRANCH  17  18
ENDBRANCH  16  17
ENDBRANCH   1  16
TORSDOF 4
ENDMDL
