MODEL 1
REMARK VINA RESULT:      -8.8      0.000      0.000
REMARK  5 active torsions:
REMARK  status: ('A' for Active; 'I' for Inactive)
REMARK    1  A    between atoms: C2_2  and  C3_3 
REMARK    2  A    between atoms: C3_3  and  N5_4 
REMARK    3  A    between atoms: C3_3  and  C15_14 
REMARK    4  A    between atoms: N5_4  and  C6_5 
REMARK    5  A    between atoms: N26_25  and  C27_26 
ROOT
ATOM      1  C15 ZIN A   1      19.040  -3.648   7.197  0.00  0.00     0.137 A 
ATOM      2  N16 ZIN A   1      19.376  -2.959   6.149  0.00  0.00    -0.232 NA
ATOM      3  C17 ZIN A   1      19.174  -1.619   6.084  0.00  0.00     0.077 A 
ATOM      4  C18 ZIN A   1      19.533  -0.879   4.958  0.00  0.00     0.033 A 
ATOM      5  C19 ZIN A   1      19.310   0.481   4.934  0.00  0.00     0.005 A 
ATOM      6  C20 ZIN A   1      18.732   1.127   6.017  0.00  0.00     0.043 A 
ATOM      7  C21 ZIN A   1      18.368   0.417   7.145  0.00  0.00     0.134 A 
ATOM      8  F22 ZIN A   1      17.806   1.051   8.196  0.00  0.00    -0.205 F 
ATOM      9  C23 ZIN A   1      18.585  -0.960   7.188  0.00  0.00     0.100 A 
ATOM     10  C24 ZIN A   1      18.219  -1.768   8.358  0.00  0.00     0.269 A 
ATOM     11  O25 ZIN A   1      17.708  -1.262   9.341  0.00  0.00    -0.266 OA
ATOM     12  N26 ZIN A   1      18.465  -3.098   8.301  0.00  0.00    -0.264 N 
ENDROOT
BRANCH   1  13
ATOM     13  C3  ZIN A   1      19.297  -5.133   7.190  0.00  0.00     0.153 C 
BRANCH  13  14
ATOM     14  C2  ZIN A   1      20.797  -5.392   7.344  0.00  0.00     0.028 C 
ATOM     15  C1  ZIN A   1      21.058  -6.115   8.667  0.00  0.00     0.007 C 
ENDBRANCH  13  14
BRANCH  13  16
ATOM     16  N5  ZIN A   1      18.832  -5.703   5.923  0.00  0.00    -0.361 N 
ATOM     17  H38 ZIN A   1      19.470  -6.077   5.295  0.00  0.00     0.162 HD
BRANCH  16  18
ATOM     18  C6  ZIN A   1      17.480  -5.707   5.621  0.00  0.00     0.156 A 
ATOM     19  N14 ZIN A   1      16.620  -6.410   6.353  0.00  0.00    -0.222 NA
ATOM     20  C13 ZIN A   1      15.329  -6.416   6.074  0.00  0.00     0.237 A 
ATOM     21  N12 ZIN A   1      14.823  -5.745   5.064  0.00  0.00    -0.220 NA
ATOM     22  C11 ZIN A   1      15.611  -5.014   4.270  0.00  0.00     0.182 A 
ATOM     23  C7  ZIN A   1      16.990  -4.978   4.537  0.00  0.00     0.127 A 
ATOM     24  N10 ZIN A   1      15.402  -4.238   3.189  0.00  0.00    -0.222 NA
ATOM     25  N8  ZIN A   1      17.544  -4.161   3.574  0.00  0.00    -0.345 N 
ATOM     26  C9  ZIN A   1      16.535  -3.737   2.780  0.00  0.00     0.210 A 
ATOM     27  H39 ZIN A   1      18.482  -3.931   3.484  0.00  0.00     0.167 HD
ENDBRANCH  16  18
ENDBRANCH  13  16
ENDBRANCH   1  13
BRANCH  12  28
ATOM     28  C27 ZIN A   1      18.133  -3.913   9.391  0.00  0.00     0.044 A 
ATOM     29  C32 ZIN A   1      16.952  -4.642   9.380  0.00  0.00     0.030 A 
ATOM     30  C31 ZIN A   1      16.629  -5.447  10.455  0.00  0.00     0.002 A 
ATOM     31  C30 ZIN A   1      17.477  -5.520  11.545  0.00  0.00     0.000 A 
ATOM     32  C29 ZIN A   1      18.652  -4.790  11.561  0.00  0.00     0.002 A 
ATOM     33  C28 ZIN A   1      18.982  -3.987  10.487  0.00  0.00     0.030 A 
ENDBRANCH  12  28
TORSDOF 5
ENDMDL
MODEL 2
REMARK VINA RESULT:      -8.6      9.874     13.308
REMARK  5 active torsions:
REMARK  status: ('A' for Active; 'I' for Inactive)
REMARK    1  A    between atoms: C2_2  and  C3_3 
REMARK    2  A    between atoms: C3_3  and  N5_4 
REMARK    3  A    between atoms: C3_3  and  C15_14 
REMARK    4  A    between atoms: N5_4  and  C6_5 
REMARK    5  A    between atoms: N26_25  and  C27_26 
ROOT
ATOM      1  C15 ZIN A   1      18.843   3.700  15.896  0.00  0.00     0.137 A 
ATOM      2  N16 ZIN A   1      19.214   3.034  16.946  0.00  0.00    -0.232 NA
ATOM      3  C17 ZIN A   1      19.069   1.687  17.022  0.00  0.00     0.077 A 
ATOM      4  C18 ZIN A   1      19.467   0.971  18.151  0.00  0.00     0.033 A 
ATOM      5  C19 ZIN A   1      19.301  -0.397  18.187  0.00  0.00     0.005 A 
ATOM      6  C20 ZIN A   1      18.743  -1.075  17.112  0.00  0.00     0.043 A 
ATOM      7  C21 ZIN A   1      18.342  -0.389  15.982  0.00  0.00     0.134 A 
ATOM      8  F22 ZIN A   1      17.799  -1.054  14.939  0.00  0.00    -0.205 F 
ATOM      9  C23 ZIN A   1      18.501   0.996  15.928  0.00  0.00     0.100 A 
ATOM     10  C24 ZIN A   1      18.093   1.779  14.754  0.00  0.00     0.269 A 
ATOM     11  O25 ZIN A   1      17.597   1.245  13.778  0.00  0.00    -0.266 OA
ATOM     12  N26 ZIN A   1      18.283   3.118  14.801  0.00  0.00    -0.264 N 
ENDROOT
BRANCH   1  13
ATOM     13  C3  ZIN A   1      19.038   5.195  15.891  0.00  0.00     0.153 C 
BRANCH  13  14
ATOM     14  C2  ZIN A   1      20.511   5.516  15.636  0.00  0.00     0.028 C 
ATOM     15  C1  ZIN A   1      20.630   6.450  14.430  0.00  0.00     0.007 C 
ENDBRANCH  13  14
BRANCH  13  16
ATOM     16  N5  ZIN A   1      18.635   5.744  17.188  0.00  0.00    -0.361 N 
ATOM     17  H38 ZIN A   1      19.306   6.082  17.801  0.00  0.00     0.162 HD
BRANCH  16  18
ATOM     18  C6  ZIN A   1      17.295   5.779  17.539  0.00  0.00     0.156 A 
ATOM     19  N14 ZIN A   1      16.428   6.510  16.843  0.00  0.00    -0.222 NA
ATOM     20  C13 ZIN A   1      15.149   6.546  17.170  0.00  0.00     0.237 A 
ATOM     21  N12 ZIN A   1      14.663   5.880  18.193  0.00  0.00    -0.220 NA
ATOM     22  C11 ZIN A   1      15.460   5.123  18.953  0.00  0.00     0.182 A 
ATOM     23  C7  ZIN A   1      16.826   5.055  18.636  0.00  0.00     0.127 A 
ATOM     24  N10 ZIN A   1      15.270   4.345  20.036  0.00  0.00    -0.222 NA
ATOM     25  N8  ZIN A   1      17.394   4.217  19.572  0.00  0.00    -0.345 N 
ATOM     26  C9  ZIN A   1      16.404   3.813  20.399  0.00  0.00     0.210 A 
ATOM     27  H39 ZIN A   1      18.329   3.963  19.626  0.00  0.00     0.167 HD
ENDBRANCH  16  18
ENDBRANCH  13  16
ENDBRANCH   1  13
BRANCH  12  28
ATOM     28  C27 ZIN A   1      17.910   3.910  13.707  0.00  0.00     0.044 A 
ATOM     29  C32 ZIN A   1      16.763   4.690  13.773  0.00  0.00     0.030 A 
ATOM     30  C31 ZIN A   1      16.400   5.474  12.694  0.00  0.00     0.002 A 
ATOM     31  C30 ZIN A   1      17.171   5.472  11.547  0.00  0.00     0.000 A 
ATOM     32  C29 ZIN A   1      18.311   4.692  11.476  0.00  0.00     0.002 A 
ATOM     33  C28 ZIN A   1      18.683   3.911  12.553  0.00  0.00     0.030 A 
ENDBRANCH  12  28
TORSDOF 5
ENDMDL
MODEL 3
REMARK VINA RESULT:      -8.5      7.067     10.075
REMARK  5 active torsions:
REMARK  status: ('A' for Active; 'I' for Inactive)
REMARK    1  A    between atoms: C2_2  and  C3_3 
REMARK    2  A    between atoms: C3_3  and  N5_4 
REMARK    3  A    between atoms: C3_3  and  C15_14 
REMARK    4  A    between atoms: N5_4  and  C6_5 
REMARK    5  A    between atoms: N26_25  and  C27_26 
ROOT
ATOM      1  C15 ZIN A   1      18.963   2.403  13.966  0.00  0.00     0.137 A 
ATOM      2  N16 ZIN A   1      19.069   1.109  13.999  0.00  0.00    -0.232 NA
ATOM      3  C17 ZIN A   1      19.068   0.425  15.171  0.00  0.00     0.077 A 
ATOM      4  C18 ZIN A   1      19.184  -0.965  15.206  0.00  0.00     0.033 A 
ATOM      5  C19 ZIN A   1      19.178  -1.621  16.418  0.00  0.00     0.005 A 
ATOM      6  C20 ZIN A   1      19.058  -0.917  17.608  0.00  0.00     0.043 A 
ATOM      7  C21 ZIN A   1      18.942   0.460  17.600  0.00  0.00     0.134 A 
ATOM      8  F22 ZIN A   1      18.825   1.140  18.761  0.00  0.00    -0.205 F 
ATOM      9  C23 ZIN A   1      18.946   1.142  16.383  0.00  0.00     0.100 A 
ATOM     10  C24 ZIN A   1      18.826   2.603  16.311  0.00  0.00     0.269 A 
ATOM     11  O25 ZIN A   1      18.718   3.280  17.318  0.00  0.00    -0.266 OA
ATOM     12  N26 ZIN A   1      18.846   3.172  15.083  0.00  0.00    -0.264 N 
ENDROOT
BRANCH   1  13
ATOM     13  C3  ZIN A   1      18.973   3.088  12.624  0.00  0.00     0.153 C 
BRANCH  13  14
ATOM     14  C2  ZIN A   1      17.617   2.895  11.942  0.00  0.00     0.028 C 
ATOM     15  C1  ZIN A   1      17.076   4.252  11.488  0.00  0.00     0.007 C 
ENDBRANCH  13  14
BRANCH  13  16
ATOM     16  N5  ZIN A   1      20.027   2.508  11.787  0.00  0.00    -0.361 N 
ATOM     17  H38 ZIN A   1      20.959   2.622  12.032  0.00  0.00     0.162 HD
BRANCH  16  18
ATOM     18  C6  ZIN A   1      19.693   1.798  10.646  0.00  0.00     0.156 A 
ATOM     19  N14 ZIN A   1      19.396   2.430   9.514  0.00  0.00    -0.222 NA
ATOM     20  C13 ZIN A   1      19.080   1.760   8.420  0.00  0.00     0.237 A 
ATOM     21  N12 ZIN A   1      19.030   0.448   8.386  0.00  0.00    -0.220 NA
ATOM     22  C11 ZIN A   1      19.308  -0.272   9.477  0.00  0.00     0.182 A 
ATOM     23  C7  ZIN A   1      19.653   0.403  10.659  0.00  0.00     0.127 A 
ATOM     24  N10 ZIN A   1      19.343  -1.589   9.754  0.00  0.00    -0.222 NA
ATOM     25  N8  ZIN A   1      19.882  -0.575  11.604  0.00  0.00    -0.345 N 
ATOM     26  C9  ZIN A   1      19.681  -1.768  11.001  0.00  0.00     0.210 A 
ATOM     27  H39 ZIN A   1      20.142  -0.434  12.528  0.00  0.00     0.167 HD
ENDBRANCH  16  18
ENDBRANCH  13  16
ENDBRANCH   1  13
BRANCH  12  28
ATOM     28  C27 ZIN A   1      18.736   4.563  14.960  0.00  0.00     0.044 A 
ATOM     29  C32 ZIN A   1      17.485   5.164  14.967  0.00  0.00     0.030 A 
ATOM     30  C31 ZIN A   1      17.379   6.537  14.850  0.00  0.00     0.002 A 
ATOM     31  C30 ZIN A   1      18.518   7.310  14.715  0.00  0.00     0.000 A 
ATOM     32  C29 ZIN A   1      19.765   6.713  14.701  0.00  0.00     0.002 A 
ATOM     33  C28 ZIN A   1      19.878   5.342  14.824  0.00  0.00     0.030 A 
ENDBRANCH  12  28
TORSDOF 5
ENDMDL
MODEL 4
REMARK VINA RESULT:      -8.4      5.454      8.215
REMARK  5 active torsions:
REMARK  status: ('A' for Active; 'I' for Inactive)
REMARK    1  A    between atoms: C2_2  and  C3_3 
REMARK    2  A    between atoms: C3_3  and  N5_4 
REMARK    3  A    between atoms: C3_3  and  C15_14 
REMARK    4  A    between atoms: N5_4  and  C6_5 
REMARK    5  A    between atoms: N26_25  and  C27_26 
ROOT
ATOM      1  C15 ZIN A   1      18.706   0.099  13.554  0.00  0.00     0.137 A 
ATOM      2  N16 ZIN A   1      18.810  -0.657  14.605  0.00  0.00    -0.232 NA
ATOM      3  C17 ZIN A   1      18.958  -0.132  15.847  0.00  0.00     0.077 A 
ATOM      4  C18 ZIN A   1      19.070  -0.944  16.976  0.00  0.00     0.033 A 
ATOM      5  C19 ZIN A   1      19.219  -0.370  18.219  0.00  0.00     0.005 A 
ATOM      6  C20 ZIN A   1      19.258   1.009  18.366  0.00  0.00     0.043 A 
ATOM      7  C21 ZIN A   1      19.149   1.836  17.265  0.00  0.00     0.134 A 
ATOM      8  F22 ZIN A   1      19.188   3.178  17.414  0.00  0.00    -0.205 F 
ATOM      9  C23 ZIN A   1      18.998   1.273  15.997  0.00  0.00     0.100 A 
ATOM     10  C24 ZIN A   1      18.877   2.100  14.790  0.00  0.00     0.269 A 
ATOM     11  O25 ZIN A   1      18.904   3.315  14.850  0.00  0.00    -0.266 OA
ATOM     12  N26 ZIN A   1      18.740   1.458  13.605  0.00  0.00    -0.264 N 
ENDROOT
BRANCH   1  13
ATOM     13  C3  ZIN A   1      18.545  -0.562  12.210  0.00  0.00     0.153 C 
BRANCH  13  14
ATOM     14  C2  ZIN A   1      17.069  -0.891  11.976  0.00  0.00     0.028 C 
ATOM     15  C1  ZIN A   1      16.567  -0.137  10.744  0.00  0.00     0.007 C 
ENDBRANCH  13  14
BRANCH  13  16
ATOM     16  N5  ZIN A   1      19.331  -1.798  12.176  0.00  0.00    -0.361 N 
ATOM     17  H38 ZIN A   1      20.125  -1.884  12.727  0.00  0.00     0.162 HD
BRANCH  16  18
ATOM     18  C6  ZIN A   1      18.942  -2.844  11.355  0.00  0.00     0.156 A 
ATOM     19  N14 ZIN A   1      18.456  -3.970  11.871  0.00  0.00    -0.222 NA
ATOM     20  C13 ZIN A   1      18.080  -4.970  11.095  0.00  0.00     0.237 A 
ATOM     21  N12 ZIN A   1      18.170  -4.920   9.785  0.00  0.00    -0.220 NA
ATOM     22  C11 ZIN A   1      18.651  -3.831   9.178  0.00  0.00     0.182 A 
ATOM     23  C7  ZIN A   1      19.058  -2.744   9.968  0.00  0.00     0.127 A 
ATOM     24  N10 ZIN A   1      18.863  -3.483   7.895  0.00  0.00    -0.222 NA
ATOM     25  N8  ZIN A   1      19.503  -1.779   9.089  0.00  0.00    -0.345 N 
ATOM     26  C9  ZIN A   1      19.362  -2.279   7.842  0.00  0.00     0.210 A 
ATOM     27  H39 ZIN A   1      19.851  -0.903   9.323  0.00  0.00     0.167 HD
ENDBRANCH  16  18
ENDBRANCH  13  16
ENDBRANCH   1  13
BRANCH  12  28
ATOM     28  C27 ZIN A   1      18.621   2.201  12.424  0.00  0.00     0.044 A 
ATOM     29  C32 ZIN A   1      19.613   2.130  11.455  0.00  0.00     0.030 A 
ATOM     30  C31 ZIN A   1      19.492   2.860  10.289  0.00  0.00     0.002 A 
ATOM     31  C30 ZIN A   1      18.389   3.670  10.091  0.00  0.00     0.000 A 
ATOM     32  C29 ZIN A   1      17.402   3.748  11.057  0.00  0.00     0.002 A 
ATOM     33  C28 ZIN A   1      17.515   3.015  12.223  0.00  0.00     0.030 A 
ENDBRANCH  12  28
TORSDOF 5
ENDMDL
MODEL 5
REMARK VINA RESULT:      -8.4      1.661      2.454
REMARK  5 active torsions:
REMARK  status: ('A' for Active; 'I' for Inactive)
REMARK    1  A    between atoms: C2_2  and  C3_3 
REMARK    2  A    between atoms: C3_3  and  N5_4 
REMARK    3  A    between atoms: C3_3  and  C15_14 
REMARK    4  A    between atoms: N5_4  and  C6_5 
REMARK    5  A    between atoms: N26_25  and  C27_26 
ROOT
ATOM      1  C15 ZIN A   1      18.841  -3.623   7.394  0.00  0.00     0.137 A 
ATOM      2  N16 ZIN A   1      19.128  -2.987   6.299  0.00  0.00    -0.232 NA
ATOM      3  C17 ZIN A   1      19.032  -1.636   6.215  0.00  0.00     0.077 A 
ATOM      4  C18 ZIN A   1      19.341  -0.953   5.038  0.00  0.00     0.033 A 
ATOM      5  C19 ZIN A   1      19.230   0.420   4.996  0.00  0.00     0.005 A 
ATOM      6  C20 ZIN A   1      18.814   1.135   6.110  0.00  0.00     0.043 A 
ATOM      7  C21 ZIN A   1      18.504   0.482   7.287  0.00  0.00     0.134 A 
ATOM      8  F22 ZIN A   1      18.100   1.184   8.368  0.00  0.00    -0.205 F 
ATOM      9  C23 ZIN A   1      18.610  -0.907   7.349  0.00  0.00     0.100 A 
ATOM     10  C24 ZIN A   1      18.293  -1.656   8.572  0.00  0.00     0.269 A 
ATOM     11  O25 ZIN A   1      17.923  -1.088   9.584  0.00  0.00    -0.266 OA
ATOM     12  N26 ZIN A   1      18.421  -3.003   8.530  0.00  0.00    -0.264 N 
ENDROOT
BRANCH   1  13
ATOM     13  C3  ZIN A   1      18.973  -5.124   7.405  0.00  0.00     0.153 C 
BRANCH  13  14
ATOM     14  C2  ZIN A   1      20.415  -5.512   7.077  0.00  0.00     0.028 C 
ATOM     15  C1  ZIN A   1      21.159  -5.855   8.369  0.00  0.00     0.007 C 
ENDBRANCH  13  14
BRANCH  13  16
ATOM     16  N5  ZIN A   1      18.072  -5.701   6.404  0.00  0.00    -0.361 N 
ATOM     17  H38 ZIN A   1      17.965  -5.270   5.541  0.00  0.00     0.162 HD
BRANCH  16  18
ATOM     18  C6  ZIN A   1      17.372  -6.863   6.689  0.00  0.00     0.156 A 
ATOM     19  N14 ZIN A   1      17.957  -8.053   6.582  0.00  0.00    -0.222 NA
ATOM     20  C13 ZIN A   1      17.298  -9.164   6.856  0.00  0.00     0.237 A 
ATOM     21  N12 ZIN A   1      16.039  -9.164   7.234  0.00  0.00    -0.220 NA
ATOM     22  C11 ZIN A   1      15.369  -8.015   7.364  0.00  0.00     0.182 A 
ATOM     23  C7  ZIN A   1      16.036  -6.810   7.087  0.00  0.00     0.127 A 
ATOM     24  N10 ZIN A   1      14.112  -7.692   7.723  0.00  0.00    -0.222 NA
ATOM     25  N8  ZIN A   1      15.116  -5.806   7.301  0.00  0.00    -0.345 N 
ATOM     26  C9  ZIN A   1      13.963  -6.396   7.687  0.00  0.00     0.210 A 
ATOM     27  H39 ZIN A   1      15.268  -4.853   7.197  0.00  0.00     0.167 HD
ENDBRANCH  16  18
ENDBRANCH  13  16
ENDBRANCH   1  13
BRANCH  12  28
ATOM     28  C27 ZIN A   1      18.131  -3.764   9.670  0.00  0.00     0.044 A 
ATOM     29  C32 ZIN A   1      19.085  -3.915  10.667  0.00  0.00     0.030 A 
ATOM     30  C31 ZIN A   1      18.794  -4.662  11.791  0.00  0.00     0.002 A 
ATOM     31  C30 ZIN A   1      17.558  -5.268  11.920  0.00  0.00     0.000 A 
ATOM     32  C29 ZIN A   1      16.607  -5.124  10.926  0.00  0.00     0.002 A 
ATOM     33  C28 ZIN A   1      16.890  -4.373   9.801  0.00  0.00     0.030 A 
ENDBRANCH  12  28
TORSDOF 5
ENDMDL
MODEL 6
REMARK VINA RESULT:      -8.4      5.309      9.174
REMARK  5 active torsions:
REMARK  status: ('A' for Active; 'I' for Inactive)
REMARK    1  A    between atoms: C2_2  and  C3_3 
REMARK    2  A    between atoms: C3_3  and  N5_4 
REMARK    3  A    between atoms: C3_3  and  C15_14 
REMARK    4  A    between atoms: N5_4  and  C6_5 
REMARK    5  A    between atoms: N26_25  and  C27_26 
ROOT
ATOM      1  C15 ZIN A   1      18.251  -1.525  11.862  0.00  0.00     0.137 A 
ATOM      2  N16 ZIN A   1      18.081  -2.726  12.327  0.00  0.00    -0.232 NA
ATOM      3  C17 ZIN A   1      17.785  -3.769  11.512  0.00  0.00     0.077 A 
ATOM      4  C18 ZIN A   1      17.602  -5.058  12.011  0.00  0.00     0.033 A 
ATOM      5  C19 ZIN A   1      17.302  -6.090  11.147  0.00  0.00     0.005 A 
ATOM      6  C20 ZIN A   1      17.180  -5.864   9.784  0.00  0.00     0.043 A 
ATOM      7  C21 ZIN A   1      17.358  -4.596   9.264  0.00  0.00     0.134 A 
ATOM      8  F22 ZIN A   1      17.238  -4.383   7.936  0.00  0.00    -0.205 F 
ATOM      9  C23 ZIN A   1      17.661  -3.539  10.122  0.00  0.00     0.100 A 
ATOM     10  C24 ZIN A   1      17.861  -2.171   9.628  0.00  0.00     0.269 A 
ATOM     11  O25 ZIN A   1      17.768  -1.906   8.444  0.00  0.00    -0.266 OA
ATOM     12  N26 ZIN A   1      18.145  -1.213  10.542  0.00  0.00    -0.264 N 
ENDROOT
BRANCH   1  13
ATOM     13  C3  ZIN A   1      18.576  -0.421  12.834  0.00  0.00     0.153 C 
BRANCH  13  14
ATOM     14  C2  ZIN A   1      20.057  -0.493  13.211  0.00  0.00     0.028 C 
ATOM     15  C1  ZIN A   1      20.803   0.687  12.585  0.00  0.00     0.007 C 
ENDBRANCH  13  14
BRANCH  13  16
ATOM     16  N5  ZIN A   1      17.758  -0.574  14.040  0.00  0.00    -0.361 N 
ATOM     17  H38 ZIN A   1      16.866  -0.951  13.976  0.00  0.00     0.162 HD
BRANCH  16  18
ATOM     18  C6  ZIN A   1      18.257  -0.179  15.271  0.00  0.00     0.156 A 
ATOM     19  N14 ZIN A   1      18.621  -1.081  16.179  0.00  0.00    -0.222 NA
ATOM     20  C13 ZIN A   1      19.101  -0.712  17.353  0.00  0.00     0.237 A 
ATOM     21  N12 ZIN A   1      19.237   0.549  17.695  0.00  0.00    -0.220 NA
ATOM     22  C11 ZIN A   1      18.893   1.525  16.849  0.00  0.00     0.182 A 
ATOM     23  C7  ZIN A   1      18.382   1.174  15.588  0.00  0.00     0.127 A 
ATOM     24  N10 ZIN A   1      18.912   2.870  16.902  0.00  0.00    -0.222 NA
ATOM     25  N8  ZIN A   1      18.117   2.362  14.940  0.00  0.00    -0.345 N 
ATOM     26  C9  ZIN A   1      18.458   3.362  15.783  0.00  0.00     0.210 A 
ATOM     27  H39 ZIN A   1      17.756   2.461  14.045  0.00  0.00     0.167 HD
ENDBRANCH  16  18
ENDBRANCH  13  16
ENDBRANCH   1  13
BRANCH  12  28
ATOM     28  C27 ZIN A   1      18.344   0.108  10.123  0.00  0.00     0.044 A 
ATOM     29  C32 ZIN A   1      17.513   1.118  10.589  0.00  0.00     0.030 A 
ATOM     30  C31 ZIN A   1      17.714   2.421  10.177  0.00  0.00     0.002 A 
ATOM     31  C30 ZIN A   1      18.734   2.718   9.292  0.00  0.00     0.000 A 
ATOM     32  C29 ZIN A   1      19.560   1.714   8.821  0.00  0.00     0.002 A 
ATOM     33  C28 ZIN A   1      19.367   0.410   9.234  0.00  0.00     0.030 A 
ENDBRANCH  12  28
TORSDOF 5
ENDMDL
MODEL 7
REMARK VINA RESULT:      -8.3      4.254      7.355
REMARK  5 active torsions:
REMARK  status: ('A' for Active; 'I' for Inactive)
REMARK    1  A    between atoms: C2_2  and  C3_3 
REMARK    2  A    between atoms: C3_3  and  N5_4 
REMARK    3  A    between atoms: C3_3  and  C15_14 
REMARK    4  A    between atoms: N5_4  and  C6_5 
REMARK    5  A    between atoms: N26_25  and  C27_26 
ROOT
ATOM      1  C15 ZIN A   1      18.820  -0.807   9.228  0.00  0.00     0.137 A 
ATOM      2  N16 ZIN A   1      18.948   0.119   8.328  0.00  0.00    -0.232 NA
ATOM      3  C17 ZIN A   1      18.976  -0.174   7.004  0.00  0.00     0.077 A 
ATOM      4  C18 ZIN A   1      19.113   0.822   6.037  0.00  0.00     0.033 A 
ATOM      5  C19 ZIN A   1      19.137   0.480   4.702  0.00  0.00     0.005 A 
ATOM      6  C20 ZIN A   1      19.025  -0.845   4.304  0.00  0.00     0.043 A 
ATOM      7  C21 ZIN A   1      18.887  -1.850   5.242  0.00  0.00     0.134 A 
ATOM      8  F22 ZIN A   1      18.778  -3.137   4.849  0.00  0.00    -0.205 F 
ATOM      9  C23 ZIN A   1      18.861  -1.523   6.598  0.00  0.00     0.100 A 
ATOM     10  C24 ZIN A   1      18.717  -2.548   7.641  0.00  0.00     0.269 A 
ATOM     11  O25 ZIN A   1      18.614  -3.728   7.359  0.00  0.00    -0.266 OA
ATOM     12  N26 ZIN A   1      18.709  -2.130   8.929  0.00  0.00    -0.264 N 
ENDROOT
BRANCH   1  13
ATOM     13  C3  ZIN A   1      18.799  -0.399  10.679  0.00  0.00     0.153 C 
BRANCH  13  14
ATOM     14  C2  ZIN A   1      17.399   0.095  11.049  0.00  0.00     0.028 C 
ATOM     15  C1  ZIN A   1      16.921  -0.625  12.312  0.00  0.00     0.007 C 
ENDBRANCH  13  14
BRANCH  13  16
ATOM     16  N5  ZIN A   1      19.769   0.677  10.897  0.00  0.00    -0.361 N 
ATOM     17  H38 ZIN A   1      20.700   0.547  10.657  0.00  0.00     0.162 HD
BRANCH  16  18
ATOM     18  C6  ZIN A   1      19.358   1.880  11.448  0.00  0.00     0.156 A 
ATOM     19  N14 ZIN A   1      19.029   2.908  10.670  0.00  0.00    -0.222 NA
ATOM     20  C13 ZIN A   1      18.632   4.056  11.188  0.00  0.00     0.237 A 
ATOM     21  N12 ZIN A   1      18.548   4.255  12.484  0.00  0.00    -0.220 NA
ATOM     22  C11 ZIN A   1      18.862   3.280  13.343  0.00  0.00     0.182 A 
ATOM     23  C7  ZIN A   1      19.285   2.042  12.832  0.00  0.00     0.127 A 
ATOM     24  N10 ZIN A   1      18.879   3.175  14.686  0.00  0.00    -0.222 NA
ATOM     25  N8  ZIN A   1      19.538   1.243  13.928  0.00  0.00    -0.345 N 
ATOM     26  C9  ZIN A   1      19.274   1.981  15.029  0.00  0.00     0.210 A 
ATOM     27  H39 ZIN A   1      19.845   0.323  13.911  0.00  0.00     0.167 HD
ENDBRANCH  16  18
ENDBRANCH  13  16
ENDBRANCH   1  13
BRANCH  12  28
ATOM     28  C27 ZIN A   1      18.575  -3.068   9.961  0.00  0.00     0.044 A 
ATOM     29  C32 ZIN A   1      19.699  -3.525  10.635  0.00  0.00     0.030 A 
ATOM     30  C31 ZIN A   1      19.563  -4.447  11.655  0.00  0.00     0.002 A 
ATOM     31  C30 ZIN A   1      18.311  -4.921  11.997  0.00  0.00     0.000 A 
ATOM     32  C29 ZIN A   1      17.189  -4.471  11.324  0.00  0.00     0.002 A 
ATOM     33  C28 ZIN A   1      17.318  -3.546  10.307  0.00  0.00     0.030 A 
ENDBRANCH  12  28
TORSDOF 5
ENDMDL
MODEL 8
REMARK VINA RESULT:      -8.3      3.936      8.138
REMARK  5 active torsions:
REMARK  status: ('A' for Active; 'I' for Inactive)
REMARK    1  A    between atoms: C2_2  and  C3_3 
REMARK    2  A    between atoms: C3_3  and  N5_4 
REMARK    3  A    between atoms: C3_3  and  C15_14 
REMARK    4  A    between atoms: N5_4  and  C6_5 
REMARK    5  A    between atoms: N26_25  and  C27_26 
ROOT
ATOM      1  C15 ZIN A   1      17.898  -1.373   9.425  0.00  0.00     0.137 A 
ATOM      2  N16 ZIN A   1      17.736  -1.990  10.556  0.00  0.00    -0.232 NA
ATOM      3  C17 ZIN A   1      17.737  -3.345  10.633  0.00  0.00     0.077 A 
ATOM      4  C18 ZIN A   1      17.562  -4.008  11.848  0.00  0.00     0.033 A 
ATOM      5  C19 ZIN A   1      17.570  -5.386  11.882  0.00  0.00     0.005 A 
ATOM      6  C20 ZIN A   1      17.751  -6.125  10.722  0.00  0.00     0.043 A 
ATOM      7  C21 ZIN A   1      17.928  -5.493   9.506  0.00  0.00     0.134 A 
ATOM      8  F22 ZIN A   1      18.103  -6.218   8.381  0.00  0.00    -0.205 F 
ATOM      9  C23 ZIN A   1      17.922  -4.099   9.452  0.00  0.00     0.100 A 
ATOM     10  C24 ZIN A   1      18.104  -3.370   8.190  0.00  0.00     0.269 A 
ATOM     11  O25 ZIN A   1      18.267  -3.960   7.137  0.00  0.00    -0.266 OA
ATOM     12  N26 ZIN A   1      18.077  -2.018   8.240  0.00  0.00    -0.264 N 
ENDROOT
BRANCH   1  13
ATOM     13  C3  ZIN A   1      17.883   0.134   9.424  0.00  0.00     0.153 C 
BRANCH  13  14
ATOM     14  C2  ZIN A   1      19.304   0.658   9.639  0.00  0.00     0.028 C 
ATOM     15  C1  ZIN A   1      19.626   1.713   8.579  0.00  0.00     0.007 C 
ENDBRANCH  13  14
BRANCH  13  16
ATOM     16  N5  ZIN A   1      17.016   0.615  10.503  0.00  0.00    -0.361 N 
ATOM     17  H38 ZIN A   1      16.094   0.320  10.552  0.00  0.00     0.162 HD
BRANCH  16  18
ATOM     18  C6  ZIN A   1      17.514   1.493  11.452  0.00  0.00     0.156 A 
ATOM     19  N14 ZIN A   1      17.378   2.807  11.301  0.00  0.00    -0.222 NA
ATOM     20  C13 ZIN A   1      17.846   3.651  12.203  0.00  0.00     0.237 A 
ATOM     21  N12 ZIN A   1      18.476   3.249  13.284  0.00  0.00    -0.220 NA
ATOM     22  C11 ZIN A   1      18.664   1.947  13.518  0.00  0.00     0.182 A 
ATOM     23  C7  ZIN A   1      18.176   1.018  12.585  0.00  0.00     0.127 A 
ATOM     24  N10 ZIN A   1      19.252   1.240  14.502  0.00  0.00    -0.222 NA
ATOM     25  N8  ZIN A   1      18.509  -0.227  13.076  0.00  0.00    -0.345 N 
ATOM     26  C9  ZIN A   1      19.160  -0.035  14.244  0.00  0.00     0.210 A 
ATOM     27  H39 ZIN A   1      18.310  -1.082  12.662  0.00  0.00     0.167 HD
ENDBRANCH  16  18
ENDBRANCH  13  16
ENDBRANCH   1  13
BRANCH  12  28
ATOM     28  C27 ZIN A   1      18.245  -1.276   7.064  0.00  0.00     0.044 A 
ATOM     29  C32 ZIN A   1      17.205  -0.493   6.581  0.00  0.00     0.030 A 
ATOM     30  C31 ZIN A   1      17.375   0.240   5.423  0.00  0.00     0.002 A 
ATOM     31  C30 ZIN A   1      18.575   0.186   4.739  0.00  0.00     0.000 A 
ATOM     32  C29 ZIN A   1      19.611  -0.597   5.214  0.00  0.00     0.002 A 
ATOM     33  C28 ZIN A   1      19.449  -1.329   6.375  0.00  0.00     0.030 A 
ENDBRANCH  12  28
TORSDOF 5
ENDMDL
MODEL 9
REMARK VINA RESULT:      -8.2      5.533      7.334
REMARK  5 active torsions:
REMARK  status: ('A' for Active; 'I' for Inactive)
REMARK    1  A    between atoms: C2_2  and  C3_3 
REMARK    2  A    between atoms: C3_3  and  N5_4 
REMARK    3  A    between atoms: C3_3  and  C15_14 
REMARK    4  A    between atoms: N5_4  and  C6_5 
REMARK    5  A    between atoms: N26_25  and  C27_26 
ROOT
ATOM      1  C15 ZIN A   1      17.943   0.966  13.046  0.00  0.00     0.137 A 
ATOM      2  N16 ZIN A   1      17.855   1.468  11.852  0.00  0.00    -0.232 NA
ATOM      3  C17 ZIN A   1      17.757   2.806  11.648  0.00  0.00     0.077 A 
ATOM      4  C18 ZIN A   1      17.661   3.345  10.365  0.00  0.00     0.033 A 
ATOM      5  C19 ZIN A   1      17.562   4.710  10.203  0.00  0.00     0.005 A 
ATOM      6  C20 ZIN A   1      17.558   5.559  11.300  0.00  0.00     0.043 A 
ATOM      7  C21 ZIN A   1      17.652   5.050  12.581  0.00  0.00     0.134 A 
ATOM      8  F22 ZIN A   1      17.647   5.881  13.646  0.00  0.00    -0.205 F 
ATOM      9  C23 ZIN A   1      17.752   3.671  12.766  0.00  0.00     0.100 A 
ATOM     10  C24 ZIN A   1      17.855   3.072  14.103  0.00  0.00     0.269 A 
ATOM     11  O25 ZIN A   1      17.856   3.761  15.106  0.00  0.00    -0.266 OA
ATOM     12  N26 ZIN A   1      17.941   1.723  14.177  0.00  0.00    -0.264 N 
ENDROOT
BRANCH   1  13
ATOM     13  C3  ZIN A   1      18.049  -0.531  13.187  0.00  0.00     0.153 C 
BRANCH  13  14
ATOM     14  C2  ZIN A   1      19.506  -0.959  13.006  0.00  0.00     0.028 C 
ATOM     15  C1  ZIN A   1      20.002  -1.638  14.284  0.00  0.00     0.007 C 
ENDBRANCH  13  14
BRANCH  13  16
ATOM     16  N5  ZIN A   1      17.220  -1.177  12.167  0.00  0.00    -0.361 N 
ATOM     17  H38 ZIN A   1      16.273  -0.977  12.113  0.00  0.00     0.162 HD
BRANCH  16  18
ATOM     18  C6  ZIN A   1      17.789  -2.077  11.280  0.00  0.00     0.156 A 
ATOM     19  N14 ZIN A   1      17.880  -3.369  11.585  0.00  0.00    -0.222 NA
ATOM     20  C13 ZIN A   1      18.417  -4.233  10.744  0.00  0.00     0.237 A 
ATOM     21  N12 ZIN A   1      18.899  -3.874   9.575  0.00  0.00    -0.220 NA
ATOM     22  C11 ZIN A   1      18.856  -2.597   9.185  0.00  0.00     0.182 A 
ATOM     23  C7  ZIN A   1      18.287  -1.647  10.050  0.00  0.00     0.127 A 
ATOM     24  N10 ZIN A   1      19.253  -1.933   8.083  0.00  0.00    -0.222 NA
ATOM     25  N8  ZIN A   1      18.378  -0.435   9.398  0.00  0.00    -0.345 N 
ATOM     26  C9  ZIN A   1      18.973  -0.665   8.207  0.00  0.00     0.210 A 
ATOM     27  H39 ZIN A   1      18.071   0.423   9.732  0.00  0.00     0.167 HD
ENDBRANCH  16  18
ENDBRANCH  13  16
ENDBRANCH   1  13
BRANCH  12  28
ATOM     28  C27 ZIN A   1      18.040   1.102  15.429  0.00  0.00     0.044 A 
ATOM     29  C32 ZIN A   1      19.159   1.314  16.223  0.00  0.00     0.030 A 
ATOM     30  C31 ZIN A   1      19.252   0.704  17.459  0.00  0.00     0.002 A 
ATOM     31  C30 ZIN A   1      18.237  -0.126  17.900  0.00  0.00     0.000 A 
ATOM     32  C29 ZIN A   1      17.124  -0.344  17.108  0.00  0.00     0.002 A 
ATOM     33  C28 ZIN A   1      17.023   0.268  15.874  0.00  0.00     0.030 A 
ENDBRANCH  12  28
TORSDOF 5
ENDMDL
