MODEL 1
REMARK VINA RESULT:      -5.1      0.000      0.000
REMARK  2 active torsions:
REMARK  status: ('A' for Active; 'I' for Inactive)
REMARK    1  A    between atoms: C2_2  and  C4_4 
REMARK    2  A    between atoms: C9_9  and  O10_10 
ROOT
ATOM      1  C4  <0> d   1      19.183  -1.632   6.494  0.00  0.00     0.073 A 
ATOM      2  C5  <0> d   1      18.921  -0.846   7.621  0.00  0.00     0.021 A 
ATOM      3  C6  <0> d   1      18.812   0.520   7.494  0.00  0.00     0.001 A 
ATOM      4  C7  <0> d   1      18.960   1.122   6.254  0.00  0.00     0.003 A 
ATOM      5  C8  <0> d   1      19.218   0.359   5.133  0.00  0.00     0.037 A 
ATOM      6  C9  <0> d   1      19.337  -1.018   5.241  0.00  0.00     0.082 A 
ENDROOT
BRANCH   1   7
ATOM      7  C2  <0> d   1      19.302  -3.093   6.622  0.00  0.00     0.212 C 
ATOM      8  O1  <0> d   1      20.362  -3.647   6.365  0.00  0.00    -0.644 OA
ATOM      9  O3  <0> d   1      18.341  -3.754   6.992  0.00  0.00    -0.644 OA
ENDBRANCH   1   7
BRANCH   6  10
ATOM     10  O10 <0> d   1      19.591  -1.769   4.142  0.00  0.00    -0.360 OA
ATOM     11  H15 <0> d   1      19.324  -2.694   4.225  0.00  0.00     0.217 HD
ENDBRANCH   6  10
TORSDOF 2
ENDMDL
MODEL 2
REMARK VINA RESULT:      -5.1     10.375     11.718
REMARK  2 active torsions:
REMARK  status: ('A' for Active; 'I' for Inactive)
REMARK    1  A    between atoms: C2_2  and  C4_4 
REMARK    2  A    between atoms: C9_9  and  O10_10 
ROOT
ATOM      1  C4  <0> d   1      19.155   1.666  16.616  0.00  0.00     0.073 A 
ATOM      2  C5  <0> d   1      18.875   0.809  15.547  0.00  0.00     0.021 A 
ATOM      3  C6  <0> d   1      18.779  -0.548  15.762  0.00  0.00     0.001 A 
ATOM      4  C7  <0> d   1      18.958  -1.069  17.034  0.00  0.00     0.003 A 
ATOM      5  C8  <0> d   1      19.233  -0.236  18.098  0.00  0.00     0.037 A 
ATOM      6  C9  <0> d   1      19.340   1.133  17.901  0.00  0.00     0.082 A 
ENDROOT
BRANCH   1   7
ATOM      7  C2  <0> d   1      19.259   3.117  16.394  0.00  0.00     0.212 C 
ATOM      8  O1  <0> d   1      18.340   3.722  15.861  0.00  0.00    -0.644 OA
ATOM      9  O3  <0> d   1      20.264   3.719  16.747  0.00  0.00    -0.644 OA
ENDBRANCH   1   7
BRANCH   6  10
ATOM     10  O10 <0> d   1      19.612   1.953  18.946  0.00  0.00    -0.360 OA
ATOM     11  H15 <0> d   1      20.460   2.412  18.876  0.00  0.00     0.217 HD
ENDBRANCH   6  10
TORSDOF 2
ENDMDL
MODEL 3
REMARK VINA RESULT:      -5.0      1.544      2.948
REMARK  2 active torsions:
REMARK  status: ('A' for Active; 'I' for Inactive)
REMARK    1  A    between atoms: C2_2  and  C4_4 
REMARK    2  A    between atoms: C9_9  and  O10_10 
ROOT
ATOM      1  C4  <0> d   1      18.789  -0.056   6.212  0.00  0.00     0.073 A 
ATOM      2  C5  <0> d   1      19.136   1.229   6.643  0.00  0.00     0.021 A 
ATOM      3  C6  <0> d   1      18.847   1.621   7.931  0.00  0.00     0.001 A 
ATOM      4  C7  <0> d   1      18.215   0.749   8.803  0.00  0.00     0.003 A 
ATOM      5  C8  <0> d   1      17.868  -0.521   8.392  0.00  0.00     0.037 A 
ATOM      6  C9  <0> d   1      18.144  -0.934   7.097  0.00  0.00     0.082 A 
ENDROOT
BRANCH   1   7
ATOM      7  C2  <0> d   1      19.094  -0.482   4.836  0.00  0.00     0.212 C 
ATOM      8  O1  <0> d   1      19.952  -1.329   4.634  0.00  0.00    -0.644 OA
ATOM      9  O3  <0> d   1      18.484   0.008   3.896  0.00  0.00    -0.644 OA
ENDBRANCH   1   7
BRANCH   6  10
ATOM     10  O10 <0> d   1      17.803  -2.181   6.691  0.00  0.00    -0.360 OA
ATOM     11  H15 <0> d   1      17.061  -2.205   6.071  0.00  0.00     0.217 HD
ENDBRANCH   6  10
TORSDOF 2
ENDMDL
MODEL 4
REMARK VINA RESULT:      -5.0      4.284      5.445
REMARK  2 active torsions:
REMARK  status: ('A' for Active; 'I' for Inactive)
REMARK    1  A    between atoms: C2_2  and  C4_4 
REMARK    2  A    between atoms: C9_9  and  O10_10 
ROOT
ATOM      1  C4  <0> d   1      17.630   0.558  10.194  0.00  0.00     0.073 A 
ATOM      2  C5  <0> d   1      18.211   0.012   9.045  0.00  0.00     0.021 A 
ATOM      3  C6  <0> d   1      18.960   0.810   8.209  0.00  0.00     0.001 A 
ATOM      4  C7  <0> d   1      19.142   2.153   8.502  0.00  0.00     0.003 A 
ATOM      5  C8  <0> d   1      18.575   2.704   9.633  0.00  0.00     0.037 A 
ATOM      6  C9  <0> d   1      17.812   1.919  10.483  0.00  0.00     0.082 A 
ENDROOT
BRANCH   1   7
ATOM      7  C2  <0> d   1      16.827  -0.289  11.090  0.00  0.00     0.212 C 
ATOM      8  O1  <0> d   1      15.784   0.137  11.565  0.00  0.00    -0.644 OA
ATOM      9  O3  <0> d   1      17.202  -1.423  11.357  0.00  0.00    -0.644 OA
ENDBRANCH   1   7
BRANCH   6  10
ATOM     10  O10 <0> d   1      17.254   2.459  11.594  0.00  0.00    -0.360 OA
ATOM     11  H15 <0> d   1      17.877   2.945  12.152  0.00  0.00     0.217 HD
ENDBRANCH   6  10
TORSDOF 2
ENDMDL
MODEL 5
REMARK VINA RESULT:      -4.9      9.717     10.862
REMARK  2 active torsions:
REMARK  status: ('A' for Active; 'I' for Inactive)
REMARK    1  A    between atoms: C2_2  and  C4_4 
REMARK    2  A    between atoms: C9_9  and  O10_10 
ROOT
ATOM      1  C4  <0> d   1      18.722   0.134  16.807  0.00  0.00     0.073 A 
ATOM      2  C5  <0> d   1      18.907  -1.165  16.323  0.00  0.00     0.021 A 
ATOM      3  C6  <0> d   1      18.597  -1.460  15.014  0.00  0.00     0.001 A 
ATOM      4  C7  <0> d   1      18.104  -0.475  14.173  0.00  0.00     0.003 A 
ATOM      5  C8  <0> d   1      17.918   0.811  14.636  0.00  0.00     0.037 A 
ATOM      6  C9  <0> d   1      18.218   1.127  15.953  0.00  0.00     0.082 A 
ENDROOT
BRANCH   1   7
ATOM      7  C2  <0> d   1      19.051   0.456  18.205  0.00  0.00     0.212 C 
ATOM      8  O1  <0> d   1      18.467  -0.111  19.117  0.00  0.00    -0.644 OA
ATOM      9  O3  <0> d   1      19.912   1.288  18.454  0.00  0.00    -0.644 OA
ENDBRANCH   1   7
BRANCH   6  10
ATOM     10  O10 <0> d   1      18.035   2.390  16.410  0.00  0.00    -0.360 OA
ATOM     11  H15 <0> d   1      17.848   2.443  17.357  0.00  0.00     0.217 HD
ENDBRANCH   6  10
TORSDOF 2
ENDMDL
MODEL 6
REMARK VINA RESULT:      -4.9      3.440      4.461
REMARK  2 active torsions:
REMARK  status: ('A' for Active; 'I' for Inactive)
REMARK    1  A    between atoms: C2_2  and  C4_4 
REMARK    2  A    between atoms: C9_9  and  O10_10 
ROOT
ATOM      1  C4  <0> d   1      17.637   0.451   9.916  0.00  0.00     0.073 A 
ATOM      2  C5  <0> d   1      18.173   1.698  10.253  0.00  0.00     0.021 A 
ATOM      3  C6  <0> d   1      18.891   2.411   9.319  0.00  0.00     0.001 A 
ATOM      4  C7  <0> d   1      19.085   1.900   8.045  0.00  0.00     0.003 A 
ATOM      5  C8  <0> d   1      18.561   0.672   7.699  0.00  0.00     0.037 A 
ATOM      6  C9  <0> d   1      17.840  -0.065   8.627  0.00  0.00     0.082 A 
ENDROOT
BRANCH   1   7
ATOM      7  C2  <0> d   1      16.870  -0.317  10.909  0.00  0.00     0.212 C 
ATOM      8  O1  <0> d   1      17.184  -1.470  11.167  0.00  0.00    -0.644 OA
ATOM      9  O3  <0> d   1      15.920   0.201  11.481  0.00  0.00    -0.644 OA
ENDBRANCH   1   7
BRANCH   6  10
ATOM     10  O10 <0> d   1      17.326  -1.272   8.288  0.00  0.00    -0.360 OA
ATOM     11  H15 <0> d   1      16.435  -1.230   7.914  0.00  0.00     0.217 HD
ENDBRANCH   6  10
TORSDOF 2
ENDMDL
MODEL 7
REMARK VINA RESULT:      -4.8      4.834      6.116
REMARK  2 active torsions:
REMARK  status: ('A' for Active; 'I' for Inactive)
REMARK    1  A    between atoms: C2_2  and  C4_4 
REMARK    2  A    between atoms: C9_9  and  O10_10 
ROOT
ATOM      1  C4  <0> d   1      18.142   2.057   9.992  0.00  0.00     0.073 A 
ATOM      2  C5  <0> d   1      18.980   2.339   8.908  0.00  0.00     0.021 A 
ATOM      3  C6  <0> d   1      19.105   1.428   7.883  0.00  0.00     0.001 A 
ATOM      4  C7  <0> d   1      18.403   0.233   7.920  0.00  0.00     0.003 A 
ATOM      5  C8  <0> d   1      17.573  -0.058   8.983  0.00  0.00     0.037 A 
ATOM      6  C9  <0> d   1      17.438   0.844  10.028  0.00  0.00     0.082 A 
ENDROOT
BRANCH   1   7
ATOM      7  C2  <0> d   1      18.005   3.026  11.091  0.00  0.00     0.212 C 
ATOM      8  O1  <0> d   1      16.920   3.543  11.319  0.00  0.00    -0.644 OA
ATOM      9  O3  <0> d   1      18.974   3.310  11.781  0.00  0.00    -0.644 OA
ENDBRANCH   1   7
BRANCH   6  10
ATOM     10  O10 <0> d   1      16.624   0.560  11.073  0.00  0.00    -0.360 OA
ATOM     11  H15 <0> d   1      15.691   0.473  10.833  0.00  0.00     0.217 HD
ENDBRANCH   6  10
TORSDOF 2
ENDMDL
MODEL 8
REMARK VINA RESULT:      -4.6     10.431     11.625
REMARK  2 active torsions:
REMARK  status: ('A' for Active; 'I' for Inactive)
REMARK    1  A    between atoms: C2_2  and  C4_4 
REMARK    2  A    between atoms: C9_9  and  O10_10 
ROOT
ATOM      1  C4  <0> d   1      19.007   1.402  17.292  0.00  0.00     0.073 A 
ATOM      2  C5  <0> d   1      19.440   0.322  18.068  0.00  0.00     0.021 A 
ATOM      3  C6  <0> d   1      19.165  -0.966  17.664  0.00  0.00     0.001 A 
ATOM      4  C7  <0> d   1      18.462  -1.197  16.491  0.00  0.00     0.003 A 
ATOM      5  C8  <0> d   1      18.031  -0.140  15.716  0.00  0.00     0.037 A 
ATOM      6  C9  <0> d   1      18.292   1.164  16.108  0.00  0.00     0.082 A 
ENDROOT
BRANCH   1   7
ATOM      7  C2  <0> d   1      19.297   2.781  17.718  0.00  0.00     0.212 C 
ATOM      8  O1  <0> d   1      18.850   3.202  18.775  0.00  0.00    -0.644 OA
ATOM      9  O3  <0> d   1      19.990   3.504  17.016  0.00  0.00    -0.644 OA
ENDBRANCH   1   7
BRANCH   6  10
ATOM     10  O10 <0> d   1      17.868   2.203  15.348  0.00  0.00    -0.360 OA
ATOM     11  H15 <0> d   1      18.583   2.712  14.941  0.00  0.00     0.217 HD
ENDBRANCH   6  10
TORSDOF 2
ENDMDL
MODEL 9
REMARK VINA RESULT:      -4.4      3.034      3.806
REMARK  2 active torsions:
REMARK  status: ('A' for Active; 'I' for Inactive)
REMARK    1  A    between atoms: C2_2  and  C4_4 
REMARK    2  A    between atoms: C9_9  and  O10_10 
ROOT
ATOM      1  C4  <0> d   1      19.559   0.151   9.079  0.00  0.00     0.073 A 
ATOM      2  C5  <0> d   1      19.362   1.429   8.546  0.00  0.00     0.021 A 
ATOM      3  C6  <0> d   1      19.015   1.573   7.221  0.00  0.00     0.001 A 
ATOM      4  C7  <0> d   1      18.858   0.458   6.413  0.00  0.00     0.003 A 
ATOM      5  C8  <0> d   1      19.047  -0.809   6.926  0.00  0.00     0.037 A 
ATOM      6  C9  <0> d   1      19.403  -0.975   8.256  0.00  0.00     0.082 A 
ENDROOT
BRANCH   1   7
ATOM      7  C2  <0> d   1      19.930  -0.011  10.494  0.00  0.00     0.212 C 
ATOM      8  O1  <0> d   1      20.966  -0.589  10.792  0.00  0.00    -0.644 OA
ATOM      9  O3  <0> d   1      19.206   0.437  11.371  0.00  0.00    -0.644 OA
ENDBRANCH   1   7
BRANCH   6  10
ATOM     10  O10 <0> d   1      19.591  -2.219   8.761  0.00  0.00    -0.360 OA
ATOM     11  H15 <0> d   1      20.500  -2.541   8.690  0.00  0.00     0.217 HD
ENDBRANCH   6  10
TORSDOF 2
ENDMDL
