MODEL 1
REMARK VINA RESULT:      -6.4      0.000      0.000
REMARK  3 active torsions:
REMARK  status: ('A' for Active; 'I' for Inactive)
REMARK       I    between atoms: N1_1  and  C2_2 
REMARK       I    between atoms: C2_2  and  N6_6 
REMARK       I    between atoms: N6_6  and  C7_7 
REMARK    1  A    between atoms: C7_7  and  C9_9 
REMARK    2  A    between atoms: C13_13  and  N14_14 
REMARK    3  A    between atoms: C16_16  and  N17_17 
ROOT
ATOM      1  C9  <0> d   1      19.345  -1.483   8.202  0.00  0.00     0.172 A 
ATOM      2  N10 <0> d   1      19.259  -0.487   7.318  0.00  0.00    -0.223 NA
ATOM      3  C11 <0> d   1      19.166  -0.751   6.034  0.00  0.00     0.172 A 
ATOM      4 Cl12 <0> d   1      19.053   0.548   4.888  0.00  0.00    -0.058 Cl
ATOM      5  C13 <0> d   1      19.156  -2.078   5.587  0.00  0.00     0.164 A 
ATOM      6  N15 <0> d   1      19.242  -3.076   6.458  0.00  0.00    -0.209 NA
ATOM      7  C16 <0> d   1      19.342  -2.814   7.756  0.00  0.00     0.158 A 
ENDROOT
BRANCH   1   8
ATOM      8  C7  <0> d   1      19.450  -1.186   9.640  0.00  0.00     0.292 C 
ATOM      9  N6  <0> d   1      20.483  -0.455  10.104  0.00  0.00    -0.155 N 
ATOM     10  C2  <0> d   1      20.648  -0.280  11.457  0.00  0.00     0.672 C 
ATOM     11  H20 <0> d   1      21.110  -0.053   9.483  0.00  0.00     0.187 HD
ATOM     12  N1  <0> d   1      19.875  -0.945  12.313  0.00  0.00    -0.235 N 
ATOM     13  N3  <0> d   1      21.580   0.554  11.911  0.00  0.00    -0.235 N 
ATOM     14  H18 <0> d   1      20.035  -0.872  13.267  0.00  0.00     0.174 HD
ATOM     15  H19 <0> d   1      19.151  -1.498  11.983  0.00  0.00     0.174 HD
ATOM     16  H4  <0> d   1      22.143   1.038  11.288  0.00  0.00     0.174 HD
ATOM     17  H5  <0> d   1      21.696   0.678  12.866  0.00  0.00     0.174 HD
ATOM     18  O8  <0> d   1      18.604  -1.599  10.410  0.00  0.00    -0.265 OA
ENDBRANCH   1   8
BRANCH   7  19
ATOM     19  N17 <0> d   1      19.431  -3.851   8.667  0.00  0.00    -0.382 N 
ATOM     20  H23 <0> d   1      19.921  -4.656   8.439  0.00  0.00     0.157 HD
ATOM     21  H24 <0> d   1      19.004  -3.773   9.534  0.00  0.00     0.157 HD
ENDBRANCH   7  19
BRANCH   5  22
ATOM     22  N14 <0> d   1      19.058  -2.351   4.234  0.00  0.00    -0.381 N 
ATOM     23  H21 <0> d   1      19.256  -1.658   3.584  0.00  0.00     0.157 HD
ATOM     24  H22 <0> d   1      18.792  -3.234   3.934  0.00  0.00     0.157 HD
ENDBRANCH   5  22
TORSDOF 3
ENDMDL
MODEL 2
REMARK VINA RESULT:      -6.3      5.523      8.941
REMARK  3 active torsions:
REMARK  status: ('A' for Active; 'I' for Inactive)
REMARK       I    between atoms: N1_1  and  C2_2 
REMARK       I    between atoms: C2_2  and  N6_6 
REMARK       I    between atoms: N6_6  and  C7_7 
REMARK    1  A    between atoms: C7_7  and  C9_9 
REMARK    2  A    between atoms: C13_13  and  N14_14 
REMARK    3  A    between atoms: C16_16  and  N17_17 
ROOT
ATOM      1  C9  <0> d   1      19.284   1.480  14.891  0.00  0.00     0.172 A 
ATOM      2  N10 <0> d   1      19.216   0.502  15.795  0.00  0.00    -0.223 NA
ATOM      3  C11 <0> d   1      19.127   0.792  17.074  0.00  0.00     0.172 A 
ATOM      4 Cl12 <0> d   1      19.037  -0.484  18.247  0.00  0.00    -0.058 Cl
ATOM      5  C13 <0> d   1      19.104   2.128  17.493  0.00  0.00     0.164 A 
ATOM      6  N15 <0> d   1      19.172   3.108  16.601  0.00  0.00    -0.209 NA
ATOM      7  C16 <0> d   1      19.267   2.821  15.309  0.00  0.00     0.158 A 
ENDROOT
BRANCH   1   8
ATOM      8  C7  <0> d   1      19.383   1.155  13.458  0.00  0.00     0.292 C 
ATOM      9  N6  <0> d   1      20.452   0.476  12.994  0.00  0.00    -0.155 N 
ATOM     10  C2  <0> d   1      20.605   0.278  11.642  0.00  0.00     0.672 C 
ATOM     11  H20 <0> d   1      21.112   0.128  13.613  0.00  0.00     0.187 HD
ATOM     12  N1  <0> d   1      19.779   0.873  10.784  0.00  0.00    -0.235 N 
ATOM     13  N3  <0> d   1      21.577  -0.509  11.192  0.00  0.00    -0.235 N 
ATOM     14  H18 <0> d   1      19.927   0.787   9.830  0.00  0.00     0.174 HD
ATOM     15  H19 <0> d   1      19.028   1.390  11.115  0.00  0.00     0.174 HD
ATOM     16  H4  <0> d   1      22.179  -0.943  11.817  0.00  0.00     0.174 HD
ATOM     17  H5  <0> d   1      21.686  -0.650  10.238  0.00  0.00     0.174 HD
ATOM     18  O8  <0> d   1      18.501   1.497  12.694  0.00  0.00    -0.265 OA
ENDBRANCH   1   8
BRANCH   7  19
ATOM     19  N17 <0> d   1      19.338   3.839  14.375  0.00  0.00    -0.382 N 
ATOM     20  H23 <0> d   1      19.677   3.658  13.485  0.00  0.00     0.157 HD
ATOM     21  H24 <0> d   1      19.049   4.734  14.611  0.00  0.00     0.157 HD
ENDBRANCH   7  19
BRANCH   5  22
ATOM     22  N14 <0> d   1      19.012   2.428  18.841  0.00  0.00    -0.381 N 
ATOM     23  H21 <0> d   1      18.880   1.717  19.488  0.00  0.00     0.157 HD
ATOM     24  H22 <0> d   1      19.080   3.348  19.140  0.00  0.00     0.157 HD
ENDBRANCH   5  22
TORSDOF 3
ENDMDL
MODEL 3
REMARK VINA RESULT:      -6.2      1.703      2.424
REMARK  3 active torsions:
REMARK  status: ('A' for Active; 'I' for Inactive)
REMARK       I    between atoms: N1_1  and  C2_2 
REMARK       I    between atoms: C2_2  and  N6_6 
REMARK       I    between atoms: N6_6  and  C7_7 
REMARK    1  A    between atoms: C7_7  and  C9_9 
REMARK    2  A    between atoms: C13_13  and  N14_14 
REMARK    3  A    between atoms: C16_16  and  N17_17 
ROOT
ATOM      1  C9  <0> d   1      19.231  -0.587   8.143  0.00  0.00     0.172 A 
ATOM      2  N10 <0> d   1      19.361  -1.880   7.841  0.00  0.00    -0.223 NA
ATOM      3  C11 <0> d   1      19.338  -2.269   6.587  0.00  0.00     0.172 A 
ATOM      4 Cl12 <0> d   1      19.508  -3.953   6.199  0.00  0.00    -0.058 Cl
ATOM      5  C13 <0> d   1      19.175  -1.330   5.560  0.00  0.00     0.164 A 
ATOM      6  N15 <0> d   1      19.044  -0.042   5.851  0.00  0.00    -0.209 NA
ATOM      7  C16 <0> d   1      19.062   0.356   7.117  0.00  0.00     0.158 A 
ENDROOT
BRANCH   1   8
ATOM      8  C7  <0> d   1      19.258  -0.151   9.549  0.00  0.00     0.292 C 
ATOM      9  N6  <0> d   1      20.436  -0.010  10.189  0.00  0.00    -0.155 N 
ATOM     10  C2  <0> d   1      20.458   0.279  11.533  0.00  0.00     0.672 C 
ATOM     11  H20 <0> d   1      21.268  -0.111   9.701  0.00  0.00     0.187 HD
ATOM     12  N1  <0> d   1      19.325   0.279  12.232  0.00  0.00    -0.235 N 
ATOM     13  N3  <0> d   1      21.611   0.558  12.135  0.00  0.00    -0.235 N 
ATOM     14  H18 <0> d   1      19.348   0.417  13.192  0.00  0.00     0.174 HD
ATOM     15  H19 <0> d   1      18.477   0.145  11.780  0.00  0.00     0.174 HD
ATOM     16  H4  <0> d   1      22.436   0.557  11.625  0.00  0.00     0.174 HD
ATOM     17  H5  <0> d   1      21.626   0.762  13.083  0.00  0.00     0.174 HD
ATOM     18  O8  <0> d   1      18.217   0.082  10.133  0.00  0.00    -0.265 OA
ENDBRANCH   1   8
BRANCH   7  19
ATOM     19  N17 <0> d   1      18.926   1.698   7.423  0.00  0.00    -0.382 N 
ATOM     20  H23 <0> d   1      19.530   2.348   7.032  0.00  0.00     0.157 HD
ATOM     21  H24 <0> d   1      18.227   1.989   8.029  0.00  0.00     0.157 HD
ENDBRANCH   7  19
BRANCH   5  22
ATOM     22  N14 <0> d   1      19.149  -1.746   4.241  0.00  0.00    -0.381 N 
ATOM     23  H21 <0> d   1      18.366  -2.199   3.890  0.00  0.00     0.157 HD
ATOM     24  H22 <0> d   1      19.914  -1.586   3.666  0.00  0.00     0.157 HD
ENDBRANCH   5  22
TORSDOF 3
ENDMDL
MODEL 4
REMARK VINA RESULT:      -6.0      3.159      3.954
REMARK  3 active torsions:
REMARK  status: ('A' for Active; 'I' for Inactive)
REMARK       I    between atoms: N1_1  and  C2_2 
REMARK       I    between atoms: C2_2  and  N6_6 
REMARK       I    between atoms: N6_6  and  C7_7 
REMARK    1  A    between atoms: C7_7  and  C9_9 
REMARK    2  A    between atoms: C13_13  and  N14_14 
REMARK    3  A    between atoms: C16_16  and  N17_17 
ROOT
ATOM      1  C9  <0> d   1      19.076  -2.150  10.481  0.00  0.00     0.172 A 
ATOM      2  N10 <0> d   1      18.343  -3.012  11.188  0.00  0.00    -0.223 NA
ATOM      3  C11 <0> d   1      17.534  -3.847  10.575  0.00  0.00     0.172 A 
ATOM      4 Cl12 <0> d   1      16.582  -4.967  11.499  0.00  0.00    -0.058 Cl
ATOM      5  C13 <0> d   1      17.437  -3.836   9.178  0.00  0.00     0.164 A 
ATOM      6  N15 <0> d   1      18.162  -2.982   8.466  0.00  0.00    -0.209 NA
ATOM      7  C16 <0> d   1      18.977  -2.133   9.081  0.00  0.00     0.158 A 
ENDROOT
BRANCH   1   8
ATOM      8  C7  <0> d   1      19.982  -1.215  11.169  0.00  0.00     0.292 C 
ATOM      9  N6  <0> d   1      19.548  -0.520  12.239  0.00  0.00    -0.155 N 
ATOM     10  C2  <0> d   1      20.351   0.440  12.807  0.00  0.00     0.672 C 
ATOM     11  H20 <0> d   1      18.669  -0.698  12.610  0.00  0.00     0.187 HD
ATOM     12  N1  <0> d   1      21.495   0.783  12.218  0.00  0.00    -0.235 N 
ATOM     13  N3  <0> d   1      19.986   1.026  13.944  0.00  0.00    -0.235 N 
ATOM     14  H18 <0> d   1      22.029   1.507  12.582  0.00  0.00     0.174 HD
ATOM     15  H19 <0> d   1      21.795   0.308  11.428  0.00  0.00     0.174 HD
ATOM     16  H4  <0> d   1      19.153   0.776  14.372  0.00  0.00     0.174 HD
ATOM     17  H5  <0> d   1      20.553   1.703  14.344  0.00  0.00     0.174 HD
ATOM     18  O8  <0> d   1      21.123  -1.070  10.772  0.00  0.00    -0.265 OA
ENDBRANCH   1   8
BRANCH   7  19
ATOM     19  N17 <0> d   1      19.734  -1.242   8.343  0.00  0.00    -0.382 N 
ATOM     20  H23 <0> d   1      20.661  -1.082   8.578  0.00  0.00     0.157 HD
ATOM     21  H24 <0> d   1      19.338  -0.777   7.590  0.00  0.00     0.157 HD
ENDBRANCH   7  19
BRANCH   5  22
ATOM     22  N14 <0> d   1      16.582  -4.716   8.538  0.00  0.00    -0.381 N 
ATOM     23  H21 <0> d   1      15.802  -5.058   9.001  0.00  0.00     0.157 HD
ATOM     24  H22 <0> d   1      16.764  -4.992   7.626  0.00  0.00     0.157 HD
ENDBRANCH   5  22
TORSDOF 3
ENDMDL
MODEL 5
REMARK VINA RESULT:      -5.9      6.624      9.376
REMARK  3 active torsions:
REMARK  status: ('A' for Active; 'I' for Inactive)
REMARK       I    between atoms: N1_1  and  C2_2 
REMARK       I    between atoms: C2_2  and  N6_6 
REMARK       I    between atoms: N6_6  and  C7_7 
REMARK    1  A    between atoms: C7_7  and  C9_9 
REMARK    2  A    between atoms: C13_13  and  N14_14 
REMARK    3  A    between atoms: C16_16  and  N17_17 
ROOT
ATOM      1  C9  <0> d   1      18.744   2.302  15.377  0.00  0.00     0.172 A 
ATOM      2  N10 <0> d   1      18.043   1.177  15.523  0.00  0.00    -0.223 NA
ATOM      3  C11 <0> d   1      18.033   0.552  16.679  0.00  0.00     0.172 A 
ATOM      4 Cl12 <0> d   1      17.117  -0.911  16.865  0.00  0.00    -0.058 Cl
ATOM      5  C13 <0> d   1      18.760   1.062  17.762  0.00  0.00     0.164 A 
ATOM      6  N15 <0> d   1      19.462   2.180  17.626  0.00  0.00    -0.209 NA
ATOM      7  C16 <0> d   1      19.479   2.813  16.459  0.00  0.00     0.158 A 
ENDROOT
BRANCH   1   8
ATOM      8  C7  <0> d   1      18.754   3.002  14.082  0.00  0.00     0.292 C 
ATOM      9  N6  <0> d   1      19.436   2.485  13.041  0.00  0.00    -0.155 N 
ATOM     10  C2  <0> d   1      19.546   3.195  11.870  0.00  0.00     0.672 C 
ATOM     11  H20 <0> d   1      19.849   1.610  13.118  0.00  0.00     0.187 HD
ATOM     12  N1  <0> d   1      19.104   4.450  11.809  0.00  0.00    -0.235 N 
ATOM     13  N3  <0> d   1      20.094   2.631  10.798  0.00  0.00    -0.235 N 
ATOM     14  H18 <0> d   1      19.242   4.973  11.004  0.00  0.00     0.174 HD
ATOM     15  H19 <0> d   1      18.642   4.838  12.568  0.00  0.00     0.174 HD
ATOM     16  H4  <0> d   1      20.417   1.717  10.842  0.00  0.00     0.174 HD
ATOM     17  H5  <0> d   1      20.172   3.132   9.971  0.00  0.00     0.174 HD
ATOM     18  O8  <0> d   1      18.146   4.048  13.951  0.00  0.00    -0.265 OA
ENDBRANCH   1   8
BRANCH   7  19
ATOM     19  N17 <0> d   1      20.209   3.979  16.314  0.00  0.00    -0.382 N 
ATOM     20  H23 <0> d   1      19.801   4.835  16.517  0.00  0.00     0.157 HD
ATOM     21  H24 <0> d   1      21.128   3.940  16.009  0.00  0.00     0.157 HD
ENDBRANCH   7  19
BRANCH   5  22
ATOM     22  N14 <0> d   1      18.748   0.399  18.977  0.00  0.00    -0.381 N 
ATOM     23  H21 <0> d   1      19.005  -0.535  19.022  0.00  0.00     0.157 HD
ATOM     24  H22 <0> d   1      18.482   0.868  19.783  0.00  0.00     0.157 HD
ENDBRANCH   5  22
TORSDOF 3
ENDMDL
MODEL 6
REMARK VINA RESULT:      -5.9      3.410      4.802
REMARK  3 active torsions:
REMARK  status: ('A' for Active; 'I' for Inactive)
REMARK       I    between atoms: N1_1  and  C2_2 
REMARK       I    between atoms: C2_2  and  N6_6 
REMARK       I    between atoms: N6_6  and  C7_7 
REMARK    1  A    between atoms: C7_7  and  C9_9 
REMARK    2  A    between atoms: C13_13  and  N14_14 
REMARK    3  A    between atoms: C16_16  and  N17_17 
ROOT
ATOM      1  C9  <0> d   1      19.419   1.326  11.153  0.00  0.00     0.172 A 
ATOM      2  N10 <0> d   1      18.452   1.128  10.256  0.00  0.00    -0.223 NA
ATOM      3  C11 <0> d   1      18.486   0.074   9.472  0.00  0.00     0.172 A 
ATOM      4 Cl12 <0> d   1      17.225  -0.180   8.306  0.00  0.00    -0.058 Cl
ATOM      5  C13 <0> d   1      19.537  -0.846   9.574  0.00  0.00     0.164 A 
ATOM      6  N15 <0> d   1      20.504  -0.658  10.463  0.00  0.00    -0.209 NA
ATOM      7  C16 <0> d   1      20.477   0.408  11.254  0.00  0.00     0.158 A 
ENDROOT
BRANCH   1   8
ATOM      8  C7  <0> d   1      19.380   2.507  12.032  0.00  0.00     0.292 C 
ATOM      9  N6  <0> d   1      18.509   2.554  13.060  0.00  0.00    -0.155 N 
ATOM     10  C2  <0> d   1      18.388   3.702  13.805  0.00  0.00     0.672 C 
ATOM     11  H20 <0> d   1      17.969   1.777  13.274  0.00  0.00     0.187 HD
ATOM     12  N1  <0> d   1      19.022   4.811  13.427  0.00  0.00    -0.235 N 
ATOM     13  N3  <0> d   1      17.637   3.707  14.903  0.00  0.00    -0.235 N 
ATOM     14  H18 <0> d   1      18.883   5.638  13.914  0.00  0.00     0.174 HD
ATOM     15  H19 <0> d   1      19.624   4.789  12.667  0.00  0.00     0.174 HD
ATOM     16  H4  <0> d   1      17.175   2.900  15.178  0.00  0.00     0.174 HD
ATOM     17  H5  <0> d   1      17.551   4.517  15.429  0.00  0.00     0.174 HD
ATOM     18  O8  <0> d   1      20.133   3.440  11.830  0.00  0.00    -0.265 OA
ENDBRANCH   1   8
BRANCH   7  19
ATOM     19  N17 <0> d   1      21.483   0.608  12.182  0.00  0.00    -0.382 N 
ATOM     20  H23 <0> d   1      22.089  -0.116  12.404  0.00  0.00     0.157 HD
ATOM     21  H24 <0> d   1      21.582   1.472  12.611  0.00  0.00     0.157 HD
ENDBRANCH   7  19
BRANCH   5  22
ATOM     22  N14 <0> d   1      19.569  -1.954   8.744  0.00  0.00    -0.381 N 
ATOM     23  H21 <0> d   1      19.066  -1.953   7.915  0.00  0.00     0.157 HD
ATOM     24  H22 <0> d   1      20.094  -2.731   8.992  0.00  0.00     0.157 HD
ENDBRANCH   5  22
TORSDOF 3
ENDMDL
MODEL 7
REMARK VINA RESULT:      -5.8      2.139      5.066
REMARK  3 active torsions:
REMARK  status: ('A' for Active; 'I' for Inactive)
REMARK       I    between atoms: N1_1  and  C2_2 
REMARK       I    between atoms: C2_2  and  N6_6 
REMARK       I    between atoms: N6_6  and  C7_7 
REMARK    1  A    between atoms: C7_7  and  C9_9 
REMARK    2  A    between atoms: C13_13  and  N14_14 
REMARK    3  A    between atoms: C16_16  and  N17_17 
ROOT
ATOM      1  C9  <0> d   1      19.235  -1.036   9.757  0.00  0.00     0.172 A 
ATOM      2  N10 <0> d   1      18.832   0.182   9.392  0.00  0.00    -0.223 NA
ATOM      3  C11 <0> d   1      19.214   1.236  10.078  0.00  0.00     0.172 A 
ATOM      4 Cl12 <0> d   1      18.689   2.820   9.599  0.00  0.00    -0.058 Cl
ATOM      5  C13 <0> d   1      20.045   1.086  11.195  0.00  0.00     0.164 A 
ATOM      6  N15 <0> d   1      20.450  -0.122  11.567  0.00  0.00    -0.209 NA
ATOM      7  C16 <0> d   1      20.063  -1.190  10.880  0.00  0.00     0.158 A 
ENDROOT
BRANCH   1   8
ATOM      8  C7  <0> d   1      18.807  -2.216   8.987  0.00  0.00     0.292 C 
ATOM      9  N6  <0> d   1      19.448  -2.548   7.849  0.00  0.00    -0.155 N 
ATOM     10  C2  <0> d   1      18.974  -3.575   7.068  0.00  0.00     0.672 C 
ATOM     11  H20 <0> d   1      20.244  -2.062   7.581  0.00  0.00     0.187 HD
ATOM     12  N1  <0> d   1      17.808  -4.147   7.358  0.00  0.00    -0.235 N 
ATOM     13  N3  <0> d   1      19.681  -3.997   6.023  0.00  0.00    -0.235 N 
ATOM     14  H18 <0> d   1      17.442  -4.826   6.769  0.00  0.00     0.174 HD
ATOM     15  H19 <0> d   1      17.326  -3.888   8.159  0.00  0.00     0.174 HD
ATOM     16  H4  <0> d   1      20.531  -3.579   5.812  0.00  0.00     0.174 HD
ATOM     17  H5  <0> d   1      19.347  -4.721   5.472  0.00  0.00     0.174 HD
ATOM     18  O8  <0> d   1      17.875  -2.891   9.379  0.00  0.00    -0.265 OA
ENDBRANCH   1   8
BRANCH   7  19
ATOM     19  N17 <0> d   1      20.484  -2.451  11.264  0.00  0.00    -0.382 N 
ATOM     20  H23 <0> d   1      19.872  -3.048  11.721  0.00  0.00     0.157 HD
ATOM     21  H24 <0> d   1      21.391  -2.738  11.075  0.00  0.00     0.157 HD
ENDBRANCH   7  19
BRANCH   5  22
ATOM     22  N14 <0> d   1      20.443   2.198  11.915  0.00  0.00    -0.381 N 
ATOM     23  H21 <0> d   1      21.280   2.185  12.406  0.00  0.00     0.157 HD
ATOM     24  H22 <0> d   1      19.886   2.992  11.929  0.00  0.00     0.157 HD
ENDBRANCH   5  22
TORSDOF 3
ENDMDL
MODEL 8
REMARK VINA RESULT:      -5.6      2.877      5.447
REMARK  3 active torsions:
REMARK  status: ('A' for Active; 'I' for Inactive)
REMARK       I    between atoms: N1_1  and  C2_2 
REMARK       I    between atoms: C2_2  and  N6_6 
REMARK       I    between atoms: N6_6  and  C7_7 
REMARK    1  A    between atoms: C7_7  and  C9_9 
REMARK    2  A    between atoms: C13_13  and  N14_14 
REMARK    3  A    between atoms: C16_16  and  N17_17 
ROOT
ATOM      1  C9  <0> d   1      19.152  -1.295   7.314  0.00  0.00     0.172 A 
ATOM      2  N10 <0> d   1      19.633  -1.363   8.556  0.00  0.00    -0.223 NA
ATOM      3  C11 <0> d   1      19.804  -0.265   9.258  0.00  0.00     0.172 A 
ATOM      4 Cl12 <0> d   1      20.429  -0.358  10.875  0.00  0.00    -0.058 Cl
ATOM      5  C13 <0> d   1      19.483   0.981   8.705  0.00  0.00     0.164 A 
ATOM      6  N15 <0> d   1      19.005   1.059   7.469  0.00  0.00    -0.209 NA
ATOM      7  C16 <0> d   1      18.835  -0.047   6.755  0.00  0.00     0.158 A 
ENDROOT
BRANCH   1   8
ATOM      8  C7  <0> d   1      18.960  -2.526   6.529  0.00  0.00     0.292 C 
ATOM      9  N6  <0> d   1      17.942  -3.360   6.820  0.00  0.00    -0.155 N 
ATOM     10  C2  <0> d   1      17.834  -4.566   6.169  0.00  0.00     0.672 C 
ATOM     11  H20 <0> d   1      17.285  -3.109   7.488  0.00  0.00     0.187 HD
ATOM     12  N1  <0> d   1      18.807  -4.974   5.358  0.00  0.00    -0.235 N 
ATOM     13  N3  <0> d   1      16.757  -5.325   6.350  0.00  0.00    -0.235 N 
ATOM     14  H18 <0> d   1      18.762  -5.853   4.951  0.00  0.00     0.174 HD
ATOM     15  H19 <0> d   1      19.559  -4.390   5.172  0.00  0.00     0.174 HD
ATOM     16  H4  <0> d   1      16.048  -5.028   6.942  0.00  0.00     0.174 HD
ATOM     17  H5  <0> d   1      16.680  -6.176   5.891  0.00  0.00     0.174 HD
ATOM     18  O8  <0> d   1      19.721  -2.790   5.617  0.00  0.00    -0.265 OA
ENDBRANCH   1   8
BRANCH   7  19
ATOM     19  N17 <0> d   1      18.336   0.030   5.467  0.00  0.00    -0.382 N 
ATOM     20  H23 <0> d   1      17.674   0.701   5.243  0.00  0.00     0.157 HD
ATOM     21  H24 <0> d   1      18.650  -0.588   4.788  0.00  0.00     0.157 HD
ENDBRANCH   7  19
BRANCH   5  22
ATOM     22  N14 <0> d   1      19.667   2.135   9.447  0.00  0.00    -0.381 N 
ATOM     23  H21 <0> d   1      19.427   2.150  10.387  0.00  0.00     0.157 HD
ATOM     24  H22 <0> d   1      20.036   2.928   9.028  0.00  0.00     0.157 HD
ENDBRANCH   5  22
TORSDOF 3
ENDMDL
MODEL 9
REMARK VINA RESULT:      -5.6      3.582      6.141
REMARK  3 active torsions:
REMARK  status: ('A' for Active; 'I' for Inactive)
REMARK       I    between atoms: N1_1  and  C2_2 
REMARK       I    between atoms: C2_2  and  N6_6 
REMARK       I    between atoms: N6_6  and  C7_7 
REMARK    1  A    between atoms: C7_7  and  C9_9 
REMARK    2  A    between atoms: C13_13  and  N14_14 
REMARK    3  A    between atoms: C16_16  and  N17_17 
ROOT
ATOM      1  C9  <0> d   1      19.391  -1.715  11.136  0.00  0.00     0.172 A 
ATOM      2  N10 <0> d   1      18.889  -1.931  12.352  0.00  0.00    -0.223 NA
ATOM      3  C11 <0> d   1      19.103  -1.064  13.317  0.00  0.00     0.172 A 
ATOM      4 Cl12 <0> d   1      18.445  -1.348  14.898  0.00  0.00    -0.058 Cl
ATOM      5  C13 <0> d   1      19.860   0.089  13.073  0.00  0.00     0.164 A 
ATOM      6  N15 <0> d   1      20.365   0.311  11.866  0.00  0.00    -0.209 NA
ATOM      7  C16 <0> d   1      20.156  -0.563  10.890  0.00  0.00     0.158 A 
ENDROOT
BRANCH   1   8
ATOM      8  C7  <0> d   1      19.151  -2.687  10.056  0.00  0.00     0.292 C 
ATOM      9  N6  <0> d   1      19.731  -3.903  10.102  0.00  0.00    -0.155 N 
ATOM     10  C2  <0> d   1      19.605  -4.764   9.038  0.00  0.00     0.672 C 
ATOM     11  H20 <0> d   1      20.235  -4.171  10.886  0.00  0.00     0.187 HD
ATOM     12  N1  <0> d   1      19.035  -4.349   7.909  0.00  0.00    -0.235 N 
ATOM     13  N3  <0> d   1      20.053  -6.013   9.137  0.00  0.00    -0.235 N 
ATOM     14  H18 <0> d   1      19.006  -4.935   7.137  0.00  0.00     0.174 HD
ATOM     15  H19 <0> d   1      18.646  -3.462   7.861  0.00  0.00     0.174 HD
ATOM     16  H4  <0> d   1      20.469  -6.316   9.960  0.00  0.00     0.174 HD
ATOM     17  H5  <0> d   1      19.965  -6.621   8.387  0.00  0.00     0.174 HD
ATOM     18  O8  <0> d   1      18.429  -2.392   9.122  0.00  0.00    -0.265 OA
ENDBRANCH   1   8
BRANCH   7  19
ATOM     19  N17 <0> d   1      20.680  -0.335   9.630  0.00  0.00    -0.382 N 
ATOM     20  H23 <0> d   1      21.576  -0.638   9.416  0.00  0.00     0.157 HD
ATOM     21  H24 <0> d   1      20.152   0.127   8.961  0.00  0.00     0.157 HD
ENDBRANCH   7  19
BRANCH   5  22
ATOM     22  N14 <0> d   1      20.083   0.997  14.093  0.00  0.00    -0.381 N 
ATOM     23  H21 <0> d   1      19.453   1.718  14.247  0.00  0.00     0.157 HD
ATOM     24  H22 <0> d   1      20.870   0.914  14.653  0.00  0.00     0.157 HD
ENDBRANCH   5  22
TORSDOF 3
ENDMDL
