MODEL 1
REMARK VINA RESULT:      -6.3      0.000      0.000
REMARK  5 active torsions:
REMARK  status: ('A' for Active; 'I' for Inactive)
REMARK    1  A    between atoms: N1_1  and  C2_2 
REMARK    2  A    between atoms: N6_6  and  C7_7 
REMARK    3  A    between atoms: C10_9  and  C12_10 
REMARK    4  A    between atoms: C12_10  and  O13_11 
REMARK    5  A    between atoms: C14_12  and  O16_13 
ROOT
ATOM      1  C7  ZIN A   1      17.700   0.515  14.366  0.00  0.00     0.307 C 
ATOM      2  O9  ZIN A   1      17.955   1.346  15.519  0.00  0.00    -0.350 OA
ATOM      3  C10 ZIN A   1      18.231   0.463  16.619  0.00  0.00     0.182 C 
ATOM      4  C14 ZIN A   1      18.793  -0.844  16.028  0.00  0.00     0.226 C 
ATOM      5  C17 ZIN A   1      18.748  -0.621  14.496  0.00  0.00     0.314 C 
ATOM      6  F18 ZIN A   1      18.322  -1.778  13.834  0.00  0.00    -0.198 F 
ATOM      7  F19 ZIN A   1      19.994  -0.203  14.015  0.00  0.00    -0.198 F 
ENDROOT
BRANCH   1   8
ATOM      8  N6  ZIN A   1      17.910   1.271  13.129  0.00  0.00    -0.275 N 
ATOM      9  C4  ZIN A   1      17.203   0.963  12.027  0.00  0.00     0.352 A 
ATOM     10  N3  ZIN A   1      17.374   1.633  10.890  0.00  0.00    -0.177 NA
ATOM     11  O5  ZIN A   1      16.392   0.052  12.070  0.00  0.00    -0.244 OA
ATOM     12  C2  ZIN A   1      18.249   2.627  10.814  0.00  0.00     0.128 A 
ATOM     13  C21 ZIN A   1      19.010   2.972  11.950  0.00  0.00     0.067 A 
ATOM     14  C20 ZIN A   1      18.821   2.285  13.100  0.00  0.00     0.102 A 
BRANCH  12  15
ATOM     15  N1  ZIN A   1      18.417   3.312   9.633  0.00  0.00    -0.384 N 
ATOM     16  H22 ZIN A   1      18.916   4.145   9.622  0.00  0.00     0.157 HD
ATOM     17  H23 ZIN A   1      18.043   2.961   8.811  0.00  0.00     0.157 HD
ENDBRANCH  12  15
ENDBRANCH   1   8
BRANCH   4  18
ATOM     18  O16 ZIN A   1      17.970  -1.954  16.395  0.00  0.00    -0.387 OA
ATOM     19  H27 ZIN A   1      17.652  -2.473  15.645  0.00  0.00     0.210 HD
ENDBRANCH   4  18
BRANCH   3  20
ATOM     20  C12 ZIN A   1      19.263   1.101  17.552  0.00  0.00     0.199 C 
BRANCH  20  21
ATOM     21  O13 ZIN A   1      19.841   0.092  18.383  0.00  0.00    -0.398 OA
ATOM     22  H26 ZIN A   1      19.329  -0.727  18.421  0.00  0.00     0.209 HD
ENDBRANCH  20  21
ENDBRANCH   3  20
TORSDOF 5
ENDMDL
MODEL 2
REMARK VINA RESULT:      -6.2      3.052      5.202
REMARK  5 active torsions:
REMARK  status: ('A' for Active; 'I' for Inactive)
REMARK    1  A    between atoms: N1_1  and  C2_2 
REMARK    2  A    between atoms: N6_6  and  C7_7 
REMARK    3  A    between atoms: C10_9  and  C12_10 
REMARK    4  A    between atoms: C12_10  and  O13_11 
REMARK    5  A    between atoms: C14_12  and  O16_13 
ROOT
ATOM      1  C7  ZIN A   1      19.383   0.145  15.308  0.00  0.00     0.307 C 
ATOM      2  O9  ZIN A   1      20.031   0.770  14.180  0.00  0.00    -0.350 OA
ATOM      3  C10 ZIN A   1      19.708  -0.017  13.022  0.00  0.00     0.182 C 
ATOM      4  C14 ZIN A   1      18.363  -0.715  13.302  0.00  0.00     0.226 C 
ATOM      5  C17 ZIN A   1      18.003  -0.284  14.747  0.00  0.00     0.314 C 
ATOM      6  F18 ZIN A   1      17.474  -1.357  15.472  0.00  0.00    -0.198 F 
ATOM      7  F19 ZIN A   1      17.115   0.797  14.738  0.00  0.00    -0.198 F 
ENDROOT
BRANCH   1   8
ATOM      8  N6  ZIN A   1      19.219   1.103  16.404  0.00  0.00    -0.275 N 
ATOM      9  C4  ZIN A   1      19.237   0.672  17.679  0.00  0.00     0.352 A 
ATOM     10  N3  ZIN A   1      19.090   1.521  18.694  0.00  0.00    -0.177 NA
ATOM     11  O5  ZIN A   1      19.391  -0.516  17.908  0.00  0.00    -0.244 OA
ATOM     12  C2  ZIN A   1      18.920   2.818  18.473  0.00  0.00     0.128 A 
ATOM     13  C21 ZIN A   1      18.891   3.301  17.149  0.00  0.00     0.067 A 
ATOM     14  C20 ZIN A   1      19.048   2.427  16.128  0.00  0.00     0.102 A 
BRANCH  12  15
ATOM     15  N1  ZIN A   1      18.769   3.685  19.530  0.00  0.00    -0.384 N 
ATOM     16  H22 ZIN A   1      18.500   4.604  19.369  0.00  0.00     0.157 HD
ATOM     17  H23 ZIN A   1      18.925   3.378  20.437  0.00  0.00     0.157 HD
ENDBRANCH  12  15
ENDBRANCH   1   8
BRANCH   4  18
ATOM     18  O16 ZIN A   1      18.512  -2.136  13.228  0.00  0.00    -0.387 OA
ATOM     19  H27 ZIN A   1      17.742  -2.628  13.544  0.00  0.00     0.210 HD
ENDBRANCH   4  18
BRANCH   3  20
ATOM     20  C12 ZIN A   1      19.580   0.889  11.795  0.00  0.00     0.199 C 
BRANCH  20  21
ATOM     21  O13 ZIN A   1      20.558   1.928  11.867  0.00  0.00    -0.398 OA
ATOM     22  H26 ZIN A   1      20.472   2.496  12.645  0.00  0.00     0.209 HD
ENDBRANCH  20  21
ENDBRANCH   3  20
TORSDOF 5
ENDMDL
MODEL 3
REMARK VINA RESULT:      -6.2      3.852      5.466
REMARK  5 active torsions:
REMARK  status: ('A' for Active; 'I' for Inactive)
REMARK    1  A    between atoms: N1_1  and  C2_2 
REMARK    2  A    between atoms: N6_6  and  C7_7 
REMARK    3  A    between atoms: C10_9  and  C12_10 
REMARK    4  A    between atoms: C12_10  and  O13_11 
REMARK    5  A    between atoms: C14_12  and  O16_13 
ROOT
ATOM      1  C7  ZIN A   1      18.194   1.609  11.427  0.00  0.00     0.307 C 
ATOM      2  O9  ZIN A   1      17.088   2.518  11.242  0.00  0.00    -0.350 OA
ATOM      3  C10 ZIN A   1      17.490   3.784  11.789  0.00  0.00     0.182 C 
ATOM      4  C14 ZIN A   1      19.027   3.852  11.706  0.00  0.00     0.226 C 
ATOM      5  C17 ZIN A   1      19.438   2.480  11.115  0.00  0.00     0.314 C 
ATOM      6  F18 ZIN A   1      20.577   1.980  11.756  0.00  0.00    -0.198 F 
ATOM      7  F19 ZIN A   1      19.645   2.572   9.734  0.00  0.00    -0.198 F 
ENDROOT
BRANCH   1   8
ATOM      8  N6  ZIN A   1      18.101   0.487  10.488  0.00  0.00    -0.275 N 
ATOM      9  C4  ZIN A   1      18.610  -0.712  10.825  0.00  0.00     0.352 A 
ATOM     10  N3  ZIN A   1      18.540  -1.747   9.992  0.00  0.00    -0.177 NA
ATOM     11  O5  ZIN A   1      19.145  -0.852  11.913  0.00  0.00    -0.244 OA
ATOM     12  C2  ZIN A   1      17.965  -1.623   8.803  0.00  0.00     0.128 A 
ATOM     13  C21 ZIN A   1      17.426  -0.378   8.417  0.00  0.00     0.067 A 
ATOM     14  C20 ZIN A   1      17.501   0.664   9.277  0.00  0.00     0.102 A 
BRANCH  12  15
ATOM     15  N1  ZIN A   1      17.899  -2.700   7.951  0.00  0.00    -0.384 N 
ATOM     16  H22 ZIN A   1      18.370  -2.677   7.102  0.00  0.00     0.157 HD
ATOM     17  H23 ZIN A   1      17.387  -3.485   8.199  0.00  0.00     0.157 HD
ENDBRANCH  12  15
ENDBRANCH   1   8
BRANCH   4  18
ATOM     18  O16 ZIN A   1      19.591   4.023  13.009  0.00  0.00    -0.387 OA
ATOM     19  H27 ZIN A   1      19.080   4.607  13.585  0.00  0.00     0.210 HD
ENDBRANCH   4  18
BRANCH   3  20
ATOM     20  C12 ZIN A   1      16.873   4.923  10.974  0.00  0.00     0.199 C 
BRANCH  20  21
ATOM     21  O13 ZIN A   1      17.592   5.075   9.748  0.00  0.00    -0.398 OA
ATOM     22  H26 ZIN A   1      17.654   5.989   9.439  0.00  0.00     0.209 HD
ENDBRANCH  20  21
ENDBRANCH   3  20
TORSDOF 5
ENDMDL
MODEL 4
REMARK VINA RESULT:      -6.1      3.818      5.534
REMARK  5 active torsions:
REMARK  status: ('A' for Active; 'I' for Inactive)
REMARK    1  A    between atoms: N1_1  and  C2_2 
REMARK    2  A    between atoms: N6_6  and  C7_7 
REMARK    3  A    between atoms: C10_9  and  C12_10 
REMARK    4  A    between atoms: C12_10  and  O13_11 
REMARK    5  A    between atoms: C14_12  and  O16_13 
ROOT
ATOM      1  C7  ZIN A   1      17.768   2.275  10.972  0.00  0.00     0.307 C 
ATOM      2  O9  ZIN A   1      18.135   0.942  11.386  0.00  0.00    -0.350 OA
ATOM      3  C10 ZIN A   1      18.707   0.290  10.240  0.00  0.00     0.182 C 
ATOM      4  C14 ZIN A   1      19.295   1.388   9.333  0.00  0.00     0.226 C 
ATOM      5  C17 ZIN A   1      18.943   2.711  10.059  0.00  0.00     0.314 C 
ATOM      6  F18 ZIN A   1      18.535   3.690   9.145  0.00  0.00    -0.198 F 
ATOM      7  F19 ZIN A   1      20.023   3.164  10.824  0.00  0.00    -0.198 F 
ENDROOT
BRANCH   1   8
ATOM      8  N6  ZIN A   1      17.659   3.163  12.132  0.00  0.00    -0.275 N 
ATOM      9  C4  ZIN A   1      16.951   4.304  12.038  0.00  0.00     0.352 A 
ATOM     10  N3  ZIN A   1      16.836   5.129  13.076  0.00  0.00    -0.177 NA
ATOM     11  O5  ZIN A   1      16.406   4.587  10.983  0.00  0.00    -0.244 OA
ATOM     12  C2  ZIN A   1      17.419   4.847  14.234  0.00  0.00     0.128 A 
ATOM     13  C21 ZIN A   1      18.171   3.662  14.364  0.00  0.00     0.067 A 
ATOM     14  C20 ZIN A   1      18.275   2.831  13.301  0.00  0.00     0.102 A 
BRANCH  12  15
ATOM     15  N1  ZIN A   1      17.293   5.708  15.299  0.00  0.00    -0.384 N 
ATOM     16  H22 ZIN A   1      17.026   6.629  15.150  0.00  0.00     0.157 HD
ATOM     17  H23 ZIN A   1      17.466   5.394  16.200  0.00  0.00     0.157 HD
ENDBRANCH  12  15
ENDBRANCH   1   8
BRANCH   4  18
ATOM     18  O16 ZIN A   1      18.684   1.350   8.041  0.00  0.00    -0.387 OA
ATOM     19  H27 ZIN A   1      18.820   2.151   7.518  0.00  0.00     0.210 HD
ENDBRANCH   4  18
BRANCH   3  20
ATOM     20  C12 ZIN A   1      19.815  -0.668  10.685  0.00  0.00     0.199 C 
BRANCH  20  21
ATOM     21  O13 ZIN A   1      20.995  -0.421   9.917  0.00  0.00    -0.398 OA
ATOM     22  H26 ZIN A   1      21.816  -0.649  10.373  0.00  0.00     0.209 HD
ENDBRANCH  20  21
ENDBRANCH   3  20
TORSDOF 5
ENDMDL
MODEL 5
REMARK VINA RESULT:      -6.0      2.506      3.635
REMARK  5 active torsions:
REMARK  status: ('A' for Active; 'I' for Inactive)
REMARK    1  A    between atoms: N1_1  and  C2_2 
REMARK    2  A    between atoms: N6_6  and  C7_7 
REMARK    3  A    between atoms: C10_9  and  C12_10 
REMARK    4  A    between atoms: C12_10  and  O13_11 
REMARK    5  A    between atoms: C14_12  and  O16_13 
ROOT
ATOM      1  C7  ZIN A   1      17.686   2.308  12.154  0.00  0.00     0.307 C 
ATOM      2  O9  ZIN A   1      18.002   3.712  12.260  0.00  0.00    -0.350 OA
ATOM      3  C10 ZIN A   1      18.185   3.996  13.657  0.00  0.00     0.182 C 
ATOM      4  C14 ZIN A   1      18.632   2.687  14.337  0.00  0.00     0.226 C 
ATOM      5  C17 ZIN A   1      18.624   1.642  13.193  0.00  0.00     0.314 C 
ATOM      6  F18 ZIN A   1      18.102   0.421  13.635  0.00  0.00    -0.198 F 
ATOM      7  F19 ZIN A   1      19.908   1.471  12.663  0.00  0.00    -0.198 F 
ENDROOT
BRANCH   1   8
ATOM      8  N6  ZIN A   1      17.977   1.815  10.805  0.00  0.00    -0.275 N 
ATOM      9  C4  ZIN A   1      17.308   0.752  10.321  0.00  0.00     0.352 A 
ATOM     10  N3  ZIN A   1      17.553   0.283   9.100  0.00  0.00    -0.177 NA
ATOM     11  O5  ZIN A   1      16.463   0.209  11.015  0.00  0.00    -0.244 OA
ATOM     12  C2  ZIN A   1      18.467   0.853   8.326  0.00  0.00     0.128 A 
ATOM     13  C21 ZIN A   1      19.189   1.966   8.805  0.00  0.00     0.067 A 
ATOM     14  C20 ZIN A   1      18.925   2.434  10.046  0.00  0.00     0.102 A 
BRANCH  12  15
ATOM     15  N1  ZIN A   1      18.711   0.360   7.066  0.00  0.00    -0.384 N 
ATOM     16  H22 ZIN A   1      19.592   0.455   6.669  0.00  0.00     0.157 HD
ATOM     17  H23 ZIN A   1      18.005  -0.089   6.574  0.00  0.00     0.157 HD
ENDBRANCH  12  15
ENDBRANCH   1   8
BRANCH   4  18
ATOM     18  O16 ZIN A   1      17.707   2.313  15.361  0.00  0.00    -0.387 OA
ATOM     19  H27 ZIN A   1      16.782   2.339  15.083  0.00  0.00     0.210 HD
ENDBRANCH   4  18
BRANCH   3  20
ATOM     20  C12 ZIN A   1      19.260   5.071  13.835  0.00  0.00     0.199 C 
BRANCH  20  21
ATOM     21  O13 ZIN A   1      20.361   4.789  12.968  0.00  0.00    -0.398 OA
ATOM     22  H26 ZIN A   1      20.107   4.620  12.051  0.00  0.00     0.209 HD
ENDBRANCH  20  21
ENDBRANCH   3  20
TORSDOF 5
ENDMDL
MODEL 6
REMARK VINA RESULT:      -6.0      2.597      3.696
REMARK  5 active torsions:
REMARK  status: ('A' for Active; 'I' for Inactive)
REMARK    1  A    between atoms: N1_1  and  C2_2 
REMARK    2  A    between atoms: N6_6  and  C7_7 
REMARK    3  A    between atoms: C10_9  and  C12_10 
REMARK    4  A    between atoms: C12_10  and  O13_11 
REMARK    5  A    between atoms: C14_12  and  O16_13 
ROOT
ATOM      1  C7  ZIN A   1      18.839   1.007  12.736  0.00  0.00     0.307 C 
ATOM      2  O9  ZIN A   1      19.621   0.140  11.887  0.00  0.00    -0.350 OA
ATOM      3  C10 ZIN A   1      19.560  -1.176  12.460  0.00  0.00     0.182 C 
ATOM      4  C14 ZIN A   1      18.243  -1.269  13.255  0.00  0.00     0.226 C 
ATOM      5  C17 ZIN A   1      17.611   0.139  13.113  0.00  0.00     0.314 C 
ATOM      6  F18 ZIN A   1      17.048   0.559  14.323  0.00  0.00    -0.198 F 
ATOM      7  F19 ZIN A   1      16.659   0.158  12.088  0.00  0.00    -0.198 F 
ENDROOT
BRANCH   1   8
ATOM      8  N6  ZIN A   1      18.420   2.205  12.005  0.00  0.00    -0.275 N 
ATOM      9  C4  ZIN A   1      18.037   3.303  12.681  0.00  0.00     0.352 A 
ATOM     10  N3  ZIN A   1      17.651   4.405  12.041  0.00  0.00    -0.177 NA
ATOM     11  O5  ZIN A   1      18.044   3.289  13.901  0.00  0.00    -0.244 OA
ATOM     12  C2  ZIN A   1      17.632   4.448  10.716  0.00  0.00     0.128 A 
ATOM     13  C21 ZIN A   1      18.023   3.312   9.977  0.00  0.00     0.067 A 
ATOM     14  C20 ZIN A   1      18.418   2.201  10.641  0.00  0.00     0.102 A 
BRANCH  12  15
ATOM     15  N1  ZIN A   1      17.231   5.591  10.066  0.00  0.00    -0.384 N 
ATOM     16  H22 ZIN A   1      16.495   6.117  10.419  0.00  0.00     0.157 HD
ATOM     17  H23 ZIN A   1      17.686   5.877   9.259  0.00  0.00     0.157 HD
ENDBRANCH  12  15
ENDBRANCH   1   8
BRANCH   4  18
ATOM     18  O16 ZIN A   1      18.508  -1.561  14.629  0.00  0.00    -0.387 OA
ATOM     19  H27 ZIN A   1      18.136  -0.916  15.247  0.00  0.00     0.210 HD
ENDBRANCH   4  18
BRANCH   3  20
ATOM     20  C12 ZIN A   1      19.575  -2.229  11.350  0.00  0.00     0.199 C 
BRANCH  20  21
ATOM     21  O13 ZIN A   1      20.782  -2.990  11.432  0.00  0.00    -0.398 OA
ATOM     22  H26 ZIN A   1      21.446  -2.747  10.772  0.00  0.00     0.209 HD
ENDBRANCH  20  21
ENDBRANCH   3  20
TORSDOF 5
ENDMDL
MODEL 7
REMARK VINA RESULT:      -5.9      4.051      6.435
REMARK  5 active torsions:
REMARK  status: ('A' for Active; 'I' for Inactive)
REMARK    1  A    between atoms: N1_1  and  C2_2 
REMARK    2  A    between atoms: N6_6  and  C7_7 
REMARK    3  A    between atoms: C10_9  and  C12_10 
REMARK    4  A    between atoms: C12_10  and  O13_11 
REMARK    5  A    between atoms: C14_12  and  O16_13 
ROOT
ATOM      1  C7  ZIN A   1      17.884   0.734   9.392  0.00  0.00     0.307 C 
ATOM      2  O9  ZIN A   1      17.708  -0.690   9.240  0.00  0.00    -0.350 OA
ATOM      3  C10 ZIN A   1      17.819  -0.979   7.836  0.00  0.00     0.182 C 
ATOM      4  C14 ZIN A   1      18.700   0.119   7.211  0.00  0.00     0.226 C 
ATOM      5  C17 ZIN A   1      19.019   1.072   8.391  0.00  0.00     0.314 C 
ATOM      6  F18 ZIN A   1      18.952   2.410   7.986  0.00  0.00    -0.198 F 
ATOM      7  F19 ZIN A   1      20.270   0.781   8.944  0.00  0.00    -0.198 F 
ENDROOT
BRANCH   1   8
ATOM      8  N6  ZIN A   1      18.291   1.060  10.761  0.00  0.00    -0.275 N 
ATOM      9  C4  ZIN A   1      17.915   2.228  11.313  0.00  0.00     0.352 A 
ATOM     10  N3  ZIN A   1      18.272   2.549  12.554  0.00  0.00    -0.177 NA
ATOM     11  O5  ZIN A   1      17.237   3.007  10.662  0.00  0.00    -0.244 OA
ATOM     12  C2  ZIN A   1      19.010   1.723  13.283  0.00  0.00     0.128 A 
ATOM     13  C21 ZIN A   1      19.424   0.492  12.733  0.00  0.00     0.067 A 
ATOM     14  C20 ZIN A   1      19.050   0.177  11.472  0.00  0.00     0.102 A 
BRANCH  12  15
ATOM     15  N1  ZIN A   1      19.372   2.066  14.564  0.00  0.00    -0.384 N 
ATOM     16  H22 ZIN A   1      19.694   2.962  14.754  0.00  0.00     0.157 HD
ATOM     17  H23 ZIN A   1      19.301   1.415  15.280  0.00  0.00     0.157 HD
ENDBRANCH  12  15
ENDBRANCH   1   8
BRANCH   4  18
ATOM     18  O16 ZIN A   1      17.982   0.815   6.188  0.00  0.00    -0.387 OA
ATOM     19  H27 ZIN A   1      18.546   1.322   5.588  0.00  0.00     0.210 HD
ENDBRANCH   4  18
BRANCH   3  20
ATOM     20  C12 ZIN A   1      18.470  -2.349   7.635  0.00  0.00     0.199 C 
BRANCH  20  21
ATOM     21  O13 ZIN A   1      19.603  -2.468   8.499  0.00  0.00    -0.398 OA
ATOM     22  H26 ZIN A   1      19.869  -1.638   8.916  0.00  0.00     0.209 HD
ENDBRANCH  20  21
ENDBRANCH   3  20
TORSDOF 5
ENDMDL
MODEL 8
REMARK VINA RESULT:      -5.9      4.068      6.316
REMARK  5 active torsions:
REMARK  status: ('A' for Active; 'I' for Inactive)
REMARK    1  A    between atoms: N1_1  and  C2_2 
REMARK    2  A    between atoms: N6_6  and  C7_7 
REMARK    3  A    between atoms: C10_9  and  C12_10 
REMARK    4  A    between atoms: C12_10  and  O13_11 
REMARK    5  A    between atoms: C14_12  and  O16_13 
ROOT
ATOM      1  C7  ZIN A   1      19.389   1.138   9.410  0.00  0.00     0.307 C 
ATOM      2  O9  ZIN A   1      19.079   1.505   8.049  0.00  0.00    -0.350 OA
ATOM      3  C10 ZIN A   1      18.999   0.286   7.293  0.00  0.00     0.182 C 
ATOM      4  C14 ZIN A   1      18.604  -0.836   8.274  0.00  0.00     0.226 C 
ATOM      5  C17 ZIN A   1      18.530  -0.130   9.651  0.00  0.00     0.314 C 
ATOM      6  F18 ZIN A   1      19.086  -0.932  10.655  0.00  0.00    -0.198 F 
ATOM      7  F19 ZIN A   1      17.212   0.217   9.964  0.00  0.00    -0.198 F 
ENDROOT
BRANCH   1   8
ATOM      8  N6  ZIN A   1      19.001   2.207  10.334  0.00  0.00    -0.275 N 
ATOM      9  C4  ZIN A   1      19.563   2.274  11.555  0.00  0.00     0.352 A 
ATOM     10  N3  ZIN A   1      19.229   3.235  12.414  0.00  0.00    -0.177 NA
ATOM     11  O5  ZIN A   1      20.393   1.440  11.880  0.00  0.00    -0.244 OA
ATOM     12  C2  ZIN A   1      18.329   4.153  12.087  0.00  0.00     0.128 A 
ATOM     13  C21 ZIN A   1      17.719   4.108  10.817  0.00  0.00     0.067 A 
ATOM     14  C20 ZIN A   1      18.072   3.129   9.953  0.00  0.00     0.102 A 
BRANCH  12  15
ATOM     15  N1  ZIN A   1      17.992   5.140  12.983  0.00  0.00    -0.384 N 
ATOM     16  H22 ZIN A   1      18.524   5.951  13.036  0.00  0.00     0.157 HD
ATOM     17  H23 ZIN A   1      17.219   5.030  13.559  0.00  0.00     0.157 HD
ENDBRANCH  12  15
ENDBRANCH   1   8
BRANCH   4  18
ATOM     18  O16 ZIN A   1      19.602  -1.860   8.290  0.00  0.00    -0.387 OA
ATOM     19  H27 ZIN A   1      19.247  -2.753   8.394  0.00  0.00     0.210 HD
ENDBRANCH   4  18
BRANCH   3  20
ATOM     20  C12 ZIN A   1      17.937   0.420   6.199  0.00  0.00     0.199 C 
BRANCH  20  21
ATOM     21  O13 ZIN A   1      16.754  -0.276   6.596  0.00  0.00    -0.398 OA
ATOM     22  H26 ZIN A   1      16.092   0.285   7.023  0.00  0.00     0.209 HD
ENDBRANCH  20  21
ENDBRANCH   3  20
TORSDOF 5
ENDMDL
MODEL 9
REMARK VINA RESULT:      -5.9      2.142      2.351
REMARK  5 active torsions:
REMARK  status: ('A' for Active; 'I' for Inactive)
REMARK    1  A    between atoms: N1_1  and  C2_2 
REMARK    2  A    between atoms: N6_6  and  C7_7 
REMARK    3  A    between atoms: C10_9  and  C12_10 
REMARK    4  A    between atoms: C12_10  and  O13_11 
REMARK    5  A    between atoms: C14_12  and  O16_13 
ROOT
ATOM      1  C7  ZIN A   1      18.135   1.006  14.496  0.00  0.00     0.307 C 
ATOM      2  O9  ZIN A   1      18.743   2.176  15.083  0.00  0.00    -0.350 OA
ATOM      3  C10 ZIN A   1      18.362   2.197  16.469  0.00  0.00     0.182 C 
ATOM      4  C14 ZIN A   1      18.087   0.740  16.890  0.00  0.00     0.226 C 
ATOM      5  C17 ZIN A   1      18.297  -0.079  15.592  0.00  0.00     0.314 C 
ATOM      6  F18 ZIN A   1      17.321  -1.074  15.465  0.00  0.00    -0.198 F 
ATOM      7  F19 ZIN A   1      19.581  -0.634  15.554  0.00  0.00    -0.198 F 
ENDROOT
BRANCH   1   8
ATOM      8  N6  ZIN A   1      18.842   0.614  13.275  0.00  0.00    -0.275 N 
ATOM      9  C4  ZIN A   1      18.173   0.006  12.278  0.00  0.00     0.352 A 
ATOM     10  N3  ZIN A   1      18.791  -0.361  11.158  0.00  0.00    -0.177 NA
ATOM     11  O5  ZIN A   1      16.979  -0.215  12.405  0.00  0.00    -0.244 OA
ATOM     12  C2  ZIN A   1      20.088  -0.135  10.994  0.00  0.00     0.128 A 
ATOM     13  C21 ZIN A   1      20.819   0.497  12.021  0.00  0.00     0.067 A 
ATOM     14  C20 ZIN A   1      20.176   0.868  13.152  0.00  0.00     0.102 A 
BRANCH  12  15
ATOM     15  N1  ZIN A   1      20.715  -0.518   9.832  0.00  0.00    -0.384 N 
ATOM     16  H22 ZIN A   1      20.653  -1.438   9.528  0.00  0.00     0.157 HD
ATOM     17  H23 ZIN A   1      21.216   0.131   9.314  0.00  0.00     0.157 HD
ENDBRANCH  12  15
ENDBRANCH   1   8
BRANCH   4  18
ATOM     18  O16 ZIN A   1      16.742   0.600  17.357  0.00  0.00    -0.387 OA
ATOM     19  H27 ZIN A   1      16.179   0.069  16.778  0.00  0.00     0.210 HD
ENDBRANCH   4  18
BRANCH   3  20
ATOM     20  C12 ZIN A   1      19.498   2.779  17.313  0.00  0.00     0.199 C 
BRANCH  20  21
ATOM     21  O13 ZIN A   1      20.325   3.607  16.492  0.00  0.00    -0.398 OA
ATOM     22  H26 ZIN A   1      20.316   4.541  16.740  0.00  0.00     0.209 HD
ENDBRANCH  20  21
ENDBRANCH   3  20
TORSDOF 5
ENDMDL
