MODEL 1
REMARK VINA RESULT:      -9.1      0.000      0.000
REMARK  8 active torsions:
REMARK  status: ('A' for Active; 'I' for Inactive)
REMARK    1  A    between atoms: O1_1  and  C2_2 
REMARK    2  A    between atoms: C2_2  and  C4_3 
REMARK    3  A    between atoms: C2_2  and  C22_19 
REMARK    4  A    between atoms: C4_3  and  N5_4 
REMARK    5  A    between atoms: N5_4  and  C6_5 
REMARK    6  A    between atoms: C6_5  and  C7_6 
REMARK    7  A    between atoms: C7_6  and  O9_7 
REMARK    8  A    between atoms: C7_6  and  C10_8 
ROOT
ATOM      1  N5  ZIN A   1      19.631  -2.496   9.357  0.00  0.00     0.088 N 
ATOM      2  H37 ZIN A   1      20.566  -2.306   9.685  0.00  0.00     0.316 HD
ENDROOT
BRANCH   1   3
ATOM      3  C4  ZIN A   1      18.783  -2.999  10.445  0.00  0.00     0.303 C 
BRANCH   3   4
ATOM      4  C2  ZIN A   1      19.591  -3.041  11.744  0.00  0.00     0.175 C 
BRANCH   4   5
ATOM      5  O1  ZIN A   1      20.986  -2.980  11.439  0.00  0.00    -0.391 OA
ATOM      6  H34 ZIN A   1      21.343  -3.796  11.064  0.00  0.00     0.210 HD
ENDBRANCH   4   5
BRANCH   4   7
ATOM      7  C22 ZIN A   1      19.209  -1.848  12.622  0.00  0.00     0.159 C 
ATOM      8  O33 ZIN A   1      19.337  -2.203  14.000  0.00  0.00    -0.343 OA
ATOM      9  C32 ZIN A   1      18.822  -1.351  14.926  0.00  0.00     0.075 A 
ATOM     10  C26 ZIN A   1      17.904  -0.374  14.586  0.00  0.00    -0.022 A 
ATOM     11  C31 ZIN A   1      19.235  -1.481  16.247  0.00  0.00     0.040 A 
ATOM     12  C25 ZIN A   1      17.435  -0.195  13.164  0.00  0.00     0.044 C 
ATOM     13  C27 ZIN A   1      17.397   0.465  15.565  0.00  0.00     0.052 A 
ATOM     14  C24 ZIN A   1      17.750  -1.456  12.355  0.00  0.00     0.040 C 
ATOM     15  C28 ZIN A   1      17.807   0.332  16.879  0.00  0.00     0.117 A 
ATOM     16  F29 ZIN A   1      17.309   1.154  17.829  0.00  0.00    -0.206 F 
ATOM     17  C30 ZIN A   1      18.729  -0.642  17.220  0.00  0.00     0.045 A 
ENDBRANCH   4   7
ENDBRANCH   3   4
ENDBRANCH   1   3
BRANCH   1  18
ATOM     18  C6  ZIN A   1      19.039  -1.304   8.735  0.00  0.00     0.303 C 
BRANCH  18  19
ATOM     19  C7  ZIN A   1      19.936  -0.092   8.997  0.00  0.00     0.175 C 
BRANCH  19  20
ATOM     20  O9  ZIN A   1      20.979  -0.459   9.902  0.00  0.00    -0.391 OA
ATOM     21  H40 ZIN A   1      20.876  -0.090  10.791  0.00  0.00     0.210 HD
ENDBRANCH  19  20
BRANCH  19  22
ATOM     22  C10 ZIN A   1      19.102   1.036   9.609  0.00  0.00     0.159 C 
ATOM     23  O21 ZIN A   1      19.626   1.379  10.892  0.00  0.00    -0.343 OA
ATOM     24  C20 ZIN A   1      19.161   2.510  11.485  0.00  0.00     0.075 A 
ATOM     25  C14 ZIN A   1      18.498   3.490  10.768  0.00  0.00    -0.022 A 
ATOM     26  C19 ZIN A   1      19.371   2.677  12.850  0.00  0.00     0.040 A 
ATOM     27  C13 ZIN A   1      18.244   3.345   9.289  0.00  0.00     0.044 C 
ATOM     28  C15 ZIN A   1      18.052   4.633  11.411  0.00  0.00     0.052 A 
ATOM     29  C12 ZIN A   1      19.174   2.276   8.709  0.00  0.00     0.040 C 
ATOM     30  C16 ZIN A   1      18.263   4.798  12.768  0.00  0.00     0.117 A 
ATOM     31  F17 ZIN A   1      17.827   5.915  13.390  0.00  0.00    -0.206 F 
ATOM     32  C18 ZIN A   1      18.925   3.817  13.488  0.00  0.00     0.045 A 
ENDBRANCH  19  22
ENDBRANCH  18  19
ENDBRANCH   1  18
TORSDOF 8
ENDMDL
MODEL 2
REMARK VINA RESULT:      -9.1      1.674      2.478
REMARK  8 active torsions:
REMARK  status: ('A' for Active; 'I' for Inactive)
REMARK    1  A    between atoms: O1_1  and  C2_2 
REMARK    2  A    between atoms: C2_2  and  C4_3 
REMARK    3  A    between atoms: C2_2  and  C22_19 
REMARK    4  A    between atoms: C4_3  and  N5_4 
REMARK    5  A    between atoms: N5_4  and  C6_5 
REMARK    6  A    between atoms: C6_5  and  C7_6 
REMARK    7  A    between atoms: C7_6  and  O9_7 
REMARK    8  A    between atoms: C7_6  and  C10_8 
ROOT
ATOM      1  N5  ZIN A   1      19.988  -2.132  11.813  0.00  0.00     0.088 N 
ATOM      2  H37 ZIN A   1      20.844  -1.604  11.883  0.00  0.00     0.316 HD
ENDROOT
BRANCH   1   3
ATOM      3  C4  ZIN A   1      19.095  -1.840  12.942  0.00  0.00     0.303 C 
BRANCH   3   4
ATOM      4  C2  ZIN A   1      19.851  -1.027  13.994  0.00  0.00     0.175 C 
BRANCH   4   5
ATOM      5  O1  ZIN A   1      20.593   0.012  13.351  0.00  0.00    -0.391 OA
ATOM      6  H34 ZIN A   1      21.536   0.010  13.561  0.00  0.00     0.210 HD
ENDBRANCH   4   5
BRANCH   4   7
ATOM      7  C22 ZIN A   1      18.854  -0.408  14.976  0.00  0.00     0.159 C 
ATOM      8  O33 ZIN A   1      19.411   0.778  15.544  0.00  0.00    -0.343 OA
ATOM      9  C32 ZIN A   1      18.769   1.336  16.605  0.00  0.00     0.075 A 
ATOM     10  C26 ZIN A   1      17.839   0.630  17.347  0.00  0.00    -0.022 A 
ATOM     11  C31 ZIN A   1      19.069   2.650  16.944  0.00  0.00     0.040 A 
ATOM     12  C25 ZIN A   1      17.480  -0.795  17.009  0.00  0.00     0.044 C 
ATOM     13  C27 ZIN A   1      17.217   1.235  18.427  0.00  0.00     0.052 A 
ATOM     14  C24 ZIN A   1      18.561  -1.399  16.109  0.00  0.00     0.040 C 
ATOM     15  C28 ZIN A   1      17.520   2.542  18.764  0.00  0.00     0.117 A 
ATOM     16  F29 ZIN A   1      16.909   3.126  19.818  0.00  0.00    -0.206 F 
ATOM     17  C30 ZIN A   1      18.446   3.251  18.020  0.00  0.00     0.045 A 
ENDBRANCH   4   7
ENDBRANCH   3   4
ENDBRANCH   1   3
BRANCH   1  18
ATOM     18  C6  ZIN A   1      19.317  -1.878  10.531  0.00  0.00     0.303 C 
BRANCH  18  19
ATOM     19  C7  ZIN A   1      19.987  -0.695   9.830  0.00  0.00     0.175 C 
BRANCH  19  20
ATOM     20  O9  ZIN A   1      21.230  -0.403  10.471  0.00  0.00    -0.391 OA
ATOM     21  H40 ZIN A   1      21.594   0.465  10.245  0.00  0.00     0.210 HD
ENDBRANCH  19  20
BRANCH  19  22
ATOM     22  C10 ZIN A   1      19.071   0.529   9.908  0.00  0.00     0.159 C 
ATOM     23  O21 ZIN A   1      19.100   1.066  11.231  0.00  0.00    -0.343 OA
ATOM     24  C20 ZIN A   1      18.533   2.285  11.433  0.00  0.00     0.075 A 
ATOM     25  C14 ZIN A   1      18.262   3.146  10.384  0.00  0.00    -0.022 A 
ATOM     26  C19 ZIN A   1      18.229   2.667  12.735  0.00  0.00     0.040 A 
ATOM     27  C13 ZIN A   1      18.569   2.768   8.957  0.00  0.00     0.044 C 
ATOM     28  C15 ZIN A   1      17.693   4.383  10.638  0.00  0.00     0.052 A 
ATOM     29  C12 ZIN A   1      19.567   1.606   8.936  0.00  0.00     0.040 C 
ATOM     30  C16 ZIN A   1      17.393   4.762  11.933  0.00  0.00     0.117 A 
ATOM     31  F17 ZIN A   1      16.840   5.970  12.175  0.00  0.00    -0.206 F 
ATOM     32  C18 ZIN A   1      17.662   3.900  12.984  0.00  0.00     0.045 A 
ENDBRANCH  19  22
ENDBRANCH  18  19
ENDBRANCH   1  18
TORSDOF 8
ENDMDL
MODEL 3
REMARK VINA RESULT:      -9.0      2.779      4.192
REMARK  8 active torsions:
REMARK  status: ('A' for Active; 'I' for Inactive)
REMARK    1  A    between atoms: O1_1  and  C2_2 
REMARK    2  A    between atoms: C2_2  and  C4_3 
REMARK    3  A    between atoms: C2_2  and  C22_19 
REMARK    4  A    between atoms: C4_3  and  N5_4 
REMARK    5  A    between atoms: N5_4  and  C6_5 
REMARK    6  A    between atoms: C6_5  and  C7_6 
REMARK    7  A    between atoms: C7_6  and  O9_7 
REMARK    8  A    between atoms: C7_6  and  C10_8 
ROOT
ATOM      1  N5  ZIN A   1      17.716  -4.148   7.527  0.00  0.00     0.088 N 
ATOM      2  H37 ZIN A   1      16.724  -4.245   7.370  0.00  0.00     0.316 HD
ENDROOT
BRANCH   1   3
ATOM      3  C4  ZIN A   1      18.123  -4.833   8.760  0.00  0.00     0.303 C 
BRANCH   3   4
ATOM      4  C2  ZIN A   1      17.061  -4.615   9.840  0.00  0.00     0.175 C 
BRANCH   4   5
ATOM      5  O1  ZIN A   1      16.547  -5.880  10.264  0.00  0.00    -0.391 OA
ATOM      6  H34 ZIN A   1      17.228  -6.515  10.521  0.00  0.00     0.210 HD
ENDBRANCH   4   5
BRANCH   4   7
ATOM      7  C22 ZIN A   1      17.688  -3.894  11.035  0.00  0.00     0.159 C 
ATOM      8  O33 ZIN A   1      17.163  -2.568  11.126  0.00  0.00    -0.343 OA
ATOM      9  C32 ZIN A   1      17.770  -1.703  11.982  0.00  0.00     0.075 A 
ATOM     10  C26 ZIN A   1      19.039  -1.939  12.479  0.00  0.00    -0.022 A 
ATOM     11  C31 ZIN A   1      17.086  -0.552  12.354  0.00  0.00     0.040 A 
ATOM     12  C25 ZIN A   1      19.812  -3.178  12.105  0.00  0.00     0.044 C 
ATOM     13  C27 ZIN A   1      19.623  -1.024  13.339  0.00  0.00     0.052 A 
ATOM     14  C24 ZIN A   1      19.207  -3.803  10.846  0.00  0.00     0.040 C 
ATOM     15  C28 ZIN A   1      18.941   0.122  13.706  0.00  0.00     0.117 A 
ATOM     16  F29 ZIN A   1      19.516   1.010  14.546  0.00  0.00    -0.206 F 
ATOM     17  C30 ZIN A   1      17.669   0.358  13.214  0.00  0.00     0.045 A 
ENDBRANCH   4   7
ENDBRANCH   3   4
ENDBRANCH   1   3
BRANCH   1  18
ATOM     18  C6  ZIN A   1      18.481  -4.640   6.374  0.00  0.00     0.303 C 
BRANCH  18  19
ATOM     19  C7  ZIN A   1      19.480  -3.569   5.930  0.00  0.00     0.175 C 
BRANCH  19  20
ATOM     20  O9  ZIN A   1      20.737  -3.795   6.570  0.00  0.00    -0.391 OA
ATOM     21  H40 ZIN A   1      20.831  -4.680   6.949  0.00  0.00     0.210 HD
ENDBRANCH  19  20
BRANCH  19  22
ATOM     22  C10 ZIN A   1      18.951  -2.186   6.319  0.00  0.00     0.159 C 
ATOM     23  O21 ZIN A   1      19.485  -1.807   7.588  0.00  0.00    -0.343 OA
ATOM     24  C20 ZIN A   1      19.312  -0.519   7.990  0.00  0.00     0.075 A 
ATOM     25  C14 ZIN A   1      18.971   0.483   7.099  0.00  0.00    -0.022 A 
ATOM     26  C19 ZIN A   1      19.494  -0.216   9.334  0.00  0.00     0.040 A 
ATOM     27  C13 ZIN A   1      18.758   0.194   5.634  0.00  0.00     0.044 C 
ATOM     28  C15 ZIN A   1      18.817   1.783   7.550  0.00  0.00     0.052 A 
ATOM     29  C12 ZIN A   1      19.395  -1.152   5.277  0.00  0.00     0.040 C 
ATOM     30  C16 ZIN A   1      19.000   2.084   8.887  0.00  0.00     0.117 A 
ATOM     31  F17 ZIN A   1      18.849   3.354   9.322  0.00  0.00    -0.206 F 
ATOM     32  C18 ZIN A   1      19.339   1.081   9.780  0.00  0.00     0.045 A 
ENDBRANCH  19  22
ENDBRANCH  18  19
ENDBRANCH   1  18
TORSDOF 8
ENDMDL
MODEL 4
REMARK VINA RESULT:      -9.0      3.716      7.754
REMARK  8 active torsions:
REMARK  status: ('A' for Active; 'I' for Inactive)
REMARK    1  A    between atoms: O1_1  and  C2_2 
REMARK    2  A    between atoms: C2_2  and  C4_3 
REMARK    3  A    between atoms: C2_2  and  C22_19 
REMARK    4  A    between atoms: C4_3  and  N5_4 
REMARK    5  A    between atoms: N5_4  and  C6_5 
REMARK    6  A    between atoms: C6_5  and  C7_6 
REMARK    7  A    between atoms: C7_6  and  O9_7 
REMARK    8  A    between atoms: C7_6  and  C10_8 
ROOT
ATOM      1  N5  ZIN A   1      17.764   4.194  16.884  0.00  0.00     0.088 N 
ATOM      2  H37 ZIN A   1      16.937   3.755  17.260  0.00  0.00     0.316 HD
ENDROOT
BRANCH   1   3
ATOM      3  C4  ZIN A   1      17.830   5.610  17.264  0.00  0.00     0.303 C 
BRANCH   3   4
ATOM      4  C2  ZIN A   1      17.817   6.478  16.003  0.00  0.00     0.175 C 
BRANCH   4   5
ATOM      5  O1  ZIN A   1      19.102   7.079  15.826  0.00  0.00    -0.391 OA
ATOM      6  H34 ZIN A   1      19.838   6.528  16.124  0.00  0.00     0.210 HD
ENDBRANCH   4   5
BRANCH   4   7
ATOM      7  C22 ZIN A   1      17.490   5.608  14.788  0.00  0.00     0.159 C 
ATOM      8  O33 ZIN A   1      18.700   5.203  14.145  0.00  0.00    -0.343 OA
ATOM      9  C32 ZIN A   1      18.605   4.620  12.921  0.00  0.00     0.075 A 
ATOM     10  C26 ZIN A   1      17.460   4.725  12.151  0.00  0.00    -0.022 A 
ATOM     11  C31 ZIN A   1      19.697   3.907  12.440  0.00  0.00     0.040 A 
ATOM     12  C25 ZIN A   1      16.251   5.484  12.638  0.00  0.00     0.044 C 
ATOM     13  C27 ZIN A   1      17.411   4.124  10.904  0.00  0.00     0.052 A 
ATOM     14  C24 ZIN A   1      16.654   6.413  13.786  0.00  0.00     0.040 C 
ATOM     15  C28 ZIN A   1      18.500   3.418  10.427  0.00  0.00     0.117 A 
ATOM     16  F29 ZIN A   1      18.446   2.833   9.210  0.00  0.00    -0.206 F 
ATOM     17  C30 ZIN A   1      19.644   3.308  11.198  0.00  0.00     0.045 A 
ENDBRANCH   4   7
ENDBRANCH   3   4
ENDBRANCH   1   3
BRANCH   1  18
ATOM     18  C6  ZIN A   1      18.976   3.478  17.304  0.00  0.00     0.303 C 
BRANCH  18  19
ATOM     19  C7  ZIN A   1      18.584   2.248  18.124  0.00  0.00     0.175 C 
BRANCH  19  20
ATOM     20  O9  ZIN A   1      19.691   1.840  18.930  0.00  0.00    -0.391 OA
ATOM     21  H40 ZIN A   1      19.755   0.882  19.054  0.00  0.00     0.210 HD
ENDBRANCH  19  20
BRANCH  19  22
ATOM     22  C10 ZIN A   1      18.193   1.109  17.180  0.00  0.00     0.159 C 
ATOM     23  O21 ZIN A   1      18.180   1.583  15.834  0.00  0.00    -0.343 OA
ATOM     24  C20 ZIN A   1      18.082   0.663  14.837  0.00  0.00     0.075 A 
ATOM     25  C14 ZIN A   1      18.345  -0.677  15.054  0.00  0.00    -0.022 A 
ATOM     26  C19 ZIN A   1      17.712   1.098  13.569  0.00  0.00     0.040 A 
ATOM     27  C13 ZIN A   1      18.742  -1.190  16.415  0.00  0.00     0.044 C 
ATOM     28  C15 ZIN A   1      18.243  -1.578  14.007  0.00  0.00     0.052 A 
ATOM     29  C12 ZIN A   1      19.221  -0.024  17.285  0.00  0.00     0.040 C 
ATOM     30  C16 ZIN A   1      17.877  -1.144  12.746  0.00  0.00     0.117 A 
ATOM     31  F17 ZIN A   1      17.781  -2.026  11.728  0.00  0.00    -0.206 F 
ATOM     32  C18 ZIN A   1      17.611   0.198  12.528  0.00  0.00     0.045 A 
ENDBRANCH  19  22
ENDBRANCH  18  19
ENDBRANCH   1  18
TORSDOF 8
ENDMDL
MODEL 5
REMARK VINA RESULT:      -8.9      2.377      3.417
REMARK  8 active torsions:
REMARK  status: ('A' for Active; 'I' for Inactive)
REMARK    1  A    between atoms: O1_1  and  C2_2 
REMARK    2  A    between atoms: C2_2  and  C4_3 
REMARK    3  A    between atoms: C2_2  and  C22_19 
REMARK    4  A    between atoms: C4_3  and  N5_4 
REMARK    5  A    between atoms: N5_4  and  C6_5 
REMARK    6  A    between atoms: C6_5  and  C7_6 
REMARK    7  A    between atoms: C7_6  and  O9_7 
REMARK    8  A    between atoms: C7_6  and  C10_8 
ROOT
ATOM      1  N5  ZIN A   1      19.699  -2.758   7.100  0.00  0.00     0.088 N 
ATOM      2  H37 ZIN A   1      20.188  -2.417   7.914  0.00  0.00     0.316 HD
ENDROOT
BRANCH   1   3
ATOM      3  C4  ZIN A   1      18.582  -3.631   7.482  0.00  0.00     0.303 C 
BRANCH   3   4
ATOM      4  C2  ZIN A   1      18.893  -4.302   8.822  0.00  0.00     0.175 C 
BRANCH   4   5
ATOM      5  O1  ZIN A   1      20.262  -4.714   8.841  0.00  0.00    -0.391 OA
ATOM      6  H34 ZIN A   1      20.893  -3.986   8.756  0.00  0.00     0.210 HD
ENDBRANCH   4   5
BRANCH   4   7
ATOM      7  C22 ZIN A   1      18.644  -3.310   9.960  0.00  0.00     0.159 C 
ATOM      8  O33 ZIN A   1      19.741  -2.400  10.055  0.00  0.00    -0.343 OA
ATOM      9  C32 ZIN A   1      19.807  -1.597  11.149  0.00  0.00     0.075 A 
ATOM     10  C26 ZIN A   1      19.080  -1.865  12.296  0.00  0.00    -0.022 A 
ATOM     11  C31 ZIN A   1      20.634  -0.481  11.102  0.00  0.00     0.040 A 
ATOM     12  C25 ZIN A   1      18.167  -3.061  12.385  0.00  0.00     0.044 C 
ATOM     13  C27 ZIN A   1      19.187  -1.025  13.391  0.00  0.00     0.052 A 
ATOM     14  C24 ZIN A   1      18.525  -4.067  11.288  0.00  0.00     0.040 C 
ATOM     15  C28 ZIN A   1      20.013   0.083  13.343  0.00  0.00     0.117 A 
ATOM     16  F29 ZIN A   1      20.112   0.899  14.415  0.00  0.00    -0.206 F 
ATOM     17  C30 ZIN A   1      20.737   0.356  12.195  0.00  0.00     0.045 A 
ENDBRANCH   4   7
ENDBRANCH   3   4
ENDBRANCH   1   3
BRANCH   1  18
ATOM     18  C6  ZIN A   1      19.236  -1.646   6.260  0.00  0.00     0.303 C 
BRANCH  18  19
ATOM     19  C7  ZIN A   1      17.809  -1.264   6.660  0.00  0.00     0.175 C 
BRANCH  19  20
ATOM     20  O9  ZIN A   1      17.002  -1.144   5.488  0.00  0.00    -0.391 OA
ATOM     21  H40 ZIN A   1      17.119  -0.310   5.013  0.00  0.00     0.210 HD
ENDBRANCH  19  20
BRANCH  19  22
ATOM     22  C10 ZIN A   1      17.830   0.073   7.404  0.00  0.00     0.159 C 
ATOM     23  O21 ZIN A   1      17.540  -0.141   8.786  0.00  0.00    -0.343 OA
ATOM     24  C20 ZIN A   1      17.740   0.895   9.644  0.00  0.00     0.075 A 
ATOM     25  C14 ZIN A   1      18.520   1.985   9.302  0.00  0.00    -0.022 A 
ATOM     26  C19 ZIN A   1      17.144   0.839  10.899  0.00  0.00     0.040 A 
ATOM     27  C13 ZIN A   1      19.178   2.087   7.949  0.00  0.00     0.044 C 
ATOM     28  C15 ZIN A   1      18.706   3.012  10.212  0.00  0.00     0.052 A 
ATOM     29  C12 ZIN A   1      19.223   0.704   7.293  0.00  0.00     0.040 C 
ATOM     30  C16 ZIN A   1      18.114   2.954  11.460  0.00  0.00     0.117 A 
ATOM     31  F17 ZIN A   1      18.299   3.959  12.345  0.00  0.00    -0.206 F 
ATOM     32  C18 ZIN A   1      17.331   1.865  11.803  0.00  0.00     0.045 A 
ENDBRANCH  19  22
ENDBRANCH  18  19
ENDBRANCH   1  18
TORSDOF 8
ENDMDL
MODEL 6
REMARK VINA RESULT:      -8.9      3.505      5.771
REMARK  8 active torsions:
REMARK  status: ('A' for Active; 'I' for Inactive)
REMARK    1  A    between atoms: O1_1  and  C2_2 
REMARK    2  A    between atoms: C2_2  and  C4_3 
REMARK    3  A    between atoms: C2_2  and  C22_19 
REMARK    4  A    between atoms: C4_3  and  N5_4 
REMARK    5  A    between atoms: N5_4  and  C6_5 
REMARK    6  A    between atoms: C6_5  and  C7_6 
REMARK    7  A    between atoms: C7_6  and  O9_7 
REMARK    8  A    between atoms: C7_6  and  C10_8 
ROOT
ATOM      1  N5  ZIN A   1      20.039   4.818  13.401  0.00  0.00     0.088 N 
ATOM      2  H37 ZIN A   1      20.560   5.613  13.062  0.00  0.00     0.316 HD
ENDROOT
BRANCH   1   3
ATOM      3  C4  ZIN A   1      19.243   5.174  14.582  0.00  0.00     0.303 C 
BRANCH   3   4
ATOM      4  C2  ZIN A   1      20.087   4.981  15.844  0.00  0.00     0.175 C 
BRANCH   4   5
ATOM      5  O1  ZIN A   1      19.841   6.058  16.751  0.00  0.00    -0.391 OA
ATOM      6  H34 ZIN A   1      19.328   6.784  16.369  0.00  0.00     0.210 HD
ENDBRANCH   4   5
BRANCH   4   7
ATOM      7  C22 ZIN A   1      19.713   3.657  16.511  0.00  0.00     0.159 C 
ATOM      8  O33 ZIN A   1      19.251   2.733  15.524  0.00  0.00    -0.343 OA
ATOM      9  C32 ZIN A   1      18.659   1.588  15.953  0.00  0.00     0.075 A 
ATOM     10  C26 ZIN A   1      18.184   1.453  17.246  0.00  0.00    -0.022 A 
ATOM     11  C31 ZIN A   1      18.528   0.533  15.056  0.00  0.00     0.040 A 
ATOM     12  C25 ZIN A   1      18.312   2.569  18.251  0.00  0.00     0.044 C 
ATOM     13  C27 ZIN A   1      17.577   0.271  17.637  0.00  0.00     0.052 A 
ATOM     14  C24 ZIN A   1      18.585   3.888  17.524  0.00  0.00     0.040 C 
ATOM     15  C28 ZIN A   1      17.446  -0.776  16.742  0.00  0.00     0.117 A 
ATOM     16  F29 ZIN A   1      16.853  -1.926  17.130  0.00  0.00    -0.206 F 
ATOM     17  C30 ZIN A   1      17.924  -0.644  15.450  0.00  0.00     0.045 A 
ENDBRANCH   4   7
ENDBRANCH   3   4
ENDBRANCH   1   3
BRANCH   1  18
ATOM     18  C6  ZIN A   1      19.189   4.256  12.342  0.00  0.00     0.303 C 
BRANCH  18  19
ATOM     19  C7  ZIN A   1      19.501   2.768  12.173  0.00  0.00     0.175 C 
BRANCH  19  20
ATOM     20  O9  ZIN A   1      20.869   2.608  11.791  0.00  0.00    -0.391 OA
ATOM     21  H40 ZIN A   1      21.026   1.862  11.196  0.00  0.00     0.210 HD
ENDBRANCH  19  20
BRANCH  19  22
ATOM     22  C10 ZIN A   1      18.596   2.177  11.090  0.00  0.00     0.159 C 
ATOM     23  O21 ZIN A   1      19.293   2.149   9.844  0.00  0.00    -0.343 OA
ATOM     24  C20 ZIN A   1      18.735   1.449   8.821  0.00  0.00     0.075 A 
ATOM     25  C14 ZIN A   1      17.745   0.507   9.037  0.00  0.00    -0.022 A 
ATOM     26  C19 ZIN A   1      19.187   1.692   7.529  0.00  0.00     0.040 A 
ATOM     27  C13 ZIN A   1      17.222   0.218  10.421  0.00  0.00     0.044 C 
ATOM     28  C15 ZIN A   1      17.213  -0.192   7.965  0.00  0.00     0.052 A 
ATOM     29  C12 ZIN A   1      18.215   0.740  11.465  0.00  0.00     0.040 C 
ATOM     30  C16 ZIN A   1      17.665   0.050   6.681  0.00  0.00     0.117 A 
ATOM     31  F17 ZIN A   1      17.143  -0.635   5.640  0.00  0.00    -0.206 F 
ATOM     32  C18 ZIN A   1      18.654   0.994   6.464  0.00  0.00     0.045 A 
ENDBRANCH  19  22
ENDBRANCH  18  19
ENDBRANCH   1  18
TORSDOF 8
ENDMDL
MODEL 7
REMARK VINA RESULT:      -8.9      4.087      8.120
REMARK  8 active torsions:
REMARK  status: ('A' for Active; 'I' for Inactive)
REMARK    1  A    between atoms: O1_1  and  C2_2 
REMARK    2  A    between atoms: C2_2  and  C4_3 
REMARK    3  A    between atoms: C2_2  and  C22_19 
REMARK    4  A    between atoms: C4_3  and  N5_4 
REMARK    5  A    between atoms: N5_4  and  C6_5 
REMARK    6  A    between atoms: C6_5  and  C7_6 
REMARK    7  A    between atoms: C7_6  and  O9_7 
REMARK    8  A    between atoms: C7_6  and  C10_8 
ROOT
ATOM      1  N5  ZIN A   1      20.060  -1.045  13.437  0.00  0.00     0.088 N 
ATOM      2  H37 ZIN A   1      20.916  -1.122  12.908  0.00  0.00     0.316 HD
ENDROOT
BRANCH   1   3
ATOM      3  C4  ZIN A   1      19.524   0.320  13.377  0.00  0.00     0.303 C 
BRANCH   3   4
ATOM      4  C2  ZIN A   1      20.266   1.113  12.299  0.00  0.00     0.175 C 
BRANCH   4   5
ATOM      5  O1  ZIN A   1      21.546   0.520  12.068  0.00  0.00    -0.391 OA
ATOM      6  H34 ZIN A   1      21.943   0.759  11.219  0.00  0.00     0.210 HD
ENDBRANCH   4   5
BRANCH   4   7
ATOM      7  C22 ZIN A   1      19.455   1.095  11.002  0.00  0.00     0.159 C 
ATOM      8  O33 ZIN A   1      19.859  -0.015  10.197  0.00  0.00    -0.343 OA
ATOM      9  C32 ZIN A   1      19.416  -0.062   8.913  0.00  0.00     0.075 A 
ATOM     10  C26 ZIN A   1      18.906   1.055   8.276  0.00  0.00    -0.022 A 
ATOM     11  C31 ZIN A   1      19.488  -1.272   8.232  0.00  0.00     0.040 A 
ATOM     12  C25 ZIN A   1      18.804   2.384   8.980  0.00  0.00     0.044 C 
ATOM     13  C27 ZIN A   1      18.476   0.963   6.962  0.00  0.00     0.052 A 
ATOM     14  C24 ZIN A   1      19.712   2.385  10.213  0.00  0.00     0.040 C 
ATOM     15  C28 ZIN A   1      18.552  -0.241   6.286  0.00  0.00     0.117 A 
ATOM     16  F29 ZIN A   1      18.130  -0.325   5.005  0.00  0.00    -0.206 F 
ATOM     17  C30 ZIN A   1      19.057  -1.361   6.923  0.00  0.00     0.045 A 
ENDBRANCH   4   7
ENDBRANCH   3   4
ENDBRANCH   1   3
BRANCH   1  18
ATOM     18  C6  ZIN A   1      19.066  -2.023  12.974  0.00  0.00     0.303 C 
BRANCH  18  19
ATOM     19  C7  ZIN A   1      19.741  -3.041  12.053  0.00  0.00     0.175 C 
BRANCH  19  20
ATOM     20  O9  ZIN A   1      20.748  -2.387  11.277  0.00  0.00    -0.391 OA
ATOM     21  H40 ZIN A   1      20.650  -1.426  11.237  0.00  0.00     0.210 HD
ENDBRANCH  19  20
BRANCH  19  22
ATOM     22  C10 ZIN A   1      18.696  -3.655  11.119  0.00  0.00     0.159 C 
ATOM     23  O21 ZIN A   1      19.343  -4.485  10.153  0.00  0.00    -0.343 OA
ATOM     24  C20 ZIN A   1      18.563  -5.293   9.387  0.00  0.00     0.075 A 
ATOM     25  C14 ZIN A   1      17.260  -5.595   9.739  0.00  0.00    -0.022 A 
ATOM     26  C19 ZIN A   1      19.106  -5.829   8.225  0.00  0.00     0.040 A 
ATOM     27  C13 ZIN A   1      16.631  -5.029  10.987  0.00  0.00     0.044 C 
ATOM     28  C15 ZIN A   1      16.505  -6.433   8.934  0.00  0.00     0.052 A 
ATOM     29  C12 ZIN A   1      17.725  -4.522  11.930  0.00  0.00     0.040 C 
ATOM     30  C16 ZIN A   1      17.048  -6.967   7.780  0.00  0.00     0.117 A 
ATOM     31  F17 ZIN A   1      16.307  -7.784   6.999  0.00  0.00    -0.206 F 
ATOM     32  C18 ZIN A   1      18.351  -6.663   7.425  0.00  0.00     0.045 A 
ENDBRANCH  19  22
ENDBRANCH  18  19
ENDBRANCH   1  18
TORSDOF 8
ENDMDL
MODEL 8
REMARK VINA RESULT:      -8.7      3.441      5.711
REMARK  8 active torsions:
REMARK  status: ('A' for Active; 'I' for Inactive)
REMARK    1  A    between atoms: O1_1  and  C2_2 
REMARK    2  A    between atoms: C2_2  and  C4_3 
REMARK    3  A    between atoms: C2_2  and  C22_19 
REMARK    4  A    between atoms: C4_3  and  N5_4 
REMARK    5  A    between atoms: N5_4  and  C6_5 
REMARK    6  A    between atoms: C6_5  and  C7_6 
REMARK    7  A    between atoms: C7_6  and  O9_7 
REMARK    8  A    between atoms: C7_6  and  C10_8 
ROOT
ATOM      1  N5  ZIN A   1      18.186   3.054  16.523  0.00  0.00     0.088 N 
ATOM      2  H37 ZIN A   1      17.660   2.814  15.696  0.00  0.00     0.316 HD
ENDROOT
BRANCH   1   3
ATOM      3  C4  ZIN A   1      19.103   1.971  16.898  0.00  0.00     0.303 C 
BRANCH   3   4
ATOM      4  C2  ZIN A   1      18.456   0.621  16.582  0.00  0.00     0.175 C 
BRANCH   4   5
ATOM      5  O1  ZIN A   1      17.036   0.736  16.693  0.00  0.00    -0.391 OA
ATOM      6  H34 ZIN A   1      16.577   0.777  15.843  0.00  0.00     0.210 HD
ENDBRANCH   4   5
BRANCH   4   7
ATOM      7  C22 ZIN A   1      18.823   0.201  15.157  0.00  0.00     0.159 C 
ATOM      8  O33 ZIN A   1      17.708   0.414  14.290  0.00  0.00    -0.343 OA
ATOM      9  C32 ZIN A   1      17.767  -0.113  13.038  0.00  0.00     0.075 A 
ATOM     10  C26 ZIN A   1      18.670  -1.109  12.709  0.00  0.00    -0.022 A 
ATOM     11  C31 ZIN A   1      16.887   0.366  12.075  0.00  0.00     0.040 A 
ATOM     12  C25 ZIN A   1      19.645  -1.652  13.721  0.00  0.00     0.044 C 
ATOM     13  C27 ZIN A   1      18.687  -1.625  11.424  0.00  0.00     0.052 A 
ATOM     14  C24 ZIN A   1      19.177  -1.291  15.133  0.00  0.00     0.040 C 
ATOM     15  C28 ZIN A   1      17.808  -1.148  10.468  0.00  0.00     0.117 A 
ATOM     16  F29 ZIN A   1      17.830  -1.656   9.216  0.00  0.00    -0.206 F 
ATOM     17  C30 ZIN A   1      16.907  -0.149  10.795  0.00  0.00     0.045 A 
ENDBRANCH   4   7
ENDBRANCH   3   4
ENDBRANCH   1   3
BRANCH   1  18
ATOM     18  C6  ZIN A   1      18.912   4.318  16.335  0.00  0.00     0.303 C 
BRANCH  18  19
ATOM     19  C7  ZIN A   1      17.974   5.357  15.716  0.00  0.00     0.175 C 
BRANCH  19  20
ATOM     20  O9  ZIN A   1      16.637   5.114  16.156  0.00  0.00    -0.391 OA
ATOM     21  H40 ZIN A   1      15.985   5.728  15.789  0.00  0.00     0.210 HD
ENDBRANCH  19  20
BRANCH  19  22
ATOM     22  C10 ZIN A   1      18.037   5.256  14.191  0.00  0.00     0.159 C 
ATOM     23  O21 ZIN A   1      18.762   4.084  13.816  0.00  0.00    -0.343 OA
ATOM     24  C20 ZIN A   1      18.724   3.704  12.511  0.00  0.00     0.075 A 
ATOM     25  C14 ZIN A   1      17.759   4.181  11.641  0.00  0.00    -0.022 A 
ATOM     26  C19 ZIN A   1      19.682   2.806  12.055  0.00  0.00     0.040 A 
ATOM     27  C13 ZIN A   1      16.707   5.162  12.094  0.00  0.00     0.044 C 
ATOM     28  C15 ZIN A   1      17.751   3.758  10.322  0.00  0.00     0.052 A 
ATOM     29  C12 ZIN A   1      16.616   5.149  13.623  0.00  0.00     0.040 C 
ATOM     30  C16 ZIN A   1      18.704   2.863   9.871  0.00  0.00     0.117 A 
ATOM     31  F17 ZIN A   1      18.690   2.453   8.584  0.00  0.00    -0.206 F 
ATOM     32  C18 ZIN A   1      19.671   2.387  10.740  0.00  0.00     0.045 A 
ENDBRANCH  19  22
ENDBRANCH  18  19
ENDBRANCH   1  18
TORSDOF 8
ENDMDL
MODEL 9
REMARK VINA RESULT:      -8.7      4.411      6.898
REMARK  8 active torsions:
REMARK  status: ('A' for Active; 'I' for Inactive)
REMARK    1  A    between atoms: O1_1  and  C2_2 
REMARK    2  A    between atoms: C2_2  and  C4_3 
REMARK    3  A    between atoms: C2_2  and  C22_19 
REMARK    4  A    between atoms: C4_3  and  N5_4 
REMARK    5  A    between atoms: N5_4  and  C6_5 
REMARK    6  A    between atoms: C6_5  and  C7_6 
REMARK    7  A    between atoms: C7_6  and  O9_7 
REMARK    8  A    between atoms: C7_6  and  C10_8 
ROOT
ATOM      1  N5  ZIN A   1      17.378  -1.952  12.101  0.00  0.00     0.088 N 
ATOM      2  H37 ZIN A   1      16.992  -1.828  11.178  0.00  0.00     0.316 HD
ENDROOT
BRANCH   1   3
ATOM      3  C4  ZIN A   1      18.462  -2.942  12.091  0.00  0.00     0.303 C 
BRANCH   3   4
ATOM      4  C2  ZIN A   1      19.351  -2.713  10.866  0.00  0.00     0.175 C 
BRANCH   4   5
ATOM      5  O1  ZIN A   1      20.724  -2.823  11.247  0.00  0.00    -0.391 OA
ATOM      6  H34 ZIN A   1      21.177  -3.589  10.869  0.00  0.00     0.210 HD
ENDBRANCH   4   5
BRANCH   4   7
ATOM      7  C22 ZIN A   1      19.032  -3.764   9.801  0.00  0.00     0.159 C 
ATOM      8  O33 ZIN A   1      17.652  -4.126   9.880  0.00  0.00    -0.343 OA
ATOM      9  C32 ZIN A   1      17.239  -5.209   9.169  0.00  0.00     0.075 A 
ATOM     10  C26 ZIN A   1      18.133  -6.144   8.680  0.00  0.00    -0.022 A 
ATOM     11  C31 ZIN A   1      15.877  -5.370   8.941  0.00  0.00     0.040 A 
ATOM     12  C25 ZIN A   1      19.617  -6.004   8.900  0.00  0.00     0.044 C 
ATOM     13  C27 ZIN A   1      17.665  -7.239   7.971  0.00  0.00     0.052 A 
ATOM     14  C24 ZIN A   1      19.878  -5.019  10.043  0.00  0.00     0.040 C 
ATOM     15  C28 ZIN A   1      16.310  -7.398   7.747  0.00  0.00     0.117 A 
ATOM     16  F29 ZIN A   1      15.860  -8.467   7.055  0.00  0.00    -0.206 F 
ATOM     17  C30 ZIN A   1      15.414  -6.460   8.232  0.00  0.00     0.045 A 
ENDBRANCH   4   7
ENDBRANCH   3   4
ENDBRANCH   1   3
BRANCH   1  18
ATOM     18  C6  ZIN A   1      17.839  -0.672  12.656  0.00  0.00     0.303 C 
BRANCH  18  19
ATOM     19  C7  ZIN A   1      17.269   0.479  11.824  0.00  0.00     0.175 C 
BRANCH  19  20
ATOM     20  O9  ZIN A   1      15.911   0.193  11.482  0.00  0.00    -0.391 OA
ATOM     21  H40 ZIN A   1      15.508  -0.503  12.021  0.00  0.00     0.210 HD
ENDBRANCH  19  20
BRANCH  19  22
ATOM     22  C10 ZIN A   1      18.093   0.640  10.545  0.00  0.00     0.159 C 
ATOM     23  O21 ZIN A   1      17.509  -0.131   9.495  0.00  0.00    -0.343 OA
ATOM     24  C20 ZIN A   1      17.967   0.068   8.231  0.00  0.00     0.075 A 
ATOM     25  C14 ZIN A   1      18.691   1.196   7.887  0.00  0.00    -0.022 A 
ATOM     26  C19 ZIN A   1      17.686  -0.893   7.266  0.00  0.00     0.040 A 
ATOM     27  C13 ZIN A   1      19.022   2.258   8.905  0.00  0.00     0.044 C 
ATOM     28  C15 ZIN A   1      19.128   1.364   6.583  0.00  0.00     0.052 A 
ATOM     29  C12 ZIN A   1      18.100   2.113  10.118  0.00  0.00     0.040 C 
ATOM     30  C16 ZIN A   1      18.846   0.408   5.624  0.00  0.00     0.117 A 
ATOM     31  F17 ZIN A   1      19.274   0.577   4.354  0.00  0.00    -0.206 F 
ATOM     32  C18 ZIN A   1      18.124  -0.723   5.968  0.00  0.00     0.045 A 
ENDBRANCH  19  22
ENDBRANCH  18  19
ENDBRANCH   1  18
TORSDOF 8
ENDMDL
