MODEL 1
REMARK VINA RESULT:      -6.5      0.000      0.000
REMARK  10 active torsions:
REMARK  status: ('A' for Active; 'I' for Inactive)
REMARK    1  A    between atoms: C2_2  and  C4_4 
REMARK    2  A    between atoms: C4_4  and  N6_5 
REMARK    3  A    between atoms: C4_4  and  C7_6 
REMARK    4  A    between atoms: C7_6  and  O9_8 
REMARK    5  A    between atoms: O9_8  and  C10_9 
REMARK    6  A    between atoms: C10_9  and  C11_10 
REMARK    7  A    between atoms: C11_10  and  O12_11 
REMARK    8  A    between atoms: O12_11  and  C13_12 
REMARK    9  A    between atoms: C13_12  and  N14_13 
REMARK   10  A    between atoms: C20_19  and  N21_20 
ROOT
ATOM      1  N14 ZIN A   1      18.597   3.763  12.181  0.00  0.00    -0.301 N 
ATOM      2  C15 ZIN A   1      17.417   4.047  11.556  0.00  0.00     0.214 A 
ATOM      3  N16 ZIN A   1      17.115   3.088  10.730  0.00  0.00    -0.234 NA
ATOM      4  C17 ZIN A   1      18.077   2.135  10.776  0.00  0.00     0.173 A 
ATOM      5  C18 ZIN A   1      19.039   2.560  11.700  0.00  0.00     0.186 A 
ATOM      6  N19 ZIN A   1      20.110   1.797  11.940  0.00  0.00    -0.044 NA
ATOM      7  C20 ZIN A   1      20.279   0.649  11.322  0.00  0.00     0.703 A 
ATOM      8  N22 ZIN A   1      19.379   0.181  10.412  0.00  0.00    -0.152 N 
ATOM      9  C23 ZIN A   1      18.273   0.901  10.115  0.00  0.00     0.292 A 
ATOM     10  O24 ZIN A   1      17.461   0.491   9.302  0.00  0.00    -0.265 OA
ATOM     11  H43 ZIN A   1      19.533  -0.669   9.973  0.00  0.00     0.187 HD
ENDROOT
BRANCH   1  12
ATOM     12  C13 ZIN A   1      19.271   4.596  13.180  0.00  0.00     0.301 C 
BRANCH  12  13
ATOM     13  O12 ZIN A   1      19.173   3.975  14.464  0.00  0.00    -0.369 OA
BRANCH  13  14
ATOM     14  C11 ZIN A   1      19.491   4.840  15.554  0.00  0.00     0.196 C 
BRANCH  14  15
ATOM     15  C10 ZIN A   1      19.973   4.007  16.744  0.00  0.00     0.205 C 
BRANCH  15  16
ATOM     16  O9  ZIN A   1      18.889   3.167  17.219  0.00  0.00    -0.318 OA
BRANCH  16  17
ATOM     17  C7  ZIN A   1      19.115   1.845  17.264  0.00  0.00     0.292 C 
ATOM     18  O8  ZIN A   1      19.790   1.378  18.150  0.00  0.00    -0.263 OA
BRANCH  17  19
ATOM     19  C4  ZIN A   1      18.526   0.944  16.210  0.00  0.00     0.319 C 
BRANCH  19  20
ATOM     20  C2  ZIN A   1      18.462  -0.489  16.741  0.00  0.00     0.020 C 
ATOM     21  C1  ZIN A   1      16.999  -0.906  16.908  0.00  0.00     0.012 C 
ATOM     22  C3  ZIN A   1      19.152  -1.431  15.753  0.00  0.00     0.012 C 
ENDBRANCH  19  20
BRANCH  19  23
ATOM     23  N6  ZIN A   1      19.368   0.982  15.007  0.00  0.00     0.092 N 
ATOM     24  H32 ZIN A   1      18.835   1.271  14.200  0.00  0.00     0.313 HD
ATOM     25  H33 ZIN A   1      20.168   1.581  15.144  0.00  0.00     0.313 HD
ENDBRANCH  19  23
ENDBRANCH  17  19
ENDBRANCH  16  17
ENDBRANCH  15  16
ENDBRANCH  14  15
ENDBRANCH  13  14
ENDBRANCH  12  13
ENDBRANCH   1  12
BRANCH   7  26
ATOM     26  N21 ZIN A   1      21.394  -0.101  11.602  0.00  0.00    -0.233 N 
ATOM     27  H41 ZIN A   1      22.079  -0.220  10.927  0.00  0.00     0.174 HD
ATOM     28  H42 ZIN A   1      21.495  -0.512  12.475  0.00  0.00     0.174 HD
ENDBRANCH   7  26
TORSDOF 10
ENDMDL
MODEL 2
REMARK VINA RESULT:      -6.3      1.794      2.399
REMARK  10 active torsions:
REMARK  status: ('A' for Active; 'I' for Inactive)
REMARK    1  A    between atoms: C2_2  and  C4_4 
REMARK    2  A    between atoms: C4_4  and  N6_5 
REMARK    3  A    between atoms: C4_4  and  C7_6 
REMARK    4  A    between atoms: C7_6  and  O9_8 
REMARK    5  A    between atoms: O9_8  and  C10_9 
REMARK    6  A    between atoms: C10_9  and  C11_10 
REMARK    7  A    between atoms: C11_10  and  O12_11 
REMARK    8  A    between atoms: O12_11  and  C13_12 
REMARK    9  A    between atoms: C13_12  and  N14_13 
REMARK   10  A    between atoms: C20_19  and  N21_20 
ROOT
ATOM      1  N14 ZIN A   1      19.485   1.853  10.350  0.00  0.00    -0.301 N 
ATOM      2  C15 ZIN A   1      19.169   2.202   9.069  0.00  0.00     0.214 A 
ATOM      3  N16 ZIN A   1      19.056   1.134   8.336  0.00  0.00    -0.234 NA
ATOM      4  C17 ZIN A   1      19.291   0.039   9.098  0.00  0.00     0.173 A 
ATOM      5  C18 ZIN A   1      19.574   0.487  10.394  0.00  0.00     0.186 A 
ATOM      6  N19 ZIN A   1      19.847  -0.399  11.357  0.00  0.00    -0.044 NA
ATOM      7  C20 ZIN A   1      19.855  -1.690  11.111  0.00  0.00     0.703 A 
ATOM      8  N22 ZIN A   1      19.587  -2.188   9.871  0.00  0.00    -0.152 N 
ATOM      9  C23 ZIN A   1      19.307  -1.352   8.846  0.00  0.00     0.292 A 
ATOM     10  O24 ZIN A   1      19.066  -1.788   7.732  0.00  0.00    -0.265 OA
ATOM     11  H43 ZIN A   1      19.601  -3.147   9.722  0.00  0.00     0.187 HD
ENDROOT
BRANCH   1  12
ATOM     12  C13 ZIN A   1      19.696   2.771  11.472  0.00  0.00     0.301 C 
BRANCH  12  13
ATOM     13  O12 ZIN A   1      18.579   2.701  12.361  0.00  0.00    -0.369 OA
BRANCH  13  14
ATOM     14  C11 ZIN A   1      18.289   3.931  13.027  0.00  0.00     0.196 C 
BRANCH  14  15
ATOM     15  C10 ZIN A   1      17.922   3.647  14.486  0.00  0.00     0.205 C 
BRANCH  15  16
ATOM     16  O9  ZIN A   1      19.130   3.382  15.246  0.00  0.00    -0.318 OA
BRANCH  16  17
ATOM     17  C7  ZIN A   1      19.162   2.249  15.964  0.00  0.00     0.292 C 
ATOM     18  O8  ZIN A   1      19.604   2.258  17.088  0.00  0.00    -0.263 OA
BRANCH  17  19
ATOM     19  C4  ZIN A   1      18.647   0.964  15.367  0.00  0.00     0.319 C 
BRANCH  19  20
ATOM     20  C2  ZIN A   1      18.520  -0.094  16.465  0.00  0.00     0.020 C 
ATOM     21  C1  ZIN A   1      17.049  -0.247  16.857  0.00  0.00     0.012 C 
ATOM     22  C3  ZIN A   1      19.052  -1.432  15.948  0.00  0.00     0.012 C 
ENDBRANCH  19  20
BRANCH  19  23
ATOM     23  N6  ZIN A   1      19.584   0.492  14.339  0.00  0.00     0.092 N 
ATOM     24  H32 ZIN A   1      19.115  -0.093  13.663  0.00  0.00     0.313 HD
ATOM     25  H33 ZIN A   1      20.045   1.267  13.887  0.00  0.00     0.313 HD
ENDBRANCH  19  23
ENDBRANCH  17  19
ENDBRANCH  16  17
ENDBRANCH  15  16
ENDBRANCH  14  15
ENDBRANCH  13  14
ENDBRANCH  12  13
ENDBRANCH   1  12
BRANCH   7  26
ATOM     26  N21 ZIN A   1      20.139  -2.562  12.131  0.00  0.00    -0.233 N 
ATOM     27  H41 ZIN A   1      19.469  -3.197  12.427  0.00  0.00     0.174 HD
ATOM     28  H42 ZIN A   1      21.011  -2.542  12.559  0.00  0.00     0.174 HD
ENDBRANCH   7  26
TORSDOF 10
ENDMDL
MODEL 3
REMARK VINA RESULT:      -6.2      4.032      5.452
REMARK  10 active torsions:
REMARK  status: ('A' for Active; 'I' for Inactive)
REMARK    1  A    between atoms: C2_2  and  C4_4 
REMARK    2  A    between atoms: C4_4  and  N6_5 
REMARK    3  A    between atoms: C4_4  and  C7_6 
REMARK    4  A    between atoms: C7_6  and  O9_8 
REMARK    5  A    between atoms: O9_8  and  C10_9 
REMARK    6  A    between atoms: C10_9  and  C11_10 
REMARK    7  A    between atoms: C11_10  and  O12_11 
REMARK    8  A    between atoms: O12_11  and  C13_12 
REMARK    9  A    between atoms: C13_12  and  N14_13 
REMARK   10  A    between atoms: C20_19  and  N21_20 
ROOT
ATOM      1  N14 ZIN A   1      19.095   0.769   8.450  0.00  0.00    -0.301 N 
ATOM      2  C15 ZIN A   1      19.016   1.729   7.482  0.00  0.00     0.214 A 
ATOM      3  N16 ZIN A   1      19.076   1.175   6.307  0.00  0.00    -0.234 NA
ATOM      4  C17 ZIN A   1      19.195  -0.167   6.448  0.00  0.00     0.173 A 
ATOM      5  C18 ZIN A   1      19.215  -0.441   7.820  0.00  0.00     0.186 A 
ATOM      6  N19 ZIN A   1      19.328  -1.705   8.242  0.00  0.00    -0.044 NA
ATOM      7  C20 ZIN A   1      19.420  -2.701   7.390  0.00  0.00     0.703 A 
ATOM      8  N22 ZIN A   1      19.407  -2.499   6.042  0.00  0.00    -0.152 N 
ATOM      9  C23 ZIN A   1      19.300  -1.247   5.541  0.00  0.00     0.292 A 
ATOM     10  O24 ZIN A   1      19.287  -1.056   4.336  0.00  0.00    -0.265 OA
ATOM     11  H43 ZIN A   1      19.477  -3.255   5.439  0.00  0.00     0.187 HD
ENDROOT
BRANCH   1  12
ATOM     12  C13 ZIN A   1      19.063   0.992   9.897  0.00  0.00     0.301 C 
BRANCH  12  13
ATOM     13  O12 ZIN A   1      17.746   1.386  10.289  0.00  0.00    -0.369 OA
BRANCH  13  14
ATOM     14  C11 ZIN A   1      17.466   1.177  11.674  0.00  0.00     0.196 C 
BRANCH  14  15
ATOM     15  C10 ZIN A   1      17.028  -0.274  11.892  0.00  0.00     0.205 C 
BRANCH  15  16
ATOM     16  O9  ZIN A   1      17.645  -0.788  13.102  0.00  0.00    -0.318 OA
BRANCH  16  17
ATOM     17  C7  ZIN A   1      18.754  -1.529  12.953  0.00  0.00     0.292 C 
ATOM     18  O8  ZIN A   1      19.550  -1.613  13.858  0.00  0.00    -0.263 OA
BRANCH  17  19
ATOM     19  C4  ZIN A   1      19.006  -2.256  11.657  0.00  0.00     0.319 C 
BRANCH  19  20
ATOM     20  C2  ZIN A   1      18.666  -3.738  11.830  0.00  0.00     0.020 C 
ATOM     21  C1  ZIN A   1      17.365  -4.052  11.088  0.00  0.00     0.012 C 
ATOM     22  C3  ZIN A   1      19.799  -4.591  11.256  0.00  0.00     0.012 C 
ENDBRANCH  19  20
BRANCH  19  23
ATOM     23  N6  ZIN A   1      20.421  -2.119  11.286  0.00  0.00     0.092 N 
ATOM     24  H32 ZIN A   1      20.516  -1.794  10.335  0.00  0.00     0.313 HD
ATOM     25  H33 ZIN A   1      20.905  -1.508  11.927  0.00  0.00     0.313 HD
ENDBRANCH  19  23
ENDBRANCH  17  19
ENDBRANCH  16  17
ENDBRANCH  15  16
ENDBRANCH  14  15
ENDBRANCH  13  14
ENDBRANCH  12  13
ENDBRANCH   1  12
BRANCH   7  26
ATOM     26  N21 ZIN A   1      19.533  -3.981   7.870  0.00  0.00    -0.233 N 
ATOM     27  H41 ZIN A   1      20.098  -4.622   7.412  0.00  0.00     0.174 HD
ATOM     28  H42 ZIN A   1      19.046  -4.245   8.667  0.00  0.00     0.174 HD
ENDBRANCH   7  26
TORSDOF 10
ENDMDL
MODEL 4
REMARK VINA RESULT:      -6.2      2.269      2.981
REMARK  10 active torsions:
REMARK  status: ('A' for Active; 'I' for Inactive)
REMARK    1  A    between atoms: C2_2  and  C4_4 
REMARK    2  A    between atoms: C4_4  and  N6_5 
REMARK    3  A    between atoms: C4_4  and  C7_6 
REMARK    4  A    between atoms: C7_6  and  O9_8 
REMARK    5  A    between atoms: O9_8  and  C10_9 
REMARK    6  A    between atoms: C10_9  and  C11_10 
REMARK    7  A    between atoms: C11_10  and  O12_11 
REMARK    8  A    between atoms: O12_11  and  C13_12 
REMARK    9  A    between atoms: C13_12  and  N14_13 
REMARK   10  A    between atoms: C20_19  and  N21_20 
ROOT
ATOM      1  N14 ZIN A   1      17.738   5.353  15.098  0.00  0.00    -0.301 N 
ATOM      2  C15 ZIN A   1      16.446   5.763  14.936  0.00  0.00     0.214 A 
ATOM      3  N16 ZIN A   1      16.065   5.546  13.711  0.00  0.00    -0.234 NA
ATOM      4  C17 ZIN A   1      17.084   4.986  13.016  0.00  0.00     0.173 A 
ATOM      5  C18 ZIN A   1      18.167   4.862  13.894  0.00  0.00     0.186 A 
ATOM      6  N19 ZIN A   1      19.316   4.333  13.460  0.00  0.00    -0.044 NA
ATOM      7  C20 ZIN A   1      19.449   3.924  12.218  0.00  0.00     0.703 A 
ATOM      8  N22 ZIN A   1      18.431   4.018  11.315  0.00  0.00    -0.152 N 
ATOM      9  C23 ZIN A   1      17.242   4.546  11.682  0.00  0.00     0.292 A 
ATOM     10  O24 ZIN A   1      16.325   4.634  10.882  0.00  0.00    -0.265 OA
ATOM     11  H43 ZIN A   1      18.562   3.707  10.406  0.00  0.00     0.187 HD
ENDROOT
BRANCH   1  12
ATOM     12  C13 ZIN A   1      18.523   5.430  16.332  0.00  0.00     0.301 C 
BRANCH  12  13
ATOM     13  O12 ZIN A   1      17.664   5.769  17.423  0.00  0.00    -0.369 OA
BRANCH  13  14
ATOM     14  C11 ZIN A   1      17.386   4.679  18.303  0.00  0.00     0.196 C 
BRANCH  14  15
ATOM     15  C10 ZIN A   1      18.566   3.706  18.300  0.00  0.00     0.205 C 
BRANCH  15  16
ATOM     16  O9  ZIN A   1      18.072   2.346  18.179  0.00  0.00    -0.318 OA
BRANCH  16  17
ATOM     17  C7  ZIN A   1      18.895   1.446  17.618  0.00  0.00     0.292 C 
ATOM     18  O8  ZIN A   1      19.843   1.026  18.237  0.00  0.00    -0.263 OA
BRANCH  17  19
ATOM     19  C4  ZIN A   1      18.634   0.959  16.216  0.00  0.00     0.319 C 
BRANCH  19  20
ATOM     20  C2  ZIN A   1      18.880  -0.550  16.146  0.00  0.00     0.020 C 
ATOM     21  C1  ZIN A   1      17.613  -1.293  16.577  0.00  0.00     0.012 C 
ATOM     22  C3  ZIN A   1      19.238  -0.942  14.711  0.00  0.00     0.012 C 
ENDBRANCH  19  20
BRANCH  19  23
ATOM     23  N6  ZIN A   1      19.538   1.645  15.284  0.00  0.00     0.092 N 
ATOM     24  H32 ZIN A   1      20.340   2.022  15.768  0.00  0.00     0.313 HD
ATOM     25  H33 ZIN A   1      19.824   1.030  14.538  0.00  0.00     0.313 HD
ENDBRANCH  19  23
ENDBRANCH  17  19
ENDBRANCH  16  17
ENDBRANCH  15  16
ENDBRANCH  14  15
ENDBRANCH  13  14
ENDBRANCH  12  13
ENDBRANCH   1  12
BRANCH   7  26
ATOM     26  N21 ZIN A   1      20.646   3.387  11.817  0.00  0.00    -0.233 N 
ATOM     27  H41 ZIN A   1      20.842   3.290  10.873  0.00  0.00     0.174 HD
ATOM     28  H42 ZIN A   1      21.296   3.102  12.480  0.00  0.00     0.174 HD
ENDBRANCH   7  26
TORSDOF 10
ENDMDL
MODEL 5
REMARK VINA RESULT:      -6.1      1.771      5.799
REMARK  10 active torsions:
REMARK  status: ('A' for Active; 'I' for Inactive)
REMARK    1  A    between atoms: C2_2  and  C4_4 
REMARK    2  A    between atoms: C4_4  and  N6_5 
REMARK    3  A    between atoms: C4_4  and  C7_6 
REMARK    4  A    between atoms: C7_6  and  O9_8 
REMARK    5  A    between atoms: O9_8  and  C10_9 
REMARK    6  A    between atoms: C10_9  and  C11_10 
REMARK    7  A    between atoms: C11_10  and  O12_11 
REMARK    8  A    between atoms: O12_11  and  C13_12 
REMARK    9  A    between atoms: C13_12  and  N14_13 
REMARK   10  A    between atoms: C20_19  and  N21_20 
ROOT
ATOM      1  N14 ZIN A   1      19.154   3.913  15.073  0.00  0.00    -0.301 N 
ATOM      2  C15 ZIN A   1      19.718   4.524  16.157  0.00  0.00     0.214 A 
ATOM      3  N16 ZIN A   1      19.867   3.662  17.120  0.00  0.00    -0.234 NA
ATOM      4  C17 ZIN A   1      19.411   2.452  16.715  0.00  0.00     0.173 A 
ATOM      5  C18 ZIN A   1      18.944   2.601  15.404  0.00  0.00     0.186 A 
ATOM      6  N19 ZIN A   1      18.433   1.547  14.759  0.00  0.00    -0.044 NA
ATOM      7  C20 ZIN A   1      18.361   0.367  15.334  0.00  0.00     0.703 A 
ATOM      8  N22 ZIN A   1      18.799   0.159  16.608  0.00  0.00    -0.152 N 
ATOM      9  C23 ZIN A   1      19.323   1.179  17.324  0.00  0.00     0.292 A 
ATOM     10  O24 ZIN A   1      19.718   1.003  18.465  0.00  0.00    -0.265 OA
ATOM     11  H43 ZIN A   1      18.730  -0.723  17.004  0.00  0.00     0.187 HD
ENDROOT
BRANCH   1  12
ATOM     12  C13 ZIN A   1      18.827   4.546  13.793  0.00  0.00     0.301 C 
BRANCH  12  13
ATOM     13  O12 ZIN A   1      17.410   4.548  13.611  0.00  0.00    -0.369 OA
BRANCH  13  14
ATOM     14  C11 ZIN A   1      16.989   5.040  12.338  0.00  0.00     0.196 C 
BRANCH  14  15
ATOM     15  C10 ZIN A   1      17.750   4.308  11.230  0.00  0.00     0.205 C 
BRANCH  15  16
ATOM     16  O9  ZIN A   1      17.049   3.084  10.889  0.00  0.00    -0.318 OA
BRANCH  16  17
ATOM     17  C7  ZIN A   1      17.611   1.930  11.279  0.00  0.00     0.292 C 
ATOM     18  O8  ZIN A   1      16.979   1.145  11.945  0.00  0.00    -0.263 OA
BRANCH  17  19
ATOM     19  C4  ZIN A   1      19.031   1.612  10.885  0.00  0.00     0.319 C 
BRANCH  19  20
ATOM     20  C2  ZIN A   1      19.043   0.972   9.495  0.00  0.00     0.020 C 
ATOM     21  C1  ZIN A   1      17.758   0.167   9.293  0.00  0.00     0.012 C 
ATOM     22  C3  ZIN A   1      19.132   2.067   8.430  0.00  0.00     0.012 C 
ENDBRANCH  19  20
BRANCH  19  23
ATOM     23  N6  ZIN A   1      19.612   0.678  11.859  0.00  0.00     0.092 N 
ATOM     24  H32 ZIN A   1      19.269   0.866  12.789  0.00  0.00     0.313 HD
ATOM     25  H33 ZIN A   1      19.432  -0.278  11.594  0.00  0.00     0.313 HD
ENDBRANCH  19  23
ENDBRANCH  17  19
ENDBRANCH  16  17
ENDBRANCH  15  16
ENDBRANCH  14  15
ENDBRANCH  13  14
ENDBRANCH  12  13
ENDBRANCH   1  12
BRANCH   7  26
ATOM     26  N21 ZIN A   1      17.830  -0.685  14.632  0.00  0.00    -0.233 N 
ATOM     27  H41 ZIN A   1      18.311  -1.526  14.582  0.00  0.00     0.174 HD
ATOM     28  H42 ZIN A   1      16.974  -0.588  14.185  0.00  0.00     0.174 HD
ENDBRANCH   7  26
TORSDOF 10
ENDMDL
MODEL 6
REMARK VINA RESULT:      -6.1      4.357      8.392
REMARK  10 active torsions:
REMARK  status: ('A' for Active; 'I' for Inactive)
REMARK    1  A    between atoms: C2_2  and  C4_4 
REMARK    2  A    between atoms: C4_4  and  N6_5 
REMARK    3  A    between atoms: C4_4  and  C7_6 
REMARK    4  A    between atoms: C7_6  and  O9_8 
REMARK    5  A    between atoms: O9_8  and  C10_9 
REMARK    6  A    between atoms: C10_9  and  C11_10 
REMARK    7  A    between atoms: C11_10  and  O12_11 
REMARK    8  A    between atoms: O12_11  and  C13_12 
REMARK    9  A    between atoms: C13_12  and  N14_13 
REMARK   10  A    between atoms: C20_19  and  N21_20 
ROOT
ATOM      1  N14 ZIN A   1      18.884  -3.531  11.048  0.00  0.00    -0.301 N 
ATOM      2  C15 ZIN A   1      17.526  -3.670  11.060  0.00  0.00     0.214 A 
ATOM      3  N16 ZIN A   1      16.968  -2.524  11.320  0.00  0.00    -0.234 NA
ATOM      4  C17 ZIN A   1      17.930  -1.585  11.490  0.00  0.00     0.173 A 
ATOM      5  C18 ZIN A   1      19.166  -2.220  11.324  0.00  0.00     0.186 A 
ATOM      6  N19 ZIN A   1      20.295  -1.514  11.442  0.00  0.00    -0.044 NA
ATOM      7  C20 ZIN A   1      20.268  -0.228  11.711  0.00  0.00     0.703 A 
ATOM      8  N22 ZIN A   1      19.096   0.447  11.884  0.00  0.00    -0.152 N 
ATOM      9  C23 ZIN A   1      17.914  -0.202  11.784  0.00  0.00     0.292 A 
ATOM     10  O24 ZIN A   1      16.861   0.393  11.938  0.00  0.00    -0.265 OA
ATOM     11  H43 ZIN A   1      19.111   1.396  12.083  0.00  0.00     0.187 HD
ENDROOT
BRANCH   1  12
ATOM     12  C13 ZIN A   1      19.862  -4.592  10.792  0.00  0.00     0.301 C 
BRANCH  12  13
ATOM     13  O12 ZIN A   1      19.396  -5.422   9.726  0.00  0.00    -0.369 OA
BRANCH  13  14
ATOM     14  C11 ZIN A   1      20.303  -5.518   8.627  0.00  0.00     0.196 C 
BRANCH  14  15
ATOM     15  C10 ZIN A   1      19.703  -4.817   7.406  0.00  0.00     0.205 C 
BRANCH  15  16
ATOM     16  O9  ZIN A   1      19.629  -3.389   7.656  0.00  0.00    -0.318 OA
BRANCH  16  17
ATOM     17  C7  ZIN A   1      19.291  -2.605   6.620  0.00  0.00     0.292 C 
ATOM     18  O8  ZIN A   1      19.776  -2.800   5.531  0.00  0.00    -0.263 OA
BRANCH  17  19
ATOM     19  C4  ZIN A   1      18.304  -1.483   6.815  0.00  0.00     0.319 C 
BRANCH  19  20
ATOM     20  C2  ZIN A   1      19.060  -0.168   7.019  0.00  0.00     0.020 C 
ATOM     21  C1  ZIN A   1      18.986   0.666   5.739  0.00  0.00     0.012 C 
ATOM     22  C3  ZIN A   1      18.427   0.611   8.173  0.00  0.00     0.012 C 
ENDBRANCH  19  20
BRANCH  19  23
ATOM     23  N6  ZIN A   1      17.476  -1.759   7.997  0.00  0.00     0.092 N 
ATOM     24  H32 ZIN A   1      17.848  -2.534   8.526  0.00  0.00     0.313 HD
ATOM     25  H33 ZIN A   1      17.385  -0.938   8.575  0.00  0.00     0.313 HD
ENDBRANCH  19  23
ENDBRANCH  17  19
ENDBRANCH  16  17
ENDBRANCH  15  16
ENDBRANCH  14  15
ENDBRANCH  13  14
ENDBRANCH  12  13
ENDBRANCH   1  12
BRANCH   7  26
ATOM     26  N21 ZIN A   1      21.452   0.455  11.821  0.00  0.00    -0.233 N 
ATOM     27  H41 ZIN A   1      21.470   1.417  11.701  0.00  0.00     0.174 HD
ATOM     28  H42 ZIN A   1      22.273  -0.024  12.018  0.00  0.00     0.174 HD
ENDBRANCH   7  26
TORSDOF 10
ENDMDL
MODEL 7
REMARK VINA RESULT:      -6.0      2.580      5.294
REMARK  10 active torsions:
REMARK  status: ('A' for Active; 'I' for Inactive)
REMARK    1  A    between atoms: C2_2  and  C4_4 
REMARK    2  A    between atoms: C4_4  and  N6_5 
REMARK    3  A    between atoms: C4_4  and  C7_6 
REMARK    4  A    between atoms: C7_6  and  O9_8 
REMARK    5  A    between atoms: O9_8  and  C10_9 
REMARK    6  A    between atoms: C10_9  and  C11_10 
REMARK    7  A    between atoms: C11_10  and  O12_11 
REMARK    8  A    between atoms: O12_11  and  C13_12 
REMARK    9  A    between atoms: C13_12  and  N14_13 
REMARK   10  A    between atoms: C20_19  and  N21_20 
ROOT
ATOM      1  N14 ZIN A   1      18.811   2.507  14.021  0.00  0.00    -0.301 N 
ATOM      2  C15 ZIN A   1      17.791   2.088  14.826  0.00  0.00     0.214 A 
ATOM      3  N16 ZIN A   1      17.646   0.800  14.719  0.00  0.00    -0.234 NA
ATOM      4  C17 ZIN A   1      18.561   0.316  13.843  0.00  0.00     0.173 A 
ATOM      5  C18 ZIN A   1      19.311   1.404  13.383  0.00  0.00     0.186 A 
ATOM      6  N19 ZIN A   1      20.293   1.205  12.497  0.00  0.00    -0.044 NA
ATOM      7  C20 ZIN A   1      20.570   0.001  12.048  0.00  0.00     0.703 A 
ATOM      8  N22 ZIN A   1      19.875  -1.098  12.459  0.00  0.00    -0.152 N 
ATOM      9  C23 ZIN A   1      18.865  -0.973  13.350  0.00  0.00     0.292 A 
ATOM     10  O24 ZIN A   1      18.238  -1.951  13.723  0.00  0.00    -0.265 OA
ATOM     11  H43 ZIN A   1      20.104  -1.973  12.108  0.00  0.00     0.187 HD
ENDROOT
BRANCH   1  12
ATOM     12  C13 ZIN A   1      19.280   3.886  13.863  0.00  0.00     0.301 C 
BRANCH  12  13
ATOM     13  O12 ZIN A   1      19.168   4.274  12.492  0.00  0.00    -0.369 OA
BRANCH  13  14
ATOM     14  C11 ZIN A   1      17.906   4.850  12.153  0.00  0.00     0.196 C 
BRANCH  14  15
ATOM     15  C10 ZIN A   1      17.276   4.058  11.005  0.00  0.00     0.205 C 
BRANCH  15  16
ATOM     16  O9  ZIN A   1      18.291   3.241  10.365  0.00  0.00    -0.318 OA
BRANCH  16  17
ATOM     17  C7  ZIN A   1      17.926   2.012   9.972  0.00  0.00     0.292 C 
ATOM     18  O8  ZIN A   1      17.208   1.341  10.675  0.00  0.00    -0.263 OA
BRANCH  17  19
ATOM     19  C4  ZIN A   1      18.409   1.468   8.652  0.00  0.00     0.319 C 
BRANCH  19  20
ATOM     20  C2  ZIN A   1      17.977   0.007   8.512  0.00  0.00     0.020 C 
ATOM     21  C1  ZIN A   1      17.323  -0.202   7.144  0.00  0.00     0.012 C 
ATOM     22  C3  ZIN A   1      19.202  -0.901   8.637  0.00  0.00     0.012 C 
ENDBRANCH  19  20
BRANCH  19  23
ATOM     23  N6  ZIN A   1      19.874   1.553   8.595  0.00  0.00     0.092 N 
ATOM     24  H32 ZIN A   1      20.227   2.201   9.284  0.00  0.00     0.313 HD
ATOM     25  H33 ZIN A   1      20.294   0.642   8.707  0.00  0.00     0.313 HD
ENDBRANCH  19  23
ENDBRANCH  17  19
ENDBRANCH  16  17
ENDBRANCH  15  16
ENDBRANCH  14  15
ENDBRANCH  13  14
ENDBRANCH  12  13
ENDBRANCH   1  12
BRANCH   7  26
ATOM     26  N21 ZIN A   1      21.587  -0.155  11.142  0.00  0.00    -0.233 N 
ATOM     27  H41 ZIN A   1      22.121  -0.964  11.147  0.00  0.00     0.174 HD
ATOM     28  H42 ZIN A   1      21.772   0.544  10.495  0.00  0.00     0.174 HD
ENDBRANCH   7  26
TORSDOF 10
ENDMDL
MODEL 8
REMARK VINA RESULT:      -5.9      4.196      6.597
REMARK  10 active torsions:
REMARK  status: ('A' for Active; 'I' for Inactive)
REMARK    1  A    between atoms: C2_2  and  C4_4 
REMARK    2  A    between atoms: C4_4  and  N6_5 
REMARK    3  A    between atoms: C4_4  and  C7_6 
REMARK    4  A    between atoms: C7_6  and  O9_8 
REMARK    5  A    between atoms: O9_8  and  C10_9 
REMARK    6  A    between atoms: C10_9  and  C11_10 
REMARK    7  A    between atoms: C11_10  and  O12_11 
REMARK    8  A    between atoms: O12_11  and  C13_12 
REMARK    9  A    between atoms: C13_12  and  N14_13 
REMARK   10  A    between atoms: C20_19  and  N21_20 
ROOT
ATOM      1  N14 ZIN A   1      18.619  -1.740   7.115  0.00  0.00    -0.301 N 
ATOM      2  C15 ZIN A   1      19.203  -1.960   5.901  0.00  0.00     0.214 A 
ATOM      3  N16 ZIN A   1      19.778  -3.127   5.893  0.00  0.00    -0.234 NA
ATOM      4  C17 ZIN A   1      19.598  -3.724   7.096  0.00  0.00     0.173 A 
ATOM      5  C18 ZIN A   1      18.860  -2.841   7.893  0.00  0.00     0.186 A 
ATOM      6  N19 ZIN A   1      18.541  -3.186   9.145  0.00  0.00    -0.044 NA
ATOM      7  C20 ZIN A   1      18.908  -4.345   9.645  0.00  0.00     0.703 A 
ATOM      8  N22 ZIN A   1      19.627  -5.247   8.919  0.00  0.00    -0.152 N 
ATOM      9  C23 ZIN A   1      19.991  -4.965   7.648  0.00  0.00     0.292 A 
ATOM     10  O24 ZIN A   1      20.635  -5.766   6.991  0.00  0.00    -0.265 OA
ATOM     11  H43 ZIN A   1      19.883  -6.093   9.318  0.00  0.00     0.187 HD
ENDROOT
BRANCH   1  12
ATOM     12  C13 ZIN A   1      17.875  -0.544   7.515  0.00  0.00     0.301 C 
BRANCH  12  13
ATOM     13  O12 ZIN A   1      18.540   0.620   7.018  0.00  0.00    -0.369 OA
BRANCH  13  14
ATOM     14  C11 ZIN A   1      19.276   1.336   8.011  0.00  0.00     0.196 C 
BRANCH  14  15
ATOM     15  C10 ZIN A   1      18.510   1.307   9.335  0.00  0.00     0.205 C 
BRANCH  15  16
ATOM     16  O9  ZIN A   1      19.365   1.798  10.400  0.00  0.00    -0.318 OA
BRANCH  16  17
ATOM     17  C7  ZIN A   1      19.881   0.884  11.238  0.00  0.00     0.292 C 
ATOM     18  O8  ZIN A   1      20.713   1.212  12.050  0.00  0.00    -0.263 OA
BRANCH  17  19
ATOM     19  C4  ZIN A   1      19.421  -0.549  11.165  0.00  0.00     0.319 C 
BRANCH  19  20
ATOM     20  C2  ZIN A   1      18.596  -0.884  12.409  0.00  0.00     0.020 C 
ATOM     21  C1  ZIN A   1      17.216  -1.389  11.983  0.00  0.00     0.012 C 
ATOM     22  C3  ZIN A   1      19.309  -1.970  13.217  0.00  0.00     0.012 C 
ENDBRANCH  19  20
BRANCH  19  23
ATOM     23  N6  ZIN A   1      20.591  -1.435  11.101  0.00  0.00     0.092 N 
ATOM     24  H32 ZIN A   1      20.364  -2.359  11.436  0.00  0.00     0.313 HD
ATOM     25  H33 ZIN A   1      20.966  -1.472  10.165  0.00  0.00     0.313 HD
ENDBRANCH  19  23
ENDBRANCH  17  19
ENDBRANCH  16  17
ENDBRANCH  15  16
ENDBRANCH  14  15
ENDBRANCH  13  14
ENDBRANCH  12  13
ENDBRANCH   1  12
BRANCH   7  26
ATOM     26  N21 ZIN A   1      18.556  -4.656  10.934  0.00  0.00    -0.233 N 
ATOM     27  H41 ZIN A   1      18.574  -5.578  11.232  0.00  0.00     0.174 HD
ATOM     28  H42 ZIN A   1      18.288  -3.953  11.547  0.00  0.00     0.174 HD
ENDBRANCH   7  26
TORSDOF 10
ENDMDL
MODEL 9
REMARK VINA RESULT:      -5.8      1.942      5.602
REMARK  10 active torsions:
REMARK  status: ('A' for Active; 'I' for Inactive)
REMARK    1  A    between atoms: C2_2  and  C4_4 
REMARK    2  A    between atoms: C4_4  and  N6_5 
REMARK    3  A    between atoms: C4_4  and  C7_6 
REMARK    4  A    between atoms: C7_6  and  O9_8 
REMARK    5  A    between atoms: O9_8  and  C10_9 
REMARK    6  A    between atoms: C10_9  and  C11_10 
REMARK    7  A    between atoms: C11_10  and  O12_11 
REMARK    8  A    between atoms: O12_11  and  C13_12 
REMARK    9  A    between atoms: C13_12  and  N14_13 
REMARK   10  A    between atoms: C20_19  and  N21_20 
ROOT
ATOM      1  N14 ZIN A   1      18.183   3.880  12.497  0.00  0.00    -0.301 N 
ATOM      2  C15 ZIN A   1      18.969   4.982  12.680  0.00  0.00     0.214 A 
ATOM      3  N16 ZIN A   1      19.475   4.967  13.878  0.00  0.00    -0.234 NA
ATOM      4  C17 ZIN A   1      19.048   3.860  14.532  0.00  0.00     0.173 A 
ATOM      5  C18 ZIN A   1      18.212   3.156  13.658  0.00  0.00     0.186 A 
ATOM      6  N19 ZIN A   1      17.648   2.011  14.057  0.00  0.00    -0.044 NA
ATOM      7  C20 ZIN A   1      17.865   1.531  15.261  0.00  0.00     0.703 A 
ATOM      8  N22 ZIN A   1      18.669   2.169  16.158  0.00  0.00    -0.152 N 
ATOM      9  C23 ZIN A   1      19.270   3.334  15.826  0.00  0.00     0.292 A 
ATOM     10  O24 ZIN A   1      19.991   3.913  16.622  0.00  0.00    -0.265 OA
ATOM     11  H43 ZIN A   1      18.808   1.788  17.039  0.00  0.00     0.187 HD
ENDROOT
BRANCH   1  12
ATOM     12  C13 ZIN A   1      17.440   3.538  11.281  0.00  0.00     0.301 C 
BRANCH  12  13
ATOM     13  O12 ZIN A   1      18.321   3.582  10.156  0.00  0.00    -0.369 OA
BRANCH  13  14
ATOM     14  C11 ZIN A   1      19.250   2.499  10.103  0.00  0.00     0.196 C 
BRANCH  14  15
ATOM     15  C10 ZIN A   1      18.689   1.388   9.212  0.00  0.00     0.205 C 
BRANCH  15  16
ATOM     16  O9  ZIN A   1      19.658   0.312   9.112  0.00  0.00    -0.318 OA
BRANCH  16  17
ATOM     17  C7  ZIN A   1      19.393  -0.813   9.794  0.00  0.00     0.292 C 
ATOM     18  O8  ZIN A   1      18.527  -1.563   9.409  0.00  0.00    -0.263 OA
BRANCH  17  19
ATOM     19  C4  ZIN A   1      20.176  -1.143  11.038  0.00  0.00     0.319 C 
BRANCH  19  20
ATOM     20  C2  ZIN A   1      19.432  -0.613  12.265  0.00  0.00     0.020 C 
ATOM     21  C1  ZIN A   1      18.925  -1.789  13.101  0.00  0.00     0.012 C 
ATOM     22  C3  ZIN A   1      20.382   0.240  13.108  0.00  0.00     0.012 C 
ENDBRANCH  19  20
BRANCH  19  23
ATOM     23  N6  ZIN A   1      21.503  -0.516  10.961  0.00  0.00     0.092 N 
ATOM     24  H32 ZIN A   1      21.456   0.461  11.210  0.00  0.00     0.313 HD
ATOM     25  H33 ZIN A   1      22.168  -1.006  11.540  0.00  0.00     0.313 HD
ENDBRANCH  19  23
ENDBRANCH  17  19
ENDBRANCH  16  17
ENDBRANCH  15  16
ENDBRANCH  14  15
ENDBRANCH  13  14
ENDBRANCH  12  13
ENDBRANCH   1  12
BRANCH   7  26
ATOM     26  N21 ZIN A   1      17.266   0.352  15.626  0.00  0.00    -0.233 N 
ATOM     27  H41 ZIN A   1      16.904  -0.238  14.948  0.00  0.00     0.174 HD
ATOM     28  H42 ZIN A   1      17.204   0.109  16.564  0.00  0.00     0.174 HD
ENDBRANCH   7  26
TORSDOF 10
ENDMDL
