MODEL 1
REMARK VINA RESULT:      -5.9      0.000      0.000
REMARK  9 active torsions:
REMARK  status: ('A' for Active; 'I' for Inactive)
REMARK    1  A    between atoms: C2_2  and  C3_3 
REMARK    2  A    between atoms: C3_3  and  C4_4 
REMARK    3  A    between atoms: C4_4  and  N5_5 
REMARK    4  A    between atoms: N5_5  and  C6_6 
REMARK    5  A    between atoms: C9_9  and  C10_10 
REMARK    6  A    between atoms: C10_10  and  O12_12 
REMARK    7  A    between atoms: O12_12  and  C13_13 
REMARK    8  A    between atoms: C13_13  and  C14_14 
REMARK    9  A    between atoms: C14_14  and  N15_15 
ROOT
ATOM      1  C6  ZIN A   1      18.277   0.525   6.688  0.00  0.00     0.028 A 
ATOM      2  C7  ZIN A   1      19.128   1.507   7.189  0.00  0.00     0.030 A 
ATOM      3  C8  ZIN A   1      19.113   1.812   8.525  0.00  0.00     0.020 A 
ATOM      4  C9  ZIN A   1      18.242   1.136   9.386  0.00  0.00     0.039 A 
ATOM      5  C19 ZIN A   1      17.389   0.151   8.880  0.00  0.00     0.020 A 
ATOM      6  C20 ZIN A   1      17.405  -0.146   7.542  0.00  0.00     0.030 A 
ENDROOT
BRANCH   4   7
ATOM      7  C10 ZIN A   1      18.223   1.463  10.824  0.00  0.00     0.293 C 
ATOM      8  O11 ZIN A   1      17.162   1.614  11.399  0.00  0.00    -0.259 OA
BRANCH   7   9
ATOM      9  O12 ZIN A   1      19.381   1.595  11.500  0.00  0.00    -0.316 OA
BRANCH   9  10
ATOM     10  C13 ZIN A   1      20.058   0.373  11.892  0.00  0.00     0.206 C 
BRANCH  10  11
ATOM     11  C14 ZIN A   1      20.100   0.281  13.420  0.00  0.00     0.260 C 
BRANCH  11  12
ATOM     12  N15 ZIN A   1      19.930  -1.119  13.831  0.00  0.00    -0.077 N 
ATOM     13  H16 ZIN A   1      20.835  -1.538  13.983  0.00  0.00     0.279 HD
ATOM     14  C17 ZIN A   1      19.150  -1.173  15.075  0.00  0.00     0.269 C 
ATOM     15  C18 ZIN A   1      19.221  -1.856  12.777  0.00  0.00     0.269 C 
ENDBRANCH  11  12
ENDBRANCH  10  11
ENDBRANCH   9  10
ENDBRANCH   7   9
ENDBRANCH   4   7
BRANCH   1  16
ATOM     16  N5  ZIN A   1      18.294   0.217   5.333  0.00  0.00    -0.390 N 
ATOM     17  H30 ZIN A   1      17.725   0.704   4.718  0.00  0.00     0.159 HD
BRANCH  16  18
ATOM     18  C4  ZIN A   1      19.173  -0.844   4.835  0.00  0.00     0.119 C 
BRANCH  18  19
ATOM     19  C3  ZIN A   1      18.353  -2.113   4.594  0.00  0.00     0.019 C 
BRANCH  19  20
ATOM     20  C2  ZIN A   1      19.097  -3.318   5.173  0.00  0.00    -0.003 C 
ATOM     21  C1  ZIN A   1      19.528  -3.011   6.609  0.00  0.00     0.005 C 
ENDBRANCH  19  20
ENDBRANCH  18  19
ENDBRANCH  16  18
ENDBRANCH   1  16
TORSDOF 9
ENDMDL
MODEL 2
REMARK VINA RESULT:      -5.8      1.423      1.951
REMARK  9 active torsions:
REMARK  status: ('A' for Active; 'I' for Inactive)
REMARK    1  A    between atoms: C2_2  and  C3_3 
REMARK    2  A    between atoms: C3_3  and  C4_4 
REMARK    3  A    between atoms: C4_4  and  N5_5 
REMARK    4  A    between atoms: N5_5  and  C6_6 
REMARK    5  A    between atoms: C9_9  and  C10_10 
REMARK    6  A    between atoms: C10_10  and  O12_12 
REMARK    7  A    between atoms: O12_12  and  C13_13 
REMARK    8  A    between atoms: C13_13  and  C14_14 
REMARK    9  A    between atoms: C14_14  and  N15_15 
ROOT
ATOM      1  C6  ZIN A   1      18.269   0.580   6.899  0.00  0.00     0.028 A 
ATOM      2  C7  ZIN A   1      19.050   1.548   7.525  0.00  0.00     0.030 A 
ATOM      3  C8  ZIN A   1      18.938   1.754   8.875  0.00  0.00     0.020 A 
ATOM      4  C9  ZIN A   1      18.037   0.990   9.625  0.00  0.00     0.039 A 
ATOM      5  C19 ZIN A   1      17.255   0.018   8.993  0.00  0.00     0.020 A 
ATOM      6  C20 ZIN A   1      17.368  -0.179   7.642  0.00  0.00     0.030 A 
ENDROOT
BRANCH   4   7
ATOM      7  C10 ZIN A   1      17.913   1.208  11.078  0.00  0.00     0.293 C 
ATOM      8  O11 ZIN A   1      17.208   2.105  11.499  0.00  0.00    -0.259 OA
BRANCH   7   9
ATOM      9  O12 ZIN A   1      18.582   0.416  11.938  0.00  0.00    -0.316 OA
BRANCH   9  10
ATOM     10  C13 ZIN A   1      17.807  -0.581  12.654  0.00  0.00     0.206 C 
BRANCH  10  11
ATOM     11  C14 ZIN A   1      18.630  -1.864  12.794  0.00  0.00     0.260 C 
BRANCH  11  12
ATOM     12  N15 ZIN A   1      18.801  -2.482  11.474  0.00  0.00    -0.077 N 
ATOM     13  H16 ZIN A   1      19.000  -1.768  10.790  0.00  0.00     0.279 HD
ATOM     14  C17 ZIN A   1      19.916  -3.439  11.522  0.00  0.00     0.269 C 
ATOM     15  C18 ZIN A   1      17.568  -3.188  11.100  0.00  0.00     0.269 C 
ENDBRANCH  11  12
ENDBRANCH  10  11
ENDBRANCH   9  10
ENDBRANCH   7   9
ENDBRANCH   4   7
BRANCH   1  16
ATOM     16  N5  ZIN A   1      18.385   0.374   5.529  0.00  0.00    -0.390 N 
ATOM     17  H30 ZIN A   1      17.775   0.814   4.919  0.00  0.00     0.159 HD
BRANCH  16  18
ATOM     18  C4  ZIN A   1      19.432  -0.510   5.009  0.00  0.00     0.119 C 
BRANCH  18  19
ATOM     19  C3  ZIN A   1      18.855  -1.911   4.795  0.00  0.00     0.019 C 
BRANCH  19  20
ATOM     20  C2  ZIN A   1      17.416  -1.798   4.289  0.00  0.00    -0.003 C 
ATOM     21  C1  ZIN A   1      16.929  -3.171   3.820  0.00  0.00     0.005 C 
ENDBRANCH  19  20
ENDBRANCH  18  19
ENDBRANCH  16  18
ENDBRANCH   1  16
TORSDOF 9
ENDMDL
MODEL 3
REMARK VINA RESULT:      -5.8      3.165      5.551
REMARK  9 active torsions:
REMARK  status: ('A' for Active; 'I' for Inactive)
REMARK    1  A    between atoms: C2_2  and  C3_3 
REMARK    2  A    between atoms: C3_3  and  C4_4 
REMARK    3  A    between atoms: C4_4  and  N5_5 
REMARK    4  A    between atoms: N5_5  and  C6_6 
REMARK    5  A    between atoms: C9_9  and  C10_10 
REMARK    6  A    between atoms: C10_10  and  O12_12 
REMARK    7  A    between atoms: O12_12  and  C13_13 
REMARK    8  A    between atoms: C13_13  and  C14_14 
REMARK    9  A    between atoms: C14_14  and  N15_15 
ROOT
ATOM      1  C6  ZIN A   1      20.158  -0.493  11.497  0.00  0.00     0.028 A 
ATOM      2  C7  ZIN A   1      19.309  -1.524  11.890  0.00  0.00     0.030 A 
ATOM      3  C8  ZIN A   1      18.735  -1.505  13.135  0.00  0.00     0.020 A 
ATOM      4  C9  ZIN A   1      19.003  -0.448  14.011  0.00  0.00     0.039 A 
ATOM      5  C19 ZIN A   1      19.856   0.586  13.613  0.00  0.00     0.020 A 
ATOM      6  C20 ZIN A   1      20.431   0.558  12.369  0.00  0.00     0.030 A 
ENDROOT
BRANCH   4   7
ATOM      7  C10 ZIN A   1      18.389  -0.424  15.350  0.00  0.00     0.293 C 
ATOM      8  O11 ZIN A   1      17.227  -0.090  15.480  0.00  0.00    -0.259 OA
BRANCH   7   9
ATOM      9  O12 ZIN A   1      19.114  -0.772  16.431  0.00  0.00    -0.316 OA
BRANCH   9  10
ATOM     10  C13 ZIN A   1      18.600  -0.368  17.727  0.00  0.00     0.206 C 
BRANCH  10  11
ATOM     11  C14 ZIN A   1      19.545   0.661  18.353  0.00  0.00     0.260 C 
BRANCH  11  12
ATOM     12  N15 ZIN A   1      18.780   1.851  18.748  0.00  0.00    -0.077 N 
ATOM     13  H16 ZIN A   1      19.087   2.163  19.656  0.00  0.00     0.279 HD
ATOM     14  C17 ZIN A   1      18.997   2.921  17.763  0.00  0.00     0.269 C 
ATOM     15  C18 ZIN A   1      17.350   1.518  18.801  0.00  0.00     0.269 C 
ENDBRANCH  11  12
ENDBRANCH  10  11
ENDBRANCH   9  10
ENDBRANCH   7   9
ENDBRANCH   4   7
BRANCH   1  16
ATOM     16  N5  ZIN A   1      20.739  -0.515  10.234  0.00  0.00    -0.390 N 
ATOM     17  H30 ZIN A   1      21.702  -0.564  10.145  0.00  0.00     0.159 HD
BRANCH  16  18
ATOM     18  C4  ZIN A   1      19.892  -0.464   9.039  0.00  0.00     0.119 C 
BRANCH  18  19
ATOM     19  C3  ZIN A   1      19.634   0.996   8.661  0.00  0.00     0.019 C 
BRANCH  19  20
ATOM     20  C2  ZIN A   1      18.317   1.460   9.285  0.00  0.00    -0.003 C 
ATOM     21  C1  ZIN A   1      18.485   2.875   9.841  0.00  0.00     0.005 C 
ENDBRANCH  19  20
ENDBRANCH  18  19
ENDBRANCH  16  18
ENDBRANCH   1  16
TORSDOF 9
ENDMDL
MODEL 4
REMARK VINA RESULT:      -5.6      3.159      4.119
REMARK  9 active torsions:
REMARK  status: ('A' for Active; 'I' for Inactive)
REMARK    1  A    between atoms: C2_2  and  C3_3 
REMARK    2  A    between atoms: C3_3  and  C4_4 
REMARK    3  A    between atoms: C4_4  and  N5_5 
REMARK    4  A    between atoms: N5_5  and  C6_6 
REMARK    5  A    between atoms: C9_9  and  C10_10 
REMARK    6  A    between atoms: C10_10  and  O12_12 
REMARK    7  A    between atoms: O12_12  and  C13_13 
REMARK    8  A    between atoms: C13_13  and  C14_14 
REMARK    9  A    between atoms: C14_14  and  N15_15 
ROOT
ATOM      1  C6  ZIN A   1      18.828   0.546   9.291  0.00  0.00     0.028 A 
ATOM      2  C7  ZIN A   1      17.928   0.614  10.351  0.00  0.00     0.030 A 
ATOM      3  C8  ZIN A   1      17.523   1.832  10.832  0.00  0.00     0.020 A 
ATOM      4  C9  ZIN A   1      18.013   3.009  10.255  0.00  0.00     0.039 A 
ATOM      5  C19 ZIN A   1      18.917   2.937   9.190  0.00  0.00     0.020 A 
ATOM      6  C20 ZIN A   1      19.323   1.716   8.718  0.00  0.00     0.030 A 
ENDROOT
BRANCH   4   7
ATOM      7  C10 ZIN A   1      17.580   4.320  10.769  0.00  0.00     0.293 C 
ATOM      8  O11 ZIN A   1      17.198   5.179   9.998  0.00  0.00    -0.259 OA
BRANCH   7   9
ATOM      9  O12 ZIN A   1      17.608   4.567  12.094  0.00  0.00    -0.316 OA
BRANCH   9  10
ATOM     10  C13 ZIN A   1      18.915   4.707  12.710  0.00  0.00     0.206 C 
BRANCH  10  11
ATOM     11  C14 ZIN A   1      18.842   4.253  14.170  0.00  0.00     0.260 C 
BRANCH  11  12
ATOM     12  N15 ZIN A   1      20.042   4.707  14.884  0.00  0.00    -0.077 N 
ATOM     13  H16 ZIN A   1      20.853   4.235  14.515  0.00  0.00     0.279 HD
ATOM     14  C17 ZIN A   1      20.197   6.158  14.706  0.00  0.00     0.269 C 
ATOM     15  C18 ZIN A   1      19.906   4.402  16.314  0.00  0.00     0.269 C 
ENDBRANCH  11  12
ENDBRANCH  10  11
ENDBRANCH   9  10
ENDBRANCH   7   9
ENDBRANCH   4   7
BRANCH   1  16
ATOM     16  N5  ZIN A   1      19.238  -0.690   8.806  0.00  0.00    -0.390 N 
ATOM     17  H30 ZIN A   1      19.584  -1.359   9.415  0.00  0.00     0.159 HD
BRANCH  16  18
ATOM     18  C4  ZIN A   1      19.145  -0.981   7.373  0.00  0.00     0.119 C 
BRANCH  18  19
ATOM     19  C3  ZIN A   1      17.731  -0.668   6.880  0.00  0.00     0.019 C 
BRANCH  19  20
ATOM     20  C2  ZIN A   1      17.808   0.241   5.652  0.00  0.00    -0.003 C 
ATOM     21  C1  ZIN A   1      19.252   0.299   5.149  0.00  0.00     0.005 C 
ENDBRANCH  19  20
ENDBRANCH  18  19
ENDBRANCH  16  18
ENDBRANCH   1  16
TORSDOF 9
ENDMDL
MODEL 5
REMARK VINA RESULT:      -5.6      3.719      7.169
REMARK  9 active torsions:
REMARK  status: ('A' for Active; 'I' for Inactive)
REMARK    1  A    between atoms: C2_2  and  C3_3 
REMARK    2  A    between atoms: C3_3  and  C4_4 
REMARK    3  A    between atoms: C4_4  and  N5_5 
REMARK    4  A    between atoms: N5_5  and  C6_6 
REMARK    5  A    between atoms: C9_9  and  C10_10 
REMARK    6  A    between atoms: C10_10  and  O12_12 
REMARK    7  A    between atoms: O12_12  and  C13_13 
REMARK    8  A    between atoms: C13_13  and  C14_14 
REMARK    9  A    between atoms: C14_14  and  N15_15 
ROOT
ATOM      1  C6  ZIN A   1      18.109   1.252   8.959  0.00  0.00     0.028 A 
ATOM      2  C7  ZIN A   1      17.444   0.061   8.678  0.00  0.00     0.030 A 
ATOM      3  C8  ZIN A   1      17.708  -0.615   7.514  0.00  0.00     0.020 A 
ATOM      4  C9  ZIN A   1      18.646  -0.107   6.609  0.00  0.00     0.039 A 
ATOM      5  C19 ZIN A   1      19.312   1.089   6.895  0.00  0.00     0.020 A 
ATOM      6  C20 ZIN A   1      19.040   1.763   8.057  0.00  0.00     0.030 A 
ENDROOT
BRANCH   4   7
ATOM      7  C10 ZIN A   1      18.931  -0.831   5.357  0.00  0.00     0.293 C 
ATOM      8  O11 ZIN A   1      19.956  -0.603   4.744  0.00  0.00    -0.259 OA
BRANCH   7   9
ATOM      9  O12 ZIN A   1      18.056  -1.744   4.892  0.00  0.00    -0.316 OA
BRANCH   9  10
ATOM     10  C13 ZIN A   1      18.602  -3.012   4.446  0.00  0.00     0.206 C 
BRANCH  10  11
ATOM     11  C14 ZIN A   1      18.804  -3.934   5.651  0.00  0.00     0.260 C 
BRANCH  11  12
ATOM     12  N15 ZIN A   1      18.612  -5.330   5.237  0.00  0.00    -0.077 N 
ATOM     13  H16 ZIN A   1      19.386  -5.619   4.657  0.00  0.00     0.279 HD
ATOM     14  C17 ZIN A   1      18.545  -6.188   6.428  0.00  0.00     0.269 C 
ATOM     15  C18 ZIN A   1      17.360  -5.448   4.478  0.00  0.00     0.269 C 
ENDBRANCH  11  12
ENDBRANCH  10  11
ENDBRANCH   9  10
ENDBRANCH   7   9
ENDBRANCH   4   7
BRANCH   1  16
ATOM     16  N5  ZIN A   1      17.840   1.935  10.139  0.00  0.00    -0.390 N 
ATOM     17  H30 ZIN A   1      17.158   1.607  10.744  0.00  0.00     0.159 HD
BRANCH  16  18
ATOM     18  C4  ZIN A   1      18.588   3.151  10.467  0.00  0.00     0.119 C 
BRANCH  18  19
ATOM     19  C3  ZIN A   1      17.733   4.378  10.143  0.00  0.00     0.019 C 
BRANCH  19  20
ATOM     20  C2  ZIN A   1      16.871   4.734  11.356  0.00  0.00    -0.003 C 
ATOM     21  C1  ZIN A   1      17.708   4.610  12.631  0.00  0.00     0.005 C 
ENDBRANCH  19  20
ENDBRANCH  18  19
ENDBRANCH  16  18
ENDBRANCH   1  16
TORSDOF 9
ENDMDL
MODEL 6
REMARK VINA RESULT:      -5.6      2.150      2.728
REMARK  9 active torsions:
REMARK  status: ('A' for Active; 'I' for Inactive)
REMARK    1  A    between atoms: C2_2  and  C3_3 
REMARK    2  A    between atoms: C3_3  and  C4_4 
REMARK    3  A    between atoms: C4_4  and  N5_5 
REMARK    4  A    between atoms: N5_5  and  C6_6 
REMARK    5  A    between atoms: C9_9  and  C10_10 
REMARK    6  A    between atoms: C10_10  and  O12_12 
REMARK    7  A    between atoms: O12_12  and  C13_13 
REMARK    8  A    between atoms: C13_13  and  C14_14 
REMARK    9  A    between atoms: C14_14  and  N15_15 
ROOT
ATOM      1  C6  ZIN A   1      18.488   0.290   7.832  0.00  0.00     0.028 A 
ATOM      2  C7  ZIN A   1      17.676  -0.102   8.892  0.00  0.00     0.030 A 
ATOM      3  C8  ZIN A   1      17.470   0.744   9.950  0.00  0.00     0.020 A 
ATOM      4  C9  ZIN A   1      18.077   2.005   9.964  0.00  0.00     0.039 A 
ATOM      5  C19 ZIN A   1      18.892   2.396   8.897  0.00  0.00     0.020 A 
ATOM      6  C20 ZIN A   1      19.099   1.543   7.845  0.00  0.00     0.030 A 
ENDROOT
BRANCH   4   7
ATOM      7  C10 ZIN A   1      17.858   2.918  11.100  0.00  0.00     0.293 C 
ATOM      8  O11 ZIN A   1      16.850   3.596  11.150  0.00  0.00    -0.259 OA
BRANCH   7   9
ATOM      9  O12 ZIN A   1      18.775   3.001  12.084  0.00  0.00    -0.316 OA
BRANCH   9  10
ATOM     10  C13 ZIN A   1      18.415   2.434  13.370  0.00  0.00     0.206 C 
BRANCH  10  11
ATOM     11  C14 ZIN A   1      18.757   3.430  14.481  0.00  0.00     0.260 C 
BRANCH  11  12
ATOM     12  N15 ZIN A   1      19.572   2.761  15.504  0.00  0.00    -0.077 N 
ATOM     13  H16 ZIN A   1      20.511   2.633  15.156  0.00  0.00     0.279 HD
ATOM     14  C17 ZIN A   1      19.609   3.588  16.718  0.00  0.00     0.269 C 
ATOM     15  C18 ZIN A   1      18.985   1.453  15.820  0.00  0.00     0.269 C 
ENDBRANCH  11  12
ENDBRANCH  10  11
ENDBRANCH   9  10
ENDBRANCH   7   9
ENDBRANCH   4   7
BRANCH   1  16
ATOM     16  N5  ZIN A   1      18.696  -0.570   6.760  0.00  0.00    -0.390 N 
ATOM     17  H30 ZIN A   1      18.448  -1.504   6.834  0.00  0.00     0.159 HD
BRANCH  16  18
ATOM     18  C4  ZIN A   1      19.289  -0.064   5.519  0.00  0.00     0.119 C 
BRANCH  18  19
ATOM     19  C3  ZIN A   1      18.423  -0.487   4.332  0.00  0.00     0.019 C 
BRANCH  19  20
ATOM     20  C2  ZIN A   1      17.723  -1.809   4.655  0.00  0.00    -0.003 C 
ATOM     21  C1  ZIN A   1      18.629  -2.976   4.258  0.00  0.00     0.005 C 
ENDBRANCH  19  20
ENDBRANCH  18  19
ENDBRANCH  16  18
ENDBRANCH   1  16
TORSDOF 9
ENDMDL
MODEL 7
REMARK VINA RESULT:      -5.5      2.293      2.952
REMARK  9 active torsions:
REMARK  status: ('A' for Active; 'I' for Inactive)
REMARK    1  A    between atoms: C2_2  and  C3_3 
REMARK    2  A    between atoms: C3_3  and  C4_4 
REMARK    3  A    between atoms: C4_4  and  N5_5 
REMARK    4  A    between atoms: N5_5  and  C6_6 
REMARK    5  A    between atoms: C9_9  and  C10_10 
REMARK    6  A    between atoms: C10_10  and  O12_12 
REMARK    7  A    between atoms: O12_12  and  C13_13 
REMARK    8  A    between atoms: C13_13  and  C14_14 
REMARK    9  A    between atoms: C14_14  and  N15_15 
ROOT
ATOM      1  C6  ZIN A   1      18.187   0.036   6.527  0.00  0.00     0.028 A 
ATOM      2  C7  ZIN A   1      17.392  -0.411   7.579  0.00  0.00     0.030 A 
ATOM      3  C8  ZIN A   1      17.395   0.259   8.775  0.00  0.00     0.020 A 
ATOM      4  C9  ZIN A   1      18.198   1.393   8.939  0.00  0.00     0.039 A 
ATOM      5  C19 ZIN A   1      18.995   1.839   7.879  0.00  0.00     0.020 A 
ATOM      6  C20 ZIN A   1      18.991   1.161   6.688  0.00  0.00     0.030 A 
ENDROOT
BRANCH   4   7
ATOM      7  C10 ZIN A   1      18.204   2.115  10.223  0.00  0.00     0.293 C 
ATOM      8  O11 ZIN A   1      17.346   1.885  11.054  0.00  0.00    -0.259 OA
BRANCH   7   9
ATOM      9  O12 ZIN A   1      19.159   3.031  10.477  0.00  0.00    -0.316 OA
BRANCH   9  10
ATOM     10  C13 ZIN A   1      19.767   3.002  11.794  0.00  0.00     0.206 C 
BRANCH  10  11
ATOM     11  C14 ZIN A   1      19.767   4.412  12.388  0.00  0.00     0.260 C 
BRANCH  11  12
ATOM     12  N15 ZIN A   1      19.546   4.333  13.838  0.00  0.00    -0.077 N 
ATOM     13  H16 ZIN A   1      20.425   4.171  14.305  0.00  0.00     0.279 HD
ATOM     14  C17 ZIN A   1      18.964   5.596  14.314  0.00  0.00     0.269 C 
ATOM     15  C18 ZIN A   1      18.624   3.228  14.132  0.00  0.00     0.269 C 
ENDBRANCH  11  12
ENDBRANCH  10  11
ENDBRANCH   9  10
ENDBRANCH   7   9
ENDBRANCH   4   7
BRANCH   1  16
ATOM     16  N5  ZIN A   1      18.182  -0.646   5.316  0.00  0.00    -0.390 N 
ATOM     17  H30 ZIN A   1      17.429  -0.555   4.712  0.00  0.00     0.159 HD
BRANCH  16  18
ATOM     18  C4  ZIN A   1      19.315  -1.501   4.953  0.00  0.00     0.119 C 
BRANCH  18  19
ATOM     19  C3  ZIN A   1      18.986  -2.955   5.298  0.00  0.00     0.019 C 
BRANCH  19  20
ATOM     20  C2  ZIN A   1      19.714  -3.351   6.584  0.00  0.00    -0.003 C 
ATOM     21  C1  ZIN A   1      18.701  -3.872   7.605  0.00  0.00     0.005 C 
ENDBRANCH  19  20
ENDBRANCH  18  19
ENDBRANCH  16  18
ENDBRANCH   1  16
TORSDOF 9
ENDMDL
MODEL 8
REMARK VINA RESULT:      -5.5      2.112      3.162
REMARK  9 active torsions:
REMARK  status: ('A' for Active; 'I' for Inactive)
REMARK    1  A    between atoms: C2_2  and  C3_3 
REMARK    2  A    between atoms: C3_3  and  C4_4 
REMARK    3  A    between atoms: C4_4  and  N5_5 
REMARK    4  A    between atoms: N5_5  and  C6_6 
REMARK    5  A    between atoms: C9_9  and  C10_10 
REMARK    6  A    between atoms: C10_10  and  O12_12 
REMARK    7  A    between atoms: O12_12  and  C13_13 
REMARK    8  A    between atoms: C13_13  and  C14_14 
REMARK    9  A    between atoms: C14_14  and  N15_15 
ROOT
ATOM      1  C6  ZIN A   1      18.654   0.738   9.155  0.00  0.00     0.028 A 
ATOM      2  C7  ZIN A   1      17.781   0.447  10.200  0.00  0.00     0.030 A 
ATOM      3  C8  ZIN A   1      17.357   1.444  11.039  0.00  0.00     0.020 A 
ATOM      4  C9  ZIN A   1      17.803   2.756  10.846  0.00  0.00     0.039 A 
ATOM      5  C19 ZIN A   1      18.680   3.045   9.795  0.00  0.00     0.020 A 
ATOM      6  C20 ZIN A   1      19.104   2.043   8.963  0.00  0.00     0.030 A 
ENDROOT
BRANCH   4   7
ATOM      7  C10 ZIN A   1      17.350   3.831  11.747  0.00  0.00     0.293 C 
ATOM      8  O11 ZIN A   1      16.864   4.846  11.287  0.00  0.00    -0.259 OA
BRANCH   7   9
ATOM      9  O12 ZIN A   1      17.476   3.689  13.081  0.00  0.00    -0.316 OA
BRANCH   9  10
ATOM     10  C13 ZIN A   1      18.825   3.659  13.616  0.00  0.00     0.206 C 
BRANCH  10  11
ATOM     11  C14 ZIN A   1      18.869   2.740  14.840  0.00  0.00     0.260 C 
BRANCH  11  12
ATOM     12  N15 ZIN A   1      18.456   1.386  14.450  0.00  0.00    -0.077 N 
ATOM     13  H16 ZIN A   1      17.742   1.442  13.739  0.00  0.00     0.279 HD
ATOM     14  C17 ZIN A   1      19.616   0.654  13.921  0.00  0.00     0.269 C 
ATOM     15  C18 ZIN A   1      17.925   0.679  15.623  0.00  0.00     0.269 C 
ENDBRANCH  11  12
ENDBRANCH  10  11
ENDBRANCH   9  10
ENDBRANCH   7   9
ENDBRANCH   4   7
BRANCH   1  16
ATOM     16  N5  ZIN A   1      19.082  -0.275   8.305  0.00  0.00    -0.390 N 
ATOM     17  H30 ZIN A   1      20.028  -0.463   8.212  0.00  0.00     0.159 HD
BRANCH  16  18
ATOM     18  C4  ZIN A   1      18.101  -1.058   7.549  0.00  0.00     0.119 C 
BRANCH  18  19
ATOM     19  C3  ZIN A   1      17.452  -0.171   6.485  0.00  0.00     0.019 C 
BRANCH  19  20
ATOM     20  C2  ZIN A   1      18.528   0.351   5.530  0.00  0.00    -0.003 C 
ATOM     21  C1  ZIN A   1      18.489  -0.453   4.229  0.00  0.00     0.005 C 
ENDBRANCH  19  20
ENDBRANCH  18  19
ENDBRANCH  16  18
ENDBRANCH   1  16
TORSDOF 9
ENDMDL
MODEL 9
REMARK VINA RESULT:      -5.5      1.515      1.845
REMARK  9 active torsions:
REMARK  status: ('A' for Active; 'I' for Inactive)
REMARK    1  A    between atoms: C2_2  and  C3_3 
REMARK    2  A    between atoms: C3_3  and  C4_4 
REMARK    3  A    between atoms: C4_4  and  N5_5 
REMARK    4  A    between atoms: N5_5  and  C6_6 
REMARK    5  A    between atoms: C9_9  and  C10_10 
REMARK    6  A    between atoms: C10_10  and  O12_12 
REMARK    7  A    between atoms: O12_12  and  C13_13 
REMARK    8  A    between atoms: C13_13  and  C14_14 
REMARK    9  A    between atoms: C14_14  and  N15_15 
ROOT
ATOM      1  C6  ZIN A   1      18.253  -0.085   7.754  0.00  0.00     0.028 A 
ATOM      2  C7  ZIN A   1      19.001   1.071   7.545  0.00  0.00     0.030 A 
ATOM      3  C8  ZIN A   1      18.951   2.095   8.455  0.00  0.00     0.020 A 
ATOM      4  C9  ZIN A   1      18.147   1.978   9.595  0.00  0.00     0.039 A 
ATOM      5  C19 ZIN A   1      17.398   0.815   9.800  0.00  0.00     0.020 A 
ATOM      6  C20 ZIN A   1      17.448  -0.202   8.884  0.00  0.00     0.030 A 
ENDROOT
BRANCH   4   7
ATOM      7  C10 ZIN A   1      18.090   3.077  10.575  0.00  0.00     0.293 C 
ATOM      8  O11 ZIN A   1      17.020   3.575  10.869  0.00  0.00    -0.259 OA
BRANCH   7   9
ATOM      9  O12 ZIN A   1      19.224   3.532  11.144  0.00  0.00    -0.316 OA
BRANCH   9  10
ATOM     10  C13 ZIN A   1      19.968   2.597  11.967  0.00  0.00     0.206 C 
BRANCH  10  11
ATOM     11  C14 ZIN A   1      19.090   2.131  13.131  0.00  0.00     0.260 C 
BRANCH  11  12
ATOM     12  N15 ZIN A   1      19.301   0.695  13.359  0.00  0.00    -0.077 N 
ATOM     13  H16 ZIN A   1      19.779   0.559  14.236  0.00  0.00     0.279 HD
ATOM     14  C17 ZIN A   1      18.001   0.010  13.399  0.00  0.00     0.269 C 
ATOM     15  C18 ZIN A   1      20.112   0.140  12.267  0.00  0.00     0.269 C 
ENDBRANCH  11  12
ENDBRANCH  10  11
ENDBRANCH   9  10
ENDBRANCH   7   9
ENDBRANCH   4   7
BRANCH   1  16
ATOM     16  N5  ZIN A   1      18.306  -1.122   6.829  0.00  0.00    -0.390 N 
ATOM     17  H30 ZIN A   1      17.658  -1.841   6.870  0.00  0.00     0.159 HD
BRANCH  16  18
ATOM     18  C4  ZIN A   1      19.344  -1.127   5.795  0.00  0.00     0.119 C 
BRANCH  18  19
ATOM     19  C3  ZIN A   1      18.693  -0.963   4.420  0.00  0.00     0.019 C 
BRANCH  19  20
ATOM     20  C2  ZIN A   1      17.313  -1.624   4.427  0.00  0.00    -0.003 C 
ATOM     21  C1  ZIN A   1      17.449  -3.093   4.021  0.00  0.00     0.005 C 
ENDBRANCH  19  20
ENDBRANCH  18  19
ENDBRANCH  16  18
ENDBRANCH   1  16
TORSDOF 9
ENDMDL
