MODEL 1
REMARK VINA RESULT:      -6.7      0.000      0.000
REMARK  10 active torsions:
REMARK  status: ('A' for Active; 'I' for Inactive)
REMARK    1  A    between atoms: C2_2  and  N3_3 
REMARK    2  A    between atoms: N3_3  and  C5_5 
REMARK    3  A    between atoms: N3_3  and  C8_8 
REMARK    4  A    between atoms: C5_5  and  C6_6 
REMARK    5  A    between atoms: C6_6  and  O7_7 
REMARK    6  A    between atoms: C8_8  and  C9_9 
REMARK    7  A    between atoms: C9_9  and  C10_10 
REMARK    8  A    between atoms: C10_10  and  C11_11 
REMARK    9  A    between atoms: C11_11  and  N14_13 
REMARK   10  A    between atoms: N14_13  and  C15_14 
ROOT
ATOM      1  C11 ZIN A   1      18.964  -1.278  13.031  0.00  0.00     0.077 C 
ATOM      2  C13 ZIN A   1      18.629  -2.672  12.495  0.00  0.00     0.032 C 
ENDROOT
BRANCH   1   3
ATOM      3  C10 ZIN A   1      19.456  -1.392  14.475  0.00  0.00     0.026 C 
BRANCH   3   4
ATOM      4  C9  ZIN A   1      18.319  -1.026  15.432  0.00  0.00     0.030 C 
BRANCH   4   5
ATOM      5  C8  ZIN A   1      17.716   0.318  15.018  0.00  0.00     0.235 C 
BRANCH   5   6
ATOM      6  N3  ZIN A   1      17.918   1.296  16.094  0.00  0.00    -0.069 N 
ATOM      7  H4  ZIN A   1      17.160   1.962  16.090  0.00  0.00     0.279 HD
BRANCH   6   8
ATOM      8  C2  ZIN A   1      17.954   0.602  17.388  0.00  0.00     0.230 C 
ATOM      9  C1  ZIN A   1      19.191   1.046  18.172  0.00  0.00     0.034 C 
ENDBRANCH   6   8
BRANCH   6  10
ATOM     10  C5  ZIN A   1      19.190   2.001  15.882  0.00  0.00     0.260 C 
BRANCH  10  11
ATOM     11  C6  ZIN A   1      18.910   3.422  15.388  0.00  0.00     0.192 C 
BRANCH  11  12
ATOM     12  O7  ZIN A   1      17.598   3.816  15.792  0.00  0.00    -0.399 OA
ATOM     13  H35 ZIN A   1      17.175   3.202  16.410  0.00  0.00     0.209 HD
ENDBRANCH  11  12
ENDBRANCH  10  11
ENDBRANCH   6  10
ENDBRANCH   5   6
ENDBRANCH   4   5
ENDBRANCH   3   4
ENDBRANCH   1   3
BRANCH   1  14
ATOM     14  N14 ZIN A   1      20.012  -0.676  12.204  0.00  0.00    -0.385 N 
ATOM     15  H45 ZIN A   1      20.884  -1.098  12.143  0.00  0.00     0.160 HD
BRANCH  14  16
ATOM     16  C15 ZIN A   1      19.760   0.497  11.509  0.00  0.00     0.042 A 
ATOM     17  C25 ZIN A   1      19.732   1.722  12.159  0.00  0.00     0.049 A 
ATOM     18  C24 ZIN A   1      19.481   2.878  11.436  0.00  0.00     0.119 A 
ATOM     19  N23 ZIN A   1      19.259   2.853  10.142  0.00  0.00    -0.260 NA
ATOM     20  C22 ZIN A   1      19.266   1.707   9.451  0.00  0.00     0.070 A 
ATOM     21  C16 ZIN A   1      19.519   0.483  10.115  0.00  0.00     0.019 A 
ATOM     22  C21 ZIN A   1      19.026   1.696   8.067  0.00  0.00     0.056 A 
ATOM     23  C17 ZIN A   1      19.526  -0.715   9.387  0.00  0.00     0.018 A 
ATOM     24  C18 ZIN A   1      19.288  -0.689   8.046  0.00  0.00     0.025 A 
ATOM     25  C19 ZIN A   1      19.040   0.515   7.388  0.00  0.00     0.036 A 
ATOM     26 Cl20 ZIN A   1      18.741   0.509   5.678  0.00  0.00    -0.084 Cl
ENDBRANCH  14  16
ENDBRANCH   1  14
TORSDOF 10
ENDMDL
MODEL 2
REMARK VINA RESULT:      -6.7      4.059      7.056
REMARK  10 active torsions:
REMARK  status: ('A' for Active; 'I' for Inactive)
REMARK    1  A    between atoms: C2_2  and  N3_3 
REMARK    2  A    between atoms: N3_3  and  C5_5 
REMARK    3  A    between atoms: N3_3  and  C8_8 
REMARK    4  A    between atoms: C5_5  and  C6_6 
REMARK    5  A    between atoms: C6_6  and  O7_7 
REMARK    6  A    between atoms: C8_8  and  C9_9 
REMARK    7  A    between atoms: C9_9  and  C10_10 
REMARK    8  A    between atoms: C10_10  and  C11_11 
REMARK    9  A    between atoms: C11_11  and  N14_13 
REMARK   10  A    between atoms: N14_13  and  C15_14 
ROOT
ATOM      1  C11 ZIN A   1      18.624   1.321   9.362  0.00  0.00     0.077 C 
ATOM      2  C13 ZIN A   1      19.252   1.710   8.022  0.00  0.00     0.032 C 
ENDROOT
BRANCH   1   3
ATOM      3  C10 ZIN A   1      17.972  -0.057   9.239  0.00  0.00     0.026 C 
BRANCH   3   4
ATOM      4  C9  ZIN A   1      19.057  -1.120   9.049  0.00  0.00     0.030 C 
BRANCH   4   5
ATOM      5  C8  ZIN A   1      18.498  -2.492   9.430  0.00  0.00     0.235 C 
BRANCH   5   6
ATOM      6  N3  ZIN A   1      19.455  -3.536   9.039  0.00  0.00    -0.069 N 
ATOM      7  H4  ZIN A   1      20.382  -3.142   8.994  0.00  0.00     0.279 HD
BRANCH   6   8
ATOM      8  C2  ZIN A   1      19.430  -4.620  10.029  0.00  0.00     0.230 C 
ATOM      9  C1  ZIN A   1      19.989  -4.110  11.359  0.00  0.00     0.034 C 
ENDBRANCH   6   8
BRANCH   6  10
ATOM     10  C5  ZIN A   1      19.085  -4.069   7.720  0.00  0.00     0.260 C 
BRANCH  10  11
ATOM     11  C6  ZIN A   1      20.151  -5.063   7.255  0.00  0.00     0.192 C 
BRANCH  11  12
ATOM     12  O7  ZIN A   1      21.311  -4.350   6.822  0.00  0.00    -0.399 OA
ATOM     13  H35 ZIN A   1      22.138  -4.842   6.927  0.00  0.00     0.209 HD
ENDBRANCH  11  12
ENDBRANCH  10  11
ENDBRANCH   6  10
ENDBRANCH   5   6
ENDBRANCH   4   5
ENDBRANCH   3   4
ENDBRANCH   1   3
BRANCH   1  14
ATOM     14  N14 ZIN A   1      19.663   1.279  10.394  0.00  0.00    -0.385 N 
ATOM     15  H45 ZIN A   1      20.525   0.879  10.198  0.00  0.00     0.160 HD
BRANCH  14  16
ATOM     16  C15 ZIN A   1      19.416   1.812  11.650  0.00  0.00     0.042 A 
ATOM     17  C25 ZIN A   1      19.290   3.180  11.834  0.00  0.00     0.049 A 
ATOM     18  C24 ZIN A   1      19.038   3.683  13.102  0.00  0.00     0.119 A 
ATOM     19  N23 ZIN A   1      18.921   2.898  14.149  0.00  0.00    -0.260 NA
ATOM     20  C22 ZIN A   1      19.036   1.568  14.046  0.00  0.00     0.070 A 
ATOM     21  C16 ZIN A   1      19.289   0.977  12.785  0.00  0.00     0.019 A 
ATOM     22  C21 ZIN A   1      18.909   0.743  15.175  0.00  0.00     0.056 A 
ATOM     23  C17 ZIN A   1      19.408  -0.416  12.682  0.00  0.00     0.018 A 
ATOM     24  C18 ZIN A   1      19.280  -1.187  13.798  0.00  0.00     0.025 A 
ATOM     25  C19 ZIN A   1      19.030  -0.608  15.041  0.00  0.00     0.036 A 
ATOM     26 Cl20 ZIN A   1      18.874  -1.623  16.441  0.00  0.00    -0.084 Cl
ENDBRANCH  14  16
ENDBRANCH   1  14
TORSDOF 10
ENDMDL
MODEL 3
REMARK VINA RESULT:      -6.6      2.260      3.230
REMARK  10 active torsions:
REMARK  status: ('A' for Active; 'I' for Inactive)
REMARK    1  A    between atoms: C2_2  and  N3_3 
REMARK    2  A    between atoms: N3_3  and  C5_5 
REMARK    3  A    between atoms: N3_3  and  C8_8 
REMARK    4  A    between atoms: C5_5  and  C6_6 
REMARK    5  A    between atoms: C6_6  and  O7_7 
REMARK    6  A    between atoms: C8_8  and  C9_9 
REMARK    7  A    between atoms: C9_9  and  C10_10 
REMARK    8  A    between atoms: C10_10  and  C11_11 
REMARK    9  A    between atoms: C11_11  and  N14_13 
REMARK   10  A    between atoms: N14_13  and  C15_14 
ROOT
ATOM      1  C11 ZIN A   1      19.133  -1.965  11.913  0.00  0.00     0.077 C 
ATOM      2  C13 ZIN A   1      19.953  -3.240  11.705  0.00  0.00     0.032 C 
ENDROOT
BRANCH   1   3
ATOM      3  C10 ZIN A   1      18.622  -1.917  13.353  0.00  0.00     0.026 C 
BRANCH   3   4
ATOM      4  C9  ZIN A   1      19.619  -1.150  14.224  0.00  0.00     0.030 C 
BRANCH   4   5
ATOM      5  C8  ZIN A   1      19.066  -1.025  15.645  0.00  0.00     0.235 C 
BRANCH   5   6
ATOM      6  N3  ZIN A   1      18.238   0.185  15.742  0.00  0.00    -0.069 N 
ATOM      7  H4  ZIN A   1      17.857   0.405  14.835  0.00  0.00     0.279 HD
BRANCH   6   8
ATOM      8  C2  ZIN A   1      17.142  -0.047  16.692  0.00  0.00     0.230 C 
ATOM      9  C1  ZIN A   1      16.951  -1.552  16.893  0.00  0.00     0.034 C 
ENDBRANCH   6   8
BRANCH   6  10
ATOM     10  C5  ZIN A   1      19.064   1.306  16.212  0.00  0.00     0.260 C 
BRANCH  10  11
ATOM     11  C6  ZIN A   1      18.716   1.621  17.668  0.00  0.00     0.192 C 
BRANCH  11  12
ATOM     12  O7  ZIN A   1      19.861   1.392  18.492  0.00  0.00    -0.399 OA
ATOM     13  H35 ZIN A   1      19.672   0.892  19.298  0.00  0.00     0.209 HD
ENDBRANCH  11  12
ENDBRANCH  10  11
ENDBRANCH   6  10
ENDBRANCH   5   6
ENDBRANCH   4   5
ENDBRANCH   3   4
ENDBRANCH   1   3
BRANCH   1  14
ATOM     14  N14 ZIN A   1      19.975  -0.795  11.654  0.00  0.00    -0.385 N 
ATOM     15  H45 ZIN A   1      20.777  -0.649  12.180  0.00  0.00     0.160 HD
BRANCH  14  16
ATOM     16  C15 ZIN A   1      19.628   0.104  10.657  0.00  0.00     0.042 A 
ATOM     17  C25 ZIN A   1      19.952  -0.139   9.331  0.00  0.00     0.049 A 
ATOM     18  C24 ZIN A   1      19.587   0.778   8.356  0.00  0.00     0.119 A 
ATOM     19  N23 ZIN A   1      18.944   1.884   8.649  0.00  0.00    -0.260 NA
ATOM     20  C22 ZIN A   1      18.603   2.185   9.908  0.00  0.00     0.070 A 
ATOM     21  C16 ZIN A   1      18.936   1.300  10.961  0.00  0.00     0.019 A 
ATOM     22  C21 ZIN A   1      17.916   3.374  10.206  0.00  0.00     0.056 A 
ATOM     23  C17 ZIN A   1      18.576   1.619  12.278  0.00  0.00     0.018 A 
ATOM     24  C18 ZIN A   1      17.910   2.781  12.531  0.00  0.00     0.025 A 
ATOM     25  C19 ZIN A   1      17.581   3.654  11.497  0.00  0.00     0.036 A 
ATOM     26 Cl20 ZIN A   1      16.733   5.126  11.858  0.00  0.00    -0.084 Cl
ENDBRANCH  14  16
ENDBRANCH   1  14
TORSDOF 10
ENDMDL
MODEL 4
REMARK VINA RESULT:      -6.6      3.278      5.348
REMARK  10 active torsions:
REMARK  status: ('A' for Active; 'I' for Inactive)
REMARK    1  A    between atoms: C2_2  and  N3_3 
REMARK    2  A    between atoms: N3_3  and  C5_5 
REMARK    3  A    between atoms: N3_3  and  C8_8 
REMARK    4  A    between atoms: C5_5  and  C6_6 
REMARK    5  A    between atoms: C6_6  and  O7_7 
REMARK    6  A    between atoms: C8_8  and  C9_9 
REMARK    7  A    between atoms: C9_9  and  C10_10 
REMARK    8  A    between atoms: C10_10  and  C11_11 
REMARK    9  A    between atoms: C11_11  and  N14_13 
REMARK   10  A    between atoms: N14_13  and  C15_14 
ROOT
ATOM      1  C11 ZIN A   1      18.385   1.020   9.145  0.00  0.00     0.077 C 
ATOM      2  C13 ZIN A   1      18.942   2.387   8.739  0.00  0.00     0.032 C 
ENDROOT
BRANCH   1   3
ATOM      3  C10 ZIN A   1      17.464   1.184  10.355  0.00  0.00     0.026 C 
BRANCH   3   4
ATOM      4  C9  ZIN A   1      17.056  -0.196  10.876  0.00  0.00     0.030 C 
BRANCH   4   5
ATOM      5  C8  ZIN A   1      17.232  -0.241  12.395  0.00  0.00     0.235 C 
BRANCH   5   6
ATOM      6  N3  ZIN A   1      18.489  -0.927  12.722  0.00  0.00    -0.069 N 
ATOM      7  H4  ZIN A   1      18.370  -1.461  13.569  0.00  0.00     0.279 HD
BRANCH   6   8
ATOM      8  C2  ZIN A   1      18.856  -1.828  11.621  0.00  0.00     0.230 C 
ATOM      9  C1  ZIN A   1      18.476  -3.264  11.990  0.00  0.00     0.034 C 
ENDBRANCH   6   8
BRANCH   6  10
ATOM     10  C5  ZIN A   1      19.554   0.067  12.915  0.00  0.00     0.260 C 
BRANCH  10  11
ATOM     11  C6  ZIN A   1      20.609  -0.096  11.820  0.00  0.00     0.192 C 
BRANCH  11  12
ATOM     12  O7  ZIN A   1      21.782   0.638  12.176  0.00  0.00    -0.399 OA
ATOM     13  H35 ZIN A   1      21.599   1.503  12.572  0.00  0.00     0.209 HD
ENDBRANCH  11  12
ENDBRANCH  10  11
ENDBRANCH   6  10
ENDBRANCH   5   6
ENDBRANCH   4   5
ENDBRANCH   3   4
ENDBRANCH   1   3
BRANCH   1  14
ATOM     14  N14 ZIN A   1      17.627   0.451   8.028  0.00  0.00    -0.385 N 
ATOM     15  H45 ZIN A   1      16.657   0.491   8.029  0.00  0.00     0.160 HD
BRANCH  14  16
ATOM     16  C15 ZIN A   1      18.294  -0.143   6.968  0.00  0.00     0.042 A 
ATOM     17  C25 ZIN A   1      18.726   0.606   5.884  0.00  0.00     0.049 A 
ATOM     18  C24 ZIN A   1      19.394  -0.017   4.840  0.00  0.00     0.119 A 
ATOM     19  N23 ZIN A   1      19.628  -1.309   4.839  0.00  0.00    -0.260 NA
ATOM     20  C22 ZIN A   1      19.235  -2.094   5.849  0.00  0.00     0.070 A 
ATOM     21  C16 ZIN A   1      18.550  -1.535   6.954  0.00  0.00     0.019 A 
ATOM     22  C21 ZIN A   1      19.491  -3.475   5.832  0.00  0.00     0.056 A 
ATOM     23  C17 ZIN A   1      18.141  -2.361   8.009  0.00  0.00     0.018 A 
ATOM     24  C18 ZIN A   1      18.406  -3.697   7.960  0.00  0.00     0.025 A 
ATOM     25  C19 ZIN A   1      19.080  -4.251   6.874  0.00  0.00     0.036 A 
ATOM     26 Cl20 ZIN A   1      19.399  -5.958   6.845  0.00  0.00    -0.084 Cl
ENDBRANCH  14  16
ENDBRANCH   1  14
TORSDOF 10
ENDMDL
MODEL 5
REMARK VINA RESULT:      -6.6      1.015      1.716
REMARK  10 active torsions:
REMARK  status: ('A' for Active; 'I' for Inactive)
REMARK    1  A    between atoms: C2_2  and  N3_3 
REMARK    2  A    between atoms: N3_3  and  C5_5 
REMARK    3  A    between atoms: N3_3  and  C8_8 
REMARK    4  A    between atoms: C5_5  and  C6_6 
REMARK    5  A    between atoms: C6_6  and  O7_7 
REMARK    6  A    between atoms: C8_8  and  C9_9 
REMARK    7  A    between atoms: C9_9  and  C10_10 
REMARK    8  A    between atoms: C10_10  and  C11_11 
REMARK    9  A    between atoms: C11_11  and  N14_13 
REMARK   10  A    between atoms: N14_13  and  C15_14 
ROOT
ATOM      1  C11 ZIN A   1      19.053  -1.347  12.745  0.00  0.00     0.077 C 
ATOM      2  C13 ZIN A   1      18.819  -2.791  12.298  0.00  0.00     0.032 C 
ENDROOT
BRANCH   1   3
ATOM      3  C10 ZIN A   1      19.487  -1.331  14.211  0.00  0.00     0.026 C 
BRANCH   3   4
ATOM      4  C9  ZIN A   1      18.353  -0.771  15.073  0.00  0.00     0.030 C 
BRANCH   4   5
ATOM      5  C8  ZIN A   1      18.252   0.741  14.864  0.00  0.00     0.235 C 
BRANCH   5   6
ATOM      6  N3  ZIN A   1      18.838   1.434  16.019  0.00  0.00    -0.069 N 
ATOM      7  H4  ZIN A   1      19.842   1.330  15.999  0.00  0.00     0.279 HD
BRANCH   6   8
ATOM      8  C2  ZIN A   1      18.492   2.860  15.962  0.00  0.00     0.230 C 
ATOM      9  C1  ZIN A   1      18.125   3.239  14.525  0.00  0.00     0.034 C 
ENDBRANCH   6   8
BRANCH   6  10
ATOM     10  C5  ZIN A   1      18.310   0.851  17.260  0.00  0.00     0.260 C 
BRANCH  10  11
ATOM     11  C6  ZIN A   1      19.439   0.725  18.285  0.00  0.00     0.192 C 
BRANCH  11  12
ATOM     12  O7  ZIN A   1      19.614   1.974  18.956  0.00  0.00    -0.399 OA
ATOM     13  H35 ZIN A   1      20.502   2.350  18.862  0.00  0.00     0.209 HD
ENDBRANCH  11  12
ENDBRANCH  10  11
ENDBRANCH   6  10
ENDBRANCH   5   6
ENDBRANCH   4   5
ENDBRANCH   3   4
ENDBRANCH   1   3
BRANCH   1  14
ATOM     14  N14 ZIN A   1      20.101  -0.744  11.918  0.00  0.00    -0.385 N 
ATOM     15  H45 ZIN A   1      20.984  -1.146  11.884  0.00  0.00     0.160 HD
BRANCH  14  16
ATOM     16  C15 ZIN A   1      19.834   0.400  11.182  0.00  0.00     0.042 A 
ATOM     17  C25 ZIN A   1      19.835   1.651  11.781  0.00  0.00     0.049 A 
ATOM     18  C24 ZIN A   1      19.568   2.778  11.018  0.00  0.00     0.119 A 
ATOM     19  N23 ZIN A   1      19.302   2.700   9.734  0.00  0.00    -0.260 NA
ATOM     20  C22 ZIN A   1      19.278   1.526   9.092  0.00  0.00     0.070 A 
ATOM     21  C16 ZIN A   1      19.545   0.329   9.799  0.00  0.00     0.019 A 
ATOM     22  C21 ZIN A   1      18.991   1.459   7.719  0.00  0.00     0.056 A 
ATOM     23  C17 ZIN A   1      19.519  -0.898   9.122  0.00  0.00     0.018 A 
ATOM     24  C18 ZIN A   1      19.237  -0.927   7.790  0.00  0.00     0.025 A 
ATOM     25  C19 ZIN A   1      18.975   0.250   7.091  0.00  0.00     0.036 A 
ATOM     26 Cl20 ZIN A   1      18.618   0.174   5.393  0.00  0.00    -0.084 Cl
ENDBRANCH  14  16
ENDBRANCH   1  14
TORSDOF 10
ENDMDL
MODEL 6
REMARK VINA RESULT:      -6.6      4.065      8.000
REMARK  10 active torsions:
REMARK  status: ('A' for Active; 'I' for Inactive)
REMARK    1  A    between atoms: C2_2  and  N3_3 
REMARK    2  A    between atoms: N3_3  and  C5_5 
REMARK    3  A    between atoms: N3_3  and  C8_8 
REMARK    4  A    between atoms: C5_5  and  C6_6 
REMARK    5  A    between atoms: C6_6  and  O7_7 
REMARK    6  A    between atoms: C8_8  and  C9_9 
REMARK    7  A    between atoms: C9_9  and  C10_10 
REMARK    8  A    between atoms: C10_10  and  C11_11 
REMARK    9  A    between atoms: C11_11  and  N14_13 
REMARK   10  A    between atoms: N14_13  and  C15_14 
ROOT
ATOM      1  C11 ZIN A   1      18.907   1.400   9.579  0.00  0.00     0.077 C 
ATOM      2  C13 ZIN A   1      18.374   2.797   9.905  0.00  0.00     0.032 C 
ENDROOT
BRANCH   1   3
ATOM      3  C10 ZIN A   1      19.544   1.409   8.189  0.00  0.00     0.026 C 
BRANCH   3   4
ATOM      4  C9  ZIN A   1      18.560   0.826   7.172  0.00  0.00     0.030 C 
BRANCH   4   5
ATOM      5  C8  ZIN A   1      17.916  -0.436   7.750  0.00  0.00     0.235 C 
BRANCH   5   6
ATOM      6  N3  ZIN A   1      18.161  -1.567   6.846  0.00  0.00    -0.069 N 
ATOM      7  H4  ZIN A   1      17.328  -2.131   6.780  0.00  0.00     0.279 HD
BRANCH   6   8
ATOM      8  C2  ZIN A   1      18.517  -1.061   5.513  0.00  0.00     0.230 C 
ATOM      9  C1  ZIN A   1      17.440  -1.473   4.507  0.00  0.00     0.034 C 
ENDBRANCH   6   8
BRANCH   6  10
ATOM     10  C5  ZIN A   1      19.265  -2.383   7.370  0.00  0.00     0.260 C 
BRANCH  10  11
ATOM     11  C6  ZIN A   1      19.583  -3.507   6.382  0.00  0.00     0.192 C 
BRANCH  11  12
ATOM     12  O7  ZIN A   1      20.872  -4.049   6.677  0.00  0.00    -0.399 OA
ATOM     13  H35 ZIN A   1      21.516  -3.392   6.976  0.00  0.00     0.209 HD
ENDBRANCH  11  12
ENDBRANCH  10  11
ENDBRANCH   6  10
ENDBRANCH   5   6
ENDBRANCH   4   5
ENDBRANCH   3   4
ENDBRANCH   1   3
BRANCH   1  14
ATOM     14  N14 ZIN A   1      19.911   1.016  10.575  0.00  0.00    -0.385 N 
ATOM     15  H45 ZIN A   1      20.696   1.570  10.710  0.00  0.00     0.160 HD
BRANCH  14  16
ATOM     16  C15 ZIN A   1      19.740  -0.138  11.324  0.00  0.00     0.042 A 
ATOM     17  C25 ZIN A   1      19.801  -1.391  10.732  0.00  0.00     0.049 A 
ATOM     18  C24 ZIN A   1      19.630  -2.527  11.509  0.00  0.00     0.119 A 
ATOM     19  N23 ZIN A   1      19.402  -2.457  12.800  0.00  0.00    -0.260 NA
ATOM     20  C22 ZIN A   1      19.325  -1.282  13.437  0.00  0.00     0.070 A 
ATOM     21  C16 ZIN A   1      19.492  -0.076  12.715  0.00  0.00     0.019 A 
ATOM     22  C21 ZIN A   1      19.078  -1.224  14.818  0.00  0.00     0.056 A 
ATOM     23  C17 ZIN A   1      19.411   1.153  13.387  0.00  0.00     0.018 A 
ATOM     24  C18 ZIN A   1      19.170   1.172  14.728  0.00  0.00     0.025 A 
ATOM     25  C19 ZIN A   1      19.006  -0.014  15.441  0.00  0.00     0.036 A 
ATOM     26 Cl20 ZIN A   1      18.700   0.051  17.149  0.00  0.00    -0.084 Cl
ENDBRANCH  14  16
ENDBRANCH   1  14
TORSDOF 10
ENDMDL
MODEL 7
REMARK VINA RESULT:      -6.6      3.207      6.914
REMARK  10 active torsions:
REMARK  status: ('A' for Active; 'I' for Inactive)
REMARK    1  A    between atoms: C2_2  and  N3_3 
REMARK    2  A    between atoms: N3_3  and  C5_5 
REMARK    3  A    between atoms: N3_3  and  C8_8 
REMARK    4  A    between atoms: C5_5  and  C6_6 
REMARK    5  A    between atoms: C6_6  and  O7_7 
REMARK    6  A    between atoms: C8_8  and  C9_9 
REMARK    7  A    between atoms: C9_9  and  C10_10 
REMARK    8  A    between atoms: C10_10  and  C11_11 
REMARK    9  A    between atoms: C11_11  and  N14_13 
REMARK   10  A    between atoms: N14_13  and  C15_14 
ROOT
ATOM      1  C11 ZIN A   1      18.676   4.505  11.983  0.00  0.00     0.077 C 
ATOM      2  C13 ZIN A   1      19.997   3.734  11.950  0.00  0.00     0.032 C 
ENDROOT
BRANCH   1   3
ATOM      3  C10 ZIN A   1      17.903   4.249  10.689  0.00  0.00     0.026 C 
BRANCH   3   4
ATOM      4  C9  ZIN A   1      18.529   3.066   9.946  0.00  0.00     0.030 C 
BRANCH   4   5
ATOM      5  C8  ZIN A   1      17.668   1.819  10.157  0.00  0.00     0.235 C 
BRANCH   5   6
ATOM      6  N3  ZIN A   1      18.469   0.620   9.876  0.00  0.00    -0.069 N 
ATOM      7  H4  ZIN A   1      17.860  -0.130   9.584  0.00  0.00     0.279 HD
BRANCH   6   8
ATOM      8  C2  ZIN A   1      19.433   0.913   8.808  0.00  0.00     0.230 C 
ATOM      9  C1  ZIN A   1      18.849   0.482   7.461  0.00  0.00     0.034 C 
ENDBRANCH   6   8
BRANCH   6  10
ATOM     10  C5  ZIN A   1      19.191   0.218  11.091  0.00  0.00     0.260 C 
BRANCH  10  11
ATOM     11  C6  ZIN A   1      20.552  -0.367  10.706  0.00  0.00     0.192 C 
BRANCH  11  12
ATOM     12  O7  ZIN A   1      21.549   0.113  11.610  0.00  0.00    -0.399 OA
ATOM     13  H35 ZIN A   1      22.416  -0.302  11.496  0.00  0.00     0.209 HD
ENDBRANCH  11  12
ENDBRANCH  10  11
ENDBRANCH   6  10
ENDBRANCH   5   6
ENDBRANCH   4   5
ENDBRANCH   3   4
ENDBRANCH   1   3
BRANCH   1  14
ATOM     14  N14 ZIN A   1      17.878   4.055  13.126  0.00  0.00    -0.385 N 
ATOM     15  H45 ZIN A   1      16.915   3.964  13.040  0.00  0.00     0.160 HD
BRANCH  14  16
ATOM     16  C15 ZIN A   1      18.496   3.760  14.332  0.00  0.00     0.042 A 
ATOM     17  C25 ZIN A   1      19.163   4.739  15.052  0.00  0.00     0.049 A 
ATOM     18  C24 ZIN A   1      19.768   4.414  16.257  0.00  0.00     0.119 A 
ATOM     19  N23 ZIN A   1      19.737   3.194  16.741  0.00  0.00    -0.260 NA
ATOM     20  C22 ZIN A   1      19.116   2.198  16.098  0.00  0.00     0.070 A 
ATOM     21  C16 ZIN A   1      18.471   2.449  14.864  0.00  0.00     0.019 A 
ATOM     22  C21 ZIN A   1      19.094   0.897  16.629  0.00  0.00     0.056 A 
ATOM     23  C17 ZIN A   1      17.821   1.403  14.193  0.00  0.00     0.018 A 
ATOM     24  C18 ZIN A   1      17.819   0.153  14.737  0.00  0.00     0.025 A 
ATOM     25  C19 ZIN A   1      18.453  -0.097  15.952  0.00  0.00     0.036 A 
ATOM     26 Cl20 ZIN A   1      18.430  -1.702  16.614  0.00  0.00    -0.084 Cl
ENDBRANCH  14  16
ENDBRANCH   1  14
TORSDOF 10
ENDMDL
MODEL 8
REMARK VINA RESULT:      -6.5      3.650      6.643
REMARK  10 active torsions:
REMARK  status: ('A' for Active; 'I' for Inactive)
REMARK    1  A    between atoms: C2_2  and  N3_3 
REMARK    2  A    between atoms: N3_3  and  C5_5 
REMARK    3  A    between atoms: N3_3  and  C8_8 
REMARK    4  A    between atoms: C5_5  and  C6_6 
REMARK    5  A    between atoms: C6_6  and  O7_7 
REMARK    6  A    between atoms: C8_8  and  C9_9 
REMARK    7  A    between atoms: C9_9  and  C10_10 
REMARK    8  A    between atoms: C10_10  and  C11_11 
REMARK    9  A    between atoms: C11_11  and  N14_13 
REMARK   10  A    between atoms: N14_13  and  C15_14 
ROOT
ATOM      1  C11 ZIN A   1      19.043   0.891   9.587  0.00  0.00     0.077 C 
ATOM      2  C13 ZIN A   1      19.240   1.831   8.396  0.00  0.00     0.032 C 
ENDROOT
BRANCH   1   3
ATOM      3  C10 ZIN A   1      19.224  -0.557   9.130  0.00  0.00     0.026 C 
BRANCH   3   4
ATOM      4  C9  ZIN A   1      18.076  -1.411   9.673  0.00  0.00     0.030 C 
BRANCH   4   5
ATOM      5  C8  ZIN A   1      18.078  -2.772   8.975  0.00  0.00     0.235 C 
BRANCH   5   6
ATOM      6  N3  ZIN A   1      17.971  -3.838   9.980  0.00  0.00    -0.069 N 
ATOM      7  H4  ZIN A   1      17.657  -3.444  10.855  0.00  0.00     0.279 HD
BRANCH   6   8
ATOM      8  C2  ZIN A   1      17.008  -4.848   9.523  0.00  0.00     0.230 C 
ATOM      9  C1  ZIN A   1      17.203  -6.138  10.322  0.00  0.00     0.034 C 
ENDBRANCH   6   8
BRANCH   6  10
ATOM     10  C5  ZIN A   1      19.286  -4.466  10.170  0.00  0.00     0.260 C 
BRANCH  10  11
ATOM     11  C6  ZIN A   1      19.880  -4.013  11.505  0.00  0.00     0.192 C 
BRANCH  11  12
ATOM     12  O7  ZIN A   1      21.018  -3.184  11.263  0.00  0.00    -0.399 OA
ATOM     13  H35 ZIN A   1      21.101  -2.441  11.878  0.00  0.00     0.209 HD
ENDBRANCH  11  12
ENDBRANCH  10  11
ENDBRANCH   6  10
ENDBRANCH   5   6
ENDBRANCH   4   5
ENDBRANCH   3   4
ENDBRANCH   1   3
BRANCH   1  14
ATOM     14  N14 ZIN A   1      20.029   1.204  10.624  0.00  0.00    -0.385 N 
ATOM     15  H45 ZIN A   1      20.970   1.023  10.468  0.00  0.00     0.160 HD
BRANCH  14  16
ATOM     16  C15 ZIN A   1      19.621   1.758  11.827  0.00  0.00     0.042 A 
ATOM     17  C25 ZIN A   1      19.399   3.122  11.947  0.00  0.00     0.049 A 
ATOM     18  C24 ZIN A   1      18.986   3.647  13.162  0.00  0.00     0.119 A 
ATOM     19  N23 ZIN A   1      18.803   2.889  14.219  0.00  0.00    -0.260 NA
ATOM     20  C22 ZIN A   1      19.004   1.566  14.178  0.00  0.00     0.070 A 
ATOM     21  C16 ZIN A   1      19.422   0.953  12.973  0.00  0.00     0.019 A 
ATOM     22  C21 ZIN A   1      18.805   0.770  15.317  0.00  0.00     0.056 A 
ATOM     23  C17 ZIN A   1      19.630  -0.433  12.934  0.00  0.00     0.018 A 
ATOM     24  C18 ZIN A   1      19.428  -1.176  14.059  0.00  0.00     0.025 A 
ATOM     25  C19 ZIN A   1      19.016  -0.575  15.247  0.00  0.00     0.036 A 
ATOM     26 Cl20 ZIN A   1      18.770  -1.553  16.660  0.00  0.00    -0.084 Cl
ENDBRANCH  14  16
ENDBRANCH   1  14
TORSDOF 10
ENDMDL
MODEL 9
REMARK VINA RESULT:      -6.4      4.104      7.795
REMARK  10 active torsions:
REMARK  status: ('A' for Active; 'I' for Inactive)
REMARK    1  A    between atoms: C2_2  and  N3_3 
REMARK    2  A    between atoms: N3_3  and  C5_5 
REMARK    3  A    between atoms: N3_3  and  C8_8 
REMARK    4  A    between atoms: C5_5  and  C6_6 
REMARK    5  A    between atoms: C6_6  and  O7_7 
REMARK    6  A    between atoms: C8_8  and  C9_9 
REMARK    7  A    between atoms: C9_9  and  C10_10 
REMARK    8  A    between atoms: C10_10  and  C11_11 
REMARK    9  A    between atoms: C11_11  and  N14_13 
REMARK   10  A    between atoms: N14_13  and  C15_14 
ROOT
ATOM      1  C11 ZIN A   1      18.680   1.353   9.511  0.00  0.00     0.077 C 
ATOM      2  C13 ZIN A   1      19.262   1.882   8.198  0.00  0.00     0.032 C 
ENDROOT
BRANCH   1   3
ATOM      3  C10 ZIN A   1      18.174  -0.076   9.305  0.00  0.00     0.026 C 
BRANCH   3   4
ATOM      4  C9  ZIN A   1      18.961  -0.738   8.172  0.00  0.00     0.030 C 
BRANCH   4   5
ATOM      5  C8  ZIN A   1      18.337  -2.095   7.842  0.00  0.00     0.235 C 
BRANCH   5   6
ATOM      6  N3  ZIN A   1      18.138  -2.202   6.391  0.00  0.00    -0.069 N 
ATOM      7  H4  ZIN A   1      17.306  -2.742   6.204  0.00  0.00     0.279 HD
BRANCH   6   8
ATOM      8  C2  ZIN A   1      17.989  -0.859   5.816  0.00  0.00     0.230 C 
ATOM      9  C1  ZIN A   1      18.828  -0.754   4.539  0.00  0.00     0.034 C 
ENDBRANCH   6   8
BRANCH   6  10
ATOM     10  C5  ZIN A   1      19.300  -2.868   5.786  0.00  0.00     0.260 C 
BRANCH  10  11
ATOM     11  C6  ZIN A   1      19.656  -4.114   6.600  0.00  0.00     0.192 C 
BRANCH  11  12
ATOM     12  O7  ZIN A   1      21.072  -4.179   6.775  0.00  0.00    -0.399 OA
ATOM     13  H35 ZIN A   1      21.507  -4.841   6.219  0.00  0.00     0.209 HD
ENDBRANCH  11  12
ENDBRANCH  10  11
ENDBRANCH   6  10
ENDBRANCH   5   6
ENDBRANCH   4   5
ENDBRANCH   3   4
ENDBRANCH   1   3
BRANCH   1  14
ATOM     14  N14 ZIN A   1      19.719   1.360  10.544  0.00  0.00    -0.385 N 
ATOM     15  H45 ZIN A   1      20.600   1.006  10.347  0.00  0.00     0.160 HD
BRANCH  14  16
ATOM     16  C15 ZIN A   1      19.443   1.872  11.802  0.00  0.00     0.042 A 
ATOM     17  C25 ZIN A   1      19.283   3.235  12.000  0.00  0.00     0.049 A 
ATOM     18  C24 ZIN A   1      19.004   3.717  13.270  0.00  0.00     0.119 A 
ATOM     19  N23 ZIN A   1      18.893   2.918  14.306  0.00  0.00    -0.260 NA
ATOM     20  C22 ZIN A   1      19.041   1.593  14.190  0.00  0.00     0.070 A 
ATOM     21  C16 ZIN A   1      19.323   1.022  12.927  0.00  0.00     0.019 A 
ATOM     22  C21 ZIN A   1      18.920   0.752  15.309  0.00  0.00     0.056 A 
ATOM     23  C17 ZIN A   1      19.476  -0.367  12.810  0.00  0.00     0.018 A 
ATOM     24  C18 ZIN A   1      19.353  -1.153  13.916  0.00  0.00     0.025 A 
ATOM     25  C19 ZIN A   1      19.075  -0.594  15.162  0.00  0.00     0.036 A 
ATOM     26 Cl20 ZIN A   1      18.926  -1.627  16.549  0.00  0.00    -0.084 Cl
ENDBRANCH  14  16
ENDBRANCH   1  14
TORSDOF 10
ENDMDL
