MODEL 1
REMARK VINA RESULT:      -3.8      0.000      0.000
REMARK  4 active torsions:
REMARK  status: ('A' for Active; 'I' for Inactive)
REMARK    1  A    between atoms: C2_2  and  O4_4 
REMARK    2  A    between atoms: O4_4  and  C5_5 
REMARK    3  A    between atoms: C5_5  and  C6_6 
REMARK    4  A    between atoms: C6_6  and  N7_7 
ROOT
ATOM      1  C5  ZIN A   1      18.790  -1.430   7.888  0.00  0.00     0.206 C 
ENDROOT
BRANCH   1   2
ATOM      2  O4  ZIN A   1      19.479  -1.739   6.648  0.00  0.00    -0.320 OA
BRANCH   2   3
ATOM      3  C2  ZIN A   1      19.175  -0.988   5.578  0.00  0.00     0.254 C 
ATOM      4  C1  ZIN A   1      17.855  -0.261   5.518  0.00  0.00     0.126 C 
ATOM      5  O3  ZIN A   1      19.958  -0.893   4.664  0.00  0.00    -0.266 OA
ENDBRANCH   2   3
ENDBRANCH   1   2
BRANCH   1   6
ATOM      6  C6  ZIN A   1      19.712  -0.610   8.792  0.00  0.00     0.262 C 
BRANCH   6   7
ATOM      7  N7  ZIN A   1      19.009   0.600   9.241  0.00  0.00    -0.077 N 
ATOM      8  C8  ZIN A   1      19.419   0.924  10.614  0.00  0.00     0.271 C 
ATOM      9  C9  ZIN A   1      19.344   1.721   8.352  0.00  0.00     0.271 C 
ATOM     10  C10 ZIN A   1      17.559   0.364   9.206  0.00  0.00     0.271 C 
ENDBRANCH   6   7
ENDBRANCH   1   6
TORSDOF 4
ENDMDL
MODEL 2
REMARK VINA RESULT:      -3.7      1.203      2.156
REMARK  4 active torsions:
REMARK  status: ('A' for Active; 'I' for Inactive)
REMARK    1  A    between atoms: C2_2  and  O4_4 
REMARK    2  A    between atoms: O4_4  and  C5_5 
REMARK    3  A    between atoms: C5_5  and  C6_6 
REMARK    4  A    between atoms: C6_6  and  N7_7 
ROOT
ATOM      1  C5  ZIN A   1      17.862   0.276   6.138  0.00  0.00     0.206 C 
ENDROOT
BRANCH   1   2
ATOM      2  O4  ZIN A   1      17.870  -0.896   5.282  0.00  0.00    -0.320 OA
BRANCH   2   3
ATOM      3  C2  ZIN A   1      19.041  -1.534   5.134  0.00  0.00     0.254 C 
ATOM      4  C1  ZIN A   1      19.245  -2.890   5.763  0.00  0.00     0.126 C 
ATOM      5  O3  ZIN A   1      19.932  -1.023   4.498  0.00  0.00    -0.266 OA
ENDBRANCH   2   3
ENDBRANCH   1   2
BRANCH   1   6
ATOM      6  C6  ZIN A   1      17.464  -0.132   7.557  0.00  0.00     0.262 C 
BRANCH   6   7
ATOM      7  N7  ZIN A   1      18.457   0.380   8.511  0.00  0.00    -0.077 N 
ATOM      8  C8  ZIN A   1      19.215   1.475   7.889  0.00  0.00     0.271 C 
ATOM      9  C9  ZIN A   1      17.773   0.879   9.712  0.00  0.00     0.271 C 
ATOM     10  C10 ZIN A   1      19.379  -0.701   8.886  0.00  0.00     0.271 C 
ENDBRANCH   6   7
ENDBRANCH   1   6
TORSDOF 4
ENDMDL
MODEL 3
REMARK VINA RESULT:      -3.7      4.202      5.596
REMARK  4 active torsions:
REMARK  status: ('A' for Active; 'I' for Inactive)
REMARK    1  A    between atoms: C2_2  and  O4_4 
REMARK    2  A    between atoms: O4_4  and  C5_5 
REMARK    3  A    between atoms: C5_5  and  C6_6 
REMARK    4  A    between atoms: C6_6  and  N7_7 
ROOT
ATOM      1  C5  ZIN A   1      18.225   2.783  10.322  0.00  0.00     0.206 C 
ENDROOT
BRANCH   1   2
ATOM      2  O4  ZIN A   1      17.006   3.404  10.806  0.00  0.00    -0.320 OA
BRANCH   2   3
ATOM      3  C2  ZIN A   1      16.993   4.744  10.884  0.00  0.00     0.254 C 
ATOM      4  C1  ZIN A   1      16.558   5.420  12.159  0.00  0.00     0.126 C 
ATOM      5  O3  ZIN A   1      17.332   5.407   9.933  0.00  0.00    -0.266 OA
ENDBRANCH   2   3
ENDBRANCH   1   2
BRANCH   1   6
ATOM      6  C6  ZIN A   1      18.037   1.266  10.263  0.00  0.00     0.262 C 
BRANCH   6   7
ATOM      7  N7  ZIN A   1      18.624   0.747   9.021  0.00  0.00    -0.077 N 
ATOM      8  C8  ZIN A   1      19.155   1.864   8.226  0.00  0.00     0.271 C 
ATOM      9  C9  ZIN A   1      19.714  -0.184   9.345  0.00  0.00     0.271 C 
ATOM     10  C10 ZIN A   1      17.592   0.043   8.248  0.00  0.00     0.271 C 
ENDBRANCH   6   7
ENDBRANCH   1   6
TORSDOF 4
ENDMDL
MODEL 4
REMARK VINA RESULT:      -3.7      1.299      1.978
REMARK  4 active torsions:
REMARK  status: ('A' for Active; 'I' for Inactive)
REMARK    1  A    between atoms: C2_2  and  O4_4 
REMARK    2  A    between atoms: O4_4  and  C5_5 
REMARK    3  A    between atoms: C5_5  and  C6_6 
REMARK    4  A    between atoms: C6_6  and  N7_7 
ROOT
ATOM      1  C5  ZIN A   1      19.000   0.717   6.423  0.00  0.00     0.206 C 
ENDROOT
BRANCH   1   2
ATOM      2  O4  ZIN A   1      18.417   0.388   5.134  0.00  0.00    -0.320 OA
BRANCH   2   3
ATOM      3  C2  ZIN A   1      18.669  -0.836   4.646  0.00  0.00     0.254 C 
ATOM      4  C1  ZIN A   1      17.528  -1.768   4.326  0.00  0.00     0.126 C 
ATOM      5  O3  ZIN A   1      19.809  -1.192   4.464  0.00  0.00    -0.266 OA
ENDBRANCH   2   3
ENDBRANCH   1   2
BRANCH   1   6
ATOM      6  C6  ZIN A   1      18.071   0.235   7.539  0.00  0.00     0.262 C 
BRANCH   6   7
ATOM      7  N7  ZIN A   1      18.630   0.622   8.842  0.00  0.00    -0.077 N 
ATOM      8  C8  ZIN A   1      17.596   0.487   9.878  0.00  0.00     0.271 C 
ATOM      9  C9  ZIN A   1      19.766  -0.251   9.167  0.00  0.00     0.271 C 
ATOM     10  C10 ZIN A   1      19.085   2.017   8.784  0.00  0.00     0.271 C 
ENDBRANCH   6   7
ENDBRANCH   1   6
TORSDOF 4
ENDMDL
MODEL 5
REMARK VINA RESULT:      -3.7      3.159      4.752
REMARK  4 active torsions:
REMARK  status: ('A' for Active; 'I' for Inactive)
REMARK    1  A    between atoms: C2_2  and  O4_4 
REMARK    2  A    between atoms: O4_4  and  C5_5 
REMARK    3  A    between atoms: C5_5  and  C6_6 
REMARK    4  A    between atoms: C6_6  and  N7_7 
ROOT
ATOM      1  C5  ZIN A   1      19.193   2.039   8.696  0.00  0.00     0.206 C 
ENDROOT
BRANCH   1   2
ATOM      2  O4  ZIN A   1      19.119   2.433  10.091  0.00  0.00    -0.320 OA
BRANCH   2   3
ATOM      3  C2  ZIN A   1      17.962   2.964  10.514  0.00  0.00     0.254 C 
ATOM      4  C1  ZIN A   1      17.676   4.427  10.285  0.00  0.00     0.126 C 
ATOM      5  O3  ZIN A   1      17.148   2.271  11.077  0.00  0.00    -0.266 OA
ENDBRANCH   2   3
ENDBRANCH   1   2
BRANCH   1   6
ATOM      6  C6  ZIN A   1      19.531   0.550   8.604  0.00  0.00     0.262 C 
BRANCH   6   7
ATOM      7  N7  ZIN A   1      18.659  -0.090   7.609  0.00  0.00    -0.077 N 
ATOM      8  C8  ZIN A   1      19.145  -1.449   7.333  0.00  0.00     0.271 C 
ATOM      9  C9  ZIN A   1      17.287  -0.158   8.131  0.00  0.00     0.271 C 
ATOM     10  C10 ZIN A   1      18.673   0.697   6.369  0.00  0.00     0.271 C 
ENDBRANCH   6   7
ENDBRANCH   1   6
TORSDOF 4
ENDMDL
MODEL 6
REMARK VINA RESULT:      -3.5      3.207      4.901
REMARK  4 active torsions:
REMARK  status: ('A' for Active; 'I' for Inactive)
REMARK    1  A    between atoms: C2_2  and  O4_4 
REMARK    2  A    between atoms: O4_4  and  C5_5 
REMARK    3  A    between atoms: C5_5  and  C6_6 
REMARK    4  A    between atoms: C6_6  and  N7_7 
ROOT
ATOM      1  C5  ZIN A   1      17.568   1.101  10.281  0.00  0.00     0.206 C 
ENDROOT
BRANCH   1   2
ATOM      2  O4  ZIN A   1      16.584   0.532  11.185  0.00  0.00    -0.320 OA
BRANCH   2   3
ATOM      3  C2  ZIN A   1      17.028  -0.357  12.086  0.00  0.00     0.254 C 
ATOM      4  C1  ZIN A   1      17.653   0.121  13.372  0.00  0.00     0.126 C 
ATOM      5  O3  ZIN A   1      16.925  -1.541  11.868  0.00  0.00    -0.266 OA
ENDBRANCH   2   3
ENDBRANCH   1   2
BRANCH   1   6
ATOM      6  C6  ZIN A   1      17.603   0.287   8.987  0.00  0.00     0.262 C 
BRANCH   6   7
ATOM      7  N7  ZIN A   1      18.972   0.272   8.454  0.00  0.00    -0.077 N 
ATOM      8  C8  ZIN A   1      19.862  -0.404   9.409  0.00  0.00     0.271 C 
ATOM      9  C9  ZIN A   1      18.993  -0.447   7.173  0.00  0.00     0.271 C 
ATOM     10  C10 ZIN A   1      19.432   1.652   8.250  0.00  0.00     0.271 C 
ENDBRANCH   6   7
ENDBRANCH   1   6
TORSDOF 4
ENDMDL
MODEL 7
REMARK VINA RESULT:      -3.5      4.653      5.672
REMARK  4 active torsions:
REMARK  status: ('A' for Active; 'I' for Inactive)
REMARK    1  A    between atoms: C2_2  and  O4_4 
REMARK    2  A    between atoms: O4_4  and  C5_5 
REMARK    3  A    between atoms: C5_5  and  C6_6 
REMARK    4  A    between atoms: C6_6  and  N7_7 
ROOT
ATOM      1  C5  ZIN A   1      17.994   0.340  11.695  0.00  0.00     0.206 C 
ENDROOT
BRANCH   1   2
ATOM      2  O4  ZIN A   1      17.085   1.298  11.092  0.00  0.00    -0.320 OA
BRANCH   2   3
ATOM      3  C2  ZIN A   1      17.586   2.505  10.789  0.00  0.00     0.254 C 
ATOM      4  C1  ZIN A   1      18.860   2.614   9.989  0.00  0.00     0.126 C 
ATOM      5  O3  ZIN A   1      17.017   3.505  11.157  0.00  0.00    -0.266 OA
ENDBRANCH   2   3
ENDBRANCH   1   2
BRANCH   1   6
ATOM      6  C6  ZIN A   1      17.821   0.360  13.215  0.00  0.00     0.262 C 
BRANCH   6   7
ATOM      7  N7  ZIN A   1      19.134   0.218  13.859  0.00  0.00    -0.077 N 
ATOM      8  C8  ZIN A   1      20.194   0.449  12.868  0.00  0.00     0.271 C 
ATOM      9  C9  ZIN A   1      19.256   1.201  14.945  0.00  0.00     0.271 C 
ATOM     10  C10 ZIN A   1      19.265  -1.138  14.409  0.00  0.00     0.271 C 
ENDBRANCH   6   7
ENDBRANCH   1   6
TORSDOF 4
ENDMDL
MODEL 8
REMARK VINA RESULT:      -3.5      3.658      5.229
REMARK  4 active torsions:
REMARK  status: ('A' for Active; 'I' for Inactive)
REMARK    1  A    between atoms: C2_2  and  O4_4 
REMARK    2  A    between atoms: O4_4  and  C5_5 
REMARK    3  A    between atoms: C5_5  and  C6_6 
REMARK    4  A    between atoms: C6_6  and  N7_7 
ROOT
ATOM      1  C5  ZIN A   1      18.259   1.535  10.255  0.00  0.00     0.206 C 
ENDROOT
BRANCH   1   2
ATOM      2  O4  ZIN A   1      17.181   2.313  10.837  0.00  0.00    -0.320 OA
BRANCH   2   3
ATOM      3  C2  ZIN A   1      17.439   3.600  11.114  0.00  0.00     0.254 C 
ATOM      4  C1  ZIN A   1      18.828   4.018  11.526  0.00  0.00     0.126 C 
ATOM      5  O3  ZIN A   1      16.559   4.424  11.033  0.00  0.00    -0.266 OA
ENDBRANCH   2   3
ENDBRANCH   1   2
BRANCH   1   6
ATOM      6  C6  ZIN A   1      17.673   0.381   9.438  0.00  0.00     0.262 C 
BRANCH   6   7
ATOM      7  N7  ZIN A   1      18.438   0.223   8.194  0.00  0.00    -0.077 N 
ATOM      8  C8  ZIN A   1      19.425  -0.853   8.360  0.00  0.00     0.271 C 
ATOM      9  C9  ZIN A   1      17.523  -0.117   7.095  0.00  0.00     0.271 C 
ATOM     10  C10 ZIN A   1      19.131   1.480   7.883  0.00  0.00     0.271 C 
ENDBRANCH   6   7
ENDBRANCH   1   6
TORSDOF 4
ENDMDL
MODEL 9
REMARK VINA RESULT:      -3.4      3.660      5.077
REMARK  4 active torsions:
REMARK  status: ('A' for Active; 'I' for Inactive)
REMARK    1  A    between atoms: C2_2  and  O4_4 
REMARK    2  A    between atoms: O4_4  and  C5_5 
REMARK    3  A    between atoms: C5_5  and  C6_6 
REMARK    4  A    between atoms: C6_6  and  N7_7 
ROOT
ATOM      1  C5  ZIN A   1      17.699   1.493  11.945  0.00  0.00     0.206 C 
ENDROOT
BRANCH   1   2
ATOM      2  O4  ZIN A   1      17.073   2.614  11.268  0.00  0.00    -0.320 OA
BRANCH   2   3
ATOM      3  C2  ZIN A   1      17.846   3.337  10.444  0.00  0.00     0.254 C 
ATOM      4  C1  ZIN A   1      17.535   4.792  10.201  0.00  0.00     0.126 C 
ATOM      5  O3  ZIN A   1      18.792   2.822   9.896  0.00  0.00    -0.266 OA
ENDBRANCH   2   3
ENDBRANCH   1   2
BRANCH   1   6
ATOM      6  C6  ZIN A   1      16.953   0.204  11.593  0.00  0.00     0.262 C 
BRANCH   6   7
ATOM      7  N7  ZIN A   1      17.862  -0.710  10.889  0.00  0.00    -0.077 N 
ATOM      8  C8  ZIN A   1      19.251  -0.400  11.255  0.00  0.00     0.271 C 
ATOM      9  C9  ZIN A   1      17.554  -2.096  11.268  0.00  0.00     0.271 C 
ATOM     10  C10 ZIN A   1      17.690  -0.549   9.439  0.00  0.00     0.271 C 
ENDBRANCH   6   7
ENDBRANCH   1   6
TORSDOF 4
ENDMDL
