MODEL 1
REMARK VINA RESULT:      -9.4      0.000      0.000
REMARK  4 active torsions:
REMARK  status: ('A' for Active; 'I' for Inactive)
REMARK    1  A    between atoms: C7_7  and  C8_8 
REMARK       I    between atoms: C8_8  and  N10_10 
REMARK    2  A    between atoms: N10_10  and  C11_11 
REMARK    3  A    between atoms: C14_14  and  C15_15 
REMARK       I    between atoms: C15_15  and  N17_17 
REMARK    4  A    between atoms: C21_21  and  O23_22 
ROOT
ATOM      1  C11 ZIN A   1      18.851  -0.513  12.631  0.00  0.00     0.035 A 
ATOM      2  C12 ZIN A   1      17.531  -0.609  12.200  0.00  0.00     0.030 A 
ATOM      3  C13 ZIN A   1      17.104  -1.733  11.531  0.00  0.00     0.020 A 
ATOM      4  C14 ZIN A   1      17.997  -2.780  11.286  0.00  0.00     0.038 A 
ATOM      5  C31 ZIN A   1      19.322  -2.681  11.720  0.00  0.00    -0.044 A 
ATOM      6  C32 ZIN A   1      20.288  -3.806  11.458  0.00  0.00     0.049 C 
ATOM      7  C33 ZIN A   1      19.744  -1.551  12.384  0.00  0.00     0.037 A 
ENDROOT
BRANCH   4   8
ATOM      8  C15 ZIN A   1      17.543  -3.987  10.569  0.00  0.00     0.259 C 
ATOM      9  O16 ZIN A   1      17.216  -4.978  11.193  0.00  0.00    -0.267 OA
ATOM     10  N17 ZIN A   1      17.488  -3.990   9.222  0.00  0.00    -0.313 N 
ATOM     11  C30 ZIN A   1      17.940  -2.892   8.479  0.00  0.00     0.046 A 
ATOM     12  C18 ZIN A   1      16.947  -5.144   8.487  0.00  0.00     0.133 C 
ATOM     13  C24 ZIN A   1      19.069  -3.022   7.684  0.00  0.00    -0.001 A 
ATOM     14  C29 ZIN A   1      17.247  -1.694   8.503  0.00  0.00     0.032 A 
ATOM     15  C21 ZIN A   1      19.851  -4.323   7.697  0.00  0.00     0.153 C 
ATOM     16  C25 ZIN A   1      19.484  -1.976   6.887  0.00  0.00     0.035 A 
ATOM     17  C20 ZIN A   1      19.014  -5.417   7.040  0.00  0.00     0.038 C 
ATOM     18  C19 ZIN A   1      18.063  -6.058   8.042  0.00  0.00     0.023 C 
ATOM     19  C26 ZIN A   1      18.779  -0.782   6.901  0.00  0.00     0.034 A 
ATOM     20 Cl27 ZIN A   1      19.293   0.538   5.897  0.00  0.00    -0.084 Cl
ATOM     21  C28 ZIN A   1      17.668  -0.642   7.712  0.00  0.00     0.026 A 
BRANCH  15  22
ATOM     22  O23 ZIN A   1      21.071  -4.157   6.972  0.00  0.00    -0.391 OA
ATOM     23  H50 ZIN A   1      21.006  -3.540   6.230  0.00  0.00     0.210 HD
ENDBRANCH  15  22
ENDBRANCH   4   8
BRANCH   1  24
ATOM     24  N10 ZIN A   1      19.280   0.627  13.307  0.00  0.00    -0.323 N 
ATOM     25  C8  ZIN A   1      18.508   1.173  14.268  0.00  0.00     0.256 C 
ATOM     26  O9  ZIN A   1      17.481   0.619  14.609  0.00  0.00    -0.267 OA
ATOM     27  H41 ZIN A   1      20.135   1.029  13.087  0.00  0.00     0.169 HD
BRANCH  25  28
ATOM     28  C7  ZIN A   1      18.908   2.445  14.906  0.00  0.00     0.038 A 
ATOM     29  C2  ZIN A   1      18.798   3.646  14.204  0.00  0.00    -0.046 A 
ATOM     30  C1  ZIN A   1      18.266   3.651  12.794  0.00  0.00     0.049 C 
ATOM     31  C3  ZIN A   1      19.173   4.829  14.805  0.00  0.00     0.007 A 
ATOM     32  C4  ZIN A   1      19.663   4.827  16.099  0.00  0.00     0.001 A 
ATOM     33  C5  ZIN A   1      19.779   3.638  16.799  0.00  0.00     0.001 A 
ATOM     34  C6  ZIN A   1      19.408   2.448  16.208  0.00  0.00     0.017 A 
ENDBRANCH  25  28
ENDBRANCH   1  24
TORSDOF 4
ENDMDL
MODEL 2
REMARK VINA RESULT:      -9.2      2.985      8.777
REMARK  4 active torsions:
REMARK  status: ('A' for Active; 'I' for Inactive)
REMARK    1  A    between atoms: C7_7  and  C8_8 
REMARK       I    between atoms: C8_8  and  N10_10 
REMARK    2  A    between atoms: N10_10  and  C11_11 
REMARK    3  A    between atoms: C14_14  and  C15_15 
REMARK       I    between atoms: C15_15  and  N17_17 
REMARK    4  A    between atoms: C21_21  and  O23_22 
ROOT
ATOM      1  C11 ZIN A   1      17.377  -5.920   9.519  0.00  0.00     0.035 A 
ATOM      2  C12 ZIN A   1      18.709  -5.853   9.121  0.00  0.00     0.030 A 
ATOM      3  C13 ZIN A   1      19.539  -4.891   9.649  0.00  0.00     0.020 A 
ATOM      4  C14 ZIN A   1      19.044  -3.980  10.586  0.00  0.00     0.038 A 
ATOM      5  C31 ZIN A   1      17.706  -4.049  10.984  0.00  0.00    -0.044 A 
ATOM      6  C32 ZIN A   1      17.167  -3.069  11.993  0.00  0.00     0.049 C 
ATOM      7  C33 ZIN A   1      16.879  -5.011  10.448  0.00  0.00     0.037 A 
ENDROOT
BRANCH   4   8
ATOM      8  C15 ZIN A   1      19.931  -2.947  11.153  0.00  0.00     0.259 C 
ATOM      9  O16 ZIN A   1      20.617  -3.201  12.125  0.00  0.00    -0.267 OA
ATOM     10  N17 ZIN A   1      19.983  -1.721  10.594  0.00  0.00    -0.313 N 
ATOM     11  C30 ZIN A   1      19.141  -1.378   9.528  0.00  0.00     0.046 A 
ATOM     12  C18 ZIN A   1      20.930  -0.705  11.078  0.00  0.00     0.133 C 
ATOM     13  C24 ZIN A   1      18.150  -0.425   9.719  0.00  0.00    -0.001 A 
ATOM     14  C29 ZIN A   1      19.314  -1.954   8.282  0.00  0.00     0.032 A 
ATOM     15  C21 ZIN A   1      17.935   0.168  11.099  0.00  0.00     0.153 C 
ATOM     16  C25 ZIN A   1      17.362  -0.020   8.662  0.00  0.00     0.035 A 
ATOM     17  C20 ZIN A   1      19.131   1.044  11.459  0.00  0.00     0.038 C 
ATOM     18  C19 ZIN A   1      20.256   0.216  12.066  0.00  0.00     0.023 C 
ATOM     19  C26 ZIN A   1      17.548  -0.586   7.411  0.00  0.00     0.034 A 
ATOM     20 Cl27 ZIN A   1      16.563  -0.078   6.076  0.00  0.00    -0.084 Cl
ATOM     21  C28 ZIN A   1      18.518  -1.555   7.225  0.00  0.00     0.026 A 
BRANCH  15  22
ATOM     22  O23 ZIN A   1      16.746   0.961  11.100  0.00  0.00    -0.391 OA
ATOM     23  H50 ZIN A   1      16.391   1.134  11.983  0.00  0.00     0.210 HD
ENDBRANCH  15  22
ENDBRANCH   4   8
BRANCH   1  24
ATOM     24  N10 ZIN A   1      16.539  -6.895   8.982  0.00  0.00    -0.323 N 
ATOM     25  C8  ZIN A   1      15.923  -6.681   7.803  0.00  0.00     0.256 C 
ATOM     26  O9  ZIN A   1      16.169  -5.677   7.162  0.00  0.00    -0.267 OA
ATOM     27  H41 ZIN A   1      16.399  -7.729   9.457  0.00  0.00     0.169 HD
BRANCH  25  28
ATOM     28  C7  ZIN A   1      14.947  -7.664   7.288  0.00  0.00     0.038 A 
ATOM     29  C2  ZIN A   1      13.578  -7.433   7.431  0.00  0.00    -0.046 A 
ATOM     30  C1  ZIN A   1      13.090  -6.178   8.106  0.00  0.00     0.049 C 
ATOM     31  C3  ZIN A   1      12.673  -8.355   6.948  0.00  0.00     0.007 A 
ATOM     32  C4  ZIN A   1      13.119  -9.509   6.329  0.00  0.00     0.001 A 
ATOM     33  C5  ZIN A   1      14.475  -9.747   6.189  0.00  0.00     0.001 A 
ATOM     34  C6  ZIN A   1      15.391  -8.833   6.668  0.00  0.00     0.017 A 
ENDBRANCH  25  28
ENDBRANCH   1  24
TORSDOF 4
ENDMDL
MODEL 3
REMARK VINA RESULT:      -9.1      2.246      8.171
REMARK  4 active torsions:
REMARK  status: ('A' for Active; 'I' for Inactive)
REMARK    1  A    between atoms: C7_7  and  C8_8 
REMARK       I    between atoms: C8_8  and  N10_10 
REMARK    2  A    between atoms: N10_10  and  C11_11 
REMARK    3  A    between atoms: C14_14  and  C15_15 
REMARK       I    between atoms: C15_15  and  N17_17 
REMARK    4  A    between atoms: C21_21  and  O23_22 
ROOT
ATOM      1  C11 ZIN A   1      17.541  -2.255  12.093  0.00  0.00     0.035 A 
ATOM      2  C12 ZIN A   1      16.792  -1.118  11.806  0.00  0.00     0.030 A 
ATOM      3  C13 ZIN A   1      17.071   0.070  12.441  0.00  0.00     0.020 A 
ATOM      4  C14 ZIN A   1      18.108   0.135  13.375  0.00  0.00     0.038 A 
ATOM      5  C31 ZIN A   1      18.859  -1.008  13.662  0.00  0.00    -0.044 A 
ATOM      6  C32 ZIN A   1      19.978  -0.943  14.668  0.00  0.00     0.049 C 
ATOM      7  C33 ZIN A   1      18.572  -2.195  13.026  0.00  0.00     0.037 A 
ENDROOT
BRANCH   4   8
ATOM      8  C15 ZIN A   1      18.409   1.408  14.058  0.00  0.00     0.259 C 
ATOM      9  O16 ZIN A   1      18.281   1.496  15.264  0.00  0.00    -0.267 OA
ATOM     10  N17 ZIN A   1      18.828   2.473  13.346  0.00  0.00    -0.313 N 
ATOM     11  C30 ZIN A   1      18.900   2.423  11.948  0.00  0.00     0.046 A 
ATOM     12  C18 ZIN A   1      19.227   3.722  14.012  0.00  0.00     0.133 C 
ATOM     13  C24 ZIN A   1      18.038   3.202  11.190  0.00  0.00    -0.001 A 
ATOM     14  C29 ZIN A   1      19.848   1.633  11.322  0.00  0.00     0.032 A 
ATOM     15  C21 ZIN A   1      16.971   4.030  11.880  0.00  0.00     0.153 C 
ATOM     16  C25 ZIN A   1      18.147   3.223   9.815  0.00  0.00     0.035 A 
ATOM     17  C20 ZIN A   1      17.639   5.162  12.655  0.00  0.00     0.038 C 
ATOM     18  C19 ZIN A   1      18.076   4.699  14.037  0.00  0.00     0.023 C 
ATOM     19  C26 ZIN A   1      19.107   2.443   9.191  0.00  0.00     0.034 A 
ATOM     20 Cl27 ZIN A   1      19.252   2.468   7.461  0.00  0.00    -0.084 Cl
ATOM     21  C28 ZIN A   1      19.951   1.646   9.944  0.00  0.00     0.026 A 
BRANCH  15  22
ATOM     22  O23 ZIN A   1      16.083   4.579  10.904  0.00  0.00    -0.391 OA
ATOM     23  H50 ZIN A   1      16.428   4.552  10.001  0.00  0.00     0.210 HD
ENDBRANCH  15  22
ENDBRANCH   4   8
BRANCH   1  24
ATOM     24  N10 ZIN A   1      17.255  -3.457  11.448  0.00  0.00    -0.323 N 
ATOM     25  C8  ZIN A   1      17.689  -3.667  10.190  0.00  0.00     0.256 C 
ATOM     26  O9  ZIN A   1      18.407  -2.848   9.650  0.00  0.00    -0.267 OA
ATOM     27  H41 ZIN A   1      16.744  -4.143  11.906  0.00  0.00     0.169 HD
BRANCH  25  28
ATOM     28  C7  ZIN A   1      17.291  -4.892   9.465  0.00  0.00     0.038 A 
ATOM     29  C2  ZIN A   1      18.259  -5.808   9.052  0.00  0.00    -0.046 A 
ATOM     30  C1  ZIN A   1      19.714  -5.555   9.349  0.00  0.00     0.049 C 
ATOM     31  C3  ZIN A   1      17.880  -6.949   8.377  0.00  0.00     0.007 A 
ATOM     32  C4  ZIN A   1      16.544  -7.184   8.102  0.00  0.00     0.001 A 
ATOM     33  C5  ZIN A   1      15.580  -6.276   8.504  0.00  0.00     0.001 A 
ATOM     34  C6  ZIN A   1      15.946  -5.131   9.180  0.00  0.00     0.017 A 
ENDBRANCH  25  28
ENDBRANCH   1  24
TORSDOF 4
ENDMDL
MODEL 4
REMARK VINA RESULT:      -9.0      3.280      9.329
REMARK  4 active torsions:
REMARK  status: ('A' for Active; 'I' for Inactive)
REMARK    1  A    between atoms: C7_7  and  C8_8 
REMARK       I    between atoms: C8_8  and  N10_10 
REMARK    2  A    between atoms: N10_10  and  C11_11 
REMARK    3  A    between atoms: C14_14  and  C15_15 
REMARK       I    between atoms: C15_15  and  N17_17 
REMARK    4  A    between atoms: C21_21  and  O23_22 
ROOT
ATOM      1  C11 ZIN A   1      16.897  -6.301   7.967  0.00  0.00     0.035 A 
ATOM      2  C12 ZIN A   1      16.233  -5.474   8.868  0.00  0.00     0.030 A 
ATOM      3  C13 ZIN A   1      16.947  -4.745   9.790  0.00  0.00     0.020 A 
ATOM      4  C14 ZIN A   1      18.341  -4.835   9.822  0.00  0.00     0.038 A 
ATOM      5  C31 ZIN A   1      19.006  -5.666   8.917  0.00  0.00    -0.044 A 
ATOM      6  C32 ZIN A   1      20.509  -5.767   8.948  0.00  0.00     0.049 C 
ATOM      7  C33 ZIN A   1      18.285  -6.397   8.000  0.00  0.00     0.037 A 
ENDROOT
BRANCH   4   8
ATOM      8  C15 ZIN A   1      19.110  -4.054  10.811  0.00  0.00     0.259 C 
ATOM      9  O16 ZIN A   1      19.549  -4.598  11.807  0.00  0.00    -0.267 OA
ATOM     10  N17 ZIN A   1      19.326  -2.739  10.611  0.00  0.00    -0.313 N 
ATOM     11  C30 ZIN A   1      18.758  -2.073   9.518  0.00  0.00     0.046 A 
ATOM     12  C18 ZIN A   1      20.170  -1.960  11.530  0.00  0.00     0.133 C 
ATOM     13  C24 ZIN A   1      17.782  -1.111   9.735  0.00  0.00    -0.001 A 
ATOM     14  C29 ZIN A   1      19.191  -2.339   8.231  0.00  0.00     0.032 A 
ATOM     15  C21 ZIN A   1      17.278  -0.857  11.143  0.00  0.00     0.153 C 
ATOM     16  C25 ZIN A   1      17.266  -0.392   8.677  0.00  0.00     0.035 A 
ATOM     17  C20 ZIN A   1      18.388  -0.205  11.962  0.00  0.00     0.038 C 
ATOM     18  C19 ZIN A   1      19.319  -1.253  12.558  0.00  0.00     0.023 C 
ATOM     19  C26 ZIN A   1      17.713  -0.649   7.391  0.00  0.00     0.034 A 
ATOM     20 Cl27 ZIN A   1      17.073   0.256   6.055  0.00  0.00    -0.084 Cl
ATOM     21  C28 ZIN A   1      18.669  -1.624   7.169  0.00  0.00     0.026 A 
BRANCH  15  22
ATOM     22  O23 ZIN A   1      16.146   0.013  11.098  0.00  0.00    -0.391 OA
ATOM     23  H50 ZIN A   1      15.529  -0.106  11.834  0.00  0.00     0.210 HD
ENDBRANCH  15  22
ENDBRANCH   4   8
BRANCH   1  24
ATOM     24  N10 ZIN A   1      16.171  -7.039   7.035  0.00  0.00    -0.323 N 
ATOM     25  C8  ZIN A   1      15.934  -6.531   5.809  0.00  0.00     0.256 C 
ATOM     26  O9  ZIN A   1      16.431  -5.470   5.485  0.00  0.00    -0.267 OA
ATOM     27  H41 ZIN A   1      15.836  -7.919   7.267  0.00  0.00     0.169 HD
BRANCH  25  28
ATOM     28  C7  ZIN A   1      15.068  -7.261   4.860  0.00  0.00     0.038 A 
ATOM     29  C2  ZIN A   1      13.690  -7.317   5.068  0.00  0.00    -0.046 A 
ATOM     30  C1  ZIN A   1      13.077  -6.628   6.259  0.00  0.00     0.049 C 
ATOM     31  C3  ZIN A   1      12.888  -8.000   4.178  0.00  0.00     0.007 A 
ATOM     32  C4  ZIN A   1      13.448  -8.635   3.083  0.00  0.00     0.001 A 
ATOM     33  C5  ZIN A   1      14.816  -8.588   2.874  0.00  0.00     0.001 A 
ATOM     34  C6  ZIN A   1      15.628  -7.908   3.757  0.00  0.00     0.017 A 
ENDBRANCH  25  28
ENDBRANCH   1  24
TORSDOF 4
ENDMDL
MODEL 5
REMARK VINA RESULT:      -9.0      2.662      4.106
REMARK  4 active torsions:
REMARK  status: ('A' for Active; 'I' for Inactive)
REMARK    1  A    between atoms: C7_7  and  C8_8 
REMARK       I    between atoms: C8_8  and  N10_10 
REMARK    2  A    between atoms: N10_10  and  C11_11 
REMARK    3  A    between atoms: C14_14  and  C15_15 
REMARK       I    between atoms: C15_15  and  N17_17 
REMARK    4  A    between atoms: C21_21  and  O23_22 
ROOT
ATOM      1  C11 ZIN A   1      18.259   0.685  10.339  0.00  0.00     0.035 A 
ATOM      2  C12 ZIN A   1      19.464   0.000  10.460  0.00  0.00     0.030 A 
ATOM      3  C13 ZIN A   1      19.847  -0.899   9.492  0.00  0.00     0.020 A 
ATOM      4  C14 ZIN A   1      19.023  -1.124   8.385  0.00  0.00     0.038 A 
ATOM      5  C31 ZIN A   1      17.813  -0.435   8.266  0.00  0.00    -0.044 A 
ATOM      6  C32 ZIN A   1      16.922  -0.675   7.075  0.00  0.00     0.049 C 
ATOM      7  C33 ZIN A   1      17.435   0.459   9.241  0.00  0.00     0.037 A 
ENDROOT
BRANCH   4   8
ATOM      8  C15 ZIN A   1      19.430  -2.089   7.345  0.00  0.00     0.259 C 
ATOM      9  O16 ZIN A   1      19.803  -1.690   6.258  0.00  0.00    -0.267 OA
ATOM     10  N17 ZIN A   1      19.390  -3.412   7.599  0.00  0.00    -0.313 N 
ATOM     11  C30 ZIN A   1      18.884  -3.898   8.811  0.00  0.00     0.046 A 
ATOM     12  C18 ZIN A   1      19.882  -4.389   6.616  0.00  0.00     0.133 C 
ATOM     13  C24 ZIN A   1      17.701  -4.624   8.816  0.00  0.00    -0.001 A 
ATOM     14  C29 ZIN A   1      19.572  -3.692   9.994  0.00  0.00     0.032 A 
ATOM     15  C21 ZIN A   1      16.926  -4.807   7.524  0.00  0.00     0.153 C 
ATOM     16  C25 ZIN A   1      17.228  -5.176   9.989  0.00  0.00     0.035 A 
ATOM     17  C20 ZIN A   1      17.719  -5.717   6.590  0.00  0.00     0.038 C 
ATOM     18  C19 ZIN A   1      18.740  -4.923   5.785  0.00  0.00     0.023 C 
ATOM     19  C26 ZIN A   1      17.928  -4.982  11.169  0.00  0.00     0.034 A 
ATOM     20 Cl27 ZIN A   1      17.341  -5.676  12.648  0.00  0.00    -0.084 Cl
ATOM     21  C28 ZIN A   1      19.094  -4.237  11.170  0.00  0.00     0.026 A 
BRANCH  15  22
ATOM     22  O23 ZIN A   1      15.658  -5.401   7.805  0.00  0.00    -0.391 OA
ATOM     23  H50 ZIN A   1      15.716  -6.283   8.199  0.00  0.00     0.210 HD
ENDBRANCH  15  22
ENDBRANCH   4   8
BRANCH   1  24
ATOM     24  N10 ZIN A   1      17.875   1.595  11.322  0.00  0.00    -0.323 N 
ATOM     25  C8  ZIN A   1      18.440   2.818  11.368  0.00  0.00     0.256 C 
ATOM     26  O9  ZIN A   1      19.216   3.161  10.497  0.00  0.00    -0.267 OA
ATOM     27  H41 ZIN A   1      17.200   1.349  11.974  0.00  0.00     0.169 HD
BRANCH  25  28
ATOM     28  C7  ZIN A   1      18.117   3.741  12.476  0.00  0.00     0.038 A 
ATOM     29  C2  ZIN A   1      17.230   4.798  12.272  0.00  0.00    -0.046 A 
ATOM     30  C1  ZIN A   1      16.593   5.000  10.921  0.00  0.00     0.049 C 
ATOM     31  C3  ZIN A   1      16.933   5.656  13.310  0.00  0.00     0.007 A 
ATOM     32  C4  ZIN A   1      17.518   5.473  14.551  0.00  0.00     0.001 A 
ATOM     33  C5  ZIN A   1      18.403   4.430  14.759  0.00  0.00     0.001 A 
ATOM     34  C6  ZIN A   1      18.708   3.565  13.728  0.00  0.00     0.017 A 
ENDBRANCH  25  28
ENDBRANCH   1  24
TORSDOF 4
ENDMDL
MODEL 6
REMARK VINA RESULT:      -8.6      3.058      9.184
REMARK  4 active torsions:
REMARK  status: ('A' for Active; 'I' for Inactive)
REMARK    1  A    between atoms: C7_7  and  C8_8 
REMARK       I    between atoms: C8_8  and  N10_10 
REMARK    2  A    between atoms: N10_10  and  C11_11 
REMARK    3  A    between atoms: C14_14  and  C15_15 
REMARK       I    between atoms: C15_15  and  N17_17 
REMARK    4  A    between atoms: C21_21  and  O23_22 
ROOT
ATOM      1  C11 ZIN A   1      18.953  -0.040  11.065  0.00  0.00     0.035 A 
ATOM      2  C12 ZIN A   1      17.641   0.058  11.517  0.00  0.00     0.030 A 
ATOM      3  C13 ZIN A   1      17.186   1.236  12.064  0.00  0.00     0.020 A 
ATOM      4  C14 ZIN A   1      18.044   2.335  12.164  0.00  0.00     0.038 A 
ATOM      5  C31 ZIN A   1      19.361   2.234  11.709  0.00  0.00    -0.044 A 
ATOM      6  C32 ZIN A   1      20.289   3.416  11.816  0.00  0.00     0.049 C 
ATOM      7  C33 ZIN A   1      19.811   1.051  11.168  0.00  0.00     0.037 A 
ENDROOT
BRANCH   4   8
ATOM      8  C15 ZIN A   1      17.559   3.600  12.751  0.00  0.00     0.259 C 
ATOM      9  O16 ZIN A   1      17.202   4.508  12.027  0.00  0.00    -0.267 OA
ATOM     10  N17 ZIN A   1      17.512   3.747  14.090  0.00  0.00    -0.313 N 
ATOM     11  C30 ZIN A   1      17.998   2.748  14.944  0.00  0.00     0.046 A 
ATOM     12  C18 ZIN A   1      16.943   4.958  14.701  0.00  0.00     0.133 C 
ATOM     13  C24 ZIN A   1      19.128   2.995  15.710  0.00  0.00    -0.001 A 
ATOM     14  C29 ZIN A   1      17.339   1.537  15.054  0.00  0.00     0.032 A 
ATOM     15  C21 ZIN A   1      19.873   4.307  15.550  0.00  0.00     0.153 C 
ATOM     16  C25 ZIN A   1      19.576   2.052  16.612  0.00  0.00     0.035 A 
ATOM     17  C20 ZIN A   1      19.009   5.442  16.092  0.00  0.00     0.038 C 
ATOM     18  C19 ZIN A   1      18.035   5.945  15.035  0.00  0.00     0.023 C 
ATOM     19  C26 ZIN A   1      18.905   0.846  16.733  0.00  0.00     0.034 A 
ATOM     20 Cl27 ZIN A   1      19.461  -0.344  17.868  0.00  0.00    -0.084 Cl
ATOM     21  C28 ZIN A   1      17.794   0.588  15.951  0.00  0.00     0.026 A 
BRANCH  15  22
ATOM     22  O23 ZIN A   1      21.101   4.254  16.278  0.00  0.00    -0.391 OA
ATOM     23  H50 ZIN A   1      21.888   4.204  15.718  0.00  0.00     0.210 HD
ENDBRANCH  15  22
ENDBRANCH   4   8
BRANCH   1  24
ATOM     24  N10 ZIN A   1      19.410  -1.234  10.512  0.00  0.00    -0.323 N 
ATOM     25  C8  ZIN A   1      18.684  -1.861   9.564  0.00  0.00     0.256 C 
ATOM     26  O9  ZIN A   1      17.678  -1.338   9.125  0.00  0.00    -0.267 OA
ATOM     27  H41 ZIN A   1      20.251  -1.616  10.808  0.00  0.00     0.169 HD
BRANCH  25  28
ATOM     28  C7  ZIN A   1      19.110  -3.183   9.060  0.00  0.00     0.038 A 
ATOM     29  C2  ZIN A   1      19.194  -4.271   9.929  0.00  0.00    -0.046 A 
ATOM     30  C1  ZIN A   1      18.845  -4.104  11.385  0.00  0.00     0.049 C 
ATOM     31  C3  ZIN A   1      19.591  -5.503   9.452  0.00  0.00     0.007 A 
ATOM     32  C4  ZIN A   1      19.913  -5.659   8.115  0.00  0.00     0.001 A 
ATOM     33  C5  ZIN A   1      19.838  -4.582   7.248  0.00  0.00     0.001 A 
ATOM     34  C6  ZIN A   1      19.441  -3.346   7.714  0.00  0.00     0.017 A 
ENDBRANCH  25  28
ENDBRANCH   1  24
TORSDOF 4
ENDMDL
MODEL 7
REMARK VINA RESULT:      -8.6      2.371      8.306
REMARK  4 active torsions:
REMARK  status: ('A' for Active; 'I' for Inactive)
REMARK    1  A    between atoms: C7_7  and  C8_8 
REMARK       I    between atoms: C8_8  and  N10_10 
REMARK    2  A    between atoms: N10_10  and  C11_11 
REMARK    3  A    between atoms: C14_14  and  C15_15 
REMARK       I    between atoms: C15_15  and  N17_17 
REMARK    4  A    between atoms: C21_21  and  O23_22 
ROOT
ATOM      1  C11 ZIN A   1      17.659  -4.243  10.713  0.00  0.00     0.035 A 
ATOM      2  C12 ZIN A   1      19.047  -4.297  10.792  0.00  0.00     0.030 A 
ATOM      3  C13 ZIN A   1      19.747  -3.252  11.348  0.00  0.00     0.020 A 
ATOM      4  C14 ZIN A   1      19.063  -2.134  11.835  0.00  0.00     0.038 A 
ATOM      5  C31 ZIN A   1      17.669  -2.082  11.755  0.00  0.00    -0.044 A 
ATOM      6  C32 ZIN A   1      16.927  -0.880  12.277  0.00  0.00     0.049 C 
ATOM      7  C33 ZIN A   1      16.975  -3.129  11.192  0.00  0.00     0.037 A 
ENDROOT
BRANCH   4   8
ATOM      8  C15 ZIN A   1      19.812  -1.011  12.432  0.00  0.00     0.259 C 
ATOM      9  O16 ZIN A   1      20.180  -1.073  13.590  0.00  0.00    -0.267 OA
ATOM     10  N17 ZIN A   1      20.090   0.082  11.694  0.00  0.00    -0.313 N 
ATOM     11  C30 ZIN A   1      19.603   0.212  10.387  0.00  0.00     0.046 A 
ATOM     12  C18 ZIN A   1      20.917   1.172  12.233  0.00  0.00     0.133 C 
ATOM     13  C24 ZIN A   1      18.656   1.185  10.103  0.00  0.00    -0.001 A 
ATOM     14  C29 ZIN A   1      20.089  -0.595   9.373  0.00  0.00     0.032 A 
ATOM     15  C21 ZIN A   1      18.093   2.036  11.227  0.00  0.00     0.153 C 
ATOM     16  C25 ZIN A   1      18.222   1.379   8.808  0.00  0.00     0.035 A 
ATOM     17  C20 ZIN A   1      19.187   2.964  11.748  0.00  0.00     0.038 C 
ATOM     18  C19 ZIN A   1      20.045   2.268  12.796  0.00  0.00     0.023 C 
ATOM     19  C26 ZIN A   1      18.722   0.580   7.792  0.00  0.00     0.034 A 
ATOM     20 Cl27 ZIN A   1      18.184   0.820   6.159  0.00  0.00    -0.084 Cl
ATOM     21  C28 ZIN A   1      19.648  -0.408   8.076  0.00  0.00     0.026 A 
BRANCH  15  22
ATOM     22  O23 ZIN A   1      17.000   2.814  10.739  0.00  0.00    -0.391 OA
ATOM     23  H50 ZIN A   1      17.024   3.741  11.013  0.00  0.00     0.210 HD
ENDBRANCH  15  22
ENDBRANCH   4   8
BRANCH   1  24
ATOM     24  N10 ZIN A   1      16.953  -5.303  10.148  0.00  0.00    -0.323 N 
ATOM     25  C8  ZIN A   1      16.614  -5.269   8.844  0.00  0.00     0.256 C 
ATOM     26  O9  ZIN A   1      17.003  -4.359   8.139  0.00  0.00    -0.267 OA
ATOM     27  H41 ZIN A   1      16.705  -6.066  10.693  0.00  0.00     0.169 HD
BRANCH  25  28
ATOM     28  C7  ZIN A   1      15.768  -6.338   8.272  0.00  0.00     0.038 A 
ATOM     29  C2  ZIN A   1      16.355  -7.484   7.734  0.00  0.00    -0.046 A 
ATOM     30  C1  ZIN A   1      17.853  -7.639   7.740  0.00  0.00     0.049 C 
ATOM     31  C3  ZIN A   1      15.559  -8.477   7.202  0.00  0.00     0.007 A 
ATOM     32  C4  ZIN A   1      14.182  -8.337   7.195  0.00  0.00     0.001 A 
ATOM     33  C5  ZIN A   1      13.595  -7.200   7.721  0.00  0.00     0.001 A 
ATOM     34  C6  ZIN A   1      14.379  -6.199   8.257  0.00  0.00     0.017 A 
ENDBRANCH  25  28
ENDBRANCH   1  24
TORSDOF 4
ENDMDL
MODEL 8
REMARK VINA RESULT:      -8.5      2.478      8.869
REMARK  4 active torsions:
REMARK  status: ('A' for Active; 'I' for Inactive)
REMARK    1  A    between atoms: C7_7  and  C8_8 
REMARK       I    between atoms: C8_8  and  N10_10 
REMARK    2  A    between atoms: N10_10  and  C11_11 
REMARK    3  A    between atoms: C14_14  and  C15_15 
REMARK       I    between atoms: C15_15  and  N17_17 
REMARK    4  A    between atoms: C21_21  and  O23_22 
ROOT
ATOM      1  C11 ZIN A   1      18.491  -0.902  12.641  0.00  0.00     0.035 A 
ATOM      2  C12 ZIN A   1      19.656  -0.156  12.489  0.00  0.00     0.030 A 
ATOM      3  C13 ZIN A   1      19.962   0.835  13.393  0.00  0.00     0.020 A 
ATOM      4  C14 ZIN A   1      19.102   1.092  14.464  0.00  0.00     0.038 A 
ATOM      5  C31 ZIN A   1      17.932   0.341  14.614  0.00  0.00    -0.044 A 
ATOM      6  C32 ZIN A   1      17.002   0.615  15.766  0.00  0.00     0.049 C 
ATOM      7  C33 ZIN A   1      17.630  -0.646  13.703  0.00  0.00     0.037 A 
ENDROOT
BRANCH   4   8
ATOM      8  C15 ZIN A   1      19.427   2.155  15.435  0.00  0.00     0.259 C 
ATOM      9  O16 ZIN A   1      19.777   1.863  16.562  0.00  0.00    -0.267 OA
ATOM     10  N17 ZIN A   1      19.337   3.450  15.072  0.00  0.00    -0.313 N 
ATOM     11  C30 ZIN A   1      18.855   3.813  13.808  0.00  0.00     0.046 A 
ATOM     12  C18 ZIN A   1      19.749   4.525  15.987  0.00  0.00     0.133 C 
ATOM     13  C24 ZIN A   1      17.642   4.480  13.704  0.00  0.00    -0.001 A 
ATOM     14  C29 ZIN A   1      19.595   3.546  12.670  0.00  0.00     0.032 A 
ATOM     15  C21 ZIN A   1      16.813   4.729  14.951  0.00  0.00     0.153 C 
ATOM     16  C25 ZIN A   1      17.189   4.913  12.476  0.00  0.00     0.035 A 
ATOM     17  C20 ZIN A   1      17.529   5.747  15.833  0.00  0.00     0.038 C 
ATOM     18  C19 ZIN A   1      18.554   5.070  16.733  0.00  0.00     0.023 C 
ATOM     19  C26 ZIN A   1      17.940   4.658  11.339  0.00  0.00     0.034 A 
ATOM     20 Cl27 ZIN A   1      17.377   5.203   9.790  0.00  0.00    -0.084 Cl
ATOM     21  C28 ZIN A   1      19.136   3.971  11.437  0.00  0.00     0.026 A 
BRANCH  15  22
ATOM     22  O23 ZIN A   1      15.531   5.238  14.580  0.00  0.00    -0.391 OA
ATOM     23  H50 ZIN A   1      15.067   4.696  13.927  0.00  0.00     0.210 HD
ENDBRANCH  15  22
ENDBRANCH   4   8
BRANCH   1  24
ATOM     24  N10 ZIN A   1      18.184  -1.905  11.723  0.00  0.00    -0.323 N 
ATOM     25  C8  ZIN A   1      18.979  -2.988  11.616  0.00  0.00     0.256 C 
ATOM     26  O9  ZIN A   1      19.912  -3.135  12.381  0.00  0.00    -0.267 OA
ATOM     27  H41 ZIN A   1      17.397  -1.825  11.162  0.00  0.00     0.169 HD
BRANCH  25  28
ATOM     28  C7  ZIN A   1      18.719  -3.996  10.566  0.00  0.00     0.038 A 
ATOM     29  C2  ZIN A   1      17.950  -5.124  10.853  0.00  0.00    -0.046 A 
ATOM     30  C1  ZIN A   1      17.377  -5.316  12.233  0.00  0.00     0.049 C 
ATOM     31  C3  ZIN A   1      17.711  -6.060   9.869  0.00  0.00     0.007 A 
ATOM     32  C4  ZIN A   1      18.237  -5.886   8.601  0.00  0.00     0.001 A 
ATOM     33  C5  ZIN A   1      19.006  -4.772   8.312  0.00  0.00     0.001 A 
ATOM     34  C6  ZIN A   1      19.252  -3.828   9.287  0.00  0.00     0.017 A 
ENDBRANCH  25  28
ENDBRANCH   1  24
TORSDOF 4
ENDMDL
MODEL 9
REMARK VINA RESULT:      -8.5      3.876      6.192
REMARK  4 active torsions:
REMARK  status: ('A' for Active; 'I' for Inactive)
REMARK    1  A    between atoms: C7_7  and  C8_8 
REMARK       I    between atoms: C8_8  and  N10_10 
REMARK    2  A    between atoms: N10_10  and  C11_11 
REMARK    3  A    between atoms: C14_14  and  C15_15 
REMARK       I    between atoms: C15_15  and  N17_17 
REMARK    4  A    between atoms: C21_21  and  O23_22 
ROOT
ATOM      1  C11 ZIN A   1      17.436   4.811  12.161  0.00  0.00     0.035 A 
ATOM      2  C12 ZIN A   1      16.740   3.845  11.440  0.00  0.00     0.030 A 
ATOM      3  C13 ZIN A   1      17.423   2.832  10.807  0.00  0.00     0.020 A 
ATOM      4  C14 ZIN A   1      18.817   2.772  10.890  0.00  0.00     0.038 A 
ATOM      5  C31 ZIN A   1      19.513   3.743  11.615  0.00  0.00    -0.044 A 
ATOM      6  C32 ZIN A   1      21.016   3.683  11.707  0.00  0.00     0.049 C 
ATOM      7  C33 ZIN A   1      18.825   4.757  12.242  0.00  0.00     0.037 A 
ENDROOT
BRANCH   4   8
ATOM      8  C15 ZIN A   1      19.552   1.687  10.212  0.00  0.00     0.259 C 
ATOM      9  O16 ZIN A   1      19.905   1.822   9.056  0.00  0.00    -0.267 OA
ATOM     10  N17 ZIN A   1      19.833   0.547  10.874  0.00  0.00    -0.313 N 
ATOM     11  C30 ZIN A   1      19.362   0.334  12.176  0.00  0.00     0.046 A 
ATOM     12  C18 ZIN A   1      20.647  -0.510  10.254  0.00  0.00     0.133 C 
ATOM     13  C24 ZIN A   1      18.413  -0.651  12.408  0.00  0.00    -0.001 A 
ATOM     14  C29 ZIN A   1      19.865   1.071  13.234  0.00  0.00     0.032 A 
ATOM     15  C21 ZIN A   1      17.831  -1.424  11.238  0.00  0.00     0.153 C 
ATOM     16  C25 ZIN A   1      17.995  -0.926  13.693  0.00  0.00     0.035 A 
ATOM     17  C20 ZIN A   1      18.913  -2.321  10.644  0.00  0.00     0.038 C 
ATOM     18  C19 ZIN A   1      19.762  -1.563   9.632  0.00  0.00     0.023 C 
ATOM     19  C26 ZIN A   1      18.511  -0.198  14.752  0.00  0.00     0.034 A 
ATOM     20 Cl27 ZIN A   1      17.993  -0.542  16.373  0.00  0.00    -0.084 Cl
ATOM     21  C28 ZIN A   1      19.439   0.802  14.521  0.00  0.00     0.026 A 
BRANCH  15  22
ATOM     22  O23 ZIN A   1      16.740  -2.228  11.689  0.00  0.00    -0.391 OA
ATOM     23  H50 ZIN A   1      16.765  -3.140  11.369  0.00  0.00     0.210 HD
ENDBRANCH  15  22
ENDBRANCH   4   8
BRANCH   1  24
ATOM     24  N10 ZIN A   1      16.742   5.836  12.800  0.00  0.00    -0.323 N 
ATOM     25  C8  ZIN A   1      16.490   5.758  14.122  0.00  0.00     0.256 C 
ATOM     26  O9  ZIN A   1      16.948   4.841  14.775  0.00  0.00    -0.267 OA
ATOM     27  H41 ZIN A   1      16.439   6.606  12.294  0.00  0.00     0.169 HD
BRANCH  25  28
ATOM     28  C7  ZIN A   1      15.657   6.788  14.778  0.00  0.00     0.038 A 
ATOM     29  C2  ZIN A   1      16.217   8.010  15.152  0.00  0.00    -0.046 A 
ATOM     30  C1  ZIN A   1      17.673   8.287  14.883  0.00  0.00     0.049 C 
ATOM     31  C3  ZIN A   1      15.433   8.966  15.763  0.00  0.00     0.007 A 
ATOM     32  C4  ZIN A   1      14.095   8.714  16.012  0.00  0.00     0.001 A 
ATOM     33  C5  ZIN A   1      13.535   7.501  15.649  0.00  0.00     0.001 A 
ATOM     34  C6  ZIN A   1      14.309   6.537  15.037  0.00  0.00     0.017 A 
ENDBRANCH  25  28
ENDBRANCH   1  24
TORSDOF 4
ENDMDL
