MODEL 1
REMARK VINA RESULT:      -6.1      0.000      0.000
REMARK  1 active torsions:
REMARK  status: ('A' for Active; 'I' for Inactive)
REMARK    1  A    between atoms: C4_3  and  C6_4 
ROOT
ATOM      1  C1  ZIN A   1      20.131   1.929  11.920  0.00  0.00     0.043 C 
ATOM      2  C2  ZIN A   1      18.729   2.534  12.009  0.00  0.00     0.217 C 
ATOM      3  C4  ZIN A   1      18.335   3.113  10.648  0.00  0.00     0.184 C 
ATOM      4  O12 ZIN A   1      17.046   3.726  10.751  0.00  0.00    -0.377 OA
ATOM      5  C13 ZIN A   1      16.981   4.761  11.736  0.00  0.00     0.196 C 
ATOM      6  C14 ZIN A   1      17.373   4.186  13.100  0.00  0.00     0.261 C 
ATOM      7  N15 ZIN A   1      18.720   3.605  13.015  0.00  0.00    -0.066 N 
ATOM      8  H16 ZIN A   1      18.979   3.226  13.914  0.00  0.00     0.280 HD
ATOM      9  C17 ZIN A   1      19.679   4.649  12.628  0.00  0.00     0.270 C 
ENDROOT
BRANCH   3  10
ATOM     10  C6  ZIN A   1      18.285   2.006   9.625  0.00  0.00    -0.027 A 
ATOM     11  C11 ZIN A   1      19.046   2.095   8.475  0.00  0.00     0.010 A 
ATOM     12  C10 ZIN A   1      19.004   1.078   7.539  0.00  0.00     0.001 A 
ATOM     13  C9  ZIN A   1      18.196  -0.022   7.750  0.00  0.00     0.000 A 
ATOM     14  C8  ZIN A   1      17.432  -0.109   8.899  0.00  0.00     0.001 A 
ATOM     15  C7  ZIN A   1      17.476   0.906   9.837  0.00  0.00     0.010 A 
ENDBRANCH   3  10
TORSDOF 1
ENDMDL
MODEL 2
REMARK VINA RESULT:      -6.0      2.197      3.167
REMARK  1 active torsions:
REMARK  status: ('A' for Active; 'I' for Inactive)
REMARK    1  A    between atoms: C4_3  and  C6_4 
ROOT
ATOM      1  C1  ZIN A   1      17.851   2.802  10.290  0.00  0.00     0.043 C 
ATOM      2  C2  ZIN A   1      19.012   1.837  10.537  0.00  0.00     0.217 C 
ATOM      3  C4  ZIN A   1      18.625   0.438  10.052  0.00  0.00     0.184 C 
ATOM      4  O12 ZIN A   1      19.692  -0.471  10.336  0.00  0.00    -0.377 OA
ATOM      5  C13 ZIN A   1      20.038  -0.536  11.722  0.00  0.00     0.196 C 
ATOM      6  C14 ZIN A   1      20.428   0.862  12.211  0.00  0.00     0.261 C 
ATOM      7  N15 ZIN A   1      19.313   1.790  11.975  0.00  0.00    -0.066 N 
ATOM      8  H16 ZIN A   1      19.569   2.711  12.297  0.00  0.00     0.280 HD
ATOM      9  C17 ZIN A   1      18.127   1.326  12.708  0.00  0.00     0.270 C 
ENDROOT
BRANCH   3  10
ATOM     10  C6  ZIN A   1      18.373   0.472   8.566  0.00  0.00    -0.027 A 
ATOM     11  C11 ZIN A   1      19.244   1.149   7.734  0.00  0.00     0.010 A 
ATOM     12  C10 ZIN A   1      19.016   1.177   6.371  0.00  0.00     0.001 A 
ATOM     13  C9  ZIN A   1      17.914   0.534   5.842  0.00  0.00     0.000 A 
ATOM     14  C8  ZIN A   1      17.040  -0.140   6.675  0.00  0.00     0.001 A 
ATOM     15  C7  ZIN A   1      17.270  -0.171   8.038  0.00  0.00     0.010 A 
ENDBRANCH   3  10
TORSDOF 1
ENDMDL
MODEL 3
REMARK VINA RESULT:      -6.0      1.986      2.550
REMARK  1 active torsions:
REMARK  status: ('A' for Active; 'I' for Inactive)
REMARK    1  A    between atoms: C4_3  and  C6_4 
ROOT
ATOM      1  C1  ZIN A   1      19.906  -1.008  10.420  0.00  0.00     0.043 C 
ATOM      2  C2  ZIN A   1      18.684  -0.255  10.949  0.00  0.00     0.217 C 
ATOM      3  C4  ZIN A   1      18.566   1.093  10.233  0.00  0.00     0.184 C 
ATOM      4  O12 ZIN A   1      17.454   1.816  10.770  0.00  0.00    -0.377 OA
ATOM      5  C13 ZIN A   1      17.542   2.040  12.179  0.00  0.00     0.196 C 
ATOM      6  C14 ZIN A   1      17.658   0.693  12.899  0.00  0.00     0.261 C 
ATOM      7  N15 ZIN A   1      18.833  -0.030  12.393  0.00  0.00    -0.066 N 
ATOM      8  H16 ZIN A   1      18.910  -0.918  12.867  0.00  0.00     0.280 HD
ATOM      9  C17 ZIN A   1      20.042   0.766  12.642  0.00  0.00     0.270 C 
ENDROOT
BRANCH   3  10
ATOM     10  C6  ZIN A   1      18.354   0.864   8.759  0.00  0.00    -0.027 A 
ATOM     11  C11 ZIN A   1      19.157   1.509   7.837  0.00  0.00     0.010 A 
ATOM     12  C10 ZIN A   1      18.965   1.296   6.485  0.00  0.00     0.001 A 
ATOM     13  C9  ZIN A   1      17.966   0.445   6.054  0.00  0.00     0.000 A 
ATOM     14  C8  ZIN A   1      17.160  -0.197   6.976  0.00  0.00     0.001 A 
ATOM     15  C7  ZIN A   1      17.354   0.013   8.329  0.00  0.00     0.010 A 
ENDBRANCH   3  10
TORSDOF 1
ENDMDL
MODEL 4
REMARK VINA RESULT:      -5.8      4.200      6.241
REMARK  1 active torsions:
REMARK  status: ('A' for Active; 'I' for Inactive)
REMARK    1  A    between atoms: C4_3  and  C6_4 
ROOT
ATOM      1  C1  ZIN A   1      17.393  -1.573  12.100  0.00  0.00     0.043 C 
ATOM      2  C2  ZIN A   1      18.874  -1.199  12.199  0.00  0.00     0.217 C 
ATOM      3  C4  ZIN A   1      19.032   0.026  13.103  0.00  0.00     0.184 C 
ATOM      4  O12 ZIN A   1      20.411   0.404  13.148  0.00  0.00    -0.377 OA
ATOM      5  C13 ZIN A   1      20.967   0.696  11.864  0.00  0.00     0.196 C 
ATOM      6  C14 ZIN A   1      20.813  -0.528  10.956  0.00  0.00     0.261 C 
ATOM      7  N15 ZIN A   1      19.392  -0.887  10.859  0.00  0.00    -0.066 N 
ATOM      8  H16 ZIN A   1      19.289  -1.693  10.261  0.00  0.00     0.280 HD
ATOM      9  C17 ZIN A   1      18.639   0.242  10.295  0.00  0.00     0.270 C 
ENDROOT
BRANCH   3  10
ATOM     10  C6  ZIN A   1      18.556  -0.311  14.494  0.00  0.00    -0.027 A 
ATOM     11  C11 ZIN A   1      17.536   0.422  15.071  0.00  0.00     0.010 A 
ATOM     12  C10 ZIN A   1      17.097   0.112  16.344  0.00  0.00     0.001 A 
ATOM     13  C9  ZIN A   1      17.683  -0.926  17.043  0.00  0.00     0.000 A 
ATOM     14  C8  ZIN A   1      18.706  -1.657  16.468  0.00  0.00     0.001 A 
ATOM     15  C7  ZIN A   1      19.143  -1.349  15.193  0.00  0.00     0.010 A 
ENDBRANCH   3  10
TORSDOF 1
ENDMDL
MODEL 5
REMARK VINA RESULT:      -5.8      3.049      4.405
REMARK  1 active torsions:
REMARK  status: ('A' for Active; 'I' for Inactive)
REMARK    1  A    between atoms: C4_3  and  C6_4 
ROOT
ATOM      1  C1  ZIN A   1      20.350   0.500  12.909  0.00  0.00     0.043 C 
ATOM      2  C2  ZIN A   1      19.704  -0.598  12.060  0.00  0.00     0.217 C 
ATOM      3  C4  ZIN A   1      18.278  -0.184  11.690  0.00  0.00     0.184 C 
ATOM      4  O12 ZIN A   1      17.660  -1.237  10.944  0.00  0.00    -0.377 OA
ATOM      5  C13 ZIN A   1      17.619  -2.486  11.640  0.00  0.00     0.196 C 
ATOM      6  C14 ZIN A   1      19.045  -2.904  12.011  0.00  0.00     0.261 C 
ATOM      7  N15 ZIN A   1      19.666  -1.851  12.827  0.00  0.00    -0.066 N 
ATOM      8  H16 ZIN A   1      20.605  -2.126  13.071  0.00  0.00     0.280 HD
ATOM      9  C17 ZIN A   1      18.878  -1.653  14.050  0.00  0.00     0.270 C 
ENDROOT
BRANCH   3  10
ATOM     10  C6  ZIN A   1      18.318   1.069  10.854  0.00  0.00    -0.027 A 
ATOM     11  C11 ZIN A   1      18.991   1.072   9.646  0.00  0.00     0.010 A 
ATOM     12  C10 ZIN A   1      19.025   2.220   8.877  0.00  0.00     0.001 A 
ATOM     13  C9  ZIN A   1      18.393   3.367   9.318  0.00  0.00     0.000 A 
ATOM     14  C8  ZIN A   1      17.723   3.365  10.528  0.00  0.00     0.001 A 
ATOM     15  C7  ZIN A   1      17.686   2.216  11.296  0.00  0.00     0.010 A 
ENDBRANCH   3  10
TORSDOF 1
ENDMDL
MODEL 6
REMARK VINA RESULT:      -5.6      2.495      4.481
REMARK  1 active torsions:
REMARK  status: ('A' for Active; 'I' for Inactive)
REMARK    1  A    between atoms: C4_3  and  C6_4 
ROOT
ATOM      1  C1  ZIN A   1      16.674   0.098  11.151  0.00  0.00     0.043 C 
ATOM      2  C2  ZIN A   1      17.521   0.383  12.394  0.00  0.00     0.217 C 
ATOM      3  C4  ZIN A   1      18.712   1.263  12.008  0.00  0.00     0.184 C 
ATOM      4  O12 ZIN A   1      19.530   1.481  13.162  0.00  0.00    -0.377 OA
ATOM      5  C13 ZIN A   1      20.013   0.275  13.758  0.00  0.00     0.196 C 
ATOM      6  C14 ZIN A   1      18.824  -0.608  14.147  0.00  0.00     0.261 C 
ATOM      7  N15 ZIN A   1      18.011  -0.883  12.955  0.00  0.00    -0.066 N 
ATOM      8  H16 ZIN A   1      17.227  -1.465  13.210  0.00  0.00     0.280 HD
ATOM      9  C17 ZIN A   1      18.831  -1.577  11.953  0.00  0.00     0.270 C 
ENDROOT
BRANCH   3  10
ATOM     10  C6  ZIN A   1      18.213   2.587  11.487  0.00  0.00    -0.027 A 
ATOM     11  C11 ZIN A   1      17.493   3.428  12.315  0.00  0.00     0.010 A 
ATOM     12  C10 ZIN A   1      17.039   4.643  11.839  0.00  0.00     0.001 A 
ATOM     13  C9  ZIN A   1      17.297   5.014  10.534  0.00  0.00     0.000 A 
ATOM     14  C8  ZIN A   1      18.014   4.172   9.704  0.00  0.00     0.001 A 
ATOM     15  C7  ZIN A   1      18.472   2.957  10.181  0.00  0.00     0.010 A 
ENDBRANCH   3  10
TORSDOF 1
ENDMDL
MODEL 7
REMARK VINA RESULT:      -5.6      3.396      5.321
REMARK  1 active torsions:
REMARK  status: ('A' for Active; 'I' for Inactive)
REMARK    1  A    between atoms: C4_3  and  C6_4 
ROOT
ATOM      1  C1  ZIN A   1      20.829   0.615  12.245  0.00  0.00     0.043 C 
ATOM      2  C2  ZIN A   1      19.432   0.920  11.699  0.00  0.00     0.217 C 
ATOM      3  C4  ZIN A   1      18.492  -0.244  12.024  0.00  0.00     0.184 C 
ATOM      4  O12 ZIN A   1      17.203   0.022  11.463  0.00  0.00    -0.377 OA
ATOM      5  C13 ZIN A   1      17.223   0.225  10.048  0.00  0.00     0.196 C 
ATOM      6  C14 ZIN A   1      18.162   1.390   9.719  0.00  0.00     0.261 C 
ATOM      7  N15 ZIN A   1      19.503   1.098  10.242  0.00  0.00    -0.066 N 
ATOM      8  H16 ZIN A   1      20.122   1.865  10.025  0.00  0.00     0.280 HD
ATOM      9  C17 ZIN A   1      20.012  -0.133   9.622  0.00  0.00     0.270 C 
ENDROOT
BRANCH   3  10
ATOM     10  C6  ZIN A   1      18.371  -0.391  13.519  0.00  0.00    -0.027 A 
ATOM     11  C11 ZIN A   1      17.727   0.584  14.259  0.00  0.00     0.010 A 
ATOM     12  C10 ZIN A   1      17.613   0.447  15.629  0.00  0.00     0.001 A 
ATOM     13  C9  ZIN A   1      18.148  -0.659  16.261  0.00  0.00     0.000 A 
ATOM     14  C8  ZIN A   1      18.795  -1.631  15.522  0.00  0.00     0.001 A 
ATOM     15  C7  ZIN A   1      18.907  -1.497  14.150  0.00  0.00     0.010 A 
ENDBRANCH   3  10
TORSDOF 1
ENDMDL
MODEL 8
REMARK VINA RESULT:      -5.6      2.668      5.034
REMARK  1 active torsions:
REMARK  status: ('A' for Active; 'I' for Inactive)
REMARK    1  A    between atoms: C4_3  and  C6_4 
ROOT
ATOM      1  C1  ZIN A   1      20.285  -0.511  10.626  0.00  0.00     0.043 C 
ATOM      2  C2  ZIN A   1      19.657  -0.276   9.250  0.00  0.00     0.217 C 
ATOM      3  C4  ZIN A   1      18.192   0.134   9.422  0.00  0.00     0.184 C 
ATOM      4  O12 ZIN A   1      17.595   0.299   8.132  0.00  0.00    -0.377 OA
ATOM      5  C13 ZIN A   1      17.660  -0.873   7.316  0.00  0.00     0.196 C 
ATOM      6  C14 ZIN A   1      19.125  -1.285   7.140  0.00  0.00     0.261 C 
ATOM      7  N15 ZIN A   1      19.729  -1.513   8.460  0.00  0.00    -0.066 N 
ATOM      8  H16 ZIN A   1      20.694  -1.784   8.346  0.00  0.00     0.280 HD
ATOM      9  C17 ZIN A   1      18.998  -2.580   9.156  0.00  0.00     0.270 C 
ENDROOT
BRANCH   3  10
ATOM     10  C6  ZIN A   1      18.118   1.434  10.181  0.00  0.00    -0.027 A 
ATOM     11  C11 ZIN A   1      18.506   2.612   9.572  0.00  0.00     0.010 A 
ATOM     12  C10 ZIN A   1      18.435   3.805  10.266  0.00  0.00     0.001 A 
ATOM     13  C9  ZIN A   1      17.983   3.819  11.572  0.00  0.00     0.000 A 
ATOM     14  C8  ZIN A   1      17.598   2.640  12.182  0.00  0.00     0.001 A 
ATOM     15  C7  ZIN A   1      17.666   1.447  11.487  0.00  0.00     0.010 A 
ENDBRANCH   3  10
TORSDOF 1
ENDMDL
MODEL 9
REMARK VINA RESULT:      -5.5      3.463      5.426
REMARK  1 active torsions:
REMARK  status: ('A' for Active; 'I' for Inactive)
REMARK    1  A    between atoms: C4_3  and  C6_4 
ROOT
ATOM      1  C1  ZIN A   1      19.624  -1.209  12.197  0.00  0.00     0.043 C 
ATOM      2  C2  ZIN A   1      19.407  -1.841  10.820  0.00  0.00     0.217 C 
ATOM      3  C4  ZIN A   1      18.131  -1.274  10.193  0.00  0.00     0.184 C 
ATOM      4  O12 ZIN A   1      17.904  -1.908   8.931  0.00  0.00    -0.377 OA
ATOM      5  C13 ZIN A   1      17.791  -3.331   9.016  0.00  0.00     0.196 C 
ATOM      6  C14 ZIN A   1      19.067  -3.903   9.642  0.00  0.00     0.261 C 
ATOM      7  N15 ZIN A   1      19.275  -3.297  10.964  0.00  0.00    -0.066 N 
ATOM      8  H16 ZIN A   1      20.115  -3.673  11.377  0.00  0.00     0.280 HD
ATOM      9  C17 ZIN A   1      18.126  -3.601  11.828  0.00  0.00     0.270 C 
ENDROOT
BRANCH   3  10
ATOM     10  C6  ZIN A   1      18.287   0.212   9.989  0.00  0.00    -0.027 A 
ATOM     11  C11 ZIN A   1      17.607   1.096  10.807  0.00  0.00     0.010 A 
ATOM     12  C10 ZIN A   1      17.753   2.458  10.623  0.00  0.00     0.001 A 
ATOM     13  C9  ZIN A   1      18.571   2.936   9.617  0.00  0.00     0.000 A 
ATOM     14  C8  ZIN A   1      19.248   2.052   8.798  0.00  0.00     0.001 A 
ATOM     15  C7  ZIN A   1      19.105   0.689   8.983  0.00  0.00     0.010 A 
ENDBRANCH   3  10
TORSDOF 1
ENDMDL
