MODEL 1
REMARK VINA RESULT:      -8.7      0.000      0.000
REMARK  10 active torsions:
REMARK  status: ('A' for Active; 'I' for Inactive)
REMARK    1  A    between atoms: O2_2  and  C3_3 
REMARK    2  A    between atoms: C3_3  and  C5_5 
REMARK    3  A    between atoms: C7_6  and  O9_7 
REMARK    4  A    between atoms: C11_9  and  O13_10 
REMARK    5  A    between atoms: O13_10  and  C14_11 
REMARK    6  A    between atoms: C14_11  and  C16_13 
REMARK    7  A    between atoms: C18_15  and  O19_16 
REMARK    8  A    between atoms: C21_18  and  O22_19 
REMARK    9  A    between atoms: C24_21  and  O25_22 
REMARK   10  A    between atoms: C41_37  and  O42_38 
ROOT
ATOM      1  C5  ZIN A   1      18.480   1.559  12.917  0.00  0.00     0.121 C 
ATOM      2  C7  ZIN A   1      18.326   2.747  13.867  0.00  0.00     0.164 C 
ATOM      3  C11 ZIN A   1      18.587   4.047  13.102  0.00  0.00     0.162 C 
ATOM      4  C28 ZIN A   1      20.011   4.027  12.545  0.00  0.00     0.042 C 
ATOM      5  C29 ZIN A   1      20.181   2.838  11.602  0.00  0.00     0.019 C 
ATOM      6  C31 ZIN A   1      19.218   2.969  10.421  0.00  0.00     0.240 C 
ATOM      7  N32 ZIN A   1      19.406   1.830   9.515  0.00  0.00    -0.061 N 
ATOM      8  H33 ZIN A   1      20.375   1.788   9.238  0.00  0.00     0.280 HD
ATOM      9  C34 ZIN A   1      18.573   1.985   8.318  0.00  0.00     0.240 C 
ATOM     10  C35 ZIN A   1      19.022   0.981   7.247  0.00  0.00     0.069 C 
ATOM     11  C36 ZIN A   1      19.132  -0.376   7.896  0.00  0.00    -0.019 A 
ATOM     12  C37 ZIN A   1      19.153  -0.561   9.237  0.00  0.00     0.048 A 
ATOM     13  N38 ZIN A   1      19.259  -1.895   9.519  0.00  0.00    -0.357 N 
ATOM     14  C39 ZIN A   1      19.308  -2.611   8.355  0.00  0.00     0.046 A 
ATOM     15  C40 ZIN A   1      19.413  -3.976   8.105  0.00  0.00     0.067 A 
ATOM     16  C41 ZIN A   1      19.435  -4.372   6.775  0.00  0.00     0.070 A 
ATOM     17  C44 ZIN A   1      19.358  -3.459   5.732  0.00  0.00     0.038 A 
ATOM     18  C45 ZIN A   1      19.255  -2.108   5.951  0.00  0.00     0.017 A 
ATOM     19  C46 ZIN A   1      19.230  -1.683   7.284  0.00  0.00    -0.001 A 
ATOM     20  C47 ZIN A   1      19.053   0.585  10.211  0.00  0.00     0.238 C 
ATOM     21  C49 ZIN A   1      20.034   0.379  11.367  0.00  0.00     0.045 C 
ATOM     22  C50 ZIN A   1      19.902   1.534  12.351  0.00  0.00     0.010 C 
ATOM     23  H77 ZIN A   1      19.296  -2.277  10.410  0.00  0.00     0.166 HD
ENDROOT
BRANCH   3  24
ATOM     24  O13 ZIN A   1      17.640   4.163  12.008  0.00  0.00    -0.309 OA
BRANCH  24  25
ATOM     25  C14 ZIN A   1      16.931   5.307  11.932  0.00  0.00     0.294 C 
ATOM     26  O15 ZIN A   1      16.692   5.802  10.849  0.00  0.00    -0.259 OA
BRANCH  25  27
ATOM     27  C16 ZIN A   1      16.447   5.958  13.163  0.00  0.00     0.045 A 
ATOM     28  C27 ZIN A   1      17.228   6.931  13.794  0.00  0.00     0.057 A 
ATOM     29  C24 ZIN A   1      16.770   7.543  14.945  0.00  0.00     0.105 A 
ATOM     30  C21 ZIN A   1      15.537   7.185  15.482  0.00  0.00     0.135 A 
ATOM     31  C18 ZIN A   1      14.759   6.212  14.859  0.00  0.00     0.105 A 
ATOM     32  C17 ZIN A   1      15.210   5.601  13.705  0.00  0.00     0.057 A 
BRANCH  29  33
ATOM     33  O25 ZIN A   1      17.527   8.493  15.557  0.00  0.00    -0.353 OA
ATOM     34  C26 ZIN A   1      17.925   9.615  14.765  0.00  0.00     0.210 C 
ENDBRANCH  29  33
BRANCH  30  35
ATOM     35  O22 ZIN A   1      15.091   7.785  16.617  0.00  0.00    -0.351 OA
ATOM     36  C23 ZIN A   1      15.292   7.082  17.845  0.00  0.00     0.210 C 
ENDBRANCH  30  35
BRANCH  31  37
ATOM     37  O19 ZIN A   1      13.555   5.864  15.387  0.00  0.00    -0.353 OA
ATOM     38  C20 ZIN A   1      12.394   6.179  14.617  0.00  0.00     0.210 C 
ENDBRANCH  31  37
ENDBRANCH  25  27
ENDBRANCH  24  25
ENDBRANCH   3  24
BRANCH   2  39
ATOM     39  O9  ZIN A   1      19.266   2.626  14.937  0.00  0.00    -0.387 OA
ATOM     40  C10 ZIN A   1      18.844   1.752  15.986  0.00  0.00     0.202 C 
ENDBRANCH   2  39
BRANCH   1  41
ATOM     41  C3  ZIN A   1      17.493   1.691  11.785  0.00  0.00     0.265 C 
ATOM     42  O4  ZIN A   1      17.249   2.778  11.320  0.00  0.00    -0.265 OA
BRANCH  41  43
ATOM     43  O2  ZIN A   1      16.884   0.599  11.296  0.00  0.00    -0.326 OA
ATOM     44  C1  ZIN A   1      16.640  -0.491  12.223  0.00  0.00     0.213 C 
ENDBRANCH  41  43
ENDBRANCH   1  41
BRANCH  16  45
ATOM     45  O42 ZIN A   1      19.535  -5.697   6.483  0.00  0.00    -0.356 OA
ATOM     46  C43 ZIN A   1      18.323  -6.388   6.178  0.00  0.00     0.210 C 
ENDBRANCH  16  45
TORSDOF 10
ENDMDL
MODEL 2
REMARK VINA RESULT:      -8.3      3.219     11.156
REMARK  10 active torsions:
REMARK  status: ('A' for Active; 'I' for Inactive)
REMARK    1  A    between atoms: O2_2  and  C3_3 
REMARK    2  A    between atoms: C3_3  and  C5_5 
REMARK    3  A    between atoms: C7_6  and  O9_7 
REMARK    4  A    between atoms: C11_9  and  O13_10 
REMARK    5  A    between atoms: O13_10  and  C14_11 
REMARK    6  A    between atoms: C14_11  and  C16_13 
REMARK    7  A    between atoms: C18_15  and  O19_16 
REMARK    8  A    between atoms: C21_18  and  O22_19 
REMARK    9  A    between atoms: C24_21  and  O25_22 
REMARK   10  A    between atoms: C41_37  and  O42_38 
ROOT
ATOM      1  C5  ZIN A   1      18.574  -1.331  10.090  0.00  0.00     0.121 C 
ATOM      2  C7  ZIN A   1      18.515  -2.481   9.085  0.00  0.00     0.164 C 
ATOM      3  C11 ZIN A   1      18.863  -3.793   9.794  0.00  0.00     0.162 C 
ATOM      4  C28 ZIN A   1      20.277  -3.696  10.368  0.00  0.00     0.042 C 
ATOM      5  C29 ZIN A   1      20.352  -2.543  11.366  0.00  0.00     0.019 C 
ATOM      6  C31 ZIN A   1      19.390  -2.797  12.529  0.00  0.00     0.240 C 
ATOM      7  N32 ZIN A   1      19.487  -1.690  13.487  0.00  0.00    -0.061 N 
ATOM      8  H33 ZIN A   1      20.448  -1.591  13.778  0.00  0.00     0.280 HD
ATOM      9  C34 ZIN A   1      18.657  -1.959  14.665  0.00  0.00     0.240 C 
ATOM     10  C35 ZIN A   1      19.022  -0.976  15.786  0.00  0.00     0.069 C 
ATOM     11  C36 ZIN A   1      19.039   0.414  15.201  0.00  0.00    -0.019 A 
ATOM     12  C37 ZIN A   1      19.059   0.661  13.870  0.00  0.00     0.048 A 
ATOM     13  N38 ZIN A   1      19.070   2.011  13.650  0.00  0.00    -0.357 N 
ATOM     14  C39 ZIN A   1      19.057   2.674  14.845  0.00  0.00     0.046 A 
ATOM     15  C40 ZIN A   1      19.060   4.031  15.158  0.00  0.00     0.067 A 
ATOM     16  C41 ZIN A   1      19.041   4.365  16.505  0.00  0.00     0.070 A 
ATOM     17  C44 ZIN A   1      19.021   3.402  17.505  0.00  0.00     0.038 A 
ATOM     18  C45 ZIN A   1      19.019   2.059  17.223  0.00  0.00     0.017 A 
ATOM     19  C46 ZIN A   1      19.036   1.695  15.872  0.00  0.00    -0.001 A 
ATOM     20  C47 ZIN A   1      19.051  -0.443  12.843  0.00  0.00     0.238 C 
ATOM     21  C49 ZIN A   1      20.024  -0.114  11.711  0.00  0.00     0.045 C 
ATOM     22  C50 ZIN A   1      19.985  -1.229  10.674  0.00  0.00     0.010 C 
ATOM     23  H77 ZIN A   1      19.087   2.435  12.778  0.00  0.00     0.166 HD
ENDROOT
BRANCH   3  24
ATOM     24  O13 ZIN A   1      17.917  -4.027  10.869  0.00  0.00    -0.309 OA
BRANCH  24  25
ATOM     25  C14 ZIN A   1      17.346  -5.247  10.927  0.00  0.00     0.294 C 
ATOM     26  O15 ZIN A   1      17.284  -5.839  11.986  0.00  0.00    -0.259 OA
BRANCH  25  27
ATOM     27  C16 ZIN A   1      16.797  -5.862   9.704  0.00  0.00     0.045 A 
ATOM     28  C27 ZIN A   1      17.554  -6.793   8.989  0.00  0.00     0.057 A 
ATOM     29  C24 ZIN A   1      17.035  -7.373   7.846  0.00  0.00     0.105 A 
ATOM     30  C21 ZIN A   1      15.763  -7.021   7.402  0.00  0.00     0.135 A 
ATOM     31  C18 ZIN A   1      15.008  -6.089   8.110  0.00  0.00     0.105 A 
ATOM     32  C17 ZIN A   1      15.521  -5.512   9.256  0.00  0.00     0.057 A 
BRANCH  29  33
ATOM     33  O25 ZIN A   1      17.769  -8.282   7.151  0.00  0.00    -0.353 OA
ATOM     34  C26 ZIN A   1      17.395  -9.656   7.284  0.00  0.00     0.210 C 
ENDBRANCH  29  33
BRANCH  30  35
ATOM     35  O22 ZIN A   1      15.257  -7.588   6.276  0.00  0.00    -0.351 OA
ATOM     36  C23 ZIN A   1      15.514  -6.917   5.040  0.00  0.00     0.210 C 
ENDBRANCH  30  35
BRANCH  31  37
ATOM     37  O19 ZIN A   1      13.767  -5.748   7.673  0.00  0.00    -0.353 OA
ATOM     38  C20 ZIN A   1      12.659  -6.420   8.276  0.00  0.00     0.210 C 
ENDBRANCH  31  37
ENDBRANCH  25  27
ENDBRANCH  24  25
ENDBRANCH   3  24
BRANCH   2  39
ATOM     39  O9  ZIN A   1      19.453  -2.244   8.033  0.00  0.00    -0.387 OA
ATOM     40  C10 ZIN A   1      18.969  -1.375   7.008  0.00  0.00     0.202 C 
ENDBRANCH   2  39
BRANCH   1  41
ATOM     41  C3  ZIN A   1      17.589  -1.585  11.202  0.00  0.00     0.265 C 
ATOM     42  O4  ZIN A   1      17.532  -2.674  11.722  0.00  0.00    -0.265 OA
BRANCH  41  43
ATOM     43  O2  ZIN A   1      16.774  -0.601  11.615  0.00  0.00    -0.326 OA
ATOM     44  C1  ZIN A   1      16.614   0.537  10.729  0.00  0.00     0.213 C 
ENDBRANCH  41  43
ENDBRANCH   1  41
BRANCH  16  45
ATOM     45  O42 ZIN A   1      19.042   5.679  16.857  0.00  0.00    -0.356 OA
ATOM     46  C43 ZIN A   1      18.797   6.630  15.819  0.00  0.00     0.210 C 
ENDBRANCH  16  45
TORSDOF 10
ENDMDL
MODEL 3
REMARK VINA RESULT:      -8.3      3.187     11.229
REMARK  10 active torsions:
REMARK  status: ('A' for Active; 'I' for Inactive)
REMARK    1  A    between atoms: O2_2  and  C3_3 
REMARK    2  A    between atoms: C3_3  and  C5_5 
REMARK    3  A    between atoms: C7_6  and  O9_7 
REMARK    4  A    between atoms: C11_9  and  O13_10 
REMARK    5  A    between atoms: O13_10  and  C14_11 
REMARK    6  A    between atoms: C14_11  and  C16_13 
REMARK    7  A    between atoms: C18_15  and  O19_16 
REMARK    8  A    between atoms: C21_18  and  O22_19 
REMARK    9  A    between atoms: C24_21  and  O25_22 
REMARK   10  A    between atoms: C41_37  and  O42_38 
ROOT
ATOM      1  C5  ZIN A   1      18.600  -1.335  10.102  0.00  0.00     0.121 C 
ATOM      2  C7  ZIN A   1      18.542  -2.489   9.100  0.00  0.00     0.164 C 
ATOM      3  C11 ZIN A   1      18.880  -3.799   9.816  0.00  0.00     0.162 C 
ATOM      4  C28 ZIN A   1      20.292  -3.706  10.398  0.00  0.00     0.042 C 
ATOM      5  C29 ZIN A   1      20.365  -2.549  11.392  0.00  0.00     0.019 C 
ATOM      6  C31 ZIN A   1      19.396  -2.795  12.550  0.00  0.00     0.240 C 
ATOM      7  N32 ZIN A   1      19.492  -1.685  13.505  0.00  0.00    -0.061 N 
ATOM      8  H33 ZIN A   1      20.451  -1.589  13.801  0.00  0.00     0.280 HD
ATOM      9  C34 ZIN A   1      18.654  -1.947  14.680  0.00  0.00     0.240 C 
ATOM     10  C35 ZIN A   1      19.017  -0.961  15.799  0.00  0.00     0.069 C 
ATOM     11  C36 ZIN A   1      19.043   0.427  15.209  0.00  0.00    -0.019 A 
ATOM     12  C37 ZIN A   1      19.071   0.669  13.877  0.00  0.00     0.048 A 
ATOM     13  N38 ZIN A   1      19.089   2.018  13.652  0.00  0.00    -0.357 N 
ATOM     14  C39 ZIN A   1      19.072   2.686  14.845  0.00  0.00     0.046 A 
ATOM     15  C40 ZIN A   1      19.079   4.043  15.153  0.00  0.00     0.067 A 
ATOM     16  C41 ZIN A   1      19.053   4.383  16.499  0.00  0.00     0.070 A 
ATOM     17  C44 ZIN A   1      19.024   3.424  17.502  0.00  0.00     0.038 A 
ATOM     18  C45 ZIN A   1      19.017   2.079  17.225  0.00  0.00     0.017 A 
ATOM     19  C46 ZIN A   1      19.041   1.710  15.876  0.00  0.00    -0.001 A 
ATOM     20  C47 ZIN A   1      19.064  -0.439  12.855  0.00  0.00     0.238 C 
ATOM     21  C49 ZIN A   1      20.045  -0.117  11.726  0.00  0.00     0.045 C 
ATOM     22  C50 ZIN A   1      20.008  -1.236  10.693  0.00  0.00     0.010 C 
ATOM     23  H77 ZIN A   1      19.112   2.438  12.779  0.00  0.00     0.166 HD
ENDROOT
BRANCH   3  24
ATOM     24  O13 ZIN A   1      17.928  -4.025  10.887  0.00  0.00    -0.309 OA
BRANCH  24  25
ATOM     25  C14 ZIN A   1      17.355  -5.244  10.949  0.00  0.00     0.294 C 
ATOM     26  O15 ZIN A   1      17.294  -5.833  12.010  0.00  0.00    -0.259 OA
BRANCH  25  27
ATOM     27  C16 ZIN A   1      16.805  -5.863   9.729  0.00  0.00     0.045 A 
ATOM     28  C27 ZIN A   1      15.528  -5.514   9.282  0.00  0.00     0.057 A 
ATOM     29  C24 ZIN A   1      15.017  -6.092   8.135  0.00  0.00     0.105 A 
ATOM     30  C21 ZIN A   1      15.769  -7.029   7.432  0.00  0.00     0.135 A 
ATOM     31  C18 ZIN A   1      17.039  -7.384   7.878  0.00  0.00     0.105 A 
ATOM     32  C17 ZIN A   1      17.557  -6.805   9.021  0.00  0.00     0.057 A 
BRANCH  29  33
ATOM     33  O25 ZIN A   1      13.776  -5.750   7.696  0.00  0.00    -0.353 OA
ATOM     34  C26 ZIN A   1      12.666  -6.412   8.307  0.00  0.00     0.210 C 
ENDBRANCH  29  33
BRANCH  30  35
ATOM     35  O22 ZIN A   1      15.262  -7.600   6.308  0.00  0.00    -0.351 OA
ATOM     36  C23 ZIN A   1      15.506  -6.927   5.071  0.00  0.00     0.210 C 
ENDBRANCH  30  35
BRANCH  31  37
ATOM     37  O19 ZIN A   1      17.770  -8.300   7.189  0.00  0.00    -0.353 OA
ATOM     38  C20 ZIN A   1      17.382  -9.669   7.317  0.00  0.00     0.210 C 
ENDBRANCH  31  37
ENDBRANCH  25  27
ENDBRANCH  24  25
ENDBRANCH   3  24
BRANCH   2  39
ATOM     39  O9  ZIN A   1      19.487  -2.259   8.053  0.00  0.00    -0.387 OA
ATOM     40  C10 ZIN A   1      19.239  -3.019   6.870  0.00  0.00     0.202 C 
ENDBRANCH   2  39
BRANCH   1  41
ATOM     41  C3  ZIN A   1      17.607  -1.581  11.209  0.00  0.00     0.265 C 
ATOM     42  O4  ZIN A   1      17.510  -2.681  11.699  0.00  0.00    -0.265 OA
BRANCH  41  43
ATOM     43  O2  ZIN A   1      16.831  -0.578  11.651  0.00  0.00    -0.326 OA
ATOM     44  C1  ZIN A   1      16.590   0.521  10.733  0.00  0.00     0.213 C 
ENDBRANCH  41  43
ENDBRANCH   1  41
BRANCH  16  45
ATOM     45  O42 ZIN A   1      19.058   5.698  16.846  0.00  0.00    -0.356 OA
ATOM     46  C43 ZIN A   1      18.583   6.628  15.872  0.00  0.00     0.210 C 
ENDBRANCH  16  45
TORSDOF 10
ENDMDL
MODEL 4
REMARK VINA RESULT:      -8.2      1.529      1.899
REMARK  10 active torsions:
REMARK  status: ('A' for Active; 'I' for Inactive)
REMARK    1  A    between atoms: O2_2  and  C3_3 
REMARK    2  A    between atoms: C3_3  and  C5_5 
REMARK    3  A    between atoms: C7_6  and  O9_7 
REMARK    4  A    between atoms: C11_9  and  O13_10 
REMARK    5  A    between atoms: O13_10  and  C14_11 
REMARK    6  A    between atoms: C14_11  and  C16_13 
REMARK    7  A    between atoms: C18_15  and  O19_16 
REMARK    8  A    between atoms: C21_18  and  O22_19 
REMARK    9  A    between atoms: C24_21  and  O25_22 
REMARK   10  A    between atoms: C41_37  and  O42_38 
ROOT
ATOM      1  C5  ZIN A   1      18.450   1.579  13.156  0.00  0.00     0.121 C 
ATOM      2  C7  ZIN A   1      18.302   2.407  14.433  0.00  0.00     0.164 C 
ATOM      3  C11 ZIN A   1      18.445   3.893  14.095  0.00  0.00     0.162 C 
ATOM      4  C28 ZIN A   1      19.828   4.141  13.491  0.00  0.00     0.042 C 
ATOM      5  C29 ZIN A   1      19.994   3.311  12.220  0.00  0.00     0.019 C 
ATOM      6  C31 ZIN A   1      18.948   3.730  11.185  0.00  0.00     0.240 C 
ATOM      7  N32 ZIN A   1      19.132   2.937   9.964  0.00  0.00    -0.061 N 
ATOM      8  H33 ZIN A   1      20.081   3.048   9.640  0.00  0.00     0.280 HD
ATOM      9  C34 ZIN A   1      18.214   3.392   8.915  0.00  0.00     0.240 C 
ATOM     10  C35 ZIN A   1      18.640   2.796   7.566  0.00  0.00     0.069 C 
ATOM     11  C36 ZIN A   1      18.862   1.317   7.758  0.00  0.00    -0.019 A 
ATOM     12  C37 ZIN A   1      18.982   0.734   8.974  0.00  0.00     0.048 A 
ATOM     13  N38 ZIN A   1      19.173  -0.613   8.825  0.00  0.00    -0.357 N 
ATOM     14  C39 ZIN A   1      19.180  -0.934   7.496  0.00  0.00     0.046 A 
ATOM     15  C40 ZIN A   1      19.336  -2.147   6.832  0.00  0.00     0.067 A 
ATOM     16  C41 ZIN A   1      19.288  -2.116   5.445  0.00  0.00     0.070 A 
ATOM     17  C44 ZIN A   1      19.096  -0.936   4.740  0.00  0.00     0.038 A 
ATOM     18  C45 ZIN A   1      18.940   0.274   5.370  0.00  0.00     0.017 A 
ATOM     19  C46 ZIN A   1      18.984   0.269   6.769  0.00  0.00    -0.001 A 
ATOM     20  C47 ZIN A   1      18.889   1.518  10.258  0.00  0.00     0.238 C 
ATOM     21  C49 ZIN A   1      19.954   1.037  11.245  0.00  0.00     0.045 C 
ATOM     22  C50 ZIN A   1      19.831   1.825  12.542  0.00  0.00     0.010 C 
ATOM     23  H77 ZIN A   1      19.288  -1.244   9.552  0.00  0.00     0.166 HD
ENDROOT
BRANCH   3  24
ATOM     24  O13 ZIN A   1      17.422   4.272  13.137  0.00  0.00    -0.309 OA
BRANCH  24  25
ATOM     25  C14 ZIN A   1      16.829   5.469  13.318  0.00  0.00     0.294 C 
ATOM     26  O15 ZIN A   1      16.872   6.307  12.439  0.00  0.00    -0.259 OA
BRANCH  25  27
ATOM     27  C16 ZIN A   1      16.130   5.762  14.582  0.00  0.00     0.045 A 
ATOM     28  C27 ZIN A   1      16.846   5.823  15.781  0.00  0.00     0.057 A 
ATOM     29  C24 ZIN A   1      16.189   6.104  16.964  0.00  0.00     0.105 A 
ATOM     30  C21 ZIN A   1      14.813   6.314  16.964  0.00  0.00     0.135 A 
ATOM     31  C18 ZIN A   1      14.095   6.248  15.773  0.00  0.00     0.105 A 
ATOM     32  C17 ZIN A   1      14.748   5.974  14.587  0.00  0.00     0.057 A 
BRANCH  29  33
ATOM     33  O25 ZIN A   1      16.886   6.168  18.130  0.00  0.00    -0.353 OA
ATOM     34  C26 ZIN A   1      17.519   4.966  18.574  0.00  0.00     0.210 C 
ENDBRANCH  29  33
BRANCH  30  35
ATOM     35  O22 ZIN A   1      14.168   6.584  18.130  0.00  0.00    -0.351 OA
ATOM     36  C23 ZIN A   1      13.990   7.960  18.470  0.00  0.00     0.210 C 
ENDBRANCH  30  35
BRANCH  31  37
ATOM     37  O19 ZIN A   1      12.751   6.454  15.777  0.00  0.00    -0.353 OA
ATOM     38  C20 ZIN A   1      12.057   6.232  14.547  0.00  0.00     0.210 C 
ENDBRANCH  31  37
ENDBRANCH  25  27
ENDBRANCH  24  25
ENDBRANCH   3  24
BRANCH   2  39
ATOM     39  O9  ZIN A   1      19.316   2.030  15.367  0.00  0.00    -0.387 OA
ATOM     40  C10 ZIN A   1      18.826   1.771  16.684  0.00  0.00     0.202 C 
ENDBRANCH   2  39
BRANCH   1  41
ATOM     41  C3  ZIN A   1      17.385   1.982  12.170  0.00  0.00     0.265 C 
ATOM     42  O4  ZIN A   1      17.098   3.147  12.033  0.00  0.00    -0.265 OA
BRANCH  41  43
ATOM     43  O2  ZIN A   1      16.753   1.046  11.444  0.00  0.00    -0.326 OA
ATOM     44  C1  ZIN A   1      16.634  -0.276  12.034  0.00  0.00     0.213 C 
ENDBRANCH  41  43
ENDBRANCH   1  41
BRANCH  16  45
ATOM     45  O42 ZIN A   1      19.435  -3.278   4.755  0.00  0.00    -0.356 OA
ATOM     46  C43 ZIN A   1      18.268  -3.814   4.130  0.00  0.00     0.210 C 
ENDBRANCH  16  45
TORSDOF 10
ENDMDL
MODEL 5
REMARK VINA RESULT:      -7.8      1.903      2.528
REMARK  10 active torsions:
REMARK  status: ('A' for Active; 'I' for Inactive)
REMARK    1  A    between atoms: O2_2  and  C3_3 
REMARK    2  A    between atoms: C3_3  and  C5_5 
REMARK    3  A    between atoms: C7_6  and  O9_7 
REMARK    4  A    between atoms: C11_9  and  O13_10 
REMARK    5  A    between atoms: O13_10  and  C14_11 
REMARK    6  A    between atoms: C14_11  and  C16_13 
REMARK    7  A    between atoms: C18_15  and  O19_16 
REMARK    8  A    between atoms: C21_18  and  O22_19 
REMARK    9  A    between atoms: C24_21  and  O25_22 
REMARK   10  A    between atoms: C41_37  and  O42_38 
ROOT
ATOM      1  C5  ZIN A   1      17.633  -0.416  13.768  0.00  0.00     0.121 C 
ATOM      2  C7  ZIN A   1      17.556   0.712  14.797  0.00  0.00     0.164 C 
ATOM      3  C11 ZIN A   1      18.458   1.866  14.354  0.00  0.00     0.162 C 
ATOM      4  C28 ZIN A   1      19.902   1.369  14.258  0.00  0.00     0.042 C 
ATOM      5  C29 ZIN A   1      19.990   0.234  13.241  0.00  0.00     0.019 C 
ATOM      6  C31 ZIN A   1      19.576   0.740  11.857  0.00  0.00     0.240 C 
ATOM      7  N32 ZIN A   1      19.685  -0.357  10.889  0.00  0.00    -0.061 N 
ATOM      8  H33 ZIN A   1      20.623  -0.725  10.914  0.00  0.00     0.280 HD
ATOM      9  C34 ZIN A   1      19.398   0.127   9.534  0.00  0.00     0.240 C 
ATOM     10  C35 ZIN A   1      19.836  -0.929   8.509  0.00  0.00     0.069 C 
ATOM     11  C36 ZIN A   1      19.283  -2.262   8.946  0.00  0.00    -0.019 A 
ATOM     12  C37 ZIN A   1      18.792  -2.494  10.186  0.00  0.00     0.048 A 
ATOM     13  N38 ZIN A   1      18.366  -3.791  10.280  0.00  0.00    -0.357 N 
ATOM     14  C39 ZIN A   1      18.573  -4.432   9.091  0.00  0.00     0.046 A 
ATOM     15  C40 ZIN A   1      18.315  -5.737   8.679  0.00  0.00     0.067 A 
ATOM     16  C41 ZIN A   1      18.655  -6.063   7.374  0.00  0.00     0.070 A 
ATOM     17  C44 ZIN A   1      19.228  -5.141   6.508  0.00  0.00     0.038 A 
ATOM     18  C45 ZIN A   1      19.494  -3.850   6.890  0.00  0.00     0.017 A 
ATOM     19  C46 ZIN A   1      19.159  -3.495   8.201  0.00  0.00    -0.001 A 
ATOM     20  C47 ZIN A   1      18.741  -1.424  11.247  0.00  0.00     0.238 C 
ATOM     21  C49 ZIN A   1      19.155  -2.006  12.599  0.00  0.00     0.045 C 
ATOM     22  C50 ZIN A   1      19.075  -0.918  13.661  0.00  0.00     0.010 C 
ATOM     23  H77 ZIN A   1      17.977  -4.194  11.071  0.00  0.00     0.166 HD
ENDROOT
BRANCH   3  24
ATOM     24  O13 ZIN A   1      18.024   2.349  13.056  0.00  0.00    -0.309 OA
BRANCH  24  25
ATOM     25  C14 ZIN A   1      18.220   3.657  12.794  0.00  0.00     0.294 C 
ATOM     26  O15 ZIN A   1      18.435   4.023  11.655  0.00  0.00    -0.259 OA
BRANCH  25  27
ATOM     27  C16 ZIN A   1      18.174   4.644  13.889  0.00  0.00     0.045 A 
ATOM     28  C27 ZIN A   1      19.358   5.078  14.489  0.00  0.00     0.057 A 
ATOM     29  C24 ZIN A   1      19.313   6.007  15.512  0.00  0.00     0.105 A 
ATOM     30  C21 ZIN A   1      18.088   6.502  15.951  0.00  0.00     0.135 A 
ATOM     31  C18 ZIN A   1      16.905   6.066  15.358  0.00  0.00     0.105 A 
ATOM     32  C17 ZIN A   1      16.946   5.142  14.332  0.00  0.00     0.057 A 
BRANCH  29  33
ATOM     33  O25 ZIN A   1      20.465   6.434  16.094  0.00  0.00    -0.353 OA
ATOM     34  C26 ZIN A   1      21.684   5.858  15.619  0.00  0.00     0.210 C 
ENDBRANCH  29  33
BRANCH  30  35
ATOM     35  O22 ZIN A   1      18.045   7.410  16.960  0.00  0.00    -0.351 OA
ATOM     36  C23 ZIN A   1      17.758   6.914  18.269  0.00  0.00     0.210 C 
ENDBRANCH  30  35
BRANCH  31  37
ATOM     37  O19 ZIN A   1      15.710   6.551  15.790  0.00  0.00    -0.353 OA
ATOM     38  C20 ZIN A   1      14.553   6.191  15.033  0.00  0.00     0.210 C 
ENDBRANCH  31  37
ENDBRANCH  25  27
ENDBRANCH  24  25
ENDBRANCH   3  24
BRANCH   2  39
ATOM     39  O9  ZIN A   1      17.990   0.228  16.069  0.00  0.00    -0.387 OA
ATOM     40  C10 ZIN A   1      16.945  -0.331  16.866  0.00  0.00     0.202 C 
ENDBRANCH   2  39
BRANCH   1  41
ATOM     41  C3  ZIN A   1      17.181   0.097  12.425  0.00  0.00     0.265 C 
ATOM     42  O4  ZIN A   1      17.383   1.248  12.119  0.00  0.00    -0.265 OA
BRANCH  41  43
ATOM     43  O2  ZIN A   1      16.553  -0.724  11.569  0.00  0.00    -0.326 OA
ATOM     44  C1  ZIN A   1      16.145  -0.161  10.295  0.00  0.00     0.213 C 
ENDBRANCH  41  43
ENDBRANCH   1  41
BRANCH  16  45
ATOM     45  O42 ZIN A   1      18.420  -7.326   6.928  0.00  0.00    -0.356 OA
ATOM     46  C43 ZIN A   1      17.275  -7.518   6.095  0.00  0.00     0.210 C 
ENDBRANCH  16  45
TORSDOF 10
ENDMDL
MODEL 6
REMARK VINA RESULT:      -7.6      2.573     10.859
REMARK  10 active torsions:
REMARK  status: ('A' for Active; 'I' for Inactive)
REMARK    1  A    between atoms: O2_2  and  C3_3 
REMARK    2  A    between atoms: C3_3  and  C5_5 
REMARK    3  A    between atoms: C7_6  and  O9_7 
REMARK    4  A    between atoms: C11_9  and  O13_10 
REMARK    5  A    between atoms: O13_10  and  C14_11 
REMARK    6  A    between atoms: C14_11  and  C16_13 
REMARK    7  A    between atoms: C18_15  and  O19_16 
REMARK    8  A    between atoms: C21_18  and  O22_19 
REMARK    9  A    between atoms: C24_21  and  O25_22 
REMARK   10  A    between atoms: C41_37  and  O42_38 
ROOT
ATOM      1  C5  ZIN A   1      17.393   0.480   8.953  0.00  0.00     0.121 C 
ATOM      2  C7  ZIN A   1      17.373  -0.502   7.782  0.00  0.00     0.164 C 
ATOM      3  C11 ZIN A   1      18.438  -1.580   8.006  0.00  0.00     0.162 C 
ATOM      4  C28 ZIN A   1      19.815  -0.919   8.087  0.00  0.00     0.042 C 
ATOM      5  C29 ZIN A   1      19.843   0.074   9.246  0.00  0.00     0.019 C 
ATOM      6  C31 ZIN A   1      19.597  -0.659  10.567  0.00  0.00     0.240 C 
ATOM      7  N32 ZIN A   1      19.647   0.304  11.672  0.00  0.00    -0.061 N 
ATOM      8  H33 ZIN A   1      20.530   0.790  11.644  0.00  0.00     0.280 HD
ATOM      9  C34 ZIN A   1      19.522  -0.387  12.959  0.00  0.00     0.240 C 
ATOM     10  C35 ZIN A   1      19.907   0.572  14.095  0.00  0.00     0.069 C 
ATOM     11  C36 ZIN A   1      19.168   1.869  13.883  0.00  0.00    -0.019 A 
ATOM     12  C37 ZIN A   1      18.561   2.198  12.718  0.00  0.00     0.048 A 
ATOM     13  N38 ZIN A   1      17.978   3.430  12.831  0.00  0.00    -0.357 N 
ATOM     14  C39 ZIN A   1      18.196   3.930  14.085  0.00  0.00     0.046 A 
ATOM     15  C40 ZIN A   1      17.815   5.125  14.690  0.00  0.00     0.067 A 
ATOM     16  C41 ZIN A   1      18.211   5.317  16.007  0.00  0.00     0.070 A 
ATOM     17  C44 ZIN A   1      18.954   4.370  16.700  0.00  0.00     0.038 A 
ATOM     18  C45 ZIN A   1      19.342   3.185  16.126  0.00  0.00     0.017 A 
ATOM     19  C46 ZIN A   1      18.954   2.967  14.800  0.00  0.00    -0.001 A 
ATOM     20  C47 ZIN A   1      18.558   1.280  11.522  0.00  0.00     0.238 C 
ATOM     21  C49 ZIN A   1      18.798   2.084  10.243  0.00  0.00     0.045 C 
ATOM     22  C50 ZIN A   1      18.769   1.144   9.045  0.00  0.00     0.010 C 
ATOM     23  H77 ZIN A   1      17.485   3.881  12.129  0.00  0.00     0.166 HD
ENDROOT
BRANCH   3  24
ATOM     24  O13 ZIN A   1      18.162  -2.282   9.245  0.00  0.00    -0.309 OA
BRANCH  24  25
ATOM     25  C14 ZIN A   1      18.373  -3.613   9.254  0.00  0.00     0.294 C 
ATOM     26  O15 ZIN A   1      19.130  -4.103  10.069  0.00  0.00    -0.259 OA
BRANCH  25  27
ATOM     27  C16 ZIN A   1      17.686  -4.475   8.274  0.00  0.00     0.045 A 
ATOM     28  C27 ZIN A   1      16.582  -5.237   8.665  0.00  0.00     0.057 A 
ATOM     29  C24 ZIN A   1      15.937  -6.040   7.743  0.00  0.00     0.105 A 
ATOM     30  C21 ZIN A   1      16.393  -6.098   6.429  0.00  0.00     0.135 A 
ATOM     31  C18 ZIN A   1      17.497  -5.344   6.038  0.00  0.00     0.105 A 
ATOM     32  C17 ZIN A   1      18.141  -4.536   6.954  0.00  0.00     0.057 A 
BRANCH  29  33
ATOM     33  O25 ZIN A   1      14.859  -6.779   8.121  0.00  0.00    -0.353 OA
ATOM     34  C26 ZIN A   1      13.599  -6.106   8.177  0.00  0.00     0.210 C 
ENDBRANCH  29  33
BRANCH  30  35
ATOM     35  O22 ZIN A   1      15.760  -6.892   5.526  0.00  0.00    -0.351 OA
ATOM     36  C23 ZIN A   1      14.756  -6.280   4.714  0.00  0.00     0.210 C 
ENDBRANCH  30  35
BRANCH  31  37
ATOM     37  O19 ZIN A   1      17.939  -5.403   4.754  0.00  0.00    -0.353 OA
ATOM     38  C20 ZIN A   1      17.857  -4.203   3.983  0.00  0.00     0.210 C 
ENDBRANCH  31  37
ENDBRANCH  25  27
ENDBRANCH  24  25
ENDBRANCH   3  24
BRANCH   2  39
ATOM     39  O9  ZIN A   1      17.651   0.197   6.567  0.00  0.00    -0.387 OA
ATOM     40  C10 ZIN A   1      17.489  -0.595   5.390  0.00  0.00     0.202 C 
ENDBRANCH   2  39
BRANCH   1  41
ATOM     41  C3  ZIN A   1      17.107  -0.260  10.234  0.00  0.00     0.265 C 
ATOM     42  O4  ZIN A   1      17.618  -1.335  10.438  0.00  0.00    -0.265 OA
BRANCH  41  43
ATOM     43  O2  ZIN A   1      16.283   0.276  11.149  0.00  0.00    -0.326 OA
ATOM     44  C1  ZIN A   1      16.226  -0.375  12.445  0.00  0.00     0.213 C 
ENDBRANCH  41  43
ENDBRANCH   1  41
BRANCH  16  45
ATOM     45  O42 ZIN A   1      17.862   6.469  16.638  0.00  0.00    -0.356 OA
ATOM     46  C43 ZIN A   1      17.600   6.388  18.040  0.00  0.00     0.210 C 
ENDBRANCH  16  45
TORSDOF 10
ENDMDL
MODEL 7
REMARK VINA RESULT:      -7.6      1.905      2.804
REMARK  10 active torsions:
REMARK  status: ('A' for Active; 'I' for Inactive)
REMARK    1  A    between atoms: O2_2  and  C3_3 
REMARK    2  A    between atoms: C3_3  and  C5_5 
REMARK    3  A    between atoms: C7_6  and  O9_7 
REMARK    4  A    between atoms: C11_9  and  O13_10 
REMARK    5  A    between atoms: O13_10  and  C14_11 
REMARK    6  A    between atoms: C14_11  and  C16_13 
REMARK    7  A    between atoms: C18_15  and  O19_16 
REMARK    8  A    between atoms: C21_18  and  O22_19 
REMARK    9  A    between atoms: C24_21  and  O25_22 
REMARK   10  A    between atoms: C41_37  and  O42_38 
ROOT
ATOM      1  C5  ZIN A   1      17.638  -0.553  14.073  0.00  0.00     0.121 C 
ATOM      2  C7  ZIN A   1      17.556   0.421  15.248  0.00  0.00     0.164 C 
ATOM      3  C11 ZIN A   1      18.488   1.608  14.989  0.00  0.00     0.162 C 
ATOM      4  C28 ZIN A   1      19.925   1.101  14.853  0.00  0.00     0.042 C 
ATOM      5  C29 ZIN A   1      20.017   0.117  13.689  0.00  0.00     0.019 C 
ATOM      6  C31 ZIN A   1      19.642   0.820  12.382  0.00  0.00     0.240 C 
ATOM      7  N32 ZIN A   1      19.754  -0.133  11.272  0.00  0.00    -0.061 N 
ATOM      8  H33 ZIN A   1      20.685  -0.520  11.264  0.00  0.00     0.280 HD
ATOM      9  C34 ZIN A   1      19.506   0.541   9.993  0.00  0.00     0.240 C 
ATOM     10  C35 ZIN A   1      19.950  -0.369   8.839  0.00  0.00     0.069 C 
ATOM     11  C36 ZIN A   1      19.364  -1.739   9.073  0.00  0.00    -0.019 A 
ATOM     12  C37 ZIN A   1      18.841  -2.132  10.259  0.00  0.00     0.048 A 
ATOM     13  N38 ZIN A   1      18.391  -3.421  10.162  0.00  0.00    -0.357 N 
ATOM     14  C39 ZIN A   1      18.614  -3.894   8.899  0.00  0.00     0.046 A 
ATOM     15  C40 ZIN A   1      18.343  -5.123   8.303  0.00  0.00     0.067 A 
ATOM     16  C41 ZIN A   1      18.707  -5.270   6.972  0.00  0.00     0.070 A 
ATOM     17  C44 ZIN A   1      19.316  -4.248   6.256  0.00  0.00     0.038 A 
ATOM     18  C45 ZIN A   1      19.594  -3.028   6.820  0.00  0.00     0.017 A 
ATOM     19  C46 ZIN A   1      19.236  -2.854   8.161  0.00  0.00    -0.001 A 
ATOM     20  C47 ZIN A   1      18.784  -1.221  11.458  0.00  0.00     0.238 C 
ATOM     21  C49 ZIN A   1      19.158  -1.994  12.724  0.00  0.00     0.045 C 
ATOM     22  C50 ZIN A   1      19.073  -1.063  13.926  0.00  0.00     0.010 C 
ATOM     23  H77 ZIN A   1      17.978  -3.923  10.880  0.00  0.00     0.166 HD
ENDROOT
BRANCH   3  24
ATOM     24  O13 ZIN A   1      18.091   2.276  13.764  0.00  0.00    -0.309 OA
BRANCH  24  25
ATOM     25  C14 ZIN A   1      18.271   3.611  13.709  0.00  0.00     0.294 C 
ATOM     26  O15 ZIN A   1      18.999   4.092  12.864  0.00  0.00    -0.259 OA
BRANCH  25  27
ATOM     27  C16 ZIN A   1      17.586   4.488  14.677  0.00  0.00     0.045 A 
ATOM     28  C27 ZIN A   1      16.486   5.250  14.274  0.00  0.00     0.057 A 
ATOM     29  C24 ZIN A   1      15.842   6.066  15.184  0.00  0.00     0.105 A 
ATOM     30  C21 ZIN A   1      16.295   6.139  16.499  0.00  0.00     0.135 A 
ATOM     31  C18 ZIN A   1      17.394   5.385  16.902  0.00  0.00     0.105 A 
ATOM     32  C17 ZIN A   1      18.038   4.563  15.997  0.00  0.00     0.057 A 
BRANCH  29  33
ATOM     33  O25 ZIN A   1      14.768   6.805  14.795  0.00  0.00    -0.353 OA
ATOM     34  C26 ZIN A   1      13.504   6.139  14.751  0.00  0.00     0.210 C 
ENDBRANCH  29  33
BRANCH  30  35
ATOM     35  O22 ZIN A   1      15.664   6.946  17.391  0.00  0.00    -0.351 OA
ATOM     36  C23 ZIN A   1      14.658   6.348  18.211  0.00  0.00     0.210 C 
ENDBRANCH  30  35
BRANCH  31  37
ATOM     37  O19 ZIN A   1      17.834   5.458  18.186  0.00  0.00    -0.353 OA
ATOM     38  C20 ZIN A   1      17.705   4.280  18.985  0.00  0.00     0.210 C 
ENDBRANCH  31  37
ENDBRANCH  25  27
ENDBRANCH  24  25
ENDBRANCH   3  24
BRANCH   2  39
ATOM     39  O9  ZIN A   1      17.953  -0.245  16.448  0.00  0.00    -0.387 OA
ATOM     40  C10 ZIN A   1      17.634   0.471  17.643  0.00  0.00     0.202 C 
ENDBRANCH   2  39
BRANCH   1  41
ATOM     41  C3  ZIN A   1      17.225   0.152  12.806  0.00  0.00     0.265 C 
ATOM     42  O4  ZIN A   1      17.500   1.317  12.646  0.00  0.00    -0.265 OA
BRANCH  41  43
ATOM     43  O2  ZIN A   1      16.549  -0.515  11.857  0.00  0.00    -0.326 OA
ATOM     44  C1  ZIN A   1      16.163   0.234  10.674  0.00  0.00     0.213 C 
ENDBRANCH  41  43
ENDBRANCH   1  41
BRANCH  16  45
ATOM     45  O42 ZIN A   1      18.461  -6.454   6.349  0.00  0.00    -0.356 OA
ATOM     46  C43 ZIN A   1      17.646  -7.397   7.047  0.00  0.00     0.210 C 
ENDBRANCH  16  45
TORSDOF 10
ENDMDL
MODEL 8
REMARK VINA RESULT:      -7.5      1.921      3.116
REMARK  10 active torsions:
REMARK  status: ('A' for Active; 'I' for Inactive)
REMARK    1  A    between atoms: O2_2  and  C3_3 
REMARK    2  A    between atoms: C3_3  and  C5_5 
REMARK    3  A    between atoms: C7_6  and  O9_7 
REMARK    4  A    between atoms: C11_9  and  O13_10 
REMARK    5  A    between atoms: O13_10  and  C14_11 
REMARK    6  A    between atoms: C14_11  and  C16_13 
REMARK    7  A    between atoms: C18_15  and  O19_16 
REMARK    8  A    between atoms: C21_18  and  O22_19 
REMARK    9  A    between atoms: C24_21  and  O25_22 
REMARK   10  A    between atoms: C41_37  and  O42_38 
ROOT
ATOM      1  C5  ZIN A   1      17.697  -0.450  13.716  0.00  0.00     0.121 C 
ATOM      2  C7  ZIN A   1      17.621   0.672  14.752  0.00  0.00     0.164 C 
ATOM      3  C11 ZIN A   1      18.536   1.821  14.322  0.00  0.00     0.162 C 
ATOM      4  C28 ZIN A   1      19.976   1.313  14.233  0.00  0.00     0.042 C 
ATOM      5  C29 ZIN A   1      20.062   0.184  13.209  0.00  0.00     0.019 C 
ATOM      6  C31 ZIN A   1      19.662   0.702  11.826  0.00  0.00     0.240 C 
ATOM      7  N32 ZIN A   1      19.768  -0.389  10.851  0.00  0.00    -0.061 N 
ATOM      8  H33 ZIN A   1      20.703  -0.765  10.881  0.00  0.00     0.280 HD
ATOM      9  C34 ZIN A   1      19.495   0.106   9.498  0.00  0.00     0.240 C 
ATOM     10  C35 ZIN A   1      19.932  -0.946   8.469  0.00  0.00     0.069 C 
ATOM     11  C36 ZIN A   1      19.365  -2.278   8.893  0.00  0.00    -0.019 A 
ATOM     12  C37 ZIN A   1      18.863  -2.514  10.129  0.00  0.00     0.048 A 
ATOM     13  N38 ZIN A   1      18.426  -3.808  10.211  0.00  0.00    -0.357 N 
ATOM     14  C39 ZIN A   1      18.635  -4.443   9.019  0.00  0.00     0.046 A 
ATOM     15  C40 ZIN A   1      18.369  -5.743   8.597  0.00  0.00     0.067 A 
ATOM     16  C41 ZIN A   1      18.716  -6.063   7.292  0.00  0.00     0.070 A 
ATOM     17  C44 ZIN A   1      19.303  -5.141   6.436  0.00  0.00     0.038 A 
ATOM     18  C45 ZIN A   1      19.577  -3.854   6.828  0.00  0.00     0.017 A 
ATOM     19  C46 ZIN A   1      19.236  -3.505   8.139  0.00  0.00    -0.001 A 
ATOM     20  C47 ZIN A   1      18.813  -1.451  11.196  0.00  0.00     0.238 C 
ATOM     21  C49 ZIN A   1      19.213  -2.045  12.548  0.00  0.00     0.045 C 
ATOM     22  C50 ZIN A   1      19.135  -0.963  13.616  0.00  0.00     0.010 C 
ATOM     23  H77 ZIN A   1      18.028  -4.213  10.997  0.00  0.00     0.166 HD
ENDROOT
BRANCH   3  24
ATOM     24  O13 ZIN A   1      18.115   2.317  13.025  0.00  0.00    -0.309 OA
BRANCH  24  25
ATOM     25  C14 ZIN A   1      18.324   3.624  12.772  0.00  0.00     0.294 C 
ATOM     26  O15 ZIN A   1      18.546   3.995  11.637  0.00  0.00    -0.259 OA
BRANCH  25  27
ATOM     27  C16 ZIN A   1      18.285   4.604  13.874  0.00  0.00     0.045 A 
ATOM     28  C27 ZIN A   1      17.059   5.004  14.412  0.00  0.00     0.057 A 
ATOM     29  C24 ZIN A   1      17.026   5.918  15.448  0.00  0.00     0.105 A 
ATOM     30  C21 ZIN A   1      18.212   6.448  15.949  0.00  0.00     0.135 A 
ATOM     31  C18 ZIN A   1      19.435   6.055  15.411  0.00  0.00     0.105 A 
ATOM     32  C17 ZIN A   1      19.474   5.138  14.379  0.00  0.00     0.057 A 
BRANCH  29  33
ATOM     33  O25 ZIN A   1      15.833   6.305  15.975  0.00  0.00    -0.353 OA
ATOM     34  C26 ZIN A   1      14.700   6.277  15.104  0.00  0.00     0.210 C 
ENDBRANCH  29  33
BRANCH  30  35
ATOM     35  O22 ZIN A   1      18.176   7.351  16.964  0.00  0.00    -0.351 OA
ATOM     36  C23 ZIN A   1      17.414   8.540  16.748  0.00  0.00     0.210 C 
ENDBRANCH  30  35
BRANCH  31  37
ATOM     37  O19 ZIN A   1      20.591   6.575  15.902  0.00  0.00    -0.353 OA
ATOM     38  C20 ZIN A   1      21.798   5.872  15.601  0.00  0.00     0.210 C 
ENDBRANCH  31  37
ENDBRANCH  25  27
ENDBRANCH  24  25
ENDBRANCH   3  24
BRANCH   2  39
ATOM     39  O9  ZIN A   1      18.043   0.176  16.024  0.00  0.00    -0.387 OA
ATOM     40  C10 ZIN A   1      17.035  -0.552  16.728  0.00  0.00     0.202 C 
ENDBRANCH   2  39
BRANCH   1  41
ATOM     41  C3  ZIN A   1      17.258   0.076  12.373  0.00  0.00     0.265 C 
ATOM     42  O4  ZIN A   1      17.480   1.224  12.073  0.00  0.00    -0.265 OA
BRANCH  41  43
ATOM     43  O2  ZIN A   1      16.620  -0.732  11.512  0.00  0.00    -0.326 OA
ATOM     44  C1  ZIN A   1      16.189  -0.147  10.255  0.00  0.00     0.213 C 
ENDBRANCH  41  43
ENDBRANCH   1  41
BRANCH  16  45
ATOM     45  O42 ZIN A   1      18.474  -7.321   6.836  0.00  0.00    -0.356 OA
ATOM     46  C43 ZIN A   1      17.274  -7.954   7.284  0.00  0.00     0.210 C 
ENDBRANCH  16  45
TORSDOF 10
ENDMDL
MODEL 9
REMARK VINA RESULT:      -7.5      2.454     10.739
REMARK  10 active torsions:
REMARK  status: ('A' for Active; 'I' for Inactive)
REMARK    1  A    between atoms: O2_2  and  C3_3 
REMARK    2  A    between atoms: C3_3  and  C5_5 
REMARK    3  A    between atoms: C7_6  and  O9_7 
REMARK    4  A    between atoms: C11_9  and  O13_10 
REMARK    5  A    between atoms: O13_10  and  C14_11 
REMARK    6  A    between atoms: C14_11  and  C16_13 
REMARK    7  A    between atoms: C18_15  and  O19_16 
REMARK    8  A    between atoms: C21_18  and  O22_19 
REMARK    9  A    between atoms: C24_21  and  O25_22 
REMARK   10  A    between atoms: C41_37  and  O42_38 
ROOT
ATOM      1  C5  ZIN A   1      17.526   0.494   8.886  0.00  0.00     0.121 C 
ATOM      2  C7  ZIN A   1      17.557  -0.471   7.701  0.00  0.00     0.164 C 
ATOM      3  C11 ZIN A   1      18.644  -1.523   7.932  0.00  0.00     0.162 C 
ATOM      4  C28 ZIN A   1      20.001  -0.828   8.051  0.00  0.00     0.042 C 
ATOM      5  C29 ZIN A   1      19.980   0.149   9.224  0.00  0.00     0.019 C 
ATOM      6  C31 ZIN A   1      19.726  -0.610  10.529  0.00  0.00     0.240 C 
ATOM      7  N32 ZIN A   1      19.727   0.339  11.648  0.00  0.00    -0.061 N 
ATOM      8  H33 ZIN A   1      20.598   0.848  11.646  0.00  0.00     0.280 HD
ATOM      9  C34 ZIN A   1      19.595  -0.374  12.923  0.00  0.00     0.240 C 
ATOM     10  C35 ZIN A   1      19.931   0.578  14.080  0.00  0.00     0.069 C 
ATOM     11  C36 ZIN A   1      19.163   1.858  13.870  0.00  0.00    -0.019 A 
ATOM     12  C37 ZIN A   1      18.571   2.187  12.697  0.00  0.00     0.048 A 
ATOM     13  N38 ZIN A   1      17.953   3.402  12.816  0.00  0.00    -0.357 N 
ATOM     14  C39 ZIN A   1      18.131   3.890  14.081  0.00  0.00     0.046 A 
ATOM     15  C40 ZIN A   1      17.707   5.065  14.694  0.00  0.00     0.067 A 
ATOM     16  C41 ZIN A   1      18.071   5.249  16.021  0.00  0.00     0.070 A 
ATOM     17  C44 ZIN A   1      18.824   4.312  16.716  0.00  0.00     0.038 A 
ATOM     18  C45 ZIN A   1      19.255   3.146  16.134  0.00  0.00     0.017 A 
ATOM     19  C46 ZIN A   1      18.901   2.936  14.797  0.00  0.00    -0.001 A 
ATOM     20  C47 ZIN A   1      18.617   1.287  11.489  0.00  0.00     0.238 C 
ATOM     21  C49 ZIN A   1      18.861   2.116  10.227  0.00  0.00     0.045 C 
ATOM     22  C50 ZIN A   1      18.882   1.193   9.015  0.00  0.00     0.010 C 
ATOM     23  H77 ZIN A   1      17.463   3.851  12.110  0.00  0.00     0.166 HD
ENDROOT
BRANCH   3  24
ATOM     24  O13 ZIN A   1      18.362  -2.251   9.156  0.00  0.00    -0.309 OA
BRANCH  24  25
ATOM     25  C14 ZIN A   1      18.584  -3.580   9.142  0.00  0.00     0.294 C 
ATOM     26  O15 ZIN A   1      19.368  -4.073   9.929  0.00  0.00    -0.259 OA
BRANCH  25  27
ATOM     27  C16 ZIN A   1      17.876  -4.436   8.173  0.00  0.00     0.045 A 
ATOM     28  C27 ZIN A   1      18.285  -4.466   6.836  0.00  0.00     0.057 A 
ATOM     29  C24 ZIN A   1      17.623  -5.273   5.931  0.00  0.00     0.105 A 
ATOM     30  C21 ZIN A   1      16.543  -6.048   6.346  0.00  0.00     0.135 A 
ATOM     31  C18 ZIN A   1      16.130  -6.016   7.675  0.00  0.00     0.105 A 
ATOM     32  C17 ZIN A   1      16.792  -5.215   8.586  0.00  0.00     0.057 A 
BRANCH  29  33
ATOM     33  O25 ZIN A   1      18.023  -5.307   4.631  0.00  0.00    -0.353 OA
ATOM     34  C26 ZIN A   1      17.754  -4.147   3.840  0.00  0.00     0.210 C 
ENDBRANCH  29  33
BRANCH  30  35
ATOM     35  O22 ZIN A   1      15.891  -6.836   5.452  0.00  0.00    -0.351 OA
ATOM     36  C23 ZIN A   1      14.832  -6.233   4.706  0.00  0.00     0.210 C 
ENDBRANCH  30  35
BRANCH  31  37
ATOM     37  O19 ZIN A   1      15.075  -6.773   8.077  0.00  0.00    -0.353 OA
ATOM     38  C20 ZIN A   1      13.796  -6.136   8.115  0.00  0.00     0.210 C 
ENDBRANCH  31  37
ENDBRANCH  25  27
ENDBRANCH  24  25
ENDBRANCH   3  24
BRANCH   2  39
ATOM     39  O9  ZIN A   1      17.840   0.253   6.502  0.00  0.00    -0.387 OA
ATOM     40  C10 ZIN A   1      17.745  -0.532   5.312  0.00  0.00     0.202 C 
ENDBRANCH   2  39
BRANCH   1  41
ATOM     41  C3  ZIN A   1      17.234  -0.271  10.150  0.00  0.00     0.265 C 
ATOM     42  O4  ZIN A   1      17.691  -1.378  10.305  0.00  0.00    -0.265 OA
BRANCH  41  43
ATOM     43  O2  ZIN A   1      16.464   0.277  11.104  0.00  0.00    -0.326 OA
ATOM     44  C1  ZIN A   1      16.254  -0.503  12.310  0.00  0.00     0.213 C 
ENDBRANCH  41  43
ENDBRANCH   1  41
BRANCH  16  45
ATOM     45  O42 ZIN A   1      17.678   6.382  16.661  0.00  0.00    -0.356 OA
ATOM     46  C43 ZIN A   1      16.388   6.367  17.274  0.00  0.00     0.210 C 
ENDBRANCH  16  45
TORSDOF 10
ENDMDL
