MODEL 1
REMARK VINA RESULT:      -5.7      0.000      0.000
REMARK  3 active torsions:
REMARK  status: ('A' for Active; 'I' for Inactive)
REMARK    1  A    between atoms: N1_1  and  C2_2 
REMARK    2  A    between atoms: C6_6  and  N7_7 
REMARK    3  A    between atoms: N7_7  and  C8_8 
ROOT
ATOM      1  C2  ZIN A   1      18.304  -2.280   8.198  0.00  0.00     0.029 A 
ATOM      2  C3  ZIN A   1      18.243  -1.229   7.293  0.00  0.00     0.055 A 
ATOM      3  C4  ZIN A   1      18.805  -0.008   7.613  0.00  0.00     0.065 A 
ATOM      4 Cl5  ZIN A   1      18.728   1.307   6.482  0.00  0.00    -0.082 Cl
ATOM      5  C6  ZIN A   1      19.434   0.167   8.840  0.00  0.00     0.092 A 
ATOM      6  C14 ZIN A   1      19.495  -0.885   9.746  0.00  0.00     0.065 A 
ATOM      7 Cl15 ZIN A   1      20.280  -0.665  11.278  0.00  0.00    -0.082 Cl
ATOM      8  C16 ZIN A   1      18.927  -2.104   9.427  0.00  0.00     0.055 A 
ENDROOT
BRANCH   5   9
ATOM      9  N7  ZIN A   1      20.005   1.407   9.165  0.00  0.00    -0.189 N 
ATOM     10  H20 ZIN A   1      20.860   1.662   8.784  0.00  0.00     0.184 HD
BRANCH   9  11
ATOM     11  C8  ZIN A   1      19.356   2.256  10.020  0.00  0.00     0.674 A 
ATOM     12  N13 ZIN A   1      19.974   2.893  11.003  0.00  0.00    -0.225 N 
ATOM     13  C12 ZIN A   1      19.001   3.725  11.728  0.00  0.00     0.158 A 
ATOM     14  H25 ZIN A   1      20.919   2.826  11.207  0.00  0.00     0.177 HD
ATOM     15  C11 ZIN A   1      17.674   3.452  10.991  0.00  0.00     0.158 A 
ATOM     16  N9  ZIN A   1      18.059   2.503   9.934  0.00  0.00    -0.225 N 
ATOM     17  H10 ZIN A   1      17.456   2.119   9.278  0.00  0.00     0.177 HD
ENDBRANCH   9  11
ENDBRANCH   5   9
BRANCH   1  18
ATOM     18  N1  ZIN A   1      17.733  -3.516   7.875  0.00  0.00    -0.399 N 
ATOM     19  H17 ZIN A   1      17.170  -3.974   8.519  0.00  0.00     0.156 HD
ATOM     20  H18 ZIN A   1      17.897  -3.913   7.005  0.00  0.00     0.156 HD
ENDBRANCH   1  18
TORSDOF 3
ENDMDL
MODEL 2
REMARK VINA RESULT:      -5.7      2.290      5.047
REMARK  3 active torsions:
REMARK  status: ('A' for Active; 'I' for Inactive)
REMARK    1  A    between atoms: N1_1  and  C2_2 
REMARK    2  A    between atoms: C6_6  and  N7_7 
REMARK    3  A    between atoms: N7_7  and  C8_8 
ROOT
ATOM      1  C2  ZIN A   1      17.850   3.418  11.471  0.00  0.00     0.029 A 
ATOM      2  C3  ZIN A   1      18.194   3.121  10.159  0.00  0.00     0.055 A 
ATOM      3  C4  ZIN A   1      19.044   2.065   9.889  0.00  0.00     0.065 A 
ATOM      4 Cl5  ZIN A   1      19.475   1.694   8.249  0.00  0.00    -0.082 Cl
ATOM      5  C6  ZIN A   1      19.553   1.300  10.931  0.00  0.00     0.092 A 
ATOM      6  C14 ZIN A   1      19.209   1.598  12.244  0.00  0.00     0.065 A 
ATOM      7 Cl15 ZIN A   1      19.846   0.642  13.545  0.00  0.00    -0.082 Cl
ATOM      8  C16 ZIN A   1      18.364   2.657  12.513  0.00  0.00     0.055 A 
ENDROOT
BRANCH   5   9
ATOM      9  N7  ZIN A   1      20.417   0.228  10.658  0.00  0.00    -0.189 N 
ATOM     10  H20 ZIN A   1      21.342   0.400  10.423  0.00  0.00     0.184 HD
BRANCH   9  11
ATOM     11  C8  ZIN A   1      19.954  -1.058  10.723  0.00  0.00     0.674 A 
ATOM     12  N13 ZIN A   1      18.796  -1.429  10.200  0.00  0.00    -0.225 N 
ATOM     13  C12 ZIN A   1      18.596  -2.867  10.436  0.00  0.00     0.158 A 
ATOM     14  H25 ZIN A   1      18.179  -0.846   9.731  0.00  0.00     0.177 HD
ATOM     15  C11 ZIN A   1      19.861  -3.283  11.213  0.00  0.00     0.158 A 
ATOM     16  N9  ZIN A   1      20.626  -2.030  11.318  0.00  0.00    -0.225 N 
ATOM     17  H10 ZIN A   1      21.487  -1.933  11.755  0.00  0.00     0.177 HD
ENDBRANCH   9  11
ENDBRANCH   5   9
BRANCH   1  18
ATOM     18  N1  ZIN A   1      16.991   4.488  11.744  0.00  0.00    -0.399 N 
ATOM     19  H17 ZIN A   1      17.134   5.347  11.316  0.00  0.00     0.156 HD
ATOM     20  H18 ZIN A   1      16.249   4.370  12.358  0.00  0.00     0.156 HD
ENDBRANCH   1  18
TORSDOF 3
ENDMDL
MODEL 3
REMARK VINA RESULT:      -5.7      2.301      5.458
REMARK  3 active torsions:
REMARK  status: ('A' for Active; 'I' for Inactive)
REMARK    1  A    between atoms: N1_1  and  C2_2 
REMARK    2  A    between atoms: C6_6  and  N7_7 
REMARK    3  A    between atoms: N7_7  and  C8_8 
ROOT
ATOM      1  C2  ZIN A   1      17.850   3.399  11.473  0.00  0.00     0.029 A 
ATOM      2  C3  ZIN A   1      18.378   2.644  12.511  0.00  0.00     0.055 A 
ATOM      3  C4  ZIN A   1      19.223   1.585  12.235  0.00  0.00     0.065 A 
ATOM      4 Cl5  ZIN A   1      19.883   0.640  13.533  0.00  0.00    -0.082 Cl
ATOM      5  C6  ZIN A   1      19.546   1.278  10.919  0.00  0.00     0.092 A 
ATOM      6  C14 ZIN A   1      19.016   2.034   9.880  0.00  0.00     0.065 A 
ATOM      7 Cl15 ZIN A   1      19.418   1.650   8.236  0.00  0.00    -0.082 Cl
ATOM      8  C16 ZIN A   1      18.167   3.089  10.157  0.00  0.00     0.055 A 
ENDROOT
BRANCH   5   9
ATOM      9  N7  ZIN A   1      20.403   0.203  10.639  0.00  0.00    -0.189 N 
ATOM     10  H20 ZIN A   1      21.322   0.372  10.376  0.00  0.00     0.184 HD
BRANCH   9  11
ATOM     11  C8  ZIN A   1      19.944  -1.082  10.736  0.00  0.00     0.674 A 
ATOM     12  N13 ZIN A   1      20.633  -2.046  11.326  0.00  0.00    -0.225 N 
ATOM     13  C12 ZIN A   1      19.864  -3.298  11.265  0.00  0.00     0.158 A 
ATOM     14  H25 ZIN A   1      21.504  -1.941  11.738  0.00  0.00     0.177 HD
ATOM     15  C11 ZIN A   1      18.580  -2.896  10.511  0.00  0.00     0.158 A 
ATOM     16  N9  ZIN A   1      18.776  -1.463  10.242  0.00  0.00    -0.225 N 
ATOM     17  H10 ZIN A   1      18.149  -0.888   9.777  0.00  0.00     0.177 HD
ENDBRANCH   9  11
ENDBRANCH   5   9
BRANCH   1  18
ATOM     18  N1  ZIN A   1      16.994   4.470  11.752  0.00  0.00    -0.399 N 
ATOM     19  H17 ZIN A   1      16.674   4.612  12.657  0.00  0.00     0.156 HD
ATOM     20  H18 ZIN A   1      16.722   5.072  11.041  0.00  0.00     0.156 HD
ENDBRANCH   1  18
TORSDOF 3
ENDMDL
MODEL 4
REMARK VINA RESULT:      -5.6      4.246      5.967
REMARK  3 active torsions:
REMARK  status: ('A' for Active; 'I' for Inactive)
REMARK    1  A    between atoms: N1_1  and  C2_2 
REMARK    2  A    between atoms: C6_6  and  N7_7 
REMARK    3  A    between atoms: N7_7  and  C8_8 
ROOT
ATOM      1  C2  ZIN A   1      20.521   0.623  12.219  0.00  0.00     0.029 A 
ATOM      2  C3  ZIN A   1      20.221   0.201  13.507  0.00  0.00     0.055 A 
ATOM      3  C4  ZIN A   1      19.349   0.935  14.289  0.00  0.00     0.065 A 
ATOM      4 Cl5  ZIN A   1      18.974   0.408  15.900  0.00  0.00    -0.082 Cl
ATOM      5  C6  ZIN A   1      18.771   2.094  13.785  0.00  0.00     0.092 A 
ATOM      6  C14 ZIN A   1      19.073   2.516  12.496  0.00  0.00     0.065 A 
ATOM      7 Cl15 ZIN A   1      18.352   3.964  11.867  0.00  0.00    -0.082 Cl
ATOM      8  C16 ZIN A   1      19.949   1.784  11.717  0.00  0.00     0.055 A 
ENDROOT
BRANCH   5   9
ATOM      9  N7  ZIN A   1      17.886   2.839  14.579  0.00  0.00    -0.189 N 
ATOM     10  H20 ZIN A   1      16.946   2.602  14.609  0.00  0.00     0.184 HD
BRANCH   9  11
ATOM     11  C8  ZIN A   1      18.350   3.899  15.310  0.00  0.00     0.674 A 
ATOM     12  N13 ZIN A   1      19.632   4.220  15.373  0.00  0.00    -0.225 N 
ATOM     13  C12 ZIN A   1      19.795   5.403  16.231  0.00  0.00     0.158 A 
ATOM     14  H25 ZIN A   1      20.350   3.751  14.919  0.00  0.00     0.177 HD
ATOM     15  C11 ZIN A   1      18.355   5.723  16.679  0.00  0.00     0.158 A 
ATOM     16  N9  ZIN A   1      17.551   4.685  16.015  0.00  0.00    -0.225 N 
ATOM     17  H10 ZIN A   1      16.588   4.590  16.084  0.00  0.00     0.177 HD
ENDBRANCH   9  11
ENDBRANCH   5   9
BRANCH   1  18
ATOM     18  N1  ZIN A   1      21.405  -0.120  11.428  0.00  0.00    -0.399 N 
ATOM     19  H17 ZIN A   1      21.577  -1.052  11.636  0.00  0.00     0.156 HD
ATOM     20  H18 ZIN A   1      21.843   0.297  10.669  0.00  0.00     0.156 HD
ENDBRANCH   1  18
TORSDOF 3
ENDMDL
MODEL 5
REMARK VINA RESULT:      -5.6      1.795      5.233
REMARK  3 active torsions:
REMARK  status: ('A' for Active; 'I' for Inactive)
REMARK    1  A    between atoms: N1_1  and  C2_2 
REMARK    2  A    between atoms: C6_6  and  N7_7 
REMARK    3  A    between atoms: N7_7  and  C8_8 
ROOT
ATOM      1  C2  ZIN A   1      19.324   1.813  10.081  0.00  0.00     0.029 A 
ATOM      2  C3  ZIN A   1      19.252   1.900   8.697  0.00  0.00     0.055 A 
ATOM      3  C4  ZIN A   1      18.665   0.882   7.970  0.00  0.00     0.065 A 
ATOM      4 Cl5  ZIN A   1      18.575   0.991   6.240  0.00  0.00    -0.082 Cl
ATOM      5  C6  ZIN A   1      18.147  -0.229   8.624  0.00  0.00     0.092 A 
ATOM      6  C14 ZIN A   1      18.220  -0.317  10.009  0.00  0.00     0.065 A 
ATOM      7 Cl15 ZIN A   1      17.573  -1.705  10.825  0.00  0.00    -0.082 Cl
ATOM      8  C16 ZIN A   1      18.812   0.700  10.735  0.00  0.00     0.055 A 
ENDROOT
BRANCH   5   9
ATOM      9  N7  ZIN A   1      17.552  -1.264   7.886  0.00  0.00    -0.189 N 
ATOM     10  H20 ZIN A   1      16.585  -1.336   7.845  0.00  0.00     0.184 HD
BRANCH   9  11
ATOM     11  C8  ZIN A   1      18.335  -2.171   7.224  0.00  0.00     0.674 A 
ATOM     12  N13 ZIN A   1      18.111  -2.530   5.970  0.00  0.00    -0.225 N 
ATOM     13  C12 ZIN A   1      19.128  -3.509   5.558  0.00  0.00     0.158 A 
ATOM     14  H25 ZIN A   1      17.394  -2.195   5.410  0.00  0.00     0.177 HD
ATOM     15  C11 ZIN A   1      20.001  -3.674   6.818  0.00  0.00     0.158 A 
ATOM     16  N9  ZIN A   1      19.375  -2.763   7.790  0.00  0.00    -0.225 N 
ATOM     17  H10 ZIN A   1      19.677  -2.620   8.700  0.00  0.00     0.177 HD
ENDBRANCH   9  11
ENDBRANCH   5   9
BRANCH   1  18
ATOM     18  N1  ZIN A   1      19.919   2.843  10.817  0.00  0.00    -0.399 N 
ATOM     19  H17 ZIN A   1      20.761   2.690  11.274  0.00  0.00     0.156 HD
ATOM     20  H18 ZIN A   1      19.491   3.712  10.868  0.00  0.00     0.156 HD
ENDBRANCH   1  18
TORSDOF 3
ENDMDL
MODEL 6
REMARK VINA RESULT:      -5.6      2.917      5.234
REMARK  3 active torsions:
REMARK  status: ('A' for Active; 'I' for Inactive)
REMARK    1  A    between atoms: N1_1  and  C2_2 
REMARK    2  A    between atoms: C6_6  and  N7_7 
REMARK    3  A    between atoms: N7_7  and  C8_8 
ROOT
ATOM      1  C2  ZIN A   1      18.083   0.713  14.273  0.00  0.00     0.029 A 
ATOM      2  C3  ZIN A   1      18.384  -0.584  13.881  0.00  0.00     0.055 A 
ATOM      3  C4  ZIN A   1      19.212  -0.805  12.797  0.00  0.00     0.065 A 
ATOM      4 Cl5  ZIN A   1      19.587  -2.427  12.307  0.00  0.00    -0.082 Cl
ATOM      5  C6  ZIN A   1      19.745   0.273  12.100  0.00  0.00     0.092 A 
ATOM      6  C14 ZIN A   1      19.443   1.571  12.492  0.00  0.00     0.065 A 
ATOM      7 Cl15 ZIN A   1      20.109   2.916  11.621  0.00  0.00    -0.082 Cl
ATOM      8  C16 ZIN A   1      18.611   1.790  13.573  0.00  0.00     0.055 A 
ENDROOT
BRANCH   5   9
ATOM      9  N7  ZIN A   1      20.586   0.049  10.999  0.00  0.00    -0.189 N 
ATOM     10  H20 ZIN A   1      21.547   0.003  11.125  0.00  0.00     0.184 HD
BRANCH   9  11
ATOM     11  C8  ZIN A   1      20.050  -0.103   9.749  0.00  0.00     0.674 A 
ATOM     12  N13 ZIN A   1      19.836  -1.289   9.201  0.00  0.00    -0.225 N 
ATOM     13  C12 ZIN A   1      19.252  -1.106   7.864  0.00  0.00     0.158 A 
ATOM     14  H25 ZIN A   1      20.029  -2.142   9.619  0.00  0.00     0.177 HD
ATOM     15  C11 ZIN A   1      19.167   0.426   7.714  0.00  0.00     0.158 A 
ATOM     16  N9  ZIN A   1      19.709   0.925   8.987  0.00  0.00    -0.225 N 
ATOM     17  H10 ZIN A   1      19.802   1.859   9.231  0.00  0.00     0.177 HD
ENDBRANCH   9  11
ENDBRANCH   5   9
BRANCH   1  18
ATOM     18  N1  ZIN A   1      17.243   0.936  15.370  0.00  0.00    -0.399 N 
ATOM     19  H17 ZIN A   1      17.530   1.521  16.089  0.00  0.00     0.156 HD
ATOM     20  H18 ZIN A   1      16.373   0.509  15.410  0.00  0.00     0.156 HD
ENDBRANCH   1  18
TORSDOF 3
ENDMDL
MODEL 7
REMARK VINA RESULT:      -5.6      2.917      4.977
REMARK  3 active torsions:
REMARK  status: ('A' for Active; 'I' for Inactive)
REMARK    1  A    between atoms: N1_1  and  C2_2 
REMARK    2  A    between atoms: C6_6  and  N7_7 
REMARK    3  A    between atoms: N7_7  and  C8_8 
ROOT
ATOM      1  C2  ZIN A   1      18.092   0.659  14.264  0.00  0.00     0.029 A 
ATOM      2  C3  ZIN A   1      18.624   1.746  13.582  0.00  0.00     0.055 A 
ATOM      3  C4  ZIN A   1      19.451   1.543  12.494  0.00  0.00     0.065 A 
ATOM      4 Cl5  ZIN A   1      20.116   2.901  11.643  0.00  0.00    -0.082 Cl
ATOM      5  C6  ZIN A   1      19.750   0.250  12.081  0.00  0.00     0.092 A 
ATOM      6  C14 ZIN A   1      19.219  -0.837  12.764  0.00  0.00     0.065 A 
ATOM      7 Cl15 ZIN A   1      19.593  -2.452  12.248  0.00  0.00    -0.082 Cl
ATOM      8  C16 ZIN A   1      18.396  -0.633  13.855  0.00  0.00     0.055 A 
ENDROOT
BRANCH   5   9
ATOM      9  N7  ZIN A   1      20.591   0.043  10.977  0.00  0.00    -0.189 N 
ATOM     10  H20 ZIN A   1      21.552  -0.001  11.102  0.00  0.00     0.184 HD
BRANCH   9  11
ATOM     11  C8  ZIN A   1      20.055  -0.097   9.725  0.00  0.00     0.674 A 
ATOM     12  N13 ZIN A   1      19.687   0.936   8.984  0.00  0.00    -0.225 N 
ATOM     13  C12 ZIN A   1      19.158   0.449   7.702  0.00  0.00     0.158 A 
ATOM     14  H25 ZIN A   1      19.760   1.867   9.245  0.00  0.00     0.177 HD
ATOM     15  C11 ZIN A   1      19.273  -1.084   7.824  0.00  0.00     0.158 A 
ATOM     16  N9  ZIN A   1      19.858  -1.278   9.160  0.00  0.00    -0.225 N 
ATOM     17  H10 ZIN A   1      20.067  -2.135   9.563  0.00  0.00     0.177 HD
ENDBRANCH   9  11
ENDBRANCH   5   9
BRANCH   1  18
ATOM     18  N1  ZIN A   1      17.256   0.866  15.366  0.00  0.00    -0.399 N 
ATOM     19  H17 ZIN A   1      16.365   1.229  15.238  0.00  0.00     0.156 HD
ATOM     20  H18 ZIN A   1      17.565   0.642  16.258  0.00  0.00     0.156 HD
ENDBRANCH   1  18
TORSDOF 3
ENDMDL
MODEL 8
REMARK VINA RESULT:      -5.6      2.368      2.959
REMARK  3 active torsions:
REMARK  status: ('A' for Active; 'I' for Inactive)
REMARK    1  A    between atoms: N1_1  and  C2_2 
REMARK    2  A    between atoms: C6_6  and  N7_7 
REMARK    3  A    between atoms: N7_7  and  C8_8 
ROOT
ATOM      1  C2  ZIN A   1      18.012  -2.961  11.203  0.00  0.00     0.029 A 
ATOM      2  C3  ZIN A   1      18.563  -2.181  10.194  0.00  0.00     0.055 A 
ATOM      3  C4  ZIN A   1      19.437  -1.158  10.510  0.00  0.00     0.065 A 
ATOM      4 Cl5  ZIN A   1      20.125  -0.184   9.249  0.00  0.00    -0.082 Cl
ATOM      5  C6  ZIN A   1      19.767  -0.911  11.837  0.00  0.00     0.092 A 
ATOM      6  C14 ZIN A   1      19.215  -1.691  12.846  0.00  0.00     0.065 A 
ATOM      7 Cl15 ZIN A   1      19.627  -1.382  14.503  0.00  0.00    -0.082 Cl
ATOM      8  C16 ZIN A   1      18.337  -2.710  12.530  0.00  0.00     0.055 A 
ENDROOT
BRANCH   5   9
ATOM      9  N7  ZIN A   1      20.654   0.127  12.158  0.00  0.00    -0.189 N 
ATOM     10  H20 ZIN A   1      21.597  -0.064  12.288  0.00  0.00     0.184 HD
BRANCH   9  11
ATOM     11  C8  ZIN A   1      20.190   1.408  12.287  0.00  0.00     0.674 A 
ATOM     12  N13 ZIN A   1      20.580   2.394  11.494  0.00  0.00    -0.225 N 
ATOM     13  C12 ZIN A   1      19.897   3.634  11.892  0.00  0.00     0.158 A 
ATOM     14  H25 ZIN A   1      21.211   2.310  10.763  0.00  0.00     0.177 HD
ATOM     15  C11 ZIN A   1      19.027   3.198  13.088  0.00  0.00     0.158 A 
ATOM     16  N9  ZIN A   1      19.320   1.762  13.219  0.00  0.00    -0.225 N 
ATOM     17  H10 ZIN A   1      18.935   1.169  13.883  0.00  0.00     0.177 HD
ENDBRANCH   9  11
ENDBRANCH   5   9
BRANCH   1  18
ATOM     18  N1  ZIN A   1      17.126  -3.995  10.883  0.00  0.00    -0.399 N 
ATOM     19  H17 ZIN A   1      16.668  -4.477  11.590  0.00  0.00     0.156 HD
ATOM     20  H18 ZIN A   1      16.967  -4.228   9.955  0.00  0.00     0.156 HD
ENDBRANCH   1  18
TORSDOF 3
ENDMDL
MODEL 9
REMARK VINA RESULT:      -5.6      2.805      6.143
REMARK  3 active torsions:
REMARK  status: ('A' for Active; 'I' for Inactive)
REMARK    1  A    between atoms: N1_1  and  C2_2 
REMARK    2  A    between atoms: C6_6  and  N7_7 
REMARK    3  A    between atoms: N7_7  and  C8_8 
ROOT
ATOM      1  C2  ZIN A   1      20.545  -0.503  11.041  0.00  0.00     0.029 A 
ATOM      2  C3  ZIN A   1      19.995  -1.645  11.608  0.00  0.00     0.055 A 
ATOM      3  C4  ZIN A   1      19.143  -2.443  10.867  0.00  0.00     0.065 A 
ATOM      4 Cl5  ZIN A   1      18.455  -3.870  11.576  0.00  0.00    -0.082 Cl
ATOM      5  C6  ZIN A   1      18.838  -2.102   9.555  0.00  0.00     0.092 A 
ATOM      6  C14 ZIN A   1      19.388  -0.959   8.989  0.00  0.00     0.065 A 
ATOM      7 Cl15 ZIN A   1      19.006  -0.533   7.350  0.00  0.00    -0.082 Cl
ATOM      8  C16 ZIN A   1      20.236  -0.159   9.732  0.00  0.00     0.055 A 
ENDROOT
BRANCH   5   9
ATOM      9  N7  ZIN A   1      17.972  -2.911   8.803  0.00  0.00    -0.189 N 
ATOM     10  H20 ZIN A   1      17.012  -2.828   8.916  0.00  0.00     0.184 HD
BRANCH   9  11
ATOM     11  C8  ZIN A   1      18.482  -3.817   7.913  0.00  0.00     0.674 A 
ATOM     12  N13 ZIN A   1      19.671  -4.377   8.064  0.00  0.00    -0.225 N 
ATOM     13  C12 ZIN A   1      19.917  -5.300   6.946  0.00  0.00     0.158 A 
ATOM     14  H25 ZIN A   1      20.281  -4.210   8.799  0.00  0.00     0.177 HD
ATOM     15  C11 ZIN A   1      18.642  -5.174   6.088  0.00  0.00     0.158 A 
ATOM     16  N9  ZIN A   1      17.827  -4.198   6.828  0.00  0.00    -0.225 N 
ATOM     17  H10 ZIN A   1      16.948  -3.885   6.563  0.00  0.00     0.177 HD
ENDBRANCH   9  11
ENDBRANCH   5   9
BRANCH   1  18
ATOM     18  N1  ZIN A   1      21.407   0.305  11.791  0.00  0.00    -0.399 N 
ATOM     19  H17 ZIN A   1      22.061   0.863  11.343  0.00  0.00     0.156 HD
ATOM     20  H18 ZIN A   1      21.347   0.309  12.759  0.00  0.00     0.156 HD
ENDBRANCH   1  18
TORSDOF 3
ENDMDL
