MODEL 1
REMARK VINA RESULT:      -7.2      0.000      0.000
REMARK  7 active torsions:
REMARK  status: ('A' for Active; 'I' for Inactive)
REMARK    1  A    between atoms: O2_2  and  C3_3 
REMARK    2  A    between atoms: C12_12  and  O13_13 
REMARK    3  A    between atoms: C14_14  and  C15_15 
REMARK    4  A    between atoms: C15_15  and  C16_16 
REMARK    5  A    between atoms: C17_17  and  C19_19 
REMARK    6  A    between atoms: C19_19  and  C20_20 
REMARK    7  A    between atoms: C20_20  and  C21_21 
ROOT
ATOM      1  C3  ZIN A   1      19.025   0.412  10.135  0.00  0.00     0.084 A 
ATOM      2  C4  ZIN A   1      18.883   1.258   9.037  0.00  0.00    -0.018 A 
ATOM      3  C5  ZIN A   1      18.618   2.727   9.248  0.00  0.00     0.052 C 
ATOM      4  C6  ZIN A   1      18.985   0.756   7.765  0.00  0.00    -0.006 A 
ATOM      5  C7  ZIN A   1      19.231  -0.607   7.558  0.00  0.00     0.082 A 
ATOM      6  C8  ZIN A   1      19.287  -0.846   6.111  0.00  0.00     0.297 A 
ATOM      7  O9  ZIN A   1      19.485  -1.927   5.593  0.00  0.00    -0.259 OA
ATOM      8  O10 ZIN A   1      19.087   0.302   5.440  0.00  0.00    -0.313 OA
ATOM      9  C11 ZIN A   1      18.884   1.379   6.395  0.00  0.00     0.219 A 
ATOM     10  C12 ZIN A   1      19.373  -1.457   8.666  0.00  0.00     0.091 A 
ATOM     11  C14 ZIN A   1      19.275  -0.939   9.946  0.00  0.00     0.013 A 
ENDROOT
BRANCH  11  12
ATOM     12  C15 ZIN A   1      19.428  -1.849  11.137  0.00  0.00     0.072 C 
BRANCH  12  13
ATOM     13  C16 ZIN A   1      18.228  -2.756  11.234  0.00  0.00    -0.020 C 
ATOM     14  C17 ZIN A   1      18.392  -4.044  11.405  0.00  0.00    -0.087 C 
ATOM     15  C18 ZIN A   1      19.776  -4.639  11.361  0.00  0.00     0.043 C 
BRANCH  14  16
ATOM     16  C19 ZIN A   1      17.197  -4.931  11.643  0.00  0.00     0.044 C 
BRANCH  16  17
ATOM     17  C20 ZIN A   1      17.156  -6.028  10.576  0.00  0.00     0.117 C 
BRANCH  17  18
ATOM     18  C21 ZIN A   1      16.606  -5.459   9.293  0.00  0.00     0.172 C 
ATOM     19  O22 ZIN A   1      17.363  -5.002   8.454  0.00  0.00    -0.648 OA
ATOM     20  O23 ZIN A   1      15.403  -5.455   9.095  0.00  0.00    -0.648 OA
ENDBRANCH  17  18
ENDBRANCH  16  17
ENDBRANCH  14  16
ENDBRANCH  12  13
ENDBRANCH  11  12
BRANCH   1  21
ATOM     21  O2  ZIN A   1      18.925   0.912  11.392  0.00  0.00    -0.355 OA
ATOM     22  C1  ZIN A   1      17.623   0.931  11.981  0.00  0.00     0.210 C 
ENDBRANCH   1  21
BRANCH  10  23
ATOM     23  O13 ZIN A   1      19.613  -2.780   8.483  0.00  0.00    -0.359 OA
ATOM     24  H32 ZIN A   1      18.831  -3.291   8.232  0.00  0.00     0.217 HD
ENDBRANCH  10  23
TORSDOF 7
ENDMDL
MODEL 2
REMARK VINA RESULT:      -7.0      5.308      8.394
REMARK  7 active torsions:
REMARK  status: ('A' for Active; 'I' for Inactive)
REMARK    1  A    between atoms: O2_2  and  C3_3 
REMARK    2  A    between atoms: C12_12  and  O13_13 
REMARK    3  A    between atoms: C14_14  and  C15_15 
REMARK    4  A    between atoms: C15_15  and  C16_16 
REMARK    5  A    between atoms: C17_17  and  C19_19 
REMARK    6  A    between atoms: C19_19  and  C20_20 
REMARK    7  A    between atoms: C20_20  and  C21_21 
ROOT
ATOM      1  C3  ZIN A   1      17.689   3.440  12.889  0.00  0.00     0.084 A 
ATOM      2  C4  ZIN A   1      17.340   4.790  12.884  0.00  0.00    -0.018 A 
ATOM      3  C5  ZIN A   1      16.414   5.323  11.821  0.00  0.00     0.052 C 
ATOM      4  C6  ZIN A   1      17.838   5.631  13.844  0.00  0.00    -0.006 A 
ATOM      5  C7  ZIN A   1      18.700   5.145  14.836  0.00  0.00     0.082 A 
ATOM      6  C8  ZIN A   1      19.064   6.265  15.712  0.00  0.00     0.297 A 
ATOM      7  O9  ZIN A   1      19.802   6.182  16.675  0.00  0.00    -0.259 OA
ATOM      8  O10 ZIN A   1      18.467   7.395  15.298  0.00  0.00    -0.313 OA
ATOM      9  C11 ZIN A   1      17.667   7.104  14.119  0.00  0.00     0.219 A 
ATOM     10  C12 ZIN A   1      19.050   3.786  14.838  0.00  0.00     0.091 A 
ATOM     11  C14 ZIN A   1      18.537   2.943  13.868  0.00  0.00     0.013 A 
ENDROOT
BRANCH  11  12
ATOM     12  C15 ZIN A   1      18.910   1.483  13.867  0.00  0.00     0.072 C 
BRANCH  12  13
ATOM     13  C16 ZIN A   1      18.338   0.818  15.093  0.00  0.00    -0.020 C 
ATOM     14  C17 ZIN A   1      18.668  -0.416  15.382  0.00  0.00    -0.087 C 
ATOM     15  C18 ZIN A   1      19.505  -1.218  14.420  0.00  0.00     0.043 C 
BRANCH  14  16
ATOM     16  C19 ZIN A   1      18.209  -1.034  16.679  0.00  0.00     0.044 C 
BRANCH  16  17
ATOM     17  C20 ZIN A   1      19.238  -0.743  17.774  0.00  0.00     0.117 C 
BRANCH  17  18
ATOM     18  C21 ZIN A   1      18.957   0.608  18.379  0.00  0.00     0.172 C 
ATOM     19  O22 ZIN A   1      19.828   1.461  18.400  0.00  0.00    -0.648 OA
ATOM     20  O23 ZIN A   1      17.858   0.848  18.851  0.00  0.00    -0.648 OA
ENDBRANCH  17  18
ENDBRANCH  16  17
ENDBRANCH  14  16
ENDBRANCH  12  13
ENDBRANCH  11  12
BRANCH   1  21
ATOM     21  O2  ZIN A   1      17.193   2.610  11.937  0.00  0.00    -0.355 OA
ATOM     22  C1  ZIN A   1      17.933   2.506  10.718  0.00  0.00     0.210 C 
ENDBRANCH   1  21
BRANCH  10  23
ATOM     23  O13 ZIN A   1      19.883   3.299  15.792  0.00  0.00    -0.359 OA
ATOM     24  H32 ZIN A   1      19.610   2.445  16.154  0.00  0.00     0.217 HD
ENDBRANCH  10  23
TORSDOF 7
ENDMDL
MODEL 3
REMARK VINA RESULT:      -7.0      3.357      5.424
REMARK  7 active torsions:
REMARK  status: ('A' for Active; 'I' for Inactive)
REMARK    1  A    between atoms: O2_2  and  C3_3 
REMARK    2  A    between atoms: C12_12  and  O13_13 
REMARK    3  A    between atoms: C14_14  and  C15_15 
REMARK    4  A    between atoms: C15_15  and  C16_16 
REMARK    5  A    between atoms: C17_17  and  C19_19 
REMARK    6  A    between atoms: C19_19  and  C20_20 
REMARK    7  A    between atoms: C20_20  and  C21_21 
ROOT
ATOM      1  C3  ZIN A   1      19.393   1.961  11.261  0.00  0.00     0.084 A 
ATOM      2  C4  ZIN A   1      18.873   2.147   9.981  0.00  0.00    -0.018 A 
ATOM      3  C5  ZIN A   1      18.275   3.475   9.598  0.00  0.00     0.052 C 
ATOM      4  C6  ZIN A   1      18.905   1.121   9.072  0.00  0.00    -0.006 A 
ATOM      5  C7  ZIN A   1      19.460  -0.118   9.419  0.00  0.00     0.082 A 
ATOM      6  C8  ZIN A   1      19.354  -1.006   8.256  0.00  0.00     0.297 A 
ATOM      7  O9  ZIN A   1      19.742  -2.158   8.224  0.00  0.00    -0.259 OA
ATOM      8  O10 ZIN A   1      18.766  -0.366   7.231  0.00  0.00    -0.313 OA
ATOM      9  C11 ZIN A   1      18.441   0.990   7.643  0.00  0.00     0.219 A 
ATOM     10  C12 ZIN A   1      19.983  -0.301  10.709  0.00  0.00     0.091 A 
ATOM     11  C14 ZIN A   1      19.951   0.742  11.618  0.00  0.00     0.013 A 
ENDROOT
BRANCH  11  12
ATOM     12  C15 ZIN A   1      20.512   0.549  13.003  0.00  0.00     0.072 C 
BRANCH  12  13
ATOM     13  C16 ZIN A   1      19.414   0.729  14.020  0.00  0.00    -0.020 C 
ATOM     14  C17 ZIN A   1      19.033  -0.282  14.759  0.00  0.00    -0.087 C 
ATOM     15  C18 ZIN A   1      19.590  -1.658  14.497  0.00  0.00     0.043 C 
BRANCH  14  16
ATOM     16  C19 ZIN A   1      18.037  -0.071  15.870  0.00  0.00     0.044 C 
BRANCH  16  17
ATOM     17  C20 ZIN A   1      18.450   1.147  16.700  0.00  0.00     0.117 C 
BRANCH  17  18
ATOM     18  C21 ZIN A   1      19.262   0.692  17.886  0.00  0.00     0.172 C 
ATOM     19  O22 ZIN A   1      19.341  -0.495  18.153  0.00  0.00    -0.648 OA
ATOM     20  O23 ZIN A   1      19.838   1.513  18.580  0.00  0.00    -0.648 OA
ENDBRANCH  17  18
ENDBRANCH  16  17
ENDBRANCH  14  16
ENDBRANCH  12  13
ENDBRANCH  11  12
BRANCH   1  21
ATOM     21  O2  ZIN A   1      19.361   2.979  12.158  0.00  0.00    -0.355 OA
ATOM     22  C1  ZIN A   1      20.378   3.976  12.046  0.00  0.00     0.210 C 
ENDBRANCH   1  21
BRANCH  10  23
ATOM     23  O13 ZIN A   1      20.524  -1.494  11.061  0.00  0.00    -0.359 OA
ATOM     24  H32 ZIN A   1      20.126  -2.254  10.613  0.00  0.00     0.217 HD
ENDBRANCH  10  23
TORSDOF 7
ENDMDL
MODEL 4
REMARK VINA RESULT:      -7.0      3.896      6.928
REMARK  7 active torsions:
REMARK  status: ('A' for Active; 'I' for Inactive)
REMARK    1  A    between atoms: O2_2  and  C3_3 
REMARK    2  A    between atoms: C12_12  and  O13_13 
REMARK    3  A    between atoms: C14_14  and  C15_15 
REMARK    4  A    between atoms: C15_15  and  C16_16 
REMARK    5  A    between atoms: C17_17  and  C19_19 
REMARK    6  A    between atoms: C19_19  and  C20_20 
REMARK    7  A    between atoms: C20_20  and  C21_21 
ROOT
ATOM      1  C3  ZIN A   1      17.753  -0.283  11.887  0.00  0.00     0.084 A 
ATOM      2  C4  ZIN A   1      17.636   0.610  10.824  0.00  0.00    -0.018 A 
ATOM      3  C5  ZIN A   1      16.966   0.174   9.546  0.00  0.00     0.052 C 
ATOM      4  C6  ZIN A   1      18.129   1.884  10.940  0.00  0.00    -0.006 A 
ATOM      5  C7  ZIN A   1      18.753   2.298  12.123  0.00  0.00     0.082 A 
ATOM      6  C8  ZIN A   1      19.173   3.694  11.953  0.00  0.00     0.297 A 
ATOM      7  O9  ZIN A   1      19.747   4.355  12.797  0.00  0.00    -0.259 OA
ATOM      8  O10 ZIN A   1      18.835   4.138  10.730  0.00  0.00    -0.313 OA
ATOM      9  C11 ZIN A   1      18.168   3.067  10.006  0.00  0.00     0.219 A 
ATOM     10  C12 ZIN A   1      18.870   1.396  13.193  0.00  0.00     0.091 A 
ATOM     11  C14 ZIN A   1      18.363   0.114  13.068  0.00  0.00     0.013 A 
ENDROOT
BRANCH  11  12
ATOM     12  C15 ZIN A   1      18.486  -0.856  14.214  0.00  0.00     0.072 C 
BRANCH  12  13
ATOM     13  C16 ZIN A   1      17.777  -0.300  15.422  0.00  0.00    -0.020 C 
ATOM     14  C17 ZIN A   1      18.188  -0.614  16.625  0.00  0.00    -0.087 C 
ATOM     15  C18 ZIN A   1      19.276  -1.640  16.805  0.00  0.00     0.043 C 
BRANCH  14  16
ATOM     16  C19 ZIN A   1      17.572   0.051  17.829  0.00  0.00     0.044 C 
BRANCH  16  17
ATOM     17  C20 ZIN A   1      17.753   1.567  17.723  0.00  0.00     0.117 C 
BRANCH  17  18
ATOM     18  C21 ZIN A   1      19.214   1.908  17.866  0.00  0.00     0.172 C 
ATOM     19  O22 ZIN A   1      19.718   2.751  17.143  0.00  0.00    -0.648 OA
ATOM     20  O23 ZIN A   1      19.894   1.339  18.703  0.00  0.00    -0.648 OA
ENDBRANCH  17  18
ENDBRANCH  16  17
ENDBRANCH  14  16
ENDBRANCH  12  13
ENDBRANCH  11  12
BRANCH   1  21
ATOM     21  O2  ZIN A   1      17.262  -1.543  11.770  0.00  0.00    -0.355 OA
ATOM     22  C1  ZIN A   1      18.165  -2.550  11.307  0.00  0.00     0.210 C 
ENDBRANCH   1  21
BRANCH  10  23
ATOM     23  O13 ZIN A   1      19.470   1.782  14.346  0.00  0.00    -0.359 OA
ATOM     24  H32 ZIN A   1      18.877   2.220  14.972  0.00  0.00     0.217 HD
ENDBRANCH  10  23
TORSDOF 7
ENDMDL
MODEL 5
REMARK VINA RESULT:      -7.0      3.760      6.556
REMARK  7 active torsions:
REMARK  status: ('A' for Active; 'I' for Inactive)
REMARK    1  A    between atoms: O2_2  and  C3_3 
REMARK    2  A    between atoms: C12_12  and  O13_13 
REMARK    3  A    between atoms: C14_14  and  C15_15 
REMARK    4  A    between atoms: C15_15  and  C16_16 
REMARK    5  A    between atoms: C17_17  and  C19_19 
REMARK    6  A    between atoms: C19_19  and  C20_20 
REMARK    7  A    between atoms: C20_20  and  C21_21 
ROOT
ATOM      1  C3  ZIN A   1      19.617   1.124  10.823  0.00  0.00     0.084 A 
ATOM      2  C4  ZIN A   1      19.019   2.036   9.956  0.00  0.00    -0.018 A 
ATOM      3  C5  ZIN A   1      18.935   1.730   8.483  0.00  0.00     0.052 C 
ATOM      4  C6  ZIN A   1      18.508   3.212  10.442  0.00  0.00    -0.006 A 
ATOM      5  C7  ZIN A   1      18.582   3.506  11.810  0.00  0.00     0.082 A 
ATOM      6  C8  ZIN A   1      17.959   4.817  12.029  0.00  0.00     0.297 A 
ATOM      7  O9  ZIN A   1      17.858   5.366  13.108  0.00  0.00    -0.259 OA
ATOM      8  O10 ZIN A   1      17.517   5.324  10.865  0.00  0.00    -0.313 OA
ATOM      9  C11 ZIN A   1      17.816   4.385   9.795  0.00  0.00     0.219 A 
ATOM     10  C12 ZIN A   1      19.185   2.584  12.681  0.00  0.00     0.091 A 
ATOM     11  C14 ZIN A   1      19.693   1.398  12.181  0.00  0.00     0.013 A 
ENDROOT
BRANCH  11  12
ATOM     12  C15 ZIN A   1      20.340   0.407  13.113  0.00  0.00     0.072 C 
BRANCH  12  13
ATOM     13  C16 ZIN A   1      19.518   0.289  14.371  0.00  0.00    -0.020 C 
ATOM     14  C17 ZIN A   1      18.845  -0.808  14.613  0.00  0.00    -0.087 C 
ATOM     15  C18 ZIN A   1      18.776  -1.894  13.572  0.00  0.00     0.043 C 
BRANCH  14  16
ATOM     16  C19 ZIN A   1      18.138  -0.982  15.933  0.00  0.00     0.044 C 
BRANCH  16  17
ATOM     17  C20 ZIN A   1      19.172  -1.062  17.058  0.00  0.00     0.117 C 
BRANCH  17  18
ATOM     18  C21 ZIN A   1      18.978   0.098  18.000  0.00  0.00     0.172 C 
ATOM     19  O22 ZIN A   1      17.860   0.387  18.391  0.00  0.00    -0.648 OA
ATOM     20  O23 ZIN A   1      19.940   0.750  18.370  0.00  0.00    -0.648 OA
ENDBRANCH  17  18
ENDBRANCH  16  17
ENDBRANCH  14  16
ENDBRANCH  12  13
ENDBRANCH  11  12
BRANCH   1  21
ATOM     21  O2  ZIN A   1      20.121  -0.039  10.339  0.00  0.00    -0.355 OA
ATOM     22  C1  ZIN A   1      19.190  -1.092  10.081  0.00  0.00     0.210 C 
ENDBRANCH   1  21
BRANCH  10  23
ATOM     23  O13 ZIN A   1      19.263   2.854  14.008  0.00  0.00    -0.359 OA
ATOM     24  H32 ZIN A   1      18.431   2.729  14.485  0.00  0.00     0.217 HD
ENDBRANCH  10  23
TORSDOF 7
ENDMDL
MODEL 6
REMARK VINA RESULT:      -7.0      2.711      6.597
REMARK  7 active torsions:
REMARK  status: ('A' for Active; 'I' for Inactive)
REMARK    1  A    between atoms: O2_2  and  C3_3 
REMARK    2  A    between atoms: C12_12  and  O13_13 
REMARK    3  A    between atoms: C14_14  and  C15_15 
REMARK    4  A    between atoms: C15_15  and  C16_16 
REMARK    5  A    between atoms: C17_17  and  C19_19 
REMARK    6  A    between atoms: C19_19  and  C20_20 
REMARK    7  A    between atoms: C20_20  and  C21_21 
ROOT
ATOM      1  C3  ZIN A   1      18.274  -0.430  12.417  0.00  0.00     0.084 A 
ATOM      2  C4  ZIN A   1      18.813  -0.156  13.672  0.00  0.00    -0.018 A 
ATOM      3  C5  ZIN A   1      19.465  -1.257  14.468  0.00  0.00     0.052 C 
ATOM      4  C6  ZIN A   1      18.752   1.115  14.183  0.00  0.00    -0.006 A 
ATOM      5  C7  ZIN A   1      18.148   2.146  13.451  0.00  0.00     0.082 A 
ATOM      6  C8  ZIN A   1      18.233   3.378  14.244  0.00  0.00     0.297 A 
ATOM      7  O9  ZIN A   1      17.801   4.459  13.895  0.00  0.00    -0.259 OA
ATOM      8  O10 ZIN A   1      18.854   3.140  15.412  0.00  0.00    -0.313 OA
ATOM      9  C11 ZIN A   1      19.224   1.735  15.474  0.00  0.00     0.219 A 
ATOM     10  C12 ZIN A   1      17.605   1.866  12.187  0.00  0.00     0.091 A 
ATOM     11  C14 ZIN A   1      17.678   0.581  11.678  0.00  0.00     0.013 A 
ENDROOT
BRANCH  11  12
ATOM     12  C15 ZIN A   1      17.096   0.278  10.321  0.00  0.00     0.072 C 
BRANCH  12  13
ATOM     13  C16 ZIN A   1      18.036   0.770   9.250  0.00  0.00    -0.020 C 
ATOM     14  C17 ZIN A   1      18.315   0.007   8.223  0.00  0.00    -0.087 C 
ATOM     15  C18 ZIN A   1      17.813  -1.413   8.181  0.00  0.00     0.043 C 
BRANCH  14  16
ATOM     16  C19 ZIN A   1      19.140   0.550   7.084  0.00  0.00     0.044 C 
BRANCH  16  17
ATOM     17  C20 ZIN A   1      18.274   0.638   5.825  0.00  0.00     0.117 C 
BRANCH  17  18
ATOM     18  C21 ZIN A   1      18.777  -0.348   4.802  0.00  0.00     0.172 C 
ATOM     19  O22 ZIN A   1      17.996  -0.875   4.028  0.00  0.00    -0.648 OA
ATOM     20  O23 ZIN A   1      19.964  -0.619   4.748  0.00  0.00    -0.648 OA
ENDBRANCH  17  18
ENDBRANCH  16  17
ENDBRANCH  14  16
ENDBRANCH  12  13
ENDBRANCH  11  12
BRANCH   1  21
ATOM     21  O2  ZIN A   1      18.337  -1.689  11.914  0.00  0.00    -0.355 OA
ATOM     22  C1  ZIN A   1      19.559  -2.073  11.281  0.00  0.00     0.210 C 
ENDBRANCH   1  21
BRANCH  10  23
ATOM     23  O13 ZIN A   1      17.018   2.853  11.465  0.00  0.00    -0.359 OA
ATOM     24  H32 ZIN A   1      17.114   2.751  10.508  0.00  0.00     0.217 HD
ENDBRANCH  10  23
TORSDOF 7
ENDMDL
MODEL 7
REMARK VINA RESULT:      -6.8      4.051      7.801
REMARK  7 active torsions:
REMARK  status: ('A' for Active; 'I' for Inactive)
REMARK    1  A    between atoms: O2_2  and  C3_3 
REMARK    2  A    between atoms: C12_12  and  O13_13 
REMARK    3  A    between atoms: C14_14  and  C15_15 
REMARK    4  A    between atoms: C15_15  and  C16_16 
REMARK    5  A    between atoms: C17_17  and  C19_19 
REMARK    6  A    between atoms: C19_19  and  C20_20 
REMARK    7  A    between atoms: C20_20  and  C21_21 
ROOT
ATOM      1  C3  ZIN A   1      18.608   0.805  15.554  0.00  0.00     0.084 A 
ATOM      2  C4  ZIN A   1      18.591  -0.535  15.169  0.00  0.00    -0.018 A 
ATOM      3  C5  ZIN A   1      18.121  -1.590  16.137  0.00  0.00     0.052 C 
ATOM      4  C6  ZIN A   1      19.001  -0.893  13.910  0.00  0.00    -0.006 A 
ATOM      5  C7  ZIN A   1      19.439   0.081  13.003  0.00  0.00     0.082 A 
ATOM      6  C8  ZIN A   1      19.808  -0.594  11.753  0.00  0.00     0.297 A 
ATOM      7  O9  ZIN A   1      20.229  -0.035  10.760  0.00  0.00    -0.259 OA
ATOM      8  O10 ZIN A   1      19.615  -1.920  11.864  0.00  0.00    -0.313 OA
ATOM      9  C11 ZIN A   1      19.105  -2.215  13.193  0.00  0.00     0.219 A 
ATOM     10  C12 ZIN A   1      19.455   1.429  13.394  0.00  0.00     0.091 A 
ATOM     11  C14 ZIN A   1      19.034   1.781  14.665  0.00  0.00     0.013 A 
ENDROOT
BRANCH  11  12
ATOM     12  C15 ZIN A   1      19.050   3.227  15.087  0.00  0.00     0.072 C 
BRANCH  12  13
ATOM     13  C16 ZIN A   1      17.933   3.965  14.395  0.00  0.00    -0.020 C 
ATOM     14  C17 ZIN A   1      18.181   5.082  13.760  0.00  0.00    -0.087 C 
ATOM     15  C18 ZIN A   1      19.551   5.705  13.838  0.00  0.00     0.043 C 
BRANCH  14  16
ATOM     16  C19 ZIN A   1      17.096   5.746  12.950  0.00  0.00     0.044 C 
BRANCH  16  17
ATOM     17  C20 ZIN A   1      16.559   4.759  11.911  0.00  0.00     0.117 C 
BRANCH  17  18
ATOM     18  C21 ZIN A   1      17.452   4.775  10.697  0.00  0.00     0.172 C 
ATOM     19  O22 ZIN A   1      18.147   3.807  10.438  0.00  0.00    -0.648 OA
ATOM     20  O23 ZIN A   1      17.482   5.757   9.975  0.00  0.00    -0.648 OA
ENDBRANCH  17  18
ENDBRANCH  16  17
ENDBRANCH  14  16
ENDBRANCH  12  13
ENDBRANCH  11  12
BRANCH   1  21
ATOM     21  O2  ZIN A   1      18.201   1.155  16.800  0.00  0.00    -0.355 OA
ATOM     22  C1  ZIN A   1      19.188   1.135  17.834  0.00  0.00     0.210 C 
ENDBRANCH   1  21
BRANCH  10  23
ATOM     23  O13 ZIN A   1      19.876   2.384  12.527  0.00  0.00    -0.359 OA
ATOM     24  H32 ZIN A   1      20.837   2.437  12.436  0.00  0.00     0.217 HD
ENDBRANCH  10  23
TORSDOF 7
ENDMDL
MODEL 8
REMARK VINA RESULT:      -6.8      1.463      3.841
REMARK  7 active torsions:
REMARK  status: ('A' for Active; 'I' for Inactive)
REMARK    1  A    between atoms: O2_2  and  C3_3 
REMARK    2  A    between atoms: C12_12  and  O13_13 
REMARK    3  A    between atoms: C14_14  and  C15_15 
REMARK    4  A    between atoms: C15_15  and  C16_16 
REMARK    5  A    between atoms: C17_17  and  C19_19 
REMARK    6  A    between atoms: C19_19  and  C20_20 
REMARK    7  A    between atoms: C20_20  and  C21_21 
ROOT
ATOM      1  C3  ZIN A   1      19.283   0.047   9.786  0.00  0.00     0.084 A 
ATOM      2  C4  ZIN A   1      18.997   1.326   9.313  0.00  0.00    -0.018 A 
ATOM      3  C5  ZIN A   1      19.200   1.651   7.855  0.00  0.00     0.052 C 
ATOM      4  C6  ZIN A   1      18.532   2.288  10.172  0.00  0.00    -0.006 A 
ATOM      5  C7  ZIN A   1      18.339   1.996  11.528  0.00  0.00     0.082 A 
ATOM      6  C8  ZIN A   1      17.839   3.207  12.189  0.00  0.00     0.297 A 
ATOM      7  O9  ZIN A   1      17.571   3.292  13.372  0.00  0.00    -0.259 OA
ATOM      8  O10 ZIN A   1      17.722   4.209  11.301  0.00  0.00    -0.313 OA
ATOM      9  C11 ZIN A   1      18.137   3.733   9.992  0.00  0.00     0.219 A 
ATOM     10  C12 ZIN A   1      18.629   0.706  12.002  0.00  0.00     0.091 A 
ATOM     11  C14 ZIN A   1      19.092  -0.259  11.126  0.00  0.00     0.013 A 
ENDROOT
BRANCH  11  12
ATOM     12  C15 ZIN A   1      19.403  -1.645  11.631  0.00  0.00     0.072 C 
BRANCH  12  13
ATOM     13  C16 ZIN A   1      18.157  -2.491  11.576  0.00  0.00    -0.020 C 
ATOM     14  C17 ZIN A   1      18.252  -3.788  11.429  0.00  0.00    -0.087 C 
ATOM     15  C18 ZIN A   1      19.596  -4.420  11.171  0.00  0.00     0.043 C 
BRANCH  14  16
ATOM     16  C19 ZIN A   1      17.018  -4.649  11.515  0.00  0.00     0.044 C 
BRANCH  16  17
ATOM     17  C20 ZIN A   1      17.129  -5.800  10.512  0.00  0.00     0.117 C 
BRANCH  17  18
ATOM     18  C21 ZIN A   1      16.521  -5.380   9.198  0.00  0.00     0.172 C 
ATOM     19  O22 ZIN A   1      17.233  -4.957   8.304  0.00  0.00    -0.648 OA
ATOM     20  O23 ZIN A   1      15.316  -5.461   9.031  0.00  0.00    -0.648 OA
ENDBRANCH  17  18
ENDBRANCH  16  17
ENDBRANCH  14  16
ENDBRANCH  12  13
ENDBRANCH  11  12
BRANCH   1  21
ATOM     21  O2  ZIN A   1      19.743  -0.903   8.934  0.00  0.00    -0.355 OA
ATOM     22  C1  ZIN A   1      18.768  -1.609   8.163  0.00  0.00     0.210 C 
ENDBRANCH   1  21
BRANCH  10  23
ATOM     23  O13 ZIN A   1      18.447   0.407  13.312  0.00  0.00    -0.359 OA
ATOM     24  H32 ZIN A   1      17.845  -0.334  13.467  0.00  0.00     0.217 HD
ENDBRANCH  10  23
TORSDOF 7
ENDMDL
MODEL 9
REMARK VINA RESULT:      -6.7      3.632      7.761
REMARK  7 active torsions:
REMARK  status: ('A' for Active; 'I' for Inactive)
REMARK    1  A    between atoms: O2_2  and  C3_3 
REMARK    2  A    between atoms: C12_12  and  O13_13 
REMARK    3  A    between atoms: C14_14  and  C15_15 
REMARK    4  A    between atoms: C15_15  and  C16_16 
REMARK    5  A    between atoms: C17_17  and  C19_19 
REMARK    6  A    between atoms: C19_19  and  C20_20 
REMARK    7  A    between atoms: C20_20  and  C21_21 
ROOT
ATOM      1  C3  ZIN A   1      18.052  -0.074  14.415  0.00  0.00     0.084 A 
ATOM      2  C4  ZIN A   1      18.492  -0.248  15.726  0.00  0.00    -0.018 A 
ATOM      3  C5  ZIN A   1      18.541  -1.630  16.325  0.00  0.00     0.052 C 
ATOM      4  C6  ZIN A   1      18.879   0.836  16.470  0.00  0.00    -0.006 A 
ATOM      5  C7  ZIN A   1      18.838   2.124  15.922  0.00  0.00     0.082 A 
ATOM      6  C8  ZIN A   1      19.306   3.069  16.943  0.00  0.00     0.297 A 
ATOM      7  O9  ZIN A   1      19.392   4.272  16.788  0.00  0.00    -0.259 OA
ATOM      8  O10 ZIN A   1      19.626   2.416  18.073  0.00  0.00    -0.313 OA
ATOM      9  C11 ZIN A   1      19.392   0.994  17.880  0.00  0.00     0.219 A 
ATOM     10  C12 ZIN A   1      18.394   2.296  14.601  0.00  0.00     0.091 A 
ATOM     11  C14 ZIN A   1      18.011   1.195  13.857  0.00  0.00     0.013 A 
ENDROOT
BRANCH  11  12
ATOM     12  C15 ZIN A   1      17.534   1.376  12.438  0.00  0.00     0.072 C 
BRANCH  12  13
ATOM     13  C16 ZIN A   1      18.711   1.297  11.499  0.00  0.00    -0.020 C 
ATOM     14  C17 ZIN A   1      18.552   0.821  10.290  0.00  0.00    -0.087 C 
ATOM     15  C18 ZIN A   1      17.231   0.222   9.883  0.00  0.00     0.043 C 
BRANCH  14  16
ATOM     16  C19 ZIN A   1      19.692   0.872   9.305  0.00  0.00     0.044 C 
BRANCH  16  17
ATOM     17  C20 ZIN A   1      19.245   1.618   8.046  0.00  0.00     0.117 C 
BRANCH  17  18
ATOM     18  C21 ZIN A   1      18.892   0.623   6.971  0.00  0.00     0.172 C 
ATOM     19  O22 ZIN A   1      18.278   0.984   5.982  0.00  0.00    -0.648 OA
ATOM     20  O23 ZIN A   1      19.220  -0.546   7.092  0.00  0.00    -0.648 OA
ENDBRANCH  17  18
ENDBRANCH  16  17
ENDBRANCH  14  16
ENDBRANCH  12  13
ENDBRANCH  11  12
BRANCH   1  21
ATOM     21  O2  ZIN A   1      17.670  -1.149  13.681  0.00  0.00    -0.355 OA
ATOM     22  C1  ZIN A   1      18.707  -1.910  13.057  0.00  0.00     0.210 C 
ENDBRANCH   1  21
BRANCH  10  23
ATOM     23  O13 ZIN A   1      18.348   3.537  14.055  0.00  0.00    -0.359 OA
ATOM     24  H32 ZIN A   1      17.833   4.175  14.569  0.00  0.00     0.217 HD
ENDBRANCH  10  23
TORSDOF 7
ENDMDL
