MODEL 1
REMARK VINA RESULT:      -6.9      0.000      0.000
REMARK  10 active torsions:
REMARK  status: ('A' for Active; 'I' for Inactive)
REMARK    1  A    between atoms: C2_2  and  N3_3 
REMARK    2  A    between atoms: N3_3  and  C5_5 
REMARK    3  A    between atoms: N3_3  and  C8_8 
REMARK    4  A    between atoms: C5_5  and  C6_6 
REMARK    5  A    between atoms: C6_6  and  O7_7 
REMARK    6  A    between atoms: C8_8  and  C9_9 
REMARK    7  A    between atoms: C9_9  and  C10_10 
REMARK    8  A    between atoms: C10_10  and  C11_11 
REMARK    9  A    between atoms: C11_11  and  N14_13 
REMARK   10  A    between atoms: N14_13  and  C15_14 
ROOT
ATOM      1  N14 ZIN A   1      18.165   1.866  16.473  0.00  0.00    -0.385 N 
ATOM      2  H46 ZIN A   1      17.226   1.905  16.714  0.00  0.00     0.160 HD
ENDROOT
BRANCH   1   3
ATOM      3  C11 ZIN A   1      18.938   0.650  16.737  0.00  0.00     0.077 C 
ATOM      4  C13 ZIN A   1      19.232   0.548  18.235  0.00  0.00     0.032 C 
BRANCH   3   5
ATOM      5  C10 ZIN A   1      18.136  -0.572  16.290  0.00  0.00     0.026 C 
BRANCH   5   6
ATOM      6  C9  ZIN A   1      19.014  -1.468  15.413  0.00  0.00     0.030 C 
BRANCH   6   7
ATOM      7  C8  ZIN A   1      18.528  -1.398  13.965  0.00  0.00     0.235 C 
BRANCH   7   8
ATOM      8  N3  ZIN A   1      19.666  -1.588  13.057  0.00  0.00    -0.069 N 
ATOM      9  H4  ZIN A   1      20.467  -1.904  13.583  0.00  0.00     0.279 HD
BRANCH   8  10
ATOM     10  C2  ZIN A   1      19.321  -2.590  12.040  0.00  0.00     0.230 C 
ATOM     11  C1  ZIN A   1      17.822  -2.895  12.113  0.00  0.00     0.034 C 
ENDBRANCH   8  10
BRANCH   8  12
ATOM     12  C5  ZIN A   1      19.986  -0.314  12.399  0.00  0.00     0.260 C 
BRANCH  12  13
ATOM     13  C6  ZIN A   1      20.415  -0.579  10.954  0.00  0.00     0.192 C 
BRANCH  13  14
ATOM     14  O7  ZIN A   1      21.840  -0.541  10.866  0.00  0.00    -0.399 OA
ATOM     15  H36 ZIN A   1      22.291  -0.981  11.601  0.00  0.00     0.209 HD
ENDBRANCH  13  14
ENDBRANCH  12  13
ENDBRANCH   8  12
ENDBRANCH   7   8
ENDBRANCH   6   7
ENDBRANCH   5   6
ENDBRANCH   3   5
ENDBRANCH   1   3
BRANCH   1  16
ATOM     16  C15 ZIN A   1      18.774   2.961  15.880  0.00  0.00     0.042 A 
ATOM     17  C26 ZIN A   1      19.544   3.842  16.625  0.00  0.00     0.047 A 
ATOM     18  C25 ZIN A   1      20.144   4.926  16.001  0.00  0.00     0.090 A 
ATOM     19  N23 ZIN A   1      20.000   5.155  14.717  0.00  0.00    -0.365 N 
ATOM     20  C22 ZIN A   1      19.267   4.350  13.938  0.00  0.00     0.046 A 
ATOM     21  H24 ZIN A   1      20.434   5.927  14.322  0.00  0.00     0.165 HD
ATOM     22  C16 ZIN A   1      18.625   3.219  14.497  0.00  0.00     0.017 A 
ATOM     23  C21 ZIN A   1      19.122   4.609  12.565  0.00  0.00     0.054 A 
ATOM     24  C17 ZIN A   1      17.859   2.379  13.677  0.00  0.00     0.018 A 
ATOM     25  C18 ZIN A   1      17.739   2.660  12.349  0.00  0.00     0.025 A 
ATOM     26  C19 ZIN A   1      18.370   3.772  11.795  0.00  0.00     0.036 A 
ATOM     27 Cl20 ZIN A   1      18.194   4.100  10.099  0.00  0.00    -0.084 Cl
ENDBRANCH   1  16
TORSDOF 10
ENDMDL
MODEL 2
REMARK VINA RESULT:      -6.8      2.886      5.341
REMARK  10 active torsions:
REMARK  status: ('A' for Active; 'I' for Inactive)
REMARK    1  A    between atoms: C2_2  and  N3_3 
REMARK    2  A    between atoms: N3_3  and  C5_5 
REMARK    3  A    between atoms: N3_3  and  C8_8 
REMARK    4  A    between atoms: C5_5  and  C6_6 
REMARK    5  A    between atoms: C6_6  and  O7_7 
REMARK    6  A    between atoms: C8_8  and  C9_9 
REMARK    7  A    between atoms: C9_9  and  C10_10 
REMARK    8  A    between atoms: C10_10  and  C11_11 
REMARK    9  A    between atoms: C11_11  and  N14_13 
REMARK   10  A    between atoms: N14_13  and  C15_14 
ROOT
ATOM      1  N14 ZIN A   1      19.946  -0.704  12.245  0.00  0.00    -0.385 N 
ATOM      2  H46 ZIN A   1      20.784  -1.190  12.194  0.00  0.00     0.160 HD
ENDROOT
BRANCH   1   3
ATOM      3  C11 ZIN A   1      18.852  -1.217  13.072  0.00  0.00     0.077 C 
ATOM      4  C13 ZIN A   1      18.464  -2.618  12.594  0.00  0.00     0.032 C 
BRANCH   3   5
ATOM      5  C10 ZIN A   1      19.303  -1.284  14.532  0.00  0.00     0.026 C 
BRANCH   5   6
ATOM      6  C9  ZIN A   1      18.159  -0.832  15.442  0.00  0.00     0.030 C 
BRANCH   6   7
ATOM      7  C8  ZIN A   1      17.775   0.609  15.102  0.00  0.00     0.235 C 
BRANCH   7   8
ATOM      8  N3  ZIN A   1      18.140   1.489  16.220  0.00  0.00    -0.069 N 
ATOM      9  H4  ZIN A   1      17.390   2.141  16.393  0.00  0.00     0.279 HD
BRANCH   8  10
ATOM     10  C2  ZIN A   1      18.375   0.680  17.424  0.00  0.00     0.230 C 
ATOM     11  C1  ZIN A   1      17.527   1.223  18.576  0.00  0.00     0.034 C 
ENDBRANCH   8  10
BRANCH   8  12
ATOM     12  C5  ZIN A   1      19.364   2.228  15.881  0.00  0.00     0.260 C 
BRANCH  12  13
ATOM     13  C6  ZIN A   1      19.368   3.572  16.614  0.00  0.00     0.192 C 
BRANCH  13  14
ATOM     14  O7  ZIN A   1      20.698   4.093  16.645  0.00  0.00    -0.399 OA
ATOM     15  H36 ZIN A   1      21.195   3.854  17.440  0.00  0.00     0.209 HD
ENDBRANCH  13  14
ENDBRANCH  12  13
ENDBRANCH   8  12
ENDBRANCH   7   8
ENDBRANCH   6   7
ENDBRANCH   5   6
ENDBRANCH   3   5
ENDBRANCH   1   3
BRANCH   1  16
ATOM     16  C15 ZIN A   1      19.785   0.476  11.534  0.00  0.00     0.042 A 
ATOM     17  C26 ZIN A   1      19.866   1.708  12.165  0.00  0.00     0.047 A 
ATOM     18  C25 ZIN A   1      19.705   2.870  11.426  0.00  0.00     0.090 A 
ATOM     19  N23 ZIN A   1      19.467   2.845  10.135  0.00  0.00    -0.365 N 
ATOM     20  C22 ZIN A   1      19.370   1.692   9.462  0.00  0.00     0.046 A 
ATOM     21  H24 ZIN A   1      19.357   3.681   9.658  0.00  0.00     0.165 HD
ATOM     22  C16 ZIN A   1      19.527   0.461  10.143  0.00  0.00     0.017 A 
ATOM     23  C21 ZIN A   1      19.114   1.681   8.081  0.00  0.00     0.054 A 
ATOM     24  C17 ZIN A   1      19.425  -0.744   9.434  0.00  0.00     0.018 A 
ATOM     25  C18 ZIN A   1      19.175  -0.718   8.095  0.00  0.00     0.025 A 
ATOM     26  C19 ZIN A   1      19.021   0.492   7.421  0.00  0.00     0.036 A 
ATOM     27 Cl20 ZIN A   1      18.703   0.486   5.714  0.00  0.00    -0.084 Cl
ENDBRANCH   1  16
TORSDOF 10
ENDMDL
MODEL 3
REMARK VINA RESULT:      -6.8      3.481      5.598
REMARK  10 active torsions:
REMARK  status: ('A' for Active; 'I' for Inactive)
REMARK    1  A    between atoms: C2_2  and  N3_3 
REMARK    2  A    between atoms: N3_3  and  C5_5 
REMARK    3  A    between atoms: N3_3  and  C8_8 
REMARK    4  A    between atoms: C5_5  and  C6_6 
REMARK    5  A    between atoms: C6_6  and  O7_7 
REMARK    6  A    between atoms: C8_8  and  C9_9 
REMARK    7  A    between atoms: C9_9  and  C10_10 
REMARK    8  A    between atoms: C10_10  and  C11_11 
REMARK    9  A    between atoms: C11_11  and  N14_13 
REMARK   10  A    between atoms: N14_13  and  C15_14 
ROOT
ATOM      1  N14 ZIN A   1      19.648   1.000  10.227  0.00  0.00    -0.385 N 
ATOM      2  H46 ZIN A   1      20.451   0.492  10.031  0.00  0.00     0.160 HD
ENDROOT
BRANCH   1   3
ATOM      3  C11 ZIN A   1      18.606   1.145   9.207  0.00  0.00     0.077 C 
ATOM      4  C13 ZIN A   1      19.202   1.803   7.960  0.00  0.00     0.032 C 
BRANCH   3   5
ATOM      5  C10 ZIN A   1      18.055  -0.234   8.841  0.00  0.00     0.026 C 
BRANCH   5   6
ATOM      6  C9  ZIN A   1      19.187  -1.263   8.876  0.00  0.00     0.030 C 
BRANCH   6   7
ATOM      7  C8  ZIN A   1      18.687  -2.591   8.305  0.00  0.00     0.235 C 
BRANCH   7   8
ATOM      8  N3  ZIN A   1      19.412  -3.700   8.940  0.00  0.00    -0.069 N 
ATOM      9  H4  ZIN A   1      20.393  -3.473   8.993  0.00  0.00     0.279 HD
BRANCH   8  10
ATOM     10  C2  ZIN A   1      18.884  -3.919  10.293  0.00  0.00     0.230 C 
ATOM     11  C1  ZIN A   1      20.047  -4.124  11.267  0.00  0.00     0.034 C 
ENDBRANCH   8  10
BRANCH   8  12
ATOM     12  C5  ZIN A   1      19.234  -4.921   8.142  0.00  0.00     0.260 C 
BRANCH  12  13
ATOM     13  C6  ZIN A   1      20.582  -5.348   7.556  0.00  0.00     0.192 C 
BRANCH  13  14
ATOM     14  O7  ZIN A   1      21.143  -4.264   6.813  0.00  0.00    -0.399 OA
ATOM     15  H36 ZIN A   1      22.044  -4.428   6.498  0.00  0.00     0.209 HD
ENDBRANCH  13  14
ENDBRANCH  12  13
ENDBRANCH   8  12
ENDBRANCH   7   8
ENDBRANCH   6   7
ENDBRANCH   5   6
ENDBRANCH   3   5
ENDBRANCH   1   3
BRANCH   1  16
ATOM     16  C15 ZIN A   1      19.487   1.588  11.472  0.00  0.00     0.042 A 
ATOM     17  C26 ZIN A   1      19.431   2.967  11.609  0.00  0.00     0.047 A 
ATOM     18  C25 ZIN A   1      19.265   3.526  12.868  0.00  0.00     0.090 A 
ATOM     19  N23 ZIN A   1      19.166   2.786  13.948  0.00  0.00    -0.365 N 
ATOM     20  C22 ZIN A   1      19.217   1.449  13.891  0.00  0.00     0.046 A 
ATOM     21  H24 ZIN A   1      19.054   3.218  14.809  0.00  0.00     0.165 HD
ATOM     22  C16 ZIN A   1      19.381   0.802  12.643  0.00  0.00     0.017 A 
ATOM     23  C21 ZIN A   1      19.112   0.672  15.056  0.00  0.00     0.054 A 
ATOM     24  C17 ZIN A   1      19.433  -0.598  12.588  0.00  0.00     0.018 A 
ATOM     25  C18 ZIN A   1      19.328  -1.322  13.738  0.00  0.00     0.025 A 
ATOM     26  C19 ZIN A   1      19.166  -0.687  14.968  0.00  0.00     0.036 A 
ATOM     27 Cl20 ZIN A   1      19.036  -1.642  16.413  0.00  0.00    -0.084 Cl
ENDBRANCH   1  16
TORSDOF 10
ENDMDL
MODEL 4
REMARK VINA RESULT:      -6.7      3.548      5.748
REMARK  10 active torsions:
REMARK  status: ('A' for Active; 'I' for Inactive)
REMARK    1  A    between atoms: C2_2  and  N3_3 
REMARK    2  A    between atoms: N3_3  and  C5_5 
REMARK    3  A    between atoms: N3_3  and  C8_8 
REMARK    4  A    between atoms: C5_5  and  C6_6 
REMARK    5  A    between atoms: C6_6  and  O7_7 
REMARK    6  A    between atoms: C8_8  and  C9_9 
REMARK    7  A    between atoms: C9_9  and  C10_10 
REMARK    8  A    between atoms: C10_10  and  C11_11 
REMARK    9  A    between atoms: C11_11  and  N14_13 
REMARK   10  A    between atoms: N14_13  and  C15_14 
ROOT
ATOM      1  N14 ZIN A   1      19.090  -2.419  12.889  0.00  0.00    -0.385 N 
ATOM      2  H46 ZIN A   1      18.909  -3.066  13.588  0.00  0.00     0.160 HD
ENDROOT
BRANCH   1   3
ATOM      3  C11 ZIN A   1      19.188  -2.855  11.494  0.00  0.00     0.077 C 
ATOM      4  C13 ZIN A   1      20.037  -4.127  11.416  0.00  0.00     0.032 C 
BRANCH   3   5
ATOM      5  C10 ZIN A   1      17.788  -3.142  10.949  0.00  0.00     0.026 C 
BRANCH   5   6
ATOM      6  C9  ZIN A   1      17.846  -3.248   9.423  0.00  0.00     0.030 C 
BRANCH   6   7
ATOM      7  C8  ZIN A   1      18.429  -1.957   8.844  0.00  0.00     0.235 C 
BRANCH   7   8
ATOM      8  N3  ZIN A   1      17.748  -1.636   7.584  0.00  0.00    -0.069 N 
ATOM      9  H4  ZIN A   1      16.893  -2.168   7.518  0.00  0.00     0.279 HD
BRANCH   8  10
ATOM     10  C2  ZIN A   1      17.435  -0.201   7.548  0.00  0.00     0.230 C 
ATOM     11  C1  ZIN A   1      17.757   0.426   8.907  0.00  0.00     0.034 C 
ENDBRANCH   8  10
BRANCH   8  12
ATOM     12  C5  ZIN A   1      18.624  -1.974   6.454  0.00  0.00     0.260 C 
BRANCH  12  13
ATOM     13  C6  ZIN A   1      18.974  -0.700   5.681  0.00  0.00     0.192 C 
BRANCH  13  14
ATOM     14  O7  ZIN A   1      19.901  -1.015   4.640  0.00  0.00    -0.399 OA
ATOM     15  H36 ZIN A   1      20.553  -0.320   4.471  0.00  0.00     0.209 HD
ENDBRANCH  13  14
ENDBRANCH  12  13
ENDBRANCH   8  12
ENDBRANCH   7   8
ENDBRANCH   6   7
ENDBRANCH   5   6
ENDBRANCH   3   5
ENDBRANCH   1   3
BRANCH   1  16
ATOM     16  C15 ZIN A   1      19.258  -1.080  13.211  0.00  0.00     0.042 A 
ATOM     17  C26 ZIN A   1      19.753  -0.178  12.281  0.00  0.00     0.047 A 
ATOM     18  C25 ZIN A   1      19.905   1.155  12.632  0.00  0.00     0.090 A 
ATOM     19  N23 ZIN A   1      19.600   1.597  13.830  0.00  0.00    -0.365 N 
ATOM     20  C22 ZIN A   1      19.123   0.782  14.779  0.00  0.00     0.046 A 
ATOM     21  H24 ZIN A   1      19.725   2.536  14.034  0.00  0.00     0.165 HD
ATOM     22  C16 ZIN A   1      18.935  -0.593  14.499  0.00  0.00     0.017 A 
ATOM     23  C21 ZIN A   1      18.803   1.269  16.057  0.00  0.00     0.054 A 
ATOM     24  C17 ZIN A   1      18.434  -1.443  15.495  0.00  0.00     0.018 A 
ATOM     25  C18 ZIN A   1      18.134  -0.937  16.724  0.00  0.00     0.025 A 
ATOM     26  C19 ZIN A   1      18.318   0.416  17.002  0.00  0.00     0.036 A 
ATOM     27 Cl20 ZIN A   1      17.926   1.025  18.581  0.00  0.00    -0.084 Cl
ENDBRANCH   1  16
TORSDOF 10
ENDMDL
MODEL 5
REMARK VINA RESULT:      -6.7      3.901      6.556
REMARK  10 active torsions:
REMARK  status: ('A' for Active; 'I' for Inactive)
REMARK    1  A    between atoms: C2_2  and  N3_3 
REMARK    2  A    between atoms: N3_3  and  C5_5 
REMARK    3  A    between atoms: N3_3  and  C8_8 
REMARK    4  A    between atoms: C5_5  and  C6_6 
REMARK    5  A    between atoms: C6_6  and  O7_7 
REMARK    6  A    between atoms: C8_8  and  C9_9 
REMARK    7  A    between atoms: C9_9  and  C10_10 
REMARK    8  A    between atoms: C10_10  and  C11_11 
REMARK    9  A    between atoms: C11_11  and  N14_13 
REMARK   10  A    between atoms: N14_13  and  C15_14 
ROOT
ATOM      1  N14 ZIN A   1      19.717   1.332  10.764  0.00  0.00    -0.385 N 
ATOM      2  H46 ZIN A   1      20.415   1.964  11.001  0.00  0.00     0.160 HD
ENDROOT
BRANCH   1   3
ATOM      3  C11 ZIN A   1      18.740   1.675   9.729  0.00  0.00     0.077 C 
ATOM      4  C13 ZIN A   1      17.972   2.931  10.148  0.00  0.00     0.032 C 
BRANCH   3   5
ATOM      5  C10 ZIN A   1      19.466   1.938   8.409  0.00  0.00     0.026 C 
BRANCH   5   6
ATOM      6  C9  ZIN A   1      18.826   1.102   7.298  0.00  0.00     0.030 C 
BRANCH   6   7
ATOM      7  C8  ZIN A   1      18.039  -0.054   7.919  0.00  0.00     0.235 C 
BRANCH   7   8
ATOM      8  N3  ZIN A   1      17.860  -1.116   6.921  0.00  0.00    -0.069 N 
ATOM      9  H4  ZIN A   1      17.273  -1.842   7.303  0.00  0.00     0.279 HD
BRANCH   8  10
ATOM     10  C2  ZIN A   1      17.227  -0.557   5.719  0.00  0.00     0.230 C 
ATOM     11  C1  ZIN A   1      17.996  -1.016   4.477  0.00  0.00     0.034 C 
ENDBRANCH   8  10
BRANCH   8  12
ATOM     12  C5  ZIN A   1      19.169  -1.681   6.566  0.00  0.00     0.260 C 
BRANCH  12  13
ATOM     13  C6  ZIN A   1      19.324  -3.057   7.217  0.00  0.00     0.192 C 
BRANCH  13  14
ATOM     14  O7  ZIN A   1      20.538  -3.662   6.769  0.00  0.00    -0.399 OA
ATOM     15  H36 ZIN A   1      21.281  -3.552   7.380  0.00  0.00     0.209 HD
ENDBRANCH  13  14
ENDBRANCH  12  13
ENDBRANCH   8  12
ENDBRANCH   7   8
ENDBRANCH   6   7
ENDBRANCH   5   6
ENDBRANCH   3   5
ENDBRANCH   1   3
BRANCH   1  16
ATOM     16  C15 ZIN A   1      19.646   0.106  11.407  0.00  0.00     0.042 A 
ATOM     17  C26 ZIN A   1      20.147  -1.043  10.814  0.00  0.00     0.047 A 
ATOM     18  C25 ZIN A   1      20.065  -2.254  11.484  0.00  0.00     0.090 A 
ATOM     19  N23 ZIN A   1      19.516  -2.354  12.672  0.00  0.00    -0.365 N 
ATOM     20  C22 ZIN A   1      19.008  -1.288  13.303  0.00  0.00     0.046 A 
ATOM     21  H24 ZIN A   1      19.477  -3.221  13.104  0.00  0.00     0.165 HD
ATOM     22  C16 ZIN A   1      19.056  -0.015  12.687  0.00  0.00     0.017 A 
ATOM     23  C21 ZIN A   1      18.422  -1.411  14.574  0.00  0.00     0.054 A 
ATOM     24  C17 ZIN A   1      18.523   1.099  13.352  0.00  0.00     0.018 A 
ATOM     25  C18 ZIN A   1      17.962   0.943  14.584  0.00  0.00     0.025 A 
ATOM     26  C19 ZIN A   1      17.913  -0.310  15.193  0.00  0.00     0.036 A 
ATOM     27 Cl20 ZIN A   1      17.190  -0.470  16.763  0.00  0.00    -0.084 Cl
ENDBRANCH   1  16
TORSDOF 10
ENDMDL
MODEL 6
REMARK VINA RESULT:      -6.6      2.968      6.864
REMARK  10 active torsions:
REMARK  status: ('A' for Active; 'I' for Inactive)
REMARK    1  A    between atoms: C2_2  and  N3_3 
REMARK    2  A    between atoms: N3_3  and  C5_5 
REMARK    3  A    between atoms: N3_3  and  C8_8 
REMARK    4  A    between atoms: C5_5  and  C6_6 
REMARK    5  A    between atoms: C6_6  and  O7_7 
REMARK    6  A    between atoms: C8_8  and  C9_9 
REMARK    7  A    between atoms: C9_9  and  C10_10 
REMARK    8  A    between atoms: C10_10  and  C11_11 
REMARK    9  A    between atoms: C11_11  and  N14_13 
REMARK   10  A    between atoms: N14_13  and  C15_14 
ROOT
ATOM      1  N14 ZIN A   1      18.186   1.084  10.739  0.00  0.00    -0.385 N 
ATOM      2  H46 ZIN A   1      17.240   1.132  10.531  0.00  0.00     0.160 HD
ENDROOT
BRANCH   1   3
ATOM      3  C11 ZIN A   1      19.083   2.165  10.325  0.00  0.00     0.077 C 
ATOM      4  C13 ZIN A   1      19.006   2.337   8.806  0.00  0.00     0.032 C 
BRANCH   3   5
ATOM      5  C10 ZIN A   1      18.663   3.467  11.007  0.00  0.00     0.026 C 
BRANCH   5   6
ATOM      6  C9  ZIN A   1      19.754   3.904  11.988  0.00  0.00     0.030 C 
BRANCH   6   7
ATOM      7  C8  ZIN A   1      19.146   4.083  13.380  0.00  0.00     0.235 C 
BRANCH   7   8
ATOM      8  N3  ZIN A   1      19.147   5.508  13.735  0.00  0.00    -0.069 N 
ATOM      9  H4  ZIN A   1      19.181   6.064  12.894  0.00  0.00     0.279 HD
BRANCH   8  10
ATOM     10  C2  ZIN A   1      17.924   5.827  14.484  0.00  0.00     0.230 C 
ATOM     11  C1  ZIN A   1      16.790   6.134  13.502  0.00  0.00     0.034 C 
ENDBRANCH   8  10
BRANCH   8  12
ATOM     12  C5  ZIN A   1      20.321   5.805  14.567  0.00  0.00     0.260 C 
BRANCH  12  13
ATOM     13  C6  ZIN A   1      20.027   5.423  16.019  0.00  0.00     0.192 C 
BRANCH  13  14
ATOM     14  O7  ZIN A   1      20.964   4.434  16.450  0.00  0.00    -0.399 OA
ATOM     15  H36 ZIN A   1      20.876   3.584  15.996  0.00  0.00     0.209 HD
ENDBRANCH  13  14
ENDBRANCH  12  13
ENDBRANCH   8  12
ENDBRANCH   7   8
ENDBRANCH   6   7
ENDBRANCH   5   6
ENDBRANCH   3   5
ENDBRANCH   1   3
BRANCH   1  16
ATOM     16  C15 ZIN A   1      18.688  -0.009  11.430  0.00  0.00     0.042 A 
ATOM     17  C26 ZIN A   1      19.450  -0.973  10.786  0.00  0.00     0.047 A 
ATOM     18  C25 ZIN A   1      19.942  -2.052  11.505  0.00  0.00     0.090 A 
ATOM     19  N23 ZIN A   1      19.702  -2.200  12.787  0.00  0.00    -0.365 N 
ATOM     20  C22 ZIN A   1      18.970  -1.312  13.471  0.00  0.00     0.046 A 
ATOM     21  H24 ZIN A   1      20.062  -2.971  13.251  0.00  0.00     0.165 HD
ATOM     22  C16 ZIN A   1      18.435  -0.180  12.811  0.00  0.00     0.017 A 
ATOM     23  C21 ZIN A   1      18.721  -1.484  14.843  0.00  0.00     0.054 A 
ATOM     24  C17 ZIN A   1      17.670   0.748  13.532  0.00  0.00     0.018 A 
ATOM     25  C18 ZIN A   1      17.448   0.550  14.861  0.00  0.00     0.025 A 
ATOM     26  C19 ZIN A   1      17.973  -0.564  15.514  0.00  0.00     0.036 A 
ATOM     27 Cl20 ZIN A   1      17.668  -0.784  17.210  0.00  0.00    -0.084 Cl
ENDBRANCH   1  16
TORSDOF 10
ENDMDL
MODEL 7
REMARK VINA RESULT:      -6.6      3.217      5.997
REMARK  10 active torsions:
REMARK  status: ('A' for Active; 'I' for Inactive)
REMARK    1  A    between atoms: C2_2  and  N3_3 
REMARK    2  A    between atoms: N3_3  and  C5_5 
REMARK    3  A    between atoms: N3_3  and  C8_8 
REMARK    4  A    between atoms: C5_5  and  C6_6 
REMARK    5  A    between atoms: C6_6  and  O7_7 
REMARK    6  A    between atoms: C8_8  and  C9_9 
REMARK    7  A    between atoms: C9_9  and  C10_10 
REMARK    8  A    between atoms: C10_10  and  C11_11 
REMARK    9  A    between atoms: C11_11  and  N14_13 
REMARK   10  A    between atoms: N14_13  and  C15_14 
ROOT
ATOM      1  N14 ZIN A   1      19.398   2.891  11.090  0.00  0.00    -0.385 N 
ATOM      2  H46 ZIN A   1      19.291   3.533  10.371  0.00  0.00     0.160 HD
ENDROOT
BRANCH   1   3
ATOM      3  C11 ZIN A   1      19.369   3.341  12.484  0.00  0.00     0.077 C 
ATOM      4  C13 ZIN A   1      19.868   4.785  12.564  0.00  0.00     0.032 C 
BRANCH   3   5
ATOM      5  C10 ZIN A   1      17.937   3.266  13.014  0.00  0.00     0.026 C 
BRANCH   5   6
ATOM      6  C9  ZIN A   1      17.953   3.349  14.542  0.00  0.00     0.030 C 
BRANCH   6   7
ATOM      7  C8  ZIN A   1      18.839   2.236  15.105  0.00  0.00     0.235 C 
BRANCH   7   8
ATOM      8  N3  ZIN A   1      18.009   1.277  15.845  0.00  0.00    -0.069 N 
ATOM      9  H4  ZIN A   1      17.163   1.733  16.155  0.00  0.00     0.279 HD
BRANCH   8  10
ATOM     10  C2  ZIN A   1      17.665   0.149  14.970  0.00  0.00     0.230 C 
ATOM     11  C1  ZIN A   1      18.493  -1.076  15.367  0.00  0.00     0.034 C 
ENDBRANCH   8  10
BRANCH   8  12
ATOM     12  C5  ZIN A   1      18.753   0.783  17.011  0.00  0.00     0.260 C 
BRANCH  12  13
ATOM     13  C6  ZIN A   1      18.432   1.653  18.228  0.00  0.00     0.192 C 
BRANCH  13  14
ATOM     14  O7  ZIN A   1      19.648   2.042  18.870  0.00  0.00    -0.399 OA
ATOM     15  H36 ZIN A   1      20.439   1.901  18.331  0.00  0.00     0.209 HD
ENDBRANCH  13  14
ENDBRANCH  12  13
ENDBRANCH   8  12
ENDBRANCH   7   8
ENDBRANCH   6   7
ENDBRANCH   5   6
ENDBRANCH   3   5
ENDBRANCH   1   3
BRANCH   1  16
ATOM     16  C15 ZIN A   1      19.580   1.548  10.797  0.00  0.00     0.042 A 
ATOM     17  C26 ZIN A   1      19.960   0.647  11.781  0.00  0.00     0.047 A 
ATOM     18  C25 ZIN A   1      20.129  -0.691  11.458  0.00  0.00     0.090 A 
ATOM     19  N23 ZIN A   1      19.948  -1.139  10.237  0.00  0.00    -0.365 N 
ATOM     20  C22 ZIN A   1      19.587  -0.326   9.237  0.00  0.00     0.046 A 
ATOM     21  H24 ZIN A   1      20.081  -2.082  10.054  0.00  0.00     0.165 HD
ATOM     22  C16 ZIN A   1      19.389   1.054   9.485  0.00  0.00     0.017 A 
ATOM     23  C21 ZIN A   1      19.398  -0.819   7.936  0.00  0.00     0.054 A 
ATOM     24  C17 ZIN A   1      19.010   1.902   8.435  0.00  0.00     0.018 A 
ATOM     25  C18 ZIN A   1      18.836   1.389   7.185  0.00  0.00     0.025 A 
ATOM     26  C19 ZIN A   1      19.029   0.031   6.937  0.00  0.00     0.036 A 
ATOM     27 Cl20 ZIN A   1      18.799  -0.586   5.331  0.00  0.00    -0.084 Cl
ENDBRANCH   1  16
TORSDOF 10
ENDMDL
MODEL 8
REMARK VINA RESULT:      -6.5      4.248      8.426
REMARK  10 active torsions:
REMARK  status: ('A' for Active; 'I' for Inactive)
REMARK    1  A    between atoms: C2_2  and  N3_3 
REMARK    2  A    between atoms: N3_3  and  C5_5 
REMARK    3  A    between atoms: N3_3  and  C8_8 
REMARK    4  A    between atoms: C5_5  and  C6_6 
REMARK    5  A    between atoms: C6_6  and  O7_7 
REMARK    6  A    between atoms: C8_8  and  C9_9 
REMARK    7  A    between atoms: C9_9  and  C10_10 
REMARK    8  A    between atoms: C10_10  and  C11_11 
REMARK    9  A    between atoms: C11_11  and  N14_13 
REMARK   10  A    between atoms: N14_13  and  C15_14 
ROOT
ATOM      1  N14 ZIN A   1      18.242  -0.934   7.662  0.00  0.00    -0.385 N 
ATOM      2  H46 ZIN A   1      17.450  -0.695   8.169  0.00  0.00     0.160 HD
ENDROOT
BRANCH   1   3
ATOM      3  C11 ZIN A   1      18.936   0.083   6.868  0.00  0.00     0.077 C 
ATOM      4  C13 ZIN A   1      18.087   0.444   5.647  0.00  0.00     0.032 C 
BRANCH   3   5
ATOM      5  C10 ZIN A   1      19.160   1.332   7.721  0.00  0.00     0.026 C 
BRANCH   5   6
ATOM      6  C9  ZIN A   1      18.371   1.207   9.027  0.00  0.00     0.030 C 
BRANCH   6   7
ATOM      7  C8  ZIN A   1      19.183   1.812  10.173  0.00  0.00     0.235 C 
BRANCH   7   8
ATOM      8  N3  ZIN A   1      18.476   1.593  11.442  0.00  0.00    -0.069 N 
ATOM      9  H4  ZIN A   1      18.158   2.479  11.806  0.00  0.00     0.279 HD
BRANCH   8  10
ATOM     10  C2  ZIN A   1      17.321   0.714  11.214  0.00  0.00     0.230 C 
ATOM     11  C1  ZIN A   1      16.999  -0.049  12.501  0.00  0.00     0.034 C 
ENDBRANCH   8  10
BRANCH   8  12
ATOM     12  C5  ZIN A   1      19.387   0.964  12.408  0.00  0.00     0.260 C 
BRANCH  12  13
ATOM     13  C6  ZIN A   1      20.524   0.267  11.657  0.00  0.00     0.192 C 
BRANCH  13  14
ATOM     14  O7  ZIN A   1      21.776   0.649  12.230  0.00  0.00    -0.399 OA
ATOM     15  H36 ZIN A   1      22.128   0.010  12.867  0.00  0.00     0.209 HD
ENDBRANCH  13  14
ENDBRANCH  12  13
ENDBRANCH   8  12
ENDBRANCH   7   8
ENDBRANCH   6   7
ENDBRANCH   5   6
ENDBRANCH   3   5
ENDBRANCH   1   3
BRANCH   1  16
ATOM     16  C15 ZIN A   1      18.716  -2.236   7.689  0.00  0.00     0.042 A 
ATOM     17  C26 ZIN A   1      19.472  -2.744   6.643  0.00  0.00     0.047 A 
ATOM     18  C25 ZIN A   1      19.936  -4.050   6.702  0.00  0.00     0.090 A 
ATOM     19  N23 ZIN A   1      19.673  -4.835   7.721  0.00  0.00    -0.365 N 
ATOM     20  C22 ZIN A   1      18.945  -4.413   8.763  0.00  0.00     0.046 A 
ATOM     21  H24 ZIN A   1      20.014  -5.742   7.720  0.00  0.00     0.165 HD
ATOM     22  C16 ZIN A   1      18.439  -3.092   8.781  0.00  0.00     0.017 A 
ATOM     23  C21 ZIN A   1      18.672  -5.265   9.845  0.00  0.00     0.054 A 
ATOM     24  C17 ZIN A   1      17.677  -2.655   9.874  0.00  0.00     0.018 A 
ATOM     25  C18 ZIN A   1      17.431  -3.508  10.908  0.00  0.00     0.025 A 
ATOM     26  C19 ZIN A   1      17.929  -4.810  10.893  0.00  0.00     0.036 A 
ATOM     27 Cl20 ZIN A   1      17.594  -5.869  12.227  0.00  0.00    -0.084 Cl
ENDBRANCH   1  16
TORSDOF 10
ENDMDL
MODEL 9
REMARK VINA RESULT:      -6.5      3.408      6.474
REMARK  10 active torsions:
REMARK  status: ('A' for Active; 'I' for Inactive)
REMARK    1  A    between atoms: C2_2  and  N3_3 
REMARK    2  A    between atoms: N3_3  and  C5_5 
REMARK    3  A    between atoms: N3_3  and  C8_8 
REMARK    4  A    between atoms: C5_5  and  C6_6 
REMARK    5  A    between atoms: C6_6  and  O7_7 
REMARK    6  A    between atoms: C8_8  and  C9_9 
REMARK    7  A    between atoms: C9_9  and  C10_10 
REMARK    8  A    between atoms: C10_10  and  C11_11 
REMARK    9  A    between atoms: C11_11  and  N14_13 
REMARK   10  A    between atoms: N14_13  and  C15_14 
ROOT
ATOM      1  N14 ZIN A   1      17.436   2.396  10.559  0.00  0.00    -0.385 N 
ATOM      2  H46 ZIN A   1      16.492   2.281  10.752  0.00  0.00     0.160 HD
ENDROOT
BRANCH   1   3
ATOM      3  C11 ZIN A   1      18.130   3.610  10.995  0.00  0.00     0.077 C 
ATOM      4  C13 ZIN A   1      17.101   4.660  11.421  0.00  0.00     0.032 C 
BRANCH   3   5
ATOM      5  C10 ZIN A   1      19.042   3.281  12.177  0.00  0.00     0.026 C 
BRANCH   5   6
ATOM      6  C9  ZIN A   1      18.189   3.001  13.417  0.00  0.00     0.030 C 
BRANCH   6   7
ATOM      7  C8  ZIN A   1      18.773   1.810  14.179  0.00  0.00     0.235 C 
BRANCH   7   8
ATOM      8  N3  ZIN A   1      18.179   1.750  15.522  0.00  0.00    -0.069 N 
ATOM      9  H4  ZIN A   1      17.423   2.415  15.584  0.00  0.00     0.279 HD
BRANCH   8  10
ATOM     10  C2  ZIN A   1      17.665   0.397  15.770  0.00  0.00     0.230 C 
ATOM     11  C1  ZIN A   1      18.716  -0.634  15.349  0.00  0.00     0.034 C 
ENDBRANCH   8  10
BRANCH   8  12
ATOM     12  C5  ZIN A   1      19.203   2.076  16.524  0.00  0.00     0.260 C 
BRANCH  12  13
ATOM     13  C6  ZIN A   1      18.564   2.105  17.914  0.00  0.00     0.192 C 
BRANCH  13  14
ATOM     14  O7  ZIN A   1      19.583   1.996  18.909  0.00  0.00    -0.399 OA
ATOM     15  H36 ZIN A   1      19.247   1.812  19.798  0.00  0.00     0.209 HD
ENDBRANCH  13  14
ENDBRANCH  12  13
ENDBRANCH   8  12
ENDBRANCH   7   8
ENDBRANCH   6   7
ENDBRANCH   5   6
ENDBRANCH   3   5
ENDBRANCH   1   3
BRANCH   1  16
ATOM     16  C15 ZIN A   1      18.127   1.411   9.870  0.00  0.00     0.042 A 
ATOM     17  C26 ZIN A   1      18.824   1.706   8.707  0.00  0.00     0.047 A 
ATOM     18  C25 ZIN A   1      19.509   0.700   8.043  0.00  0.00     0.090 A 
ATOM     19  N23 ZIN A   1      19.514  -0.539   8.476  0.00  0.00    -0.365 N 
ATOM     20  C22 ZIN A   1      18.859  -0.897   9.587  0.00  0.00     0.046 A 
ATOM     21  H24 ZIN A   1      20.003  -1.212   7.979  0.00  0.00     0.165 HD
ATOM     22  C16 ZIN A   1      18.139   0.072  10.326  0.00  0.00     0.017 A 
ATOM     23  C21 ZIN A   1      18.873  -2.228  10.037  0.00  0.00     0.054 A 
ATOM     24  C17 ZIN A   1      17.455  -0.308  11.489  0.00  0.00     0.018 A 
ATOM     25  C18 ZIN A   1      17.490  -1.607  11.897  0.00  0.00     0.025 A 
ATOM     26  C19 ZIN A   1      18.199  -2.564  11.172  0.00  0.00     0.036 A 
ATOM     27 Cl20 ZIN A   1      18.220  -4.211  11.722  0.00  0.00    -0.084 Cl
ENDBRANCH   1  16
TORSDOF 10
ENDMDL
