MODEL 1
REMARK VINA RESULT:      -5.6      0.000      0.000
REMARK  15 active torsions:
REMARK  status: ('A' for Active; 'I' for Inactive)
REMARK    1  A    between atoms: C2_2  and  C3_3 
REMARK    2  A    between atoms: C3_3  and  C4_4 
REMARK    3  A    between atoms: C4_4  and  C5_5 
REMARK    4  A    between atoms: C5_5  and  C6_6 
REMARK    5  A    between atoms: C6_6  and  C7_7 
REMARK    6  A    between atoms: C7_7  and  C8_8 
REMARK    7  A    between atoms: C8_8  and  C9_9 
REMARK    8  A    between atoms: C9_9  and  C10_10 
REMARK    9  A    between atoms: C10_10  and  C11_11 
REMARK   10  A    between atoms: C11_11  and  C12_12 
REMARK   11  A    between atoms: C12_12  and  C13_13 
REMARK   12  A    between atoms: C13_13  and  C14_14 
REMARK   13  A    between atoms: C14_14  and  C15_15 
REMARK   14  A    between atoms: C15_15  and  C16_16 
REMARK   15  A    between atoms: C16_16  and  N17_17 
ROOT
ATOM      1  C11 ZIN A   1      18.968   2.211   8.502  0.00  0.00     0.000 C 
ENDROOT
BRANCH   1   2
ATOM      2  C10 ZIN A   1      18.997   0.683   8.565  0.00  0.00     0.000 C 
BRANCH   2   3
ATOM      3  C9  ZIN A   1      17.566   0.143   8.512  0.00  0.00     0.000 C 
BRANCH   3   4
ATOM      4  C8  ZIN A   1      17.083  -0.165   9.930  0.00  0.00     0.000 C 
BRANCH   4   5
ATOM      5  C7  ZIN A   1      18.143  -0.991  10.662  0.00  0.00     0.000 C 
BRANCH   5   6
ATOM      6  C6  ZIN A   1      17.490  -1.746  11.821  0.00  0.00     0.000 C 
BRANCH   6   7
ATOM      7  C5  ZIN A   1      17.830  -3.234  11.716  0.00  0.00     0.000 C 
BRANCH   7   8
ATOM      8  C4  ZIN A   1      19.339  -3.425  11.881  0.00  0.00     0.000 C 
BRANCH   8   9
ATOM      9  C3  ZIN A   1      19.826  -4.507  10.916  0.00  0.00    -0.000 C 
BRANCH   9  10
ATOM     10  C2  ZIN A   1      18.840  -4.636   9.754  0.00  0.00    -0.005 C 
ATOM     11  C1  ZIN A   1      19.012  -6.003   9.089  0.00  0.00     0.005 C 
ENDBRANCH   9  10
ENDBRANCH   8   9
ENDBRANCH   7   8
ENDBRANCH   6   7
ENDBRANCH   5   6
ENDBRANCH   4   5
ENDBRANCH   3   4
ENDBRANCH   2   3
ENDBRANCH   1   2
BRANCH   1  12
ATOM     12  C12 ZIN A   1      19.174   2.783   9.906  0.00  0.00     0.000 C 
BRANCH  12  13
ATOM     13  C13 ZIN A   1      17.904   3.510  10.353  0.00  0.00     0.000 C 
BRANCH  13  14
ATOM     14  C14 ZIN A   1      17.642   3.217  11.832  0.00  0.00     0.002 C 
BRANCH  14  15
ATOM     15  C15 ZIN A   1      18.673   2.209  12.342  0.00  0.00     0.020 C 
BRANCH  15  16
ATOM     16  C16 ZIN A   1      18.793   2.327  13.862  0.00  0.00     0.128 C 
BRANCH  16  17
ATOM     17  N17 ZIN A   1      18.714   0.993  14.464  0.00  0.00    -0.366 N 
ATOM     18  C22 ZIN A   1      17.718   0.715  15.281  0.00  0.00     0.090 A 
ATOM     19  C21 ZIN A   1      17.608  -0.534  15.863  0.00  0.00     0.017 A 
ATOM     20  C20 ZIN A   1      18.568  -1.495  15.585  0.00  0.00     0.003 A 
ATOM     21  C19 ZIN A   1      19.604  -1.164  14.725  0.00  0.00     0.017 A 
ATOM     22  C18 ZIN A   1      19.645   0.104  14.177  0.00  0.00     0.090 A 
ENDBRANCH  16  17
ENDBRANCH  15  16
ENDBRANCH  14  15
ENDBRANCH  13  14
ENDBRANCH  12  13
ENDBRANCH   1  12
TORSDOF 15
ENDMDL
MODEL 2
REMARK VINA RESULT:      -5.6      1.933      5.581
REMARK  15 active torsions:
REMARK  status: ('A' for Active; 'I' for Inactive)
REMARK    1  A    between atoms: C2_2  and  C3_3 
REMARK    2  A    between atoms: C3_3  and  C4_4 
REMARK    3  A    between atoms: C4_4  and  C5_5 
REMARK    4  A    between atoms: C5_5  and  C6_6 
REMARK    5  A    between atoms: C6_6  and  C7_7 
REMARK    6  A    between atoms: C7_7  and  C8_8 
REMARK    7  A    between atoms: C8_8  and  C9_9 
REMARK    8  A    between atoms: C9_9  and  C10_10 
REMARK    9  A    between atoms: C10_10  and  C11_11 
REMARK   10  A    between atoms: C11_11  and  C12_12 
REMARK   11  A    between atoms: C12_12  and  C13_13 
REMARK   12  A    between atoms: C13_13  and  C14_14 
REMARK   13  A    between atoms: C14_14  and  C15_15 
REMARK   14  A    between atoms: C15_15  and  C16_16 
REMARK   15  A    between atoms: C16_16  and  N17_17 
ROOT
ATOM      1  C11 ZIN A   1      19.303   2.624  10.765  0.00  0.00     0.000 C 
ENDROOT
BRANCH   1   2
ATOM      2  C10 ZIN A   1      18.634   2.367  12.116  0.00  0.00     0.000 C 
BRANCH   2   3
ATOM      3  C9  ZIN A   1      17.419   1.458  11.919  0.00  0.00     0.000 C 
BRANCH   3   4
ATOM      4  C8  ZIN A   1      17.542   0.237  12.833  0.00  0.00     0.000 C 
BRANCH   4   5
ATOM      5  C7  ZIN A   1      17.972   0.686  14.231  0.00  0.00     0.000 C 
BRANCH   5   6
ATOM      6  C6  ZIN A   1      19.041  -0.269  14.766  0.00  0.00     0.000 C 
BRANCH   6   7
ATOM      7  C5  ZIN A   1      18.372  -1.368  15.595  0.00  0.00     0.000 C 
BRANCH   7   8
ATOM      8  C4  ZIN A   1      17.941  -0.796  16.947  0.00  0.00     0.000 C 
BRANCH   8   9
ATOM      9  C3  ZIN A   1      19.178  -0.508  17.798  0.00  0.00    -0.000 C 
BRANCH   9  10
ATOM     10  C2  ZIN A   1      19.070   0.895  18.398  0.00  0.00    -0.005 C 
ATOM     11  C1  ZIN A   1      17.597   1.303  18.479  0.00  0.00     0.005 C 
ENDBRANCH   9  10
ENDBRANCH   8   9
ENDBRANCH   7   8
ENDBRANCH   6   7
ENDBRANCH   5   6
ENDBRANCH   4   5
ENDBRANCH   3   4
ENDBRANCH   2   3
ENDBRANCH   1   2
BRANCH   1  12
ATOM     12  C12 ZIN A   1      18.326   2.278   9.639  0.00  0.00     0.000 C 
BRANCH  12  13
ATOM     13  C13 ZIN A   1      19.110   1.941   8.368  0.00  0.00     0.000 C 
BRANCH  13  14
ATOM     14  C14 ZIN A   1      18.401   0.813   7.615  0.00  0.00     0.002 C 
BRANCH  14  15
ATOM     15  C15 ZIN A   1      17.637  -0.061   8.610  0.00  0.00     0.020 C 
BRANCH  15  16
ATOM     16  C16 ZIN A   1      18.101  -1.513   8.473  0.00  0.00     0.128 C 
BRANCH  16  17
ATOM     17  N17 ZIN A   1      18.435  -2.046   9.796  0.00  0.00    -0.366 N 
ATOM     18  C22 ZIN A   1      19.601  -1.746  10.334  0.00  0.00     0.090 A 
ATOM     19  C21 ZIN A   1      19.948  -2.226  11.583  0.00  0.00     0.017 A 
ATOM     20  C20 ZIN A   1      19.058  -3.041  12.264  0.00  0.00     0.003 A 
ATOM     21  C19 ZIN A   1      17.844  -3.340  11.665  0.00  0.00     0.017 A 
ATOM     22  C18 ZIN A   1      17.564  -2.819  10.416  0.00  0.00     0.090 A 
ENDBRANCH  16  17
ENDBRANCH  15  16
ENDBRANCH  14  15
ENDBRANCH  13  14
ENDBRANCH  12  13
ENDBRANCH   1  12
TORSDOF 15
ENDMDL
MODEL 3
REMARK VINA RESULT:      -5.5      2.193      5.481
REMARK  15 active torsions:
REMARK  status: ('A' for Active; 'I' for Inactive)
REMARK    1  A    between atoms: C2_2  and  C3_3 
REMARK    2  A    between atoms: C3_3  and  C4_4 
REMARK    3  A    between atoms: C4_4  and  C5_5 
REMARK    4  A    between atoms: C5_5  and  C6_6 
REMARK    5  A    between atoms: C6_6  and  C7_7 
REMARK    6  A    between atoms: C7_7  and  C8_8 
REMARK    7  A    between atoms: C8_8  and  C9_9 
REMARK    8  A    between atoms: C9_9  and  C10_10 
REMARK    9  A    between atoms: C10_10  and  C11_11 
REMARK   10  A    between atoms: C11_11  and  C12_12 
REMARK   11  A    between atoms: C12_12  and  C13_13 
REMARK   12  A    between atoms: C13_13  and  C14_14 
REMARK   13  A    between atoms: C14_14  and  C15_15 
REMARK   14  A    between atoms: C15_15  and  C16_16 
REMARK   15  A    between atoms: C16_16  and  N17_17 
ROOT
ATOM      1  C11 ZIN A   1      16.659   0.109  11.510  0.00  0.00     0.000 C 
ENDROOT
BRANCH   1   2
ATOM      2  C10 ZIN A   1      17.459  -0.601  10.417  0.00  0.00     0.000 C 
BRANCH   2   3
ATOM      3  C9  ZIN A   1      17.456   0.252   9.147  0.00  0.00     0.000 C 
BRANCH   3   4
ATOM      4  C8  ZIN A   1      18.896   0.601   8.763  0.00  0.00     0.000 C 
BRANCH   4   5
ATOM      5  C7  ZIN A   1      19.047   2.121   8.678  0.00  0.00     0.000 C 
BRANCH   5   6
ATOM      6  C6  ZIN A   1      19.000   2.717  10.087  0.00  0.00     0.000 C 
BRANCH   6   7
ATOM      7  C5  ZIN A   1      17.811   3.674  10.195  0.00  0.00     0.000 C 
BRANCH   7   8
ATOM      8  C4  ZIN A   1      17.911   4.467  11.500  0.00  0.00     0.000 C 
BRANCH   8   9
ATOM      9  C3  ZIN A   1      19.262   4.191  12.162  0.00  0.00    -0.000 C 
BRANCH   9  10
ATOM     10  C2  ZIN A   1      19.037   3.686  13.589  0.00  0.00    -0.005 C 
ATOM     11  C1  ZIN A   1      17.688   4.191  14.103  0.00  0.00     0.005 C 
ENDBRANCH   9  10
ENDBRANCH   8   9
ENDBRANCH   7   8
ENDBRANCH   6   7
ENDBRANCH   5   6
ENDBRANCH   4   5
ENDBRANCH   3   4
ENDBRANCH   2   3
ENDBRANCH   1   2
BRANCH   1  12
ATOM     12  C12 ZIN A   1      17.566   0.373  12.714  0.00  0.00     0.000 C 
BRANCH  12  13
ATOM     13  C13 ZIN A   1      18.855  -0.439  12.570  0.00  0.00     0.000 C 
BRANCH  13  14
ATOM     14  C14 ZIN A   1      18.789  -1.668  13.478  0.00  0.00     0.002 C 
BRANCH  14  15
ATOM     15  C15 ZIN A   1      19.435  -1.342  14.825  0.00  0.00     0.020 C 
BRANCH  15  16
ATOM     16  C16 ZIN A   1      18.363  -1.336  15.917  0.00  0.00     0.128 C 
BRANCH  16  17
ATOM     17  N17 ZIN A   1      18.495  -0.119  16.724  0.00  0.00    -0.366 N 
ATOM     18  C22 ZIN A   1      19.018   0.960  16.176  0.00  0.00     0.090 A 
ATOM     19  C21 ZIN A   1      19.152   2.127  16.905  0.00  0.00     0.017 A 
ATOM     20  C20 ZIN A   1      18.741   2.148  18.229  0.00  0.00     0.003 A 
ATOM     21  C19 ZIN A   1      18.201   0.992  18.771  0.00  0.00     0.017 A 
ATOM     22  C18 ZIN A   1      18.093  -0.136  17.980  0.00  0.00     0.090 A 
ENDBRANCH  16  17
ENDBRANCH  15  16
ENDBRANCH  14  15
ENDBRANCH  13  14
ENDBRANCH  12  13
ENDBRANCH   1  12
TORSDOF 15
ENDMDL
MODEL 4
REMARK VINA RESULT:      -5.4      1.997      5.572
REMARK  15 active torsions:
REMARK  status: ('A' for Active; 'I' for Inactive)
REMARK    1  A    between atoms: C2_2  and  C3_3 
REMARK    2  A    between atoms: C3_3  and  C4_4 
REMARK    3  A    between atoms: C4_4  and  C5_5 
REMARK    4  A    between atoms: C5_5  and  C6_6 
REMARK    5  A    between atoms: C6_6  and  C7_7 
REMARK    6  A    between atoms: C7_7  and  C8_8 
REMARK    7  A    between atoms: C8_8  and  C9_9 
REMARK    8  A    between atoms: C9_9  and  C10_10 
REMARK    9  A    between atoms: C10_10  and  C11_11 
REMARK   10  A    between atoms: C11_11  and  C12_12 
REMARK   11  A    between atoms: C12_12  and  C13_13 
REMARK   12  A    between atoms: C13_13  and  C14_14 
REMARK   13  A    between atoms: C14_14  and  C15_15 
REMARK   14  A    between atoms: C15_15  and  C16_16 
REMARK   15  A    between atoms: C16_16  and  N17_17 
ROOT
ATOM      1  C11 ZIN A   1      19.070   1.359  10.155  0.00  0.00     0.000 C 
ENDROOT
BRANCH   1   2
ATOM      2  C10 ZIN A   1      17.649   1.604  10.663  0.00  0.00     0.000 C 
BRANCH   2   3
ATOM      3  C9  ZIN A   1      17.040   0.283  11.136  0.00  0.00     0.000 C 
BRANCH   3   4
ATOM      4  C8  ZIN A   1      18.160  -0.705  11.472  0.00  0.00     0.000 C 
BRANCH   4   5
ATOM      5  C7  ZIN A   1      17.787  -1.490  12.731  0.00  0.00     0.000 C 
BRANCH   5   6
ATOM      6  C6  ZIN A   1      19.010  -1.596  13.645  0.00  0.00     0.000 C 
BRANCH   6   7
ATOM      7  C5  ZIN A   1      18.599  -1.269  15.083  0.00  0.00     0.000 C 
BRANCH   7   8
ATOM      8  C4  ZIN A   1      18.123   0.182  15.160  0.00  0.00     0.000 C 
BRANCH   8   9
ATOM      9  C3  ZIN A   1      19.267   1.117  14.766  0.00  0.00    -0.000 C 
BRANCH   9  10
ATOM     10  C2  ZIN A   1      18.892   2.559  15.113  0.00  0.00    -0.005 C 
ATOM     11  C1  ZIN A   1      18.002   3.134  14.008  0.00  0.00     0.005 C 
ENDBRANCH   9  10
ENDBRANCH   8   9
ENDBRANCH   7   8
ENDBRANCH   6   7
ENDBRANCH   5   6
ENDBRANCH   4   5
ENDBRANCH   3   4
ENDBRANCH   2   3
ENDBRANCH   1   2
BRANCH   1  12
ATOM     12  C12 ZIN A   1      19.174   1.806   8.695  0.00  0.00     0.000 C 
BRANCH  12  13
ATOM     13  C13 ZIN A   1      18.527   0.753   7.792  0.00  0.00     0.000 C 
BRANCH  13  14
ATOM     14  C14 ZIN A   1      19.244  -0.587   7.976  0.00  0.00     0.002 C 
BRANCH  14  15
ATOM     15  C15 ZIN A   1      18.209  -1.709   8.070  0.00  0.00     0.020 C 
BRANCH  15  16
ATOM     16  C16 ZIN A   1      18.927  -3.058   8.150  0.00  0.00     0.128 C 
BRANCH  16  17
ATOM     17  N17 ZIN A   1      18.554  -3.737   9.394  0.00  0.00    -0.366 N 
ATOM     18  C22 ZIN A   1      17.287  -4.029   9.611  0.00  0.00     0.090 A 
ATOM     19  C21 ZIN A   1      16.899  -4.674  10.770  0.00  0.00     0.017 A 
ATOM     20  C20 ZIN A   1      17.860  -5.002  11.714  0.00  0.00     0.003 A 
ATOM     21  C19 ZIN A   1      19.181  -4.674  11.454  0.00  0.00     0.017 A 
ATOM     22  C18 ZIN A   1      19.495  -4.034  10.269  0.00  0.00     0.090 A 
ENDBRANCH  16  17
ENDBRANCH  15  16
ENDBRANCH  14  15
ENDBRANCH  13  14
ENDBRANCH  12  13
ENDBRANCH   1  12
TORSDOF 15
ENDMDL
MODEL 5
REMARK VINA RESULT:      -5.4      1.566      2.947
REMARK  15 active torsions:
REMARK  status: ('A' for Active; 'I' for Inactive)
REMARK    1  A    between atoms: C2_2  and  C3_3 
REMARK    2  A    between atoms: C3_3  and  C4_4 
REMARK    3  A    between atoms: C4_4  and  C5_5 
REMARK    4  A    between atoms: C5_5  and  C6_6 
REMARK    5  A    between atoms: C6_6  and  C7_7 
REMARK    6  A    between atoms: C7_7  and  C8_8 
REMARK    7  A    between atoms: C8_8  and  C9_9 
REMARK    8  A    between atoms: C9_9  and  C10_10 
REMARK    9  A    between atoms: C10_10  and  C11_11 
REMARK   10  A    between atoms: C11_11  and  C12_12 
REMARK   11  A    between atoms: C12_12  and  C13_13 
REMARK   12  A    between atoms: C13_13  and  C14_14 
REMARK   13  A    between atoms: C14_14  and  C15_15 
REMARK   14  A    between atoms: C15_15  and  C16_16 
REMARK   15  A    between atoms: C16_16  and  N17_17 
ROOT
ATOM      1  C11 ZIN A   1      17.616   3.543  10.445  0.00  0.00     0.000 C 
ENDROOT
BRANCH   1   2
ATOM      2  C10 ZIN A   1      19.040   3.041  10.199  0.00  0.00     0.000 C 
BRANCH   2   3
ATOM      3  C9  ZIN A   1      18.989   1.618   9.637  0.00  0.00     0.000 C 
BRANCH   3   4
ATOM      4  C8  ZIN A   1      19.340   1.644   8.148  0.00  0.00     0.000 C 
BRANCH   4   5
ATOM      5  C7  ZIN A   1      18.354   0.766   7.376  0.00  0.00     0.000 C 
BRANCH   5   6
ATOM      6  C6  ZIN A   1      17.676  -0.209   8.342  0.00  0.00     0.000 C 
BRANCH   6   7
ATOM      7  C5  ZIN A   1      18.479  -1.511   8.398  0.00  0.00     0.000 C 
BRANCH   7   8
ATOM      8  C4  ZIN A   1      18.043  -2.327   9.616  0.00  0.00     0.000 C 
BRANCH   8   9
ATOM      9  C3  ZIN A   1      18.530  -1.641  10.892  0.00  0.00    -0.000 C 
BRANCH   9  10
ATOM     10  C2  ZIN A   1      17.377  -1.544  11.893  0.00  0.00    -0.005 C 
ATOM     11  C1  ZIN A   1      16.965  -0.080  12.057  0.00  0.00     0.005 C 
ENDBRANCH   9  10
ENDBRANCH   8   9
ENDBRANCH   7   8
ENDBRANCH   6   7
ENDBRANCH   5   6
ENDBRANCH   4   5
ENDBRANCH   3   4
ENDBRANCH   2   3
ENDBRANCH   1   2
BRANCH   1  12
ATOM     12  C12 ZIN A   1      17.435   3.851  11.933  0.00  0.00     0.000 C 
BRANCH  12  13
ATOM     13  C13 ZIN A   1      18.618   4.686  12.429  0.00  0.00     0.000 C 
BRANCH  13  14
ATOM     14  C14 ZIN A   1      19.043   4.195  13.815  0.00  0.00     0.002 C 
BRANCH  14  15
ATOM     15  C15 ZIN A   1      18.471   2.797  14.057  0.00  0.00     0.020 C 
BRANCH  15  16
ATOM     16  C16 ZIN A   1      18.590   2.449  15.542  0.00  0.00     0.128 C 
BRANCH  16  17
ATOM     17  N17 ZIN A   1      18.487   0.997  15.713  0.00  0.00    -0.366 N 
ATOM     18  C22 ZIN A   1      17.636   0.513  16.596  0.00  0.00     0.090 A 
ATOM     19  C21 ZIN A   1      17.508  -0.851  16.780  0.00  0.00     0.017 A 
ATOM     20  C20 ZIN A   1      18.295  -1.711  16.030  0.00  0.00     0.003 A 
ATOM     21  C19 ZIN A   1      19.181  -1.165  15.114  0.00  0.00     0.017 A 
ATOM     22  C18 ZIN A   1      19.251   0.209  14.981  0.00  0.00     0.090 A 
ENDBRANCH  16  17
ENDBRANCH  15  16
ENDBRANCH  14  15
ENDBRANCH  13  14
ENDBRANCH  12  13
ENDBRANCH   1  12
TORSDOF 15
ENDMDL
MODEL 6
REMARK VINA RESULT:      -5.4      2.030      6.294
REMARK  15 active torsions:
REMARK  status: ('A' for Active; 'I' for Inactive)
REMARK    1  A    between atoms: C2_2  and  C3_3 
REMARK    2  A    between atoms: C3_3  and  C4_4 
REMARK    3  A    between atoms: C4_4  and  C5_5 
REMARK    4  A    between atoms: C5_5  and  C6_6 
REMARK    5  A    between atoms: C6_6  and  C7_7 
REMARK    6  A    between atoms: C7_7  and  C8_8 
REMARK    7  A    between atoms: C8_8  and  C9_9 
REMARK    8  A    between atoms: C9_9  and  C10_10 
REMARK    9  A    between atoms: C10_10  and  C11_11 
REMARK   10  A    between atoms: C11_11  and  C12_12 
REMARK   11  A    between atoms: C12_12  and  C13_13 
REMARK   12  A    between atoms: C13_13  and  C14_14 
REMARK   13  A    between atoms: C14_14  and  C15_15 
REMARK   14  A    between atoms: C15_15  and  C16_16 
REMARK   15  A    between atoms: C16_16  and  N17_17 
ROOT
ATOM      1  C11 ZIN A   1      19.946   1.095  13.216  0.00  0.00     0.000 C 
ENDROOT
BRANCH   1   2
ATOM      2  C10 ZIN A   1      19.342   0.434  14.455  0.00  0.00     0.000 C 
BRANCH   2   3
ATOM      3  C9  ZIN A   1      17.817   0.552  14.404  0.00  0.00     0.000 C 
BRANCH   3   4
ATOM      4  C8  ZIN A   1      17.222   0.068  15.728  0.00  0.00     0.000 C 
BRANCH   4   5
ATOM      5  C7  ZIN A   1      18.289  -0.688  16.521  0.00  0.00     0.000 C 
BRANCH   5   6
ATOM      6  C6  ZIN A   1      18.303  -0.185  17.966  0.00  0.00     0.000 C 
BRANCH   6   7
ATOM      7  C5  ZIN A   1      19.442   0.821  18.144  0.00  0.00     0.000 C 
BRANCH   7   8
ATOM      8  C4  ZIN A   1      18.870   2.239  18.175  0.00  0.00     0.000 C 
BRANCH   8   9
ATOM      9  C3  ZIN A   1      19.546   3.086  17.096  0.00  0.00    -0.000 C 
BRANCH   9  10
ATOM     10  C2  ZIN A   1      18.479   3.716  16.199  0.00  0.00    -0.005 C 
ATOM     11  C1  ZIN A   1      19.157   4.535  15.098  0.00  0.00     0.005 C 
ENDBRANCH   9  10
ENDBRANCH   8   9
ENDBRANCH   7   8
ENDBRANCH   6   7
ENDBRANCH   5   6
ENDBRANCH   4   5
ENDBRANCH   3   4
ENDBRANCH   2   3
ENDBRANCH   1   2
BRANCH   1  12
ATOM     12  C12 ZIN A   1      18.890   1.972  12.539  0.00  0.00     0.000 C 
BRANCH  12  13
ATOM     13  C13 ZIN A   1      19.515   2.689  11.340  0.00  0.00     0.000 C 
BRANCH  13  14
ATOM     14  C14 ZIN A   1      18.531   2.673  10.168  0.00  0.00     0.002 C 
BRANCH  14  15
ATOM     15  C15 ZIN A   1      18.994   1.652   9.128  0.00  0.00     0.020 C 
BRANCH  15  16
ATOM     16  C16 ZIN A   1      17.979   0.510   9.048  0.00  0.00     0.128 C 
BRANCH  16  17
ATOM     17  N17 ZIN A   1      18.296  -0.496  10.066  0.00  0.00    -0.366 N 
ATOM     18  C22 ZIN A   1      19.528  -0.959  10.149  0.00  0.00     0.090 A 
ATOM     19  C21 ZIN A   1      19.865  -1.904  11.100  0.00  0.00     0.017 A 
ATOM     20  C20 ZIN A   1      18.886  -2.372  11.963  0.00  0.00     0.003 A 
ATOM     21  C19 ZIN A   1      17.601  -1.866  11.842  0.00  0.00     0.017 A 
ATOM     22  C18 ZIN A   1      17.340  -0.919  10.870  0.00  0.00     0.090 A 
ENDBRANCH  16  17
ENDBRANCH  15  16
ENDBRANCH  14  15
ENDBRANCH  13  14
ENDBRANCH  12  13
ENDBRANCH   1  12
TORSDOF 15
ENDMDL
MODEL 7
REMARK VINA RESULT:      -5.4      2.022      5.857
REMARK  15 active torsions:
REMARK  status: ('A' for Active; 'I' for Inactive)
REMARK    1  A    between atoms: C2_2  and  C3_3 
REMARK    2  A    between atoms: C3_3  and  C4_4 
REMARK    3  A    between atoms: C4_4  and  C5_5 
REMARK    4  A    between atoms: C5_5  and  C6_6 
REMARK    5  A    between atoms: C6_6  and  C7_7 
REMARK    6  A    between atoms: C7_7  and  C8_8 
REMARK    7  A    between atoms: C8_8  and  C9_9 
REMARK    8  A    between atoms: C9_9  and  C10_10 
REMARK    9  A    between atoms: C10_10  and  C11_11 
REMARK   10  A    between atoms: C11_11  and  C12_12 
REMARK   11  A    between atoms: C12_12  and  C13_13 
REMARK   12  A    between atoms: C13_13  and  C14_14 
REMARK   13  A    between atoms: C14_14  and  C15_15 
REMARK   14  A    between atoms: C15_15  and  C16_16 
REMARK   15  A    between atoms: C16_16  and  N17_17 
ROOT
ATOM      1  C11 ZIN A   1      17.844   1.797   9.861  0.00  0.00     0.000 C 
ENDROOT
BRANCH   1   2
ATOM      2  C10 ZIN A   1      17.937   2.542  11.194  0.00  0.00     0.000 C 
BRANCH   2   3
ATOM      3  C9  ZIN A   1      17.702   1.562  12.344  0.00  0.00     0.000 C 
BRANCH   3   4
ATOM      4  C8  ZIN A   1      16.988   0.316  11.816  0.00  0.00     0.000 C 
BRANCH   4   5
ATOM      5  C7  ZIN A   1      17.481  -0.916  12.577  0.00  0.00     0.000 C 
BRANCH   5   6
ATOM      6  C6  ZIN A   1      19.011  -0.958  12.541  0.00  0.00     0.000 C 
BRANCH   6   7
ATOM      7  C5  ZIN A   1      19.539  -1.438  13.894  0.00  0.00     0.000 C 
BRANCH   7   8
ATOM      8  C4  ZIN A   1      18.438  -1.307  14.948  0.00  0.00     0.000 C 
BRANCH   8   9
ATOM      9  C3  ZIN A   1      19.041  -1.482  16.342  0.00  0.00    -0.000 C 
BRANCH   9  10
ATOM     10  C2  ZIN A   1      18.348  -0.533  17.321  0.00  0.00    -0.005 C 
ATOM     11  C1  ZIN A   1      16.933  -0.230  16.824  0.00  0.00     0.005 C 
ENDBRANCH   9  10
ENDBRANCH   8   9
ENDBRANCH   7   8
ENDBRANCH   6   7
ENDBRANCH   5   6
ENDBRANCH   4   5
ENDBRANCH   3   4
ENDBRANCH   2   3
ENDBRANCH   1   2
BRANCH   1  12
ATOM     12  C12 ZIN A   1      19.170   1.930   9.110  0.00  0.00     0.000 C 
BRANCH  12  13
ATOM     13  C13 ZIN A   1      19.123   1.080   7.837  0.00  0.00     0.000 C 
BRANCH  13  14
ATOM     14  C14 ZIN A   1      17.814   0.288   7.801  0.00  0.00     0.002 C 
BRANCH  14  15
ATOM     15  C15 ZIN A   1      18.123  -1.199   7.621  0.00  0.00     0.020 C 
BRANCH  15  16
ATOM     16  C16 ZIN A   1      18.145  -1.884   8.989  0.00  0.00     0.128 C 
BRANCH  16  17
ATOM     17  N17 ZIN A   1      18.831  -3.174   8.878  0.00  0.00    -0.366 N 
ATOM     18  C22 ZIN A   1      19.209  -3.600   7.689  0.00  0.00     0.090 A 
ATOM     19  C21 ZIN A   1      19.863  -4.809   7.546  0.00  0.00     0.017 A 
ATOM     20  C20 ZIN A   1      20.109  -5.581   8.671  0.00  0.00     0.003 A 
ATOM     21  C19 ZIN A   1      19.692  -5.103   9.904  0.00  0.00     0.017 A 
ATOM     22  C18 ZIN A   1      19.048  -3.882   9.970  0.00  0.00     0.090 A 
ENDBRANCH  16  17
ENDBRANCH  15  16
ENDBRANCH  14  15
ENDBRANCH  13  14
ENDBRANCH  12  13
ENDBRANCH   1  12
TORSDOF 15
ENDMDL
MODEL 8
REMARK VINA RESULT:      -5.3      2.142      4.676
REMARK  15 active torsions:
REMARK  status: ('A' for Active; 'I' for Inactive)
REMARK    1  A    between atoms: C2_2  and  C3_3 
REMARK    2  A    between atoms: C3_3  and  C4_4 
REMARK    3  A    between atoms: C4_4  and  C5_5 
REMARK    4  A    between atoms: C5_5  and  C6_6 
REMARK    5  A    between atoms: C6_6  and  C7_7 
REMARK    6  A    between atoms: C7_7  and  C8_8 
REMARK    7  A    between atoms: C8_8  and  C9_9 
REMARK    8  A    between atoms: C9_9  and  C10_10 
REMARK    9  A    between atoms: C10_10  and  C11_11 
REMARK   10  A    between atoms: C11_11  and  C12_12 
REMARK   11  A    between atoms: C12_12  and  C13_13 
REMARK   12  A    between atoms: C13_13  and  C14_14 
REMARK   13  A    between atoms: C14_14  and  C15_15 
REMARK   14  A    between atoms: C15_15  and  C16_16 
REMARK   15  A    between atoms: C16_16  and  N17_17 
ROOT
ATOM      1  C11 ZIN A   1      17.377  -0.378  10.469  0.00  0.00     0.000 C 
ENDROOT
BRANCH   1   2
ATOM      2  C10 ZIN A   1      17.450  -0.305   8.943  0.00  0.00     0.000 C 
BRANCH   2   3
ATOM      3  C9  ZIN A   1      18.865   0.094   8.519  0.00  0.00     0.000 C 
BRANCH   3   4
ATOM      4  C8  ZIN A   1      18.805   1.362   7.666  0.00  0.00     0.000 C 
BRANCH   4   5
ATOM      5  C7  ZIN A   1      19.159   1.020   6.217  0.00  0.00     0.000 C 
BRANCH   5   6
ATOM      6  C6  ZIN A   1      17.955   0.359   5.541  0.00  0.00     0.000 C 
BRANCH   6   7
ATOM      7  C5  ZIN A   1      18.435  -0.482   4.356  0.00  0.00     0.000 C 
BRANCH   7   8
ATOM      8  C4  ZIN A   1      19.300  -1.636   4.866  0.00  0.00     0.000 C 
BRANCH   8   9
ATOM      9  C3  ZIN A   1      18.447  -2.576   5.719  0.00  0.00    -0.000 C 
BRANCH   9  10
ATOM     10  C2  ZIN A   1      19.350  -3.594   6.416  0.00  0.00    -0.005 C 
ATOM     11  C1  ZIN A   1      19.108  -3.541   7.926  0.00  0.00     0.005 C 
ENDBRANCH   9  10
ENDBRANCH   8   9
ENDBRANCH   7   8
ENDBRANCH   6   7
ENDBRANCH   5   6
ENDBRANCH   4   5
ENDBRANCH   3   4
ENDBRANCH   2   3
ENDBRANCH   1   2
BRANCH   1  12
ATOM     12  C12 ZIN A   1      18.465  -1.321  10.987  0.00  0.00     0.000 C 
BRANCH  12  13
ATOM     13  C13 ZIN A   1      17.984  -1.998  12.273  0.00  0.00     0.000 C 
BRANCH  13  14
ATOM     14  C14 ZIN A   1      18.944  -1.662  13.416  0.00  0.00     0.002 C 
BRANCH  14  15
ATOM     15  C15 ZIN A   1      18.486  -0.376  14.105  0.00  0.00     0.020 C 
BRANCH  15  16
ATOM     16  C16 ZIN A   1      19.567   0.696  13.953  0.00  0.00     0.128 C 
BRANCH  16  17
ATOM     17  N17 ZIN A   1      19.164   1.653  12.918  0.00  0.00    -0.366 N 
ATOM     18  C22 ZIN A   1      17.981   2.228  13.002  0.00  0.00     0.090 A 
ATOM     19  C21 ZIN A   1      17.569   3.139  12.047  0.00  0.00     0.017 A 
ATOM     20  C20 ZIN A   1      18.413   3.435  10.988  0.00  0.00     0.003 A 
ATOM     21  C19 ZIN A   1      19.647   2.806  10.931  0.00  0.00     0.017 A 
ATOM     22  C18 ZIN A   1      19.993   1.910  11.925  0.00  0.00     0.090 A 
ENDBRANCH  16  17
ENDBRANCH  15  16
ENDBRANCH  14  15
ENDBRANCH  13  14
ENDBRANCH  12  13
ENDBRANCH   1  12
TORSDOF 15
ENDMDL
MODEL 9
REMARK VINA RESULT:      -5.3      2.498      6.207
REMARK  15 active torsions:
REMARK  status: ('A' for Active; 'I' for Inactive)
REMARK    1  A    between atoms: C2_2  and  C3_3 
REMARK    2  A    between atoms: C3_3  and  C4_4 
REMARK    3  A    between atoms: C4_4  and  C5_5 
REMARK    4  A    between atoms: C5_5  and  C6_6 
REMARK    5  A    between atoms: C6_6  and  C7_7 
REMARK    6  A    between atoms: C7_7  and  C8_8 
REMARK    7  A    between atoms: C8_8  and  C9_9 
REMARK    8  A    between atoms: C9_9  and  C10_10 
REMARK    9  A    between atoms: C10_10  and  C11_11 
REMARK   10  A    between atoms: C11_11  and  C12_12 
REMARK   11  A    between atoms: C12_12  and  C13_13 
REMARK   12  A    between atoms: C13_13  and  C14_14 
REMARK   13  A    between atoms: C14_14  and  C15_15 
REMARK   14  A    between atoms: C15_15  and  C16_16 
REMARK   15  A    between atoms: C16_16  and  N17_17 
ROOT
ATOM      1  C11 ZIN A   1      18.876   4.144  11.904  0.00  0.00     0.000 C 
ENDROOT
BRANCH   1   2
ATOM      2  C10 ZIN A   1      19.052   2.927  12.814  0.00  0.00     0.000 C 
BRANCH   2   3
ATOM      3  C9  ZIN A   1      18.170   3.085  14.054  0.00  0.00     0.000 C 
BRANCH   3   4
ATOM      4  C8  ZIN A   1      18.641   2.118  15.142  0.00  0.00     0.000 C 
BRANCH   4   5
ATOM      5  C7  ZIN A   1      17.872   0.801  15.023  0.00  0.00     0.000 C 
BRANCH   5   6
ATOM      6  C6  ZIN A   1      18.502  -0.242  15.949  0.00  0.00     0.000 C 
BRANCH   6   7
ATOM      7  C5  ZIN A   1      19.129  -1.356  15.107  0.00  0.00     0.000 C 
BRANCH   7   8
ATOM      8  C4  ZIN A   1      19.045  -0.985  13.625  0.00  0.00     0.000 C 
BRANCH   8   9
ATOM      9  C3  ZIN A   1      18.388  -2.127  12.850  0.00  0.00    -0.000 C 
BRANCH   9  10
ATOM     10  C2  ZIN A   1      17.828  -1.593  11.530  0.00  0.00    -0.005 C 
ATOM     11  C1  ZIN A   1      16.875  -0.430  11.814  0.00  0.00     0.005 C 
ENDBRANCH   9  10
ENDBRANCH   8   9
ENDBRANCH   7   8
ENDBRANCH   6   7
ENDBRANCH   5   6
ENDBRANCH   4   5
ENDBRANCH   3   4
ENDBRANCH   2   3
ENDBRANCH   1   2
BRANCH   1  12
ATOM     12  C12 ZIN A   1      17.702   3.903  10.952  0.00  0.00     0.000 C 
BRANCH  12  13
ATOM     13  C13 ZIN A   1      17.866   2.539  10.276  0.00  0.00     0.000 C 
BRANCH  13  14
ATOM     14  C14 ZIN A   1      18.894   2.648   9.149  0.00  0.00     0.002 C 
BRANCH  14  15
ATOM     15  C15 ZIN A   1      19.377   1.250   8.763  0.00  0.00     0.020 C 
BRANCH  15  16
ATOM     16  C16 ZIN A   1      18.193   0.423   8.257  0.00  0.00     0.128 C 
BRANCH  16  17
ATOM     17  N17 ZIN A   1      18.543  -0.197   6.976  0.00  0.00    -0.366 N 
ATOM     18  C22 ZIN A   1      18.836   0.575   5.948  0.00  0.00     0.090 A 
ATOM     19  C21 ZIN A   1      19.175   0.025   4.726  0.00  0.00     0.017 A 
ATOM     20  C20 ZIN A   1      19.194  -1.354   4.587  0.00  0.00     0.003 A 
ATOM     21  C19 ZIN A   1      18.875  -2.133   5.689  0.00  0.00     0.017 A 
ATOM     22  C18 ZIN A   1      18.550  -1.512   6.881  0.00  0.00     0.090 A 
ENDBRANCH  16  17
ENDBRANCH  15  16
ENDBRANCH  14  15
ENDBRANCH  13  14
ENDBRANCH  12  13
ENDBRANCH   1  12
TORSDOF 15
ENDMDL
