MODEL 1
REMARK VINA RESULT:      -6.7      0.000      0.000
REMARK  10 active torsions:
REMARK  status: ('A' for Active; 'I' for Inactive)
REMARK    1  A    between atoms: C2_2  and  C3_3 
REMARK    2  A    between atoms: C3_3  and  C4_4 
REMARK    3  A    between atoms: C4_4  and  C5_5 
REMARK    4  A    between atoms: C5_5  and  C7_6 
REMARK    5  A    between atoms: C5_5  and  C9_8 
REMARK    6  A    between atoms: C9_8  and  O10_9 
REMARK    7  A    between atoms: O10_9  and  C11_10 
REMARK    8  A    between atoms: C11_10  and  C13_12 
REMARK    9  A    between atoms: C14_13  and  C15_14 
REMARK   10  A    between atoms: C18_17  and  O19_18 
ROOT
ATOM      1  C11 ZIN A   1      18.722   2.721  10.806  0.00  0.00     0.282 C 
ATOM      2  O12 ZIN A   1      19.416   3.652  11.168  0.00  0.00    -0.260 OA
ENDROOT
BRANCH   1   3
ATOM      3  O10 ZIN A   1      17.593   2.419  11.479  0.00  0.00    -0.318 OA
BRANCH   3   4
ATOM      4  C9  ZIN A   1      17.732   2.075  12.859  0.00  0.00     0.183 C 
BRANCH   4   5
ATOM      5  C5  ZIN A   1      17.856   0.557  12.997  0.00  0.00     0.010 C 
BRANCH   5   6
ATOM      6  C4  ZIN A   1      17.585   0.152  14.447  0.00  0.00     0.007 C 
BRANCH   6   7
ATOM      7  C3  ZIN A   1      18.676  -0.810  14.921  0.00  0.00     0.000 C 
BRANCH   7   8
ATOM      8  C2  ZIN A   1      18.199  -1.545  16.176  0.00  0.00    -0.005 C 
ATOM      9  C1  ZIN A   1      17.112  -0.718  16.868  0.00  0.00     0.005 C 
ENDBRANCH   7   8
ENDBRANCH   6   7
ENDBRANCH   5   6
BRANCH   5  10
ATOM     10  C7  ZIN A   1      16.838  -0.123  12.079  0.00  0.00     0.002 C 
ATOM     11  C8  ZIN A   1      17.476  -1.354  11.432  0.00  0.00     0.005 C 
ENDBRANCH   5  10
ENDBRANCH   4   5
ENDBRANCH   3   4
ENDBRANCH   1   3
BRANCH   1  12
ATOM     12  C13 ZIN A   1      19.101   1.953   9.677  0.00  0.00     0.083 C 
ATOM     13  C14 ZIN A   1      18.161   1.310   8.950  0.00  0.00     0.017 C 
BRANCH  13  14
ATOM     14  C15 ZIN A   1      18.554   0.514   7.779  0.00  0.00    -0.036 A 
ATOM     15  C22 ZIN A   1      18.744   1.134   6.539  0.00  0.00     0.014 A 
ATOM     16  C21 ZIN A   1      19.117   0.385   5.447  0.00  0.00     0.037 A 
ATOM     17  C18 ZIN A   1      19.295  -0.988   5.571  0.00  0.00     0.068 A 
ATOM     18  C17 ZIN A   1      19.101  -1.611   6.799  0.00  0.00     0.037 A 
ATOM     19  C16 ZIN A   1      18.734  -0.870   7.899  0.00  0.00     0.014 A 
BRANCH  17  20
ATOM     20  O19 ZIN A   1      19.657  -1.724   4.489  0.00  0.00    -0.356 OA
ATOM     21  C20 ZIN A   1      18.976  -2.964   4.291  0.00  0.00     0.210 C 
ENDBRANCH  17  20
ENDBRANCH  13  14
ENDBRANCH   1  12
TORSDOF 10
ENDMDL
MODEL 2
REMARK VINA RESULT:      -6.7      1.402      2.830
REMARK  10 active torsions:
REMARK  status: ('A' for Active; 'I' for Inactive)
REMARK    1  A    between atoms: C2_2  and  C3_3 
REMARK    2  A    between atoms: C3_3  and  C4_4 
REMARK    3  A    between atoms: C4_4  and  C5_5 
REMARK    4  A    between atoms: C5_5  and  C7_6 
REMARK    5  A    between atoms: C5_5  and  C9_8 
REMARK    6  A    between atoms: C9_8  and  O10_9 
REMARK    7  A    between atoms: O10_9  and  C11_10 
REMARK    8  A    between atoms: C11_10  and  C13_12 
REMARK    9  A    between atoms: C14_13  and  C15_14 
REMARK   10  A    between atoms: C18_17  and  O19_18 
ROOT
ATOM      1  C11 ZIN A   1      17.442   1.667  11.056  0.00  0.00     0.282 C 
ATOM      2  O12 ZIN A   1      17.253   2.861  10.923  0.00  0.00    -0.260 OA
ENDROOT
BRANCH   1   3
ATOM      3  O10 ZIN A   1      17.379   1.105  12.281  0.00  0.00    -0.318 OA
BRANCH   3   4
ATOM      4  C9  ZIN A   1      18.553   0.441  12.751  0.00  0.00     0.183 C 
BRANCH   4   5
ATOM      5  C5  ZIN A   1      18.164  -0.897  13.382  0.00  0.00     0.010 C 
BRANCH   5   6
ATOM      6  C4  ZIN A   1      17.890  -1.921  12.279  0.00  0.00     0.007 C 
BRANCH   6   7
ATOM      7  C3  ZIN A   1      19.213  -2.365  11.654  0.00  0.00     0.000 C 
BRANCH   7   8
ATOM      8  C2  ZIN A   1      19.225  -3.888  11.510  0.00  0.00    -0.005 C 
ATOM      9  C1  ZIN A   1      19.410  -4.260  10.037  0.00  0.00     0.005 C 
ENDBRANCH   7   8
ENDBRANCH   6   7
ENDBRANCH   5   6
BRANCH   5  10
ATOM     10  C7  ZIN A   1      19.309  -1.396  14.267  0.00  0.00     0.002 C 
ATOM     11  C8  ZIN A   1      18.924  -1.234  15.739  0.00  0.00     0.005 C 
ENDBRANCH   5  10
ENDBRANCH   4   5
ENDBRANCH   3   4
ENDBRANCH   1   3
BRANCH   1  12
ATOM     12  C13 ZIN A   1      17.728   0.865   9.923  0.00  0.00     0.083 C 
ATOM     13  C14 ZIN A   1      18.474   1.364   8.912  0.00  0.00     0.017 C 
BRANCH  13  14
ATOM     14  C15 ZIN A   1      18.771   0.533   7.738  0.00  0.00    -0.036 A 
ATOM     15  C22 ZIN A   1      18.931   1.125   6.480  0.00  0.00     0.014 A 
ATOM     16  C21 ZIN A   1      19.214   0.343   5.384  0.00  0.00     0.037 A 
ATOM     17  C18 ZIN A   1      19.331  -1.035   5.522  0.00  0.00     0.068 A 
ATOM     18  C17 ZIN A   1      19.167  -1.630   6.768  0.00  0.00     0.037 A 
ATOM     19  C16 ZIN A   1      18.890  -0.856   7.872  0.00  0.00     0.014 A 
BRANCH  17  20
ATOM     20  O19 ZIN A   1      19.604  -1.803   4.437  0.00  0.00    -0.356 OA
ATOM     21  C20 ZIN A   1      18.839  -2.999   4.279  0.00  0.00     0.210 C 
ENDBRANCH  17  20
ENDBRANCH  13  14
ENDBRANCH   1  12
TORSDOF 10
ENDMDL
MODEL 3
REMARK VINA RESULT:      -6.6      1.517      2.994
REMARK  10 active torsions:
REMARK  status: ('A' for Active; 'I' for Inactive)
REMARK    1  A    between atoms: C2_2  and  C3_3 
REMARK    2  A    between atoms: C3_3  and  C4_4 
REMARK    3  A    between atoms: C4_4  and  C5_5 
REMARK    4  A    between atoms: C5_5  and  C7_6 
REMARK    5  A    between atoms: C5_5  and  C9_8 
REMARK    6  A    between atoms: C9_8  and  O10_9 
REMARK    7  A    between atoms: O10_9  and  C11_10 
REMARK    8  A    between atoms: C11_10  and  C13_12 
REMARK    9  A    between atoms: C14_13  and  C15_14 
REMARK   10  A    between atoms: C18_17  and  O19_18 
ROOT
ATOM      1  C11 ZIN A   1      19.173   2.960  12.712  0.00  0.00     0.282 C 
ATOM      2  O12 ZIN A   1      19.506   4.124  12.822  0.00  0.00    -0.260 OA
ENDROOT
BRANCH   1   3
ATOM      3  O10 ZIN A   1      18.754   2.271  13.794  0.00  0.00    -0.318 OA
BRANCH   3   4
ATOM      4  C9  ZIN A   1      19.339   0.986  14.010  0.00  0.00     0.183 C 
BRANCH   4   5
ATOM      5  C5  ZIN A   1      18.245  -0.016  14.386  0.00  0.00     0.010 C 
BRANCH   5   6
ATOM      6  C4  ZIN A   1      17.804  -0.782  13.137  0.00  0.00     0.007 C 
BRANCH   6   7
ATOM      7  C3  ZIN A   1      18.779  -1.930  12.872  0.00  0.00     0.000 C 
BRANCH   7   8
ATOM      8  C2  ZIN A   1      19.062  -2.024  11.371  0.00  0.00    -0.005 C 
ATOM      9  C1  ZIN A   1      20.272  -1.153  11.025  0.00  0.00     0.005 C 
ENDBRANCH   7   8
ENDBRANCH   6   7
ENDBRANCH   5   6
BRANCH   5  10
ATOM     10  C7  ZIN A   1      18.790  -1.001  15.423  0.00  0.00     0.002 C 
ATOM     11  C8  ZIN A   1      17.743  -1.221  16.517  0.00  0.00     0.005 C 
ENDBRANCH   5  10
ENDBRANCH   4   5
ENDBRANCH   3   4
ENDBRANCH   1   3
BRANCH   1  12
ATOM     12  C13 ZIN A   1      19.224   2.326  11.445  0.00  0.00     0.083 C 
ATOM     13  C14 ZIN A   1      18.083   2.092  10.759  0.00  0.00     0.017 C 
BRANCH  13  14
ATOM     14  C15 ZIN A   1      18.136   1.435   9.446  0.00  0.00    -0.036 A 
ATOM     15  C22 ZIN A   1      18.999   1.915   8.455  0.00  0.00     0.014 A 
ATOM     16  C21 ZIN A   1      19.050   1.293   7.228  0.00  0.00     0.037 A 
ATOM     17  C18 ZIN A   1      18.236   0.196   6.969  0.00  0.00     0.068 A 
ATOM     18  C17 ZIN A   1      17.372  -0.282   7.948  0.00  0.00     0.037 A 
ATOM     19  C16 ZIN A   1      17.319   0.329   9.180  0.00  0.00     0.014 A 
BRANCH  17  20
ATOM     20  O19 ZIN A   1      18.285  -0.411   5.755  0.00  0.00    -0.356 OA
ATOM     21  C20 ZIN A   1      19.401  -0.100   4.919  0.00  0.00     0.210 C 
ENDBRANCH  17  20
ENDBRANCH  13  14
ENDBRANCH   1  12
TORSDOF 10
ENDMDL
MODEL 4
REMARK VINA RESULT:      -6.6      2.607      8.654
REMARK  10 active torsions:
REMARK  status: ('A' for Active; 'I' for Inactive)
REMARK    1  A    between atoms: C2_2  and  C3_3 
REMARK    2  A    between atoms: C3_3  and  C4_4 
REMARK    3  A    between atoms: C4_4  and  C5_5 
REMARK    4  A    between atoms: C5_5  and  C7_6 
REMARK    5  A    between atoms: C5_5  and  C9_8 
REMARK    6  A    between atoms: C9_8  and  O10_9 
REMARK    7  A    between atoms: O10_9  and  C11_10 
REMARK    8  A    between atoms: C11_10  and  C13_12 
REMARK    9  A    between atoms: C14_13  and  C15_14 
REMARK   10  A    between atoms: C18_17  and  O19_18 
ROOT
ATOM      1  C11 ZIN A   1      17.821  -1.322  11.585  0.00  0.00     0.282 C 
ATOM      2  O12 ZIN A   1      17.126  -2.318  11.628  0.00  0.00    -0.260 OA
ENDROOT
BRANCH   1   3
ATOM      3  O10 ZIN A   1      18.316  -0.894  10.405  0.00  0.00    -0.318 OA
BRANCH   3   4
ATOM      4  C9  ZIN A   1      17.902   0.398   9.958  0.00  0.00     0.183 C 
BRANCH   4   5
ATOM      5  C5  ZIN A   1      19.133   1.270   9.707  0.00  0.00     0.010 C 
BRANCH   5   6
ATOM      6  C4  ZIN A   1      19.103   1.793   8.269  0.00  0.00     0.007 C 
BRANCH   6   7
ATOM      7  C3  ZIN A   1      18.536   0.714   7.346  0.00  0.00     0.000 C 
BRANCH   7   8
ATOM      8  C2  ZIN A   1      19.122   0.882   5.943  0.00  0.00    -0.005 C 
ATOM      9  C1  ZIN A   1      18.447  -0.103   4.985  0.00  0.00     0.005 C 
ENDBRANCH   7   8
ENDBRANCH   6   7
ENDBRANCH   5   6
BRANCH   5  10
ATOM     10  C7  ZIN A   1      19.130   2.451  10.679  0.00  0.00     0.002 C 
ATOM     11  C8  ZIN A   1      17.966   3.386  10.342  0.00  0.00     0.005 C 
ENDBRANCH   5  10
ENDBRANCH   4   5
ENDBRANCH   3   4
ENDBRANCH   1   3
BRANCH   1  12
ATOM     12  C13 ZIN A   1      18.113  -0.610  12.776  0.00  0.00     0.083 C 
ATOM     13  C14 ZIN A   1      18.366  -1.281  13.921  0.00  0.00     0.017 C 
BRANCH  13  14
ATOM     14  C15 ZIN A   1      18.668  -0.542  15.154  0.00  0.00    -0.036 A 
ATOM     15  C22 ZIN A   1      18.842   0.846  15.117  0.00  0.00     0.014 A 
ATOM     16  C21 ZIN A   1      19.120   1.534  16.276  0.00  0.00     0.037 A 
ATOM     17  C18 ZIN A   1      19.239   0.851  17.481  0.00  0.00     0.068 A 
ATOM     18  C17 ZIN A   1      19.073  -0.529  17.523  0.00  0.00     0.037 A 
ATOM     19  C16 ZIN A   1      18.789  -1.225  16.370  0.00  0.00     0.014 A 
BRANCH  17  20
ATOM     20  O19 ZIN A   1      19.519   1.533  18.621  0.00  0.00    -0.356 OA
ATOM     21  C20 ZIN A   1      19.081   2.892  18.688  0.00  0.00     0.210 C 
ENDBRANCH  17  20
ENDBRANCH  13  14
ENDBRANCH   1  12
TORSDOF 10
ENDMDL
MODEL 5
REMARK VINA RESULT:      -6.4      1.539      2.323
REMARK  10 active torsions:
REMARK  status: ('A' for Active; 'I' for Inactive)
REMARK    1  A    between atoms: C2_2  and  C3_3 
REMARK    2  A    between atoms: C3_3  and  C4_4 
REMARK    3  A    between atoms: C4_4  and  C5_5 
REMARK    4  A    between atoms: C5_5  and  C7_6 
REMARK    5  A    between atoms: C5_5  and  C9_8 
REMARK    6  A    between atoms: C9_8  and  O10_9 
REMARK    7  A    between atoms: O10_9  and  C11_10 
REMARK    8  A    between atoms: C11_10  and  C13_12 
REMARK    9  A    between atoms: C14_13  and  C15_14 
REMARK   10  A    between atoms: C18_17  and  O19_18 
ROOT
ATOM      1  C11 ZIN A   1      19.196   2.645  12.737  0.00  0.00     0.282 C 
ATOM      2  O12 ZIN A   1      19.204   3.847  12.922  0.00  0.00    -0.260 OA
ENDROOT
BRANCH   1   3
ATOM      3  O10 ZIN A   1      19.124   1.801  13.787  0.00  0.00    -0.318 OA
BRANCH   3   4
ATOM      4  C9  ZIN A   1      19.784   0.541  13.652  0.00  0.00     0.183 C 
BRANCH   4   5
ATOM      5  C5  ZIN A   1      19.164  -0.467  14.622  0.00  0.00     0.010 C 
BRANCH   5   6
ATOM      6  C4  ZIN A   1      18.016   0.199  15.384  0.00  0.00     0.007 C 
BRANCH   6   7
ATOM      7  C3  ZIN A   1      17.792  -0.532  16.708  0.00  0.00     0.000 C 
BRANCH   7   8
ATOM      8  C2  ZIN A   1      19.071  -0.474  17.546  0.00  0.00    -0.005 C 
ATOM      9  C1  ZIN A   1      19.228   0.928  18.141  0.00  0.00     0.005 C 
ENDBRANCH   7   8
ENDBRANCH   6   7
ENDBRANCH   5   6
BRANCH   5  10
ATOM     10  C7  ZIN A   1      18.628  -1.666  13.838  0.00  0.00     0.002 C 
ATOM     11  C8  ZIN A   1      17.920  -1.175  12.574  0.00  0.00     0.005 C 
ENDBRANCH   5  10
ENDBRANCH   4   5
ENDBRANCH   3   4
ENDBRANCH   1   3
BRANCH   1  12
ATOM     12  C13 ZIN A   1      19.263   2.132  11.418  0.00  0.00     0.083 C 
ATOM     13  C14 ZIN A   1      18.128   1.922  10.715  0.00  0.00     0.017 C 
BRANCH  13  14
ATOM     14  C15 ZIN A   1      18.198   1.389   9.347  0.00  0.00    -0.036 A 
ATOM     15  C22 ZIN A   1      17.387   0.313   8.971  0.00  0.00     0.014 A 
ATOM     16  C21 ZIN A   1      17.451  -0.179   7.687  0.00  0.00     0.037 A 
ATOM     17  C18 ZIN A   1      18.329   0.383   6.768  0.00  0.00     0.068 A 
ATOM     18  C17 ZIN A   1      19.143   1.449   7.139  0.00  0.00     0.037 A 
ATOM     19  C16 ZIN A   1      19.081   1.952   8.418  0.00  0.00     0.014 A 
BRANCH  17  20
ATOM     20  O19 ZIN A   1      18.394  -0.109   5.505  0.00  0.00    -0.356 OA
ATOM     21  C20 ZIN A   1      19.143  -1.311   5.315  0.00  0.00     0.210 C 
ENDBRANCH  17  20
ENDBRANCH  13  14
ENDBRANCH   1  12
TORSDOF 10
ENDMDL
MODEL 6
REMARK VINA RESULT:      -6.3      2.308      7.358
REMARK  10 active torsions:
REMARK  status: ('A' for Active; 'I' for Inactive)
REMARK    1  A    between atoms: C2_2  and  C3_3 
REMARK    2  A    between atoms: C3_3  and  C4_4 
REMARK    3  A    between atoms: C4_4  and  C5_5 
REMARK    4  A    between atoms: C5_5  and  C7_6 
REMARK    5  A    between atoms: C5_5  and  C9_8 
REMARK    6  A    between atoms: C9_8  and  O10_9 
REMARK    7  A    between atoms: O10_9  and  C11_10 
REMARK    8  A    between atoms: C11_10  and  C13_12 
REMARK    9  A    between atoms: C14_13  and  C15_14 
REMARK   10  A    between atoms: C18_17  and  O19_18 
ROOT
ATOM      1  C11 ZIN A   1      17.924  -2.321   9.098  0.00  0.00     0.282 C 
ATOM      2  O12 ZIN A   1      17.689  -3.513   9.049  0.00  0.00    -0.260 OA
ENDROOT
BRANCH   1   3
ATOM      3  O10 ZIN A   1      17.798  -1.561   7.990  0.00  0.00    -0.318 OA
BRANCH   3   4
ATOM      4  C9  ZIN A   1      18.976  -0.908   7.514  0.00  0.00     0.183 C 
BRANCH   4   5
ATOM      5  C5  ZIN A   1      18.714   0.594   7.393  0.00  0.00     0.010 C 
BRANCH   5   6
ATOM      6  C4  ZIN A   1      19.636   1.352   8.349  0.00  0.00     0.007 C 
BRANCH   6   7
ATOM      7  C3  ZIN A   1      18.861   2.494   9.008  0.00  0.00     0.000 C 
BRANCH   7   8
ATOM      8  C2  ZIN A   1      18.428   2.072  10.414  0.00  0.00    -0.005 C 
ATOM      9  C1  ZIN A   1      19.504   2.478  11.423  0.00  0.00     0.005 C 
ENDBRANCH   7   8
ENDBRANCH   6   7
ENDBRANCH   5   6
BRANCH   5  10
ATOM     10  C7  ZIN A   1      18.986   1.046   5.956  0.00  0.00     0.002 C 
ATOM     11  C8  ZIN A   1      19.306  -0.174   5.090  0.00  0.00     0.005 C 
ENDBRANCH   5  10
ENDBRANCH   4   5
ENDBRANCH   3   4
ENDBRANCH   1   3
BRANCH   1  12
ATOM     12  C13 ZIN A   1      18.331  -1.729  10.320  0.00  0.00     0.083 C 
ATOM     13  C14 ZIN A   1      17.524  -1.787  11.402  0.00  0.00     0.017 C 
BRANCH  13  14
ATOM     14  C15 ZIN A   1      17.946  -1.174  12.669  0.00  0.00    -0.036 A 
ATOM     15  C22 ZIN A   1      17.323  -0.007  13.126  0.00  0.00     0.014 A 
ATOM     16  C21 ZIN A   1      17.718   0.560  14.316  0.00  0.00     0.037 A 
ATOM     17  C18 ZIN A   1      18.742  -0.016  15.057  0.00  0.00     0.068 A 
ATOM     18  C17 ZIN A   1      19.369  -1.172  14.604  0.00  0.00     0.037 A 
ATOM     19  C16 ZIN A   1      18.977  -1.751  13.419  0.00  0.00     0.014 A 
BRANCH  17  20
ATOM     20  O19 ZIN A   1      19.133   0.551  16.227  0.00  0.00    -0.356 OA
ATOM     21  C20 ZIN A   1      19.094   1.977  16.301  0.00  0.00     0.210 C 
ENDBRANCH  17  20
ENDBRANCH  13  14
ENDBRANCH   1  12
TORSDOF 10
ENDMDL
MODEL 7
REMARK VINA RESULT:      -6.3      2.823      8.204
REMARK  10 active torsions:
REMARK  status: ('A' for Active; 'I' for Inactive)
REMARK    1  A    between atoms: C2_2  and  C3_3 
REMARK    2  A    between atoms: C3_3  and  C4_4 
REMARK    3  A    between atoms: C4_4  and  C5_5 
REMARK    4  A    between atoms: C5_5  and  C7_6 
REMARK    5  A    between atoms: C5_5  and  C9_8 
REMARK    6  A    between atoms: C9_8  and  O10_9 
REMARK    7  A    between atoms: O10_9  and  C11_10 
REMARK    8  A    between atoms: C11_10  and  C13_12 
REMARK    9  A    between atoms: C14_13  and  C15_14 
REMARK   10  A    between atoms: C18_17  and  O19_18 
ROOT
ATOM      1  C11 ZIN A   1      19.112  -1.809  11.734  0.00  0.00     0.282 C 
ATOM      2  O12 ZIN A   1      19.130  -3.025  11.767  0.00  0.00    -0.260 OA
ENDROOT
BRANCH   1   3
ATOM      3  O10 ZIN A   1      18.872  -1.168  10.571  0.00  0.00    -0.318 OA
BRANCH   3   4
ATOM      4  C9  ZIN A   1      17.504  -0.963  10.213  0.00  0.00     0.183 C 
BRANCH   4   5
ATOM      5  C5  ZIN A   1      17.397   0.240   9.275  0.00  0.00     0.010 C 
BRANCH   5   6
ATOM      6  C4  ZIN A   1      18.400   1.313   9.705  0.00  0.00     0.007 C 
BRANCH   6   7
ATOM      7  C3  ZIN A   1      17.721   2.288  10.669  0.00  0.00     0.000 C 
BRANCH   7   8
ATOM      8  C2  ZIN A   1      18.591   3.537  10.827  0.00  0.00    -0.005 C 
ATOM      9  C1  ZIN A   1      19.592   3.321  11.963  0.00  0.00     0.005 C 
ENDBRANCH   7   8
ENDBRANCH   6   7
ENDBRANCH   5   6
BRANCH   5  10
ATOM     10  C7  ZIN A   1      17.706  -0.201   7.842  0.00  0.00     0.002 C 
ATOM     11  C8  ZIN A   1      18.687   0.784   7.205  0.00  0.00     0.005 C 
ENDBRANCH   5  10
ENDBRANCH   4   5
ENDBRANCH   3   4
ENDBRANCH   1   3
BRANCH   1  12
ATOM     12  C13 ZIN A   1      19.343  -1.065  12.918  0.00  0.00     0.083 C 
ATOM     13  C14 ZIN A   1      18.636  -1.338  14.037  0.00  0.00     0.017 C 
BRANCH  13  14
ATOM     14  C15 ZIN A   1      18.876  -0.566  15.265  0.00  0.00    -0.036 A 
ATOM     15  C22 ZIN A   1      19.007   0.826  15.205  0.00  0.00     0.014 A 
ATOM     16  C21 ZIN A   1      19.226   1.545  16.357  0.00  0.00     0.037 A 
ATOM     17  C18 ZIN A   1      19.329   0.889  17.579  0.00  0.00     0.068 A 
ATOM     18  C17 ZIN A   1      19.205  -0.494  17.644  0.00  0.00     0.037 A 
ATOM     19  C16 ZIN A   1      18.980  -1.221  16.497  0.00  0.00     0.014 A 
BRANCH  17  20
ATOM     20  O19 ZIN A   1      19.551   1.602  18.713  0.00  0.00    -0.356 OA
ATOM     21  C20 ZIN A   1      18.996   2.917  18.772  0.00  0.00     0.210 C 
ENDBRANCH  17  20
ENDBRANCH  13  14
ENDBRANCH   1  12
TORSDOF 10
ENDMDL
MODEL 8
REMARK VINA RESULT:      -6.2      2.698      6.104
REMARK  10 active torsions:
REMARK  status: ('A' for Active; 'I' for Inactive)
REMARK    1  A    between atoms: C2_2  and  C3_3 
REMARK    2  A    between atoms: C3_3  and  C4_4 
REMARK    3  A    between atoms: C4_4  and  C5_5 
REMARK    4  A    between atoms: C5_5  and  C7_6 
REMARK    5  A    between atoms: C5_5  and  C9_8 
REMARK    6  A    between atoms: C9_8  and  O10_9 
REMARK    7  A    between atoms: O10_9  and  C11_10 
REMARK    8  A    between atoms: C11_10  and  C13_12 
REMARK    9  A    between atoms: C14_13  and  C15_14 
REMARK   10  A    between atoms: C18_17  and  O19_18 
ROOT
ATOM      1  C11 ZIN A   1      19.356  -2.328   6.808  0.00  0.00     0.282 C 
ATOM      2  O12 ZIN A   1      19.711  -2.101   5.668  0.00  0.00    -0.260 OA
ENDROOT
BRANCH   1   3
ATOM      3  O10 ZIN A   1      19.543  -3.554   7.342  0.00  0.00    -0.318 OA
BRANCH   3   4
ATOM      4  C9  ZIN A   1      18.630  -3.962   8.363  0.00  0.00     0.183 C 
BRANCH   4   5
ATOM      5  C5  ZIN A   1      19.215  -5.154   9.123  0.00  0.00     0.010 C 
BRANCH   5   6
ATOM      6  C4  ZIN A   1      19.752  -4.682  10.475  0.00  0.00     0.007 C 
BRANCH   6   7
ATOM      7  C3  ZIN A   1      19.232  -3.274  10.768  0.00  0.00     0.000 C 
BRANCH   7   8
ATOM      8  C2  ZIN A   1      18.343  -3.307  12.013  0.00  0.00    -0.005 C 
ATOM      9  C1  ZIN A   1      18.559  -2.030  12.828  0.00  0.00     0.005 C 
ENDBRANCH   7   8
ENDBRANCH   6   7
ENDBRANCH   5   6
BRANCH   5  10
ATOM     10  C7  ZIN A   1      18.123  -6.202   9.346  0.00  0.00     0.002 C 
ATOM     11  C8  ZIN A   1      17.860  -6.951   8.038  0.00  0.00     0.005 C 
ENDBRANCH   5  10
ENDBRANCH   4   5
ENDBRANCH   3   4
ENDBRANCH   1   3
BRANCH   1  12
ATOM     12  C13 ZIN A   1      18.747  -1.306   7.578  0.00  0.00     0.083 C 
ATOM     13  C14 ZIN A   1      19.508  -0.471   8.319  0.00  0.00     0.017 C 
BRANCH  13  14
ATOM     14  C15 ZIN A   1      18.876   0.589   9.116  0.00  0.00    -0.036 A 
ATOM     15  C22 ZIN A   1      19.173   1.932   8.861  0.00  0.00     0.014 A 
ATOM     16  C21 ZIN A   1      18.574   2.921   9.607  0.00  0.00     0.037 A 
ATOM     17  C18 ZIN A   1      17.684   2.588  10.621  0.00  0.00     0.068 A 
ATOM     18  C17 ZIN A   1      17.390   1.254  10.883  0.00  0.00     0.037 A 
ATOM     19  C16 ZIN A   1      17.979   0.258  10.139  0.00  0.00     0.014 A 
BRANCH  17  20
ATOM     20  O19 ZIN A   1      17.101   3.567  11.359  0.00  0.00    -0.356 OA
ATOM     21  C20 ZIN A   1      16.950   4.844  10.737  0.00  0.00     0.210 C 
ENDBRANCH  17  20
ENDBRANCH  13  14
ENDBRANCH   1  12
TORSDOF 10
ENDMDL
MODEL 9
REMARK VINA RESULT:      -6.2      2.832      5.537
REMARK  10 active torsions:
REMARK  status: ('A' for Active; 'I' for Inactive)
REMARK    1  A    between atoms: C2_2  and  C3_3 
REMARK    2  A    between atoms: C3_3  and  C4_4 
REMARK    3  A    between atoms: C4_4  and  C5_5 
REMARK    4  A    between atoms: C5_5  and  C7_6 
REMARK    5  A    between atoms: C5_5  and  C9_8 
REMARK    6  A    between atoms: C9_8  and  O10_9 
REMARK    7  A    between atoms: O10_9  and  C11_10 
REMARK    8  A    between atoms: C11_10  and  C13_12 
REMARK    9  A    between atoms: C14_13  and  C15_14 
REMARK   10  A    between atoms: C18_17  and  O19_18 
ROOT
ATOM      1  C11 ZIN A   1      18.973   0.973  13.632  0.00  0.00     0.282 C 
ATOM      2  O12 ZIN A   1      19.273   0.850  14.803  0.00  0.00    -0.260 OA
ENDROOT
BRANCH   1   3
ATOM      3  O10 ZIN A   1      18.986   2.193  13.055  0.00  0.00    -0.318 OA
BRANCH   3   4
ATOM      4  C9  ZIN A   1      19.726   2.328  11.840  0.00  0.00     0.183 C 
BRANCH   4   5
ATOM      5  C5  ZIN A   1      18.997   3.292  10.903  0.00  0.00     0.010 C 
BRANCH   5   6
ATOM      6  C4  ZIN A   1      18.458   2.520   9.696  0.00  0.00     0.007 C 
BRANCH   6   7
ATOM      7  C3  ZIN A   1      19.308   1.269   9.470  0.00  0.00     0.000 C 
BRANCH   7   8
ATOM      8  C2  ZIN A   1      18.399   0.092   9.112  0.00  0.00    -0.005 C 
ATOM      9  C1  ZIN A   1      19.256  -1.105   8.692  0.00  0.00     0.005 C 
ENDBRANCH   7   8
ENDBRANCH   6   7
ENDBRANCH   5   6
BRANCH   5  10
ATOM     10  C7  ZIN A   1      17.834   3.948  11.650  0.00  0.00     0.002 C 
ATOM     11  C8  ZIN A   1      17.004   4.780  10.671  0.00  0.00     0.005 C 
ENDBRANCH   5  10
ENDBRANCH   4   5
ENDBRANCH   3   4
ENDBRANCH   1   3
BRANCH   1  12
ATOM     12  C13 ZIN A   1      18.607  -0.166  12.871  0.00  0.00     0.083 C 
ATOM     13  C14 ZIN A   1      19.376  -1.276  12.903  0.00  0.00     0.017 C 
BRANCH  13  14
ATOM     14  C15 ZIN A   1      18.997  -2.457  12.114  0.00  0.00    -0.036 A 
ATOM     15  C22 ZIN A   1      19.965  -3.400  11.753  0.00  0.00     0.014 A 
ATOM     16  C21 ZIN A   1      19.605  -4.507  11.019  0.00  0.00     0.037 A 
ATOM     17  C18 ZIN A   1      18.283  -4.683  10.626  0.00  0.00     0.068 A 
ATOM     18  C17 ZIN A   1      17.318  -3.745  10.977  0.00  0.00     0.037 A 
ATOM     19  C16 ZIN A   1      17.667  -2.638  11.716  0.00  0.00     0.014 A 
BRANCH  17  20
ATOM     20  O19 ZIN A   1      17.933  -5.773   9.897  0.00  0.00    -0.356 OA
ATOM     21  C20 ZIN A   1      16.565  -5.873   9.495  0.00  0.00     0.210 C 
ENDBRANCH  17  20
ENDBRANCH  13  14
ENDBRANCH   1  12
TORSDOF 10
ENDMDL
