MODEL 1
REMARK VINA RESULT:      -7.3      0.000      0.000
REMARK  7 active torsions:
REMARK  status: ('A' for Active; 'I' for Inactive)
REMARK    1  A    between atoms: C2_2  and  N4_4 
REMARK    2  A    between atoms: C13_11  and  O15_12 
REMARK    3  A    between atoms: O15_12  and  C16_13 
REMARK    4  A    between atoms: C16_13  and  C18_15 
REMARK    5  A    between atoms: C18_15  and  C20_16 
REMARK    6  A    between atoms: C18_15  and  C22_18 
REMARK    7  A    between atoms: C20_16  and  O21_17 
ROOT
ATOM      1  O15 ZIN A   1      18.517   0.362  11.214  0.00  0.00    -0.315 OA
ENDROOT
BRANCH   1   2
ATOM      2  C13 ZIN A   1      18.083   1.082  10.030  0.00  0.00     0.136 C 
ATOM      3  C12 ZIN A   1      17.050   0.241   9.273  0.00  0.00     0.066 C 
ATOM      4  C10 ZIN A   1      17.738  -1.023   8.733  0.00  0.00     0.193 C 
ATOM      5  N4  ZIN A   1      18.760  -0.595   7.740  0.00  0.00    -0.059 N 
ATOM      6  C9  ZIN A   1      18.562  -1.642   9.884  0.00  0.00     0.036 C 
ATOM      7  C5  ZIN A   1      19.265  -1.751   6.988  0.00  0.00     0.274 C 
ATOM      8  C6  ZIN A   1      19.833  -0.005   8.582  0.00  0.00     0.193 C 
ATOM      9  C28 ZIN A   1      19.318   1.349   9.094  0.00  0.00     0.066 C 
ATOM     10  C8  ZIN A   1      19.946  -0.969   9.785  0.00  0.00     0.036 C 
BRANCH   5  11
ATOM     11  C2  ZIN A   1      18.204   0.413   6.827  0.00  0.00     0.183 C 
ATOM     12  C1  ZIN A   1      19.264   0.804   5.795  0.00  0.00     0.040 C 
ATOM     13  C3  ZIN A   1      16.983  -0.166   6.110  0.00  0.00     0.040 C 
ENDBRANCH   5  11
ENDBRANCH   1   2
BRANCH   1  14
ATOM     14  C16 ZIN A   1      18.155   0.869  12.403  0.00  0.00     0.270 C 
ATOM     15  O17 ZIN A   1      17.007   1.190  12.598  0.00  0.00    -0.264 OA
BRANCH  14  16
ATOM     16  C18 ZIN A   1      19.181   1.039  13.493  0.00  0.00     0.142 C 
BRANCH  16  17
ATOM     17  C20 ZIN A   1      20.494   0.383  13.064  0.00  0.00     0.183 C 
BRANCH  17  18
ATOM     18  O21 ZIN A   1      21.170   1.231  12.134  0.00  0.00    -0.400 OA
ATOM     19  H47 ZIN A   1      20.998   2.174  12.264  0.00  0.00     0.209 HD
ENDBRANCH  17  18
ENDBRANCH  16  17
BRANCH  16  20
ATOM     20  C22 ZIN A   1      18.683   0.387  14.758  0.00  0.00    -0.043 A 
ATOM     21  C27 ZIN A   1      18.269   1.167  15.821  0.00  0.00     0.008 A 
ATOM     22  C26 ZIN A   1      17.808   0.569  16.979  0.00  0.00     0.001 A 
ATOM     23  C25 ZIN A   1      17.769  -0.809  17.076  0.00  0.00     0.000 A 
ATOM     24  C24 ZIN A   1      18.187  -1.589  16.015  0.00  0.00     0.001 A 
ATOM     25  C23 ZIN A   1      18.644  -0.991  14.855  0.00  0.00     0.008 A 
ENDBRANCH  16  20
ENDBRANCH  14  16
ENDBRANCH   1  14
TORSDOF 7
ENDMDL
MODEL 2
REMARK VINA RESULT:      -7.2      1.902      3.664
REMARK  7 active torsions:
REMARK  status: ('A' for Active; 'I' for Inactive)
REMARK    1  A    between atoms: C2_2  and  N4_4 
REMARK    2  A    between atoms: C13_11  and  O15_12 
REMARK    3  A    between atoms: O15_12  and  C16_13 
REMARK    4  A    between atoms: C16_13  and  C18_15 
REMARK    5  A    between atoms: C18_15  and  C20_16 
REMARK    6  A    between atoms: C18_15  and  C22_18 
REMARK    7  A    between atoms: C20_16  and  O21_17 
ROOT
ATOM      1  O15 ZIN A   1      19.208   0.127  10.471  0.00  0.00    -0.315 OA
ENDROOT
BRANCH   1   2
ATOM      2  C13 ZIN A   1      19.973  -0.311   9.317  0.00  0.00     0.136 C 
ATOM      3  C12 ZIN A   1      19.974   0.795   8.257  0.00  0.00     0.066 C 
ATOM      4  C10 ZIN A   1      18.542   0.980   7.730  0.00  0.00     0.193 C 
ATOM      5  N4  ZIN A   1      18.144  -0.279   7.044  0.00  0.00    -0.059 N 
ATOM      6  C9  ZIN A   1      17.596   1.063   8.950  0.00  0.00     0.036 C 
ATOM      7  C5  ZIN A   1      16.902  -0.083   6.285  0.00  0.00     0.274 C 
ATOM      8  C6  ZIN A   1      17.932  -1.231   8.165  0.00  0.00     0.193 C 
ATOM      9  C28 ZIN A   1      19.318  -1.606   8.713  0.00  0.00     0.066 C 
ATOM     10  C8  ZIN A   1      17.193  -0.399   9.237  0.00  0.00     0.036 C 
BRANCH   5  11
ATOM     11  C2  ZIN A   1      19.220  -0.749   6.161  0.00  0.00     0.183 C 
ATOM     12  C1  ZIN A   1      18.886  -2.153   5.653  0.00  0.00     0.040 C 
ATOM     13  C3  ZIN A   1      19.357   0.204   4.972  0.00  0.00     0.040 C 
ENDBRANCH   5  11
ENDBRANCH   1   2
BRANCH   1  14
ATOM     14  C16 ZIN A   1      19.711  -0.162  11.681  0.00  0.00     0.270 C 
ATOM     15  O17 ZIN A   1      20.808   0.237  11.990  0.00  0.00    -0.264 OA
BRANCH  14  16
ATOM     16  C18 ZIN A   1      18.907  -0.985  12.653  0.00  0.00     0.142 C 
BRANCH  16  17
ATOM     17  C20 ZIN A   1      19.632  -1.039  13.999  0.00  0.00     0.183 C 
BRANCH  17  18
ATOM     18  O21 ZIN A   1      19.600   0.253  14.609  0.00  0.00    -0.400 OA
ATOM     19  H47 ZIN A   1      19.233   0.257  15.503  0.00  0.00     0.209 HD
ENDBRANCH  17  18
ENDBRANCH  16  17
BRANCH  16  20
ATOM     20  C22 ZIN A   1      18.745  -2.384  12.114  0.00  0.00    -0.043 A 
ATOM     21  C27 ZIN A   1      17.486  -2.870  11.818  0.00  0.00     0.008 A 
ATOM     22  C26 ZIN A   1      17.338  -4.150  11.319  0.00  0.00     0.001 A 
ATOM     23  C25 ZIN A   1      18.450  -4.948  11.124  0.00  0.00     0.000 A 
ATOM     24  C24 ZIN A   1      19.709  -4.464  11.424  0.00  0.00     0.001 A 
ATOM     25  C23 ZIN A   1      19.857  -3.182  11.919  0.00  0.00     0.008 A 
ENDBRANCH  16  20
ENDBRANCH  14  16
ENDBRANCH   1  14
TORSDOF 7
ENDMDL
MODEL 3
REMARK VINA RESULT:      -7.2      2.149      3.123
REMARK  7 active torsions:
REMARK  status: ('A' for Active; 'I' for Inactive)
REMARK    1  A    between atoms: C2_2  and  N4_4 
REMARK    2  A    between atoms: C13_11  and  O15_12 
REMARK    3  A    between atoms: O15_12  and  C16_13 
REMARK    4  A    between atoms: C16_13  and  C18_15 
REMARK    5  A    between atoms: C18_15  and  C20_16 
REMARK    6  A    between atoms: C18_15  and  C22_18 
REMARK    7  A    between atoms: C20_16  and  O21_17 
ROOT
ATOM      1  O15 ZIN A   1      18.496  -0.504  11.486  0.00  0.00    -0.315 OA
ENDROOT
BRANCH   1   2
ATOM      2  C13 ZIN A   1      17.422  -1.384  11.060  0.00  0.00     0.136 C 
ATOM      3  C12 ZIN A   1      17.435  -2.654  11.915  0.00  0.00     0.066 C 
ATOM      4  C10 ZIN A   1      18.723  -3.438  11.622  0.00  0.00     0.193 C 
ATOM      5  N4  ZIN A   1      18.677  -3.873  10.200  0.00  0.00    -0.059 N 
ATOM      6  C9  ZIN A   1      19.905  -2.444  11.677  0.00  0.00     0.036 C 
ATOM      7  C5  ZIN A   1      19.738  -4.851   9.924  0.00  0.00     0.274 C 
ATOM      8  C6  ZIN A   1      18.912  -2.614   9.446  0.00  0.00     0.193 C 
ATOM      9  C28 ZIN A   1      17.630  -1.774   9.551  0.00  0.00     0.066 C 
ATOM     10  C8  ZIN A   1      20.030  -1.899  10.239  0.00  0.00     0.036 C 
BRANCH   5  11
ATOM     11  C2  ZIN A   1      17.359  -4.435   9.873  0.00  0.00     0.183 C 
ATOM     12  C1  ZIN A   1      17.326  -4.832   8.396  0.00  0.00     0.040 C 
ATOM     13  C3  ZIN A   1      17.101  -5.669  10.740  0.00  0.00     0.040 C 
ENDBRANCH   5  11
ENDBRANCH   1   2
BRANCH   1  14
ATOM     14  C16 ZIN A   1      18.154   0.559  12.232  0.00  0.00     0.270 C 
ATOM     15  O17 ZIN A   1      17.184   1.216  11.937  0.00  0.00    -0.264 OA
BRANCH  14  16
ATOM     16  C18 ZIN A   1      18.980   0.932  13.435  0.00  0.00     0.142 C 
BRANCH  16  17
ATOM     17  C20 ZIN A   1      20.451   0.619  13.161  0.00  0.00     0.183 C 
BRANCH  17  18
ATOM     18  O21 ZIN A   1      20.882   1.331  11.999  0.00  0.00    -0.400 OA
ATOM     19  H47 ZIN A   1      20.239   1.329  11.276  0.00  0.00     0.209 HD
ENDBRANCH  17  18
ENDBRANCH  16  17
BRANCH  16  20
ATOM     20  C22 ZIN A   1      18.512   0.141  14.631  0.00  0.00    -0.043 A 
ATOM     21  C27 ZIN A   1      17.455   0.600  15.392  0.00  0.00     0.008 A 
ATOM     22  C26 ZIN A   1      17.023  -0.128  16.486  0.00  0.00     0.001 A 
ATOM     23  C25 ZIN A   1      17.655  -1.310  16.822  0.00  0.00     0.000 A 
ATOM     24  C24 ZIN A   1      18.716  -1.767  16.063  0.00  0.00     0.001 A 
ATOM     25  C23 ZIN A   1      19.144  -1.041  14.967  0.00  0.00     0.008 A 
ENDBRANCH  16  20
ENDBRANCH  14  16
ENDBRANCH   1  14
TORSDOF 7
ENDMDL
MODEL 4
REMARK VINA RESULT:      -7.0      2.031      7.233
REMARK  7 active torsions:
REMARK  status: ('A' for Active; 'I' for Inactive)
REMARK    1  A    between atoms: C2_2  and  N4_4 
REMARK    2  A    between atoms: C13_11  and  O15_12 
REMARK    3  A    between atoms: O15_12  and  C16_13 
REMARK    4  A    between atoms: C16_13  and  C18_15 
REMARK    5  A    between atoms: C18_15  and  C20_16 
REMARK    6  A    between atoms: C18_15  and  C22_18 
REMARK    7  A    between atoms: C20_16  and  O21_17 
ROOT
ATOM      1  O15 ZIN A   1      18.805   0.050  11.176  0.00  0.00    -0.315 OA
ENDROOT
BRANCH   1   2
ATOM      2  C13 ZIN A   1      18.266  -0.856  12.174  0.00  0.00     0.136 C 
ATOM      3  C12 ZIN A   1      17.163  -0.145  12.964  0.00  0.00     0.066 C 
ATOM      4  C10 ZIN A   1      17.791   1.001  13.773  0.00  0.00     0.193 C 
ATOM      5  N4  ZIN A   1      18.718   0.400  14.769  0.00  0.00    -0.059 N 
ATOM      6  C9  ZIN A   1      18.715   1.798  12.825  0.00  0.00     0.036 C 
ATOM      7  C5  ZIN A   1      19.145   1.405  15.750  0.00  0.00     0.274 C 
ATOM      8  C6  ZIN A   1      19.868  -0.050  13.941  0.00  0.00     0.193 C 
ATOM      9  C28 ZIN A   1      19.410  -1.292  13.161  0.00  0.00     0.066 C 
ATOM     10  C8  ZIN A   1      20.088   1.103  12.936  0.00  0.00     0.036 C 
BRANCH   5  11
ATOM     11  C2  ZIN A   1      18.085  -0.743  15.441  0.00  0.00     0.183 C 
ATOM     12  C1  ZIN A   1      19.140  -1.517  16.233  0.00  0.00     0.040 C 
ATOM     13  C3  ZIN A   1      17.001  -0.237  16.395  0.00  0.00     0.040 C 
ENDBRANCH   5  11
ENDBRANCH   1   2
BRANCH   1  14
ATOM     14  C16 ZIN A   1      19.249  -0.496  10.032  0.00  0.00     0.270 C 
ATOM     15  O17 ZIN A   1      20.433  -0.517   9.793  0.00  0.00    -0.264 OA
BRANCH  14  16
ATOM     16  C18 ZIN A   1      18.271  -1.082   9.049  0.00  0.00     0.142 C 
BRANCH  16  17
ATOM     17  C20 ZIN A   1      18.328  -2.609   9.119  0.00  0.00     0.183 C 
BRANCH  17  18
ATOM     18  O21 ZIN A   1      19.541  -3.012   9.757  0.00  0.00    -0.400 OA
ATOM     19  H47 ZIN A   1      19.549  -2.869  10.713  0.00  0.00     0.209 HD
ENDBRANCH  17  18
ENDBRANCH  16  17
BRANCH  16  20
ATOM     20  C22 ZIN A   1      18.626  -0.630   7.655  0.00  0.00    -0.043 A 
ATOM     21  C27 ZIN A   1      18.586   0.713   7.333  0.00  0.00     0.008 A 
ATOM     22  C26 ZIN A   1      18.918   1.128   6.056  0.00  0.00     0.001 A 
ATOM     23  C25 ZIN A   1      19.281   0.198   5.100  0.00  0.00     0.000 A 
ATOM     24  C24 ZIN A   1      19.317  -1.145   5.421  0.00  0.00     0.001 A 
ATOM     25  C23 ZIN A   1      18.989  -1.559   6.699  0.00  0.00     0.008 A 
ENDBRANCH  16  20
ENDBRANCH  14  16
ENDBRANCH   1  14
TORSDOF 7
ENDMDL
MODEL 5
REMARK VINA RESULT:      -7.0      3.247      6.173
REMARK  7 active torsions:
REMARK  status: ('A' for Active; 'I' for Inactive)
REMARK    1  A    between atoms: C2_2  and  N4_4 
REMARK    2  A    between atoms: C13_11  and  O15_12 
REMARK    3  A    between atoms: O15_12  and  C16_13 
REMARK    4  A    between atoms: C16_13  and  C18_15 
REMARK    5  A    between atoms: C18_15  and  C20_16 
REMARK    6  A    between atoms: C18_15  and  C22_18 
REMARK    7  A    between atoms: C20_16  and  O21_17 
ROOT
ATOM      1  O15 ZIN A   1      18.378  -1.472  10.677  0.00  0.00    -0.315 OA
ENDROOT
BRANCH   1   2
ATOM      2  C13 ZIN A   1      18.914  -0.264  10.075  0.00  0.00     0.136 C 
ATOM      3  C12 ZIN A   1      19.977   0.337  10.999  0.00  0.00     0.066 C 
ATOM      4  C10 ZIN A   1      19.298   0.812  12.293  0.00  0.00     0.193 C 
ATOM      5  N4  ZIN A   1      18.361   1.911  11.938  0.00  0.00    -0.059 N 
ATOM      6  C9  ZIN A   1      18.379  -0.326  12.791  0.00  0.00     0.036 C 
ATOM      7  C5  ZIN A   1      17.882   2.593  13.148  0.00  0.00     0.274 C 
ATOM      8  C6  ZIN A   1      17.245   1.206  11.255  0.00  0.00     0.193 C 
ATOM      9  C28 ZIN A   1      17.756   0.779   9.870  0.00  0.00     0.066 C 
ATOM     10  C8  ZIN A   1      17.022  -0.066  12.105  0.00  0.00     0.036 C 
BRANCH   5  11
ATOM     11  C2  ZIN A   1      19.005   2.867  11.028  0.00  0.00     0.183 C 
ATOM     12  C1  ZIN A   1      17.961   3.855  10.505  0.00  0.00     0.040 C 
ATOM     13  C3  ZIN A   1      20.098   3.630  11.778  0.00  0.00     0.040 C 
ENDBRANCH   5  11
ENDBRANCH   1   2
BRANCH   1  14
ATOM     14  C16 ZIN A   1      18.674  -2.636  10.075  0.00  0.00     0.270 C 
ATOM     15  O17 ZIN A   1      19.051  -2.644   8.928  0.00  0.00    -0.264 OA
BRANCH  14  16
ATOM     16  C18 ZIN A   1      18.535  -3.931  10.832  0.00  0.00     0.142 C 
BRANCH  16  17
ATOM     17  C20 ZIN A   1      19.916  -4.411  11.281  0.00  0.00     0.183 C 
BRANCH  17  18
ATOM     18  O21 ZIN A   1      20.805  -3.295  11.363  0.00  0.00    -0.400 OA
ATOM     19  H47 ZIN A   1      21.728  -3.512  11.173  0.00  0.00     0.209 HD
ENDBRANCH  17  18
ENDBRANCH  16  17
BRANCH  16  20
ATOM     20  C22 ZIN A   1      17.908  -4.970   9.938  0.00  0.00    -0.043 A 
ATOM     21  C27 ZIN A   1      18.702  -5.904   9.301  0.00  0.00     0.008 A 
ATOM     22  C26 ZIN A   1      18.126  -6.861   8.486  0.00  0.00     0.001 A 
ATOM     23  C25 ZIN A   1      16.757  -6.878   8.302  0.00  0.00     0.000 A 
ATOM     24  C24 ZIN A   1      15.963  -5.941   8.936  0.00  0.00     0.001 A 
ATOM     25  C23 ZIN A   1      16.538  -4.987   9.754  0.00  0.00     0.008 A 
ENDBRANCH  16  20
ENDBRANCH  14  16
ENDBRANCH   1  14
TORSDOF 7
ENDMDL
MODEL 6
REMARK VINA RESULT:      -6.9      3.155      5.879
REMARK  7 active torsions:
REMARK  status: ('A' for Active; 'I' for Inactive)
REMARK    1  A    between atoms: C2_2  and  N4_4 
REMARK    2  A    between atoms: C13_11  and  O15_12 
REMARK    3  A    between atoms: O15_12  and  C16_13 
REMARK    4  A    between atoms: C16_13  and  C18_15 
REMARK    5  A    between atoms: C18_15  and  C20_16 
REMARK    6  A    between atoms: C18_15  and  C22_18 
REMARK    7  A    between atoms: C20_16  and  O21_17 
ROOT
ATOM      1  O15 ZIN A   1      18.844  -1.769   8.857  0.00  0.00    -0.315 OA
ENDROOT
BRANCH   1   2
ATOM      2  C13 ZIN A   1      19.108  -0.358   8.642  0.00  0.00     0.136 C 
ATOM      3  C12 ZIN A   1      20.160   0.123   9.645  0.00  0.00     0.066 C 
ATOM      4  C10 ZIN A   1      19.568   0.047  11.061  0.00  0.00     0.193 C 
ATOM      5  N4  ZIN A   1      18.433   1.006  11.131  0.00  0.00    -0.059 N 
ATOM      6  C9  ZIN A   1      18.905  -1.340  11.223  0.00  0.00     0.036 C 
ATOM      7  C5  ZIN A   1      17.994   1.186  12.521  0.00  0.00     0.274 C 
ATOM      8  C6  ZIN A   1      17.373   0.345  10.326  0.00  0.00     0.193 C 
ATOM      9  C28 ZIN A   1      17.783   0.462   8.849  0.00  0.00     0.066 C 
ATOM     10  C8  ZIN A   1      17.455  -1.143  10.737  0.00  0.00     0.036 C 
BRANCH   5  11
ATOM     11  C2  ZIN A   1      18.808   2.295  10.536  0.00  0.00     0.183 C 
ATOM     12  C1  ZIN A   1      17.596   3.229  10.539  0.00  0.00     0.040 C 
ATOM     13  C3  ZIN A   1      19.938   2.925  11.352  0.00  0.00     0.040 C 
ENDBRANCH   5  11
ENDBRANCH   1   2
BRANCH   1  14
ATOM     14  C16 ZIN A   1      19.022  -2.590   7.809  0.00  0.00     0.270 C 
ATOM     15  O17 ZIN A   1      18.972  -2.153   6.685  0.00  0.00    -0.264 OA
BRANCH  14  16
ATOM     16  C18 ZIN A   1      19.283  -4.056   8.037  0.00  0.00     0.142 C 
BRANCH  16  17
ATOM     17  C20 ZIN A   1      18.808  -4.854   6.822  0.00  0.00     0.183 C 
BRANCH  17  18
ATOM     18  O21 ZIN A   1      19.785  -5.843   6.490  0.00  0.00    -0.400 OA
ATOM     19  H47 ZIN A   1      19.567  -6.363   5.704  0.00  0.00     0.209 HD
ENDBRANCH  17  18
ENDBRANCH  16  17
BRANCH  16  20
ATOM     20  C22 ZIN A   1      18.535  -4.515   9.263  0.00  0.00    -0.043 A 
ATOM     21  C27 ZIN A   1      17.166  -4.699   9.210  0.00  0.00     0.008 A 
ATOM     22  C26 ZIN A   1      16.481  -5.125  10.332  0.00  0.00     0.001 A 
ATOM     23  C25 ZIN A   1      17.164  -5.359  11.511  0.00  0.00     0.000 A 
ATOM     24  C24 ZIN A   1      18.532  -5.171  11.566  0.00  0.00     0.001 A 
ATOM     25  C23 ZIN A   1      19.218  -4.749  10.441  0.00  0.00     0.008 A 
ENDBRANCH  16  20
ENDBRANCH  14  16
ENDBRANCH   1  14
TORSDOF 7
ENDMDL
MODEL 7
REMARK VINA RESULT:      -6.9      1.268      2.517
REMARK  7 active torsions:
REMARK  status: ('A' for Active; 'I' for Inactive)
REMARK    1  A    between atoms: C2_2  and  N4_4 
REMARK    2  A    between atoms: C13_11  and  O15_12 
REMARK    3  A    between atoms: O15_12  and  C16_13 
REMARK    4  A    between atoms: C16_13  and  C18_15 
REMARK    5  A    between atoms: C18_15  and  C20_16 
REMARK    6  A    between atoms: C18_15  and  C22_18 
REMARK    7  A    between atoms: C20_16  and  O21_17 
ROOT
ATOM      1  O15 ZIN A   1      19.429   0.714  11.622  0.00  0.00    -0.315 OA
ENDROOT
BRANCH   1   2
ATOM      2  C13 ZIN A   1      19.814  -0.548  11.015  0.00  0.00     0.136 C 
ATOM      3  C12 ZIN A   1      20.407  -0.285   9.627  0.00  0.00     0.066 C 
ATOM      4  C10 ZIN A   1      19.303   0.269   8.713  0.00  0.00     0.193 C 
ATOM      5  N4  ZIN A   1      18.273  -0.792   8.550  0.00  0.00    -0.059 N 
ATOM      6  C9  ZIN A   1      18.572   1.394   9.480  0.00  0.00     0.036 C 
ATOM      7  C5  ZIN A   1      17.330  -0.438   7.481  0.00  0.00     0.274 C 
ATOM      8  C6  ZIN A   1      17.588  -0.813   9.870  0.00  0.00     0.193 C 
ATOM      9  C28 ZIN A   1      18.550  -1.471  10.872  0.00  0.00     0.066 C 
ATOM     10  C8  ZIN A   1      17.439   0.679  10.245  0.00  0.00     0.036 C 
BRANCH   5  11
ATOM     11  C2  ZIN A   1      18.905  -2.089   8.274  0.00  0.00     0.183 C 
ATOM     12  C1  ZIN A   1      17.878  -3.207   8.462  0.00  0.00     0.040 C 
ATOM     13  C3  ZIN A   1      19.421  -2.108   6.834  0.00  0.00     0.040 C 
ENDBRANCH   5  11
ENDBRANCH   1   2
BRANCH   1  14
ATOM     14  C16 ZIN A   1      19.567   0.817  12.954  0.00  0.00     0.270 C 
ATOM     15  O17 ZIN A   1      20.583   0.441  13.486  0.00  0.00    -0.264 OA
BRANCH  14  16
ATOM     16  C18 ZIN A   1      18.453   1.401  13.783  0.00  0.00     0.142 C 
BRANCH  16  17
ATOM     17  C20 ZIN A   1      18.671   2.906  13.943  0.00  0.00     0.183 C 
BRANCH  17  18
ATOM     18  O21 ZIN A   1      19.728   3.330  13.080  0.00  0.00    -0.400 OA
ATOM     19  H47 ZIN A   1      19.893   2.733  12.338  0.00  0.00     0.209 HD
ENDBRANCH  17  18
ENDBRANCH  16  17
BRANCH  16  20
ATOM     20  C22 ZIN A   1      18.441   0.747  15.141  0.00  0.00    -0.043 A 
ATOM     21  C27 ZIN A   1      18.960   1.414  16.234  0.00  0.00     0.008 A 
ATOM     22  C26 ZIN A   1      18.945   0.817  17.481  0.00  0.00     0.001 A 
ATOM     23  C25 ZIN A   1      18.418  -0.452  17.632  0.00  0.00     0.000 A 
ATOM     24  C24 ZIN A   1      17.903  -1.121  16.538  0.00  0.00     0.001 A 
ATOM     25  C23 ZIN A   1      17.914  -0.521  15.293  0.00  0.00     0.008 A 
ENDBRANCH  16  20
ENDBRANCH  14  16
ENDBRANCH   1  14
TORSDOF 7
ENDMDL
MODEL 8
REMARK VINA RESULT:      -6.9      2.433      6.048
REMARK  7 active torsions:
REMARK  status: ('A' for Active; 'I' for Inactive)
REMARK    1  A    between atoms: C2_2  and  N4_4 
REMARK    2  A    between atoms: C13_11  and  O15_12 
REMARK    3  A    between atoms: O15_12  and  C16_13 
REMARK    4  A    between atoms: C16_13  and  C18_15 
REMARK    5  A    between atoms: C18_15  and  C20_16 
REMARK    6  A    between atoms: C18_15  and  C22_18 
REMARK    7  A    between atoms: C20_16  and  O21_17 
ROOT
ATOM      1  O15 ZIN A   1      19.333  -0.707  11.093  0.00  0.00    -0.315 OA
ENDROOT
BRANCH   1   2
ATOM      2  C13 ZIN A   1      19.659   0.579  11.684  0.00  0.00     0.136 C 
ATOM      3  C12 ZIN A   1      20.366   0.359  13.025  0.00  0.00     0.066 C 
ATOM      4  C10 ZIN A   1      19.375  -0.283  14.009  0.00  0.00     0.193 C 
ATOM      5  N4  ZIN A   1      18.279   0.692  14.251  0.00  0.00    -0.059 N 
ATOM      6  C9  ZIN A   1      18.684  -1.460  13.284  0.00  0.00     0.036 C 
ATOM      7  C5  ZIN A   1      17.444   0.261  15.380  0.00  0.00     0.274 C 
ATOM      8  C6  ZIN A   1      17.504   0.663  12.982  0.00  0.00     0.193 C 
ATOM      9  C28 ZIN A   1      18.340   1.399  11.922  0.00  0.00     0.066 C 
ATOM     10  C8  ZIN A   1      17.448  -0.834  12.605  0.00  0.00     0.036 C 
BRANCH   5  11
ATOM     11  C2  ZIN A   1      18.824   2.034  14.495  0.00  0.00     0.183 C 
ATOM     12  C1  ZIN A   1      17.753   3.083  14.191  0.00  0.00     0.040 C 
ATOM     13  C3  ZIN A   1      19.253   2.153  15.959  0.00  0.00     0.040 C 
ENDBRANCH   5  11
ENDBRANCH   1   2
BRANCH   1  14
ATOM     14  C16 ZIN A   1      19.635  -0.877   9.796  0.00  0.00     0.270 C 
ATOM     15  O17 ZIN A   1      20.398  -0.117   9.249  0.00  0.00    -0.264 OA
BRANCH  14  16
ATOM     16  C18 ZIN A   1      19.019  -2.014   9.023  0.00  0.00     0.142 C 
BRANCH  16  17
ATOM     17  C20 ZIN A   1      17.753  -1.525   8.318  0.00  0.00     0.183 C 
BRANCH  17  18
ATOM     18  O21 ZIN A   1      17.444  -0.200   8.755  0.00  0.00    -0.400 OA
ATOM     19  H47 ZIN A   1      18.208   0.393   8.781  0.00  0.00     0.209 HD
ENDBRANCH  17  18
ENDBRANCH  16  17
BRANCH  16  20
ATOM     20  C22 ZIN A   1      18.668  -3.133   9.970  0.00  0.00    -0.043 A 
ATOM     21  C27 ZIN A   1      17.344  -3.459  10.194  0.00  0.00     0.008 A 
ATOM     22  C26 ZIN A   1      17.022  -4.489  11.058  0.00  0.00     0.001 A 
ATOM     23  C25 ZIN A   1      18.025  -5.187  11.704  0.00  0.00     0.000 A 
ATOM     24  C24 ZIN A   1      19.349  -4.859  11.483  0.00  0.00     0.001 A 
ATOM     25  C23 ZIN A   1      19.670  -3.832  10.615  0.00  0.00     0.008 A 
ENDBRANCH  16  20
ENDBRANCH  14  16
ENDBRANCH   1  14
TORSDOF 7
ENDMDL
MODEL 9
REMARK VINA RESULT:      -6.8      2.105      7.106
REMARK  7 active torsions:
REMARK  status: ('A' for Active; 'I' for Inactive)
REMARK    1  A    between atoms: C2_2  and  N4_4 
REMARK    2  A    between atoms: C13_11  and  O15_12 
REMARK    3  A    between atoms: O15_12  and  C16_13 
REMARK    4  A    between atoms: C16_13  and  C18_15 
REMARK    5  A    between atoms: C18_15  and  C20_16 
REMARK    6  A    between atoms: C18_15  and  C22_18 
REMARK    7  A    between atoms: C20_16  and  O21_17 
ROOT
ATOM      1  O15 ZIN A   1      19.287  -0.662  11.098  0.00  0.00    -0.315 OA
ENDROOT
BRANCH   1   2
ATOM      2  C13 ZIN A   1      19.671   0.605  11.695  0.00  0.00     0.136 C 
ATOM      3  C12 ZIN A   1      20.357   0.347  13.040  0.00  0.00     0.066 C 
ATOM      4  C10 ZIN A   1      19.329  -0.250  14.015  0.00  0.00     0.193 C 
ATOM      5  N4  ZIN A   1      18.279   0.777  14.253  0.00  0.00    -0.059 N 
ATOM      6  C9  ZIN A   1      18.587  -1.390  13.281  0.00  0.00     0.036 C 
ATOM      7  C5  ZIN A   1      17.417   0.383  15.374  0.00  0.00     0.274 C 
ATOM      8  C6  ZIN A   1      17.514   0.789  12.979  0.00  0.00     0.193 C 
ATOM      9  C28 ZIN A   1      18.391   1.487  11.927  0.00  0.00     0.066 C 
ATOM     10  C8  ZIN A   1      17.387  -0.703  12.596  0.00  0.00     0.036 C 
BRANCH   5  11
ATOM     11  C2  ZIN A   1      18.888   2.089  14.505  0.00  0.00     0.183 C 
ATOM     12  C1  ZIN A   1      17.848   3.187  14.271  0.00  0.00     0.040 C 
ATOM     13  C3  ZIN A   1      19.380   2.154  15.953  0.00  0.00     0.040 C 
ENDBRANCH   5  11
ENDBRANCH   1   2
BRANCH   1  14
ATOM     14  C16 ZIN A   1      19.466  -0.791   9.773  0.00  0.00     0.270 C 
ATOM     15  O17 ZIN A   1      20.467  -0.359   9.254  0.00  0.00    -0.264 OA
BRANCH  14  16
ATOM     16  C18 ZIN A   1      18.416  -1.473   8.935  0.00  0.00     0.142 C 
BRANCH  16  17
ATOM     17  C20 ZIN A   1      18.622  -2.987   8.992  0.00  0.00     0.183 C 
BRANCH  17  18
ATOM     18  O21 ZIN A   1      19.747  -3.285   9.822  0.00  0.00    -0.400 OA
ATOM     19  H47 ZIN A   1      19.625  -4.060  10.386  0.00  0.00     0.209 HD
ENDBRANCH  17  18
ENDBRANCH  16  17
BRANCH  16  20
ATOM     20  C22 ZIN A   1      18.529  -1.003   7.507  0.00  0.00    -0.043 A 
ATOM     21  C27 ZIN A   1      17.988   0.212   7.134  0.00  0.00     0.008 A 
ATOM     22  C26 ZIN A   1      18.097   0.645   5.825  0.00  0.00     0.001 A 
ATOM     23  C25 ZIN A   1      18.739  -0.142   4.889  0.00  0.00     0.000 A 
ATOM     24  C24 ZIN A   1      19.277  -1.360   5.261  0.00  0.00     0.001 A 
ATOM     25  C23 ZIN A   1      19.172  -1.790   6.571  0.00  0.00     0.008 A 
ENDBRANCH  16  20
ENDBRANCH  14  16
ENDBRANCH   1  14
TORSDOF 7
ENDMDL
