MODEL 1
REMARK VINA RESULT:      -9.3      0.000      0.000
REMARK  8 active torsions:
REMARK  status: ('A' for Active; 'I' for Inactive)
REMARK    1  A    between atoms: C3_3  and  C5_4 
REMARK    2  A    between atoms: C5_4  and  C6_5 
REMARK    3  A    between atoms: C6_5  and  C7_6 
REMARK    4  A    between atoms: C7_6  and  O9_7 
REMARK    5  A    between atoms: C7_6  and  C10_8 
REMARK    6  A    between atoms: C17_15  and  C19_16 
REMARK    7  A    between atoms: C22_19  and  O23_20 
REMARK    8  A    between atoms: N26_23  and  C27_24 
ROOT
ATOM      1  O1  ZIN A   1      20.706   1.175  11.991  0.00  0.00    -0.272 OA
ATOM      2  C2  ZIN A   1      19.741   1.186  11.255  0.00  0.00     0.231 A 
ATOM      3  C3  ZIN A   1      19.070   2.265  10.458  0.00  0.00     0.106 A 
ATOM      4  C17 ZIN A   1      18.114   1.160  10.025  0.00  0.00     0.139 A 
ATOM      5  N26 ZIN A   1      18.885   0.240  10.851  0.00  0.00    -0.308 N 
ENDROOT
BRANCH   3   6
ATOM      6  C5  ZIN A   1      18.420   3.356  11.310  0.00  0.00     0.019 C 
BRANCH   6   7
ATOM      7  C6  ZIN A   1      17.602   2.709  12.429  0.00  0.00     0.037 C 
BRANCH   7   8
ATOM      8  C7  ZIN A   1      18.183   3.114  13.785  0.00  0.00     0.151 C 
BRANCH   8   9
ATOM      9  O9  ZIN A   1      19.480   3.685  13.596  0.00  0.00    -0.391 OA
ATOM     10  H38 ZIN A   1      19.561   4.218  12.793  0.00  0.00     0.210 HD
ENDBRANCH   8   9
BRANCH   8  11
ATOM     11  C10 ZIN A   1      18.295   1.896  14.667  0.00  0.00    -0.029 A 
ATOM     12  C16 ZIN A   1      17.732   0.699  14.265  0.00  0.00     0.013 A 
ATOM     13  C15 ZIN A   1      17.837  -0.420  15.070  0.00  0.00     0.043 A 
ATOM     14  C13 ZIN A   1      18.498  -0.339  16.284  0.00  0.00     0.116 A 
ATOM     15  C12 ZIN A   1      19.058   0.862  16.687  0.00  0.00     0.043 A 
ATOM     16  F14 ZIN A   1      18.597  -1.429  17.074  0.00  0.00    -0.206 F 
ATOM     17  C11 ZIN A   1      18.956   1.979  15.878  0.00  0.00     0.013 A 
ENDBRANCH   8  11
ENDBRANCH   7   8
ENDBRANCH   6   7
ENDBRANCH   3   6
BRANCH   4  18
ATOM     18  C19 ZIN A   1      18.186   0.845   8.553  0.00  0.00    -0.034 A 
ATOM     19  C25 ZIN A   1      19.110   1.494   7.754  0.00  0.00     0.012 A 
ATOM     20  C24 ZIN A   1      19.181   1.203   6.405  0.00  0.00     0.037 A 
ATOM     21  C22 ZIN A   1      18.319   0.269   5.851  0.00  0.00     0.065 A 
ATOM     22  C21 ZIN A   1      17.390  -0.376   6.654  0.00  0.00     0.037 A 
ATOM     23  C20 ZIN A   1      17.326  -0.086   8.004  0.00  0.00     0.012 A 
BRANCH  21  24
ATOM     24  O23 ZIN A   1      18.385  -0.015   4.523  0.00  0.00    -0.361 OA
ATOM     25  H45 ZIN A   1      17.526  -0.194   4.117  0.00  0.00     0.217 HD
ENDBRANCH  21  24
ENDBRANCH   4  18
BRANCH   5  26
ATOM     26  C27 ZIN A   1      18.772  -1.128  11.123  0.00  0.00     0.038 A 
ATOM     27  C33 ZIN A   1      17.544  -1.668  11.478  0.00  0.00     0.033 A 
ATOM     28  C32 ZIN A   1      17.433  -3.021  11.740  0.00  0.00     0.044 A 
ATOM     29  C30 ZIN A   1      18.550  -3.835  11.660  0.00  0.00     0.116 A 
ATOM     30  C29 ZIN A   1      19.778  -3.298  11.312  0.00  0.00     0.044 A 
ATOM     31  F31 ZIN A   1      18.441  -5.156  11.922  0.00  0.00    -0.206 F 
ATOM     32  C28 ZIN A   1      19.891  -1.949  11.043  0.00  0.00     0.033 A 
ENDBRANCH   5  26
TORSDOF 8
ENDMDL
MODEL 2
REMARK VINA RESULT:      -9.3      3.183      5.480
REMARK  8 active torsions:
REMARK  status: ('A' for Active; 'I' for Inactive)
REMARK    1  A    between atoms: C3_3  and  C5_4 
REMARK    2  A    between atoms: C5_4  and  C6_5 
REMARK    3  A    between atoms: C6_5  and  C7_6 
REMARK    4  A    between atoms: C7_6  and  O9_7 
REMARK    5  A    between atoms: C7_6  and  C10_8 
REMARK    6  A    between atoms: C17_15  and  C19_16 
REMARK    7  A    between atoms: C22_19  and  O23_20 
REMARK    8  A    between atoms: N26_23  and  C27_24 
ROOT
ATOM      1  O1  ZIN A   1      16.418   4.459  11.429  0.00  0.00    -0.272 OA
ATOM      2  C2  ZIN A   1      17.339   3.893  11.979  0.00  0.00     0.231 A 
ATOM      3  C3  ZIN A   1      17.982   4.048  13.326  0.00  0.00     0.106 A 
ATOM      4  C17 ZIN A   1      18.893   2.915  12.869  0.00  0.00     0.139 A 
ATOM      5  N26 ZIN A   1      18.154   2.897  11.613  0.00  0.00    -0.308 N 
ENDROOT
BRANCH   3   6
ATOM      6  C5  ZIN A   1      18.698   5.384  13.524  0.00  0.00     0.019 C 
BRANCH   6   7
ATOM      7  C6  ZIN A   1      19.924   5.179  14.414  0.00  0.00     0.037 C 
BRANCH   7   8
ATOM      8  C7  ZIN A   1      19.644   5.746  15.808  0.00  0.00     0.151 C 
BRANCH   8   9
ATOM      9  O9  ZIN A   1      20.850   6.284  16.354  0.00  0.00    -0.391 OA
ATOM     10  H38 ZIN A   1      21.350   5.657  16.896  0.00  0.00     0.210 HD
ENDBRANCH   8   9
BRANCH   8  11
ATOM     11  C10 ZIN A   1      19.133   4.646  16.703  0.00  0.00    -0.029 A 
ATOM     12  C16 ZIN A   1      18.031   4.867  17.508  0.00  0.00     0.013 A 
ATOM     13  C15 ZIN A   1      17.558   3.859  18.326  0.00  0.00     0.043 A 
ATOM     14  C13 ZIN A   1      18.196   2.630  18.347  0.00  0.00     0.116 A 
ATOM     15  C12 ZIN A   1      19.302   2.411  17.544  0.00  0.00     0.043 A 
ATOM     16  F14 ZIN A   1      17.738   1.645  19.150  0.00  0.00    -0.206 F 
ATOM     17  C11 ZIN A   1      19.770   3.420  16.723  0.00  0.00     0.013 A 
ENDBRANCH   8  11
ENDBRANCH   7   8
ENDBRANCH   6   7
ENDBRANCH   3   6
BRANCH   4  18
ATOM     18  C19 ZIN A   1      18.731   1.652  13.674  0.00  0.00    -0.034 A 
ATOM     19  C25 ZIN A   1      17.607   1.473  14.460  0.00  0.00     0.012 A 
ATOM     20  C24 ZIN A   1      17.454   0.314  15.195  0.00  0.00     0.037 A 
ATOM     21  C22 ZIN A   1      18.434  -0.666  15.154  0.00  0.00     0.065 A 
ATOM     22  C21 ZIN A   1      19.563  -0.483  14.370  0.00  0.00     0.037 A 
ATOM     23  C20 ZIN A   1      19.709   0.676  13.631  0.00  0.00     0.012 A 
BRANCH  21  24
ATOM     24  O23 ZIN A   1      18.288  -1.806  15.881  0.00  0.00    -0.361 OA
ATOM     25  H45 ZIN A   1      18.266  -1.662  16.837  0.00  0.00     0.217 HD
ENDBRANCH  21  24
ENDBRANCH   4  18
BRANCH   5  26
ATOM     26  C27 ZIN A   1      18.259   2.125  10.450  0.00  0.00     0.038 A 
ATOM     27  C33 ZIN A   1      19.093   2.533   9.417  0.00  0.00     0.033 A 
ATOM     28  C32 ZIN A   1      19.200   1.765   8.273  0.00  0.00     0.044 A 
ATOM     29  C30 ZIN A   1      18.468   0.597   8.151  0.00  0.00     0.116 A 
ATOM     30  C29 ZIN A   1      17.631   0.192   9.177  0.00  0.00     0.044 A 
ATOM     31  F31 ZIN A   1      18.570  -0.149   7.029  0.00  0.00    -0.206 F 
ATOM     32  C28 ZIN A   1      17.526   0.952  10.325  0.00  0.00     0.033 A 
ENDBRANCH   5  26
TORSDOF 8
ENDMDL
MODEL 3
REMARK VINA RESULT:      -9.2      3.080      7.808
REMARK  8 active torsions:
REMARK  status: ('A' for Active; 'I' for Inactive)
REMARK    1  A    between atoms: C3_3  and  C5_4 
REMARK    2  A    between atoms: C5_4  and  C6_5 
REMARK    3  A    between atoms: C6_5  and  C7_6 
REMARK    4  A    between atoms: C7_6  and  O9_7 
REMARK    5  A    between atoms: C7_6  and  C10_8 
REMARK    6  A    between atoms: C17_15  and  C19_16 
REMARK    7  A    between atoms: C22_19  and  O23_20 
REMARK    8  A    between atoms: N26_23  and  C27_24 
ROOT
ATOM      1  O1  ZIN A   1      20.673  -1.140  10.949  0.00  0.00    -0.272 OA
ATOM      2  C2  ZIN A   1      19.734  -1.162  11.716  0.00  0.00     0.231 A 
ATOM      3  C3  ZIN A   1      19.116  -2.242  12.553  0.00  0.00     0.106 A 
ATOM      4  C17 ZIN A   1      18.147  -1.154  12.998  0.00  0.00     0.139 A 
ATOM      5  N26 ZIN A   1      18.868  -0.230  12.132  0.00  0.00    -0.308 N 
ENDROOT
BRANCH   3   6
ATOM      6  C5  ZIN A   1      18.467  -3.364  11.742  0.00  0.00     0.019 C 
BRANCH   6   7
ATOM      7  C6  ZIN A   1      17.721  -2.765  10.549  0.00  0.00     0.037 C 
BRANCH   7   8
ATOM      8  C7  ZIN A   1      18.329  -3.295   9.248  0.00  0.00     0.151 C 
BRANCH   8   9
ATOM      9  O9  ZIN A   1      19.648  -3.782   9.504  0.00  0.00    -0.391 OA
ATOM     10  H38 ZIN A   1      20.332  -3.371   8.957  0.00  0.00     0.210 HD
ENDBRANCH   8   9
BRANCH   8  11
ATOM     11  C10 ZIN A   1      18.392  -2.182   8.234  0.00  0.00    -0.029 A 
ATOM     12  C16 ZIN A   1      17.676  -1.018   8.441  0.00  0.00     0.013 A 
ATOM     13  C15 ZIN A   1      17.736   0.006   7.514  0.00  0.00     0.043 A 
ATOM     14  C13 ZIN A   1      18.506  -0.140   6.372  0.00  0.00     0.116 A 
ATOM     15  C12 ZIN A   1      19.218  -1.308   6.164  0.00  0.00     0.043 A 
ATOM     16  F14 ZIN A   1      18.561   0.857   5.463  0.00  0.00    -0.206 F 
ATOM     17  C11 ZIN A   1      19.161  -2.329   7.095  0.00  0.00     0.013 A 
ENDBRANCH   8  11
ENDBRANCH   7   8
ENDBRANCH   6   7
ENDBRANCH   3   6
BRANCH   4  18
ATOM     18  C19 ZIN A   1      18.259  -0.811  14.461  0.00  0.00    -0.034 A 
ATOM     19  C25 ZIN A   1      19.070  -1.569  15.287  0.00  0.00     0.012 A 
ATOM     20  C24 ZIN A   1      19.178  -1.253  16.628  0.00  0.00     0.037 A 
ATOM     21  C22 ZIN A   1      18.466  -0.184  17.148  0.00  0.00     0.065 A 
ATOM     22  C21 ZIN A   1      17.649   0.571  16.318  0.00  0.00     0.037 A 
ATOM     23  C20 ZIN A   1      17.548   0.255  14.977  0.00  0.00     0.012 A 
BRANCH  21  24
ATOM     24  O23 ZIN A   1      18.567   0.126  18.467  0.00  0.00    -0.361 OA
ATOM     25  H45 ZIN A   1      18.704  -0.641  19.041  0.00  0.00     0.217 HD
ENDBRANCH  21  24
ENDBRANCH   4  18
BRANCH   5  26
ATOM     26  C27 ZIN A   1      18.711   1.130  11.840  0.00  0.00     0.038 A 
ATOM     27  C33 ZIN A   1      17.700   1.546  10.984  0.00  0.00     0.033 A 
ATOM     28  C32 ZIN A   1      17.543   2.889  10.703  0.00  0.00     0.044 A 
ATOM     29  C30 ZIN A   1      18.400   3.820  11.264  0.00  0.00     0.116 A 
ATOM     30  C29 ZIN A   1      19.413   3.407  12.114  0.00  0.00     0.044 A 
ATOM     31  F31 ZIN A   1      18.249   5.132  10.984  0.00  0.00    -0.206 F 
ATOM     32  C28 ZIN A   1      19.569   2.066  12.403  0.00  0.00     0.033 A 
ENDBRANCH   5  26
TORSDOF 8
ENDMDL
MODEL 4
REMARK VINA RESULT:      -8.9      3.209      4.385
REMARK  8 active torsions:
REMARK  status: ('A' for Active; 'I' for Inactive)
REMARK    1  A    between atoms: C3_3  and  C5_4 
REMARK    2  A    between atoms: C5_4  and  C6_5 
REMARK    3  A    between atoms: C6_5  and  C7_6 
REMARK    4  A    between atoms: C7_6  and  O9_7 
REMARK    5  A    between atoms: C7_6  and  C10_8 
REMARK    6  A    between atoms: C17_15  and  C19_16 
REMARK    7  A    between atoms: C22_19  and  O23_20 
REMARK    8  A    between atoms: N26_23  and  C27_24 
ROOT
ATOM      1  O1  ZIN A   1      20.108  -4.437  11.488  0.00  0.00    -0.272 OA
ATOM      2  C2  ZIN A   1      19.381  -3.503  11.222  0.00  0.00     0.231 A 
ATOM      3  C3  ZIN A   1      19.346  -2.071  11.668  0.00  0.00     0.106 A 
ATOM      4  C17 ZIN A   1      18.136  -1.958  10.749  0.00  0.00     0.139 A 
ATOM      5  N26 ZIN A   1      18.318  -3.366  10.422  0.00  0.00    -0.308 N 
ENDROOT
BRANCH   3   6
ATOM      6  C5  ZIN A   1      19.023  -1.889  13.152  0.00  0.00     0.019 C 
BRANCH   6   7
ATOM      7  C6  ZIN A   1      19.768  -0.666  13.690  0.00  0.00     0.037 C 
BRANCH   7   8
ATOM      8  C7  ZIN A   1      18.774   0.475  13.921  0.00  0.00     0.151 C 
BRANCH   8   9
ATOM      9  O9  ZIN A   1      17.483  -0.068  14.202  0.00  0.00    -0.391 OA
ATOM     10  H38 ZIN A   1      17.159  -0.682  13.528  0.00  0.00     0.210 HD
ENDBRANCH   8   9
BRANCH   8  11
ATOM     11  C10 ZIN A   1      18.700   1.334  12.684  0.00  0.00    -0.029 A 
ATOM     12  C16 ZIN A   1      17.492   1.507  12.035  0.00  0.00     0.013 A 
ATOM     13  C15 ZIN A   1      17.420   2.297  10.904  0.00  0.00     0.043 A 
ATOM     14  C13 ZIN A   1      18.563   2.908  10.414  0.00  0.00     0.116 A 
ATOM     15  C12 ZIN A   1      19.773   2.730  11.063  0.00  0.00     0.043 A 
ATOM     16  F14 ZIN A   1      18.496   3.676   9.306  0.00  0.00    -0.206 F 
ATOM     17  C11 ZIN A   1      19.841   1.943  12.197  0.00  0.00     0.013 A 
ENDBRANCH   8  11
ENDBRANCH   7   8
ENDBRANCH   6   7
ENDBRANCH   3   6
BRANCH   4  18
ATOM     18  C19 ZIN A   1      18.357  -1.038   9.576  0.00  0.00    -0.034 A 
ATOM     19  C25 ZIN A   1      19.619  -0.532   9.324  0.00  0.00     0.012 A 
ATOM     20  C24 ZIN A   1      19.824   0.307   8.246  0.00  0.00     0.037 A 
ATOM     21  C22 ZIN A   1      18.763   0.650   7.423  0.00  0.00     0.065 A 
ATOM     22  C21 ZIN A   1      17.496   0.146   7.681  0.00  0.00     0.037 A 
ATOM     23  C20 ZIN A   1      17.296  -0.698   8.757  0.00  0.00     0.012 A 
BRANCH  21  24
ATOM     24  O23 ZIN A   1      18.962   1.479   6.364  0.00  0.00    -0.361 OA
ATOM     25  H45 ZIN A   1      18.318   1.369   5.652  0.00  0.00     0.217 HD
ENDBRANCH  21  24
ENDBRANCH   4  18
BRANCH   5  26
ATOM     26  C27 ZIN A   1      17.632  -4.251   9.581  0.00  0.00     0.038 A 
ATOM     27  C33 ZIN A   1      18.032  -4.408   8.261  0.00  0.00     0.033 A 
ATOM     28  C32 ZIN A   1      17.358  -5.288   7.436  0.00  0.00     0.044 A 
ATOM     29  C30 ZIN A   1      16.277  -6.003   7.921  0.00  0.00     0.116 A 
ATOM     30  C29 ZIN A   1      15.872  -5.843   9.236  0.00  0.00     0.044 A 
ATOM     31  F31 ZIN A   1      15.616  -6.859   7.111  0.00  0.00    -0.206 F 
ATOM     32  C28 ZIN A   1      16.547  -4.971  10.066  0.00  0.00     0.033 A 
ENDBRANCH   5  26
TORSDOF 8
ENDMDL
MODEL 5
REMARK VINA RESULT:      -8.7      2.389      6.522
REMARK  8 active torsions:
REMARK  status: ('A' for Active; 'I' for Inactive)
REMARK    1  A    between atoms: C3_3  and  C5_4 
REMARK    2  A    between atoms: C5_4  and  C6_5 
REMARK    3  A    between atoms: C6_5  and  C7_6 
REMARK    4  A    between atoms: C7_6  and  O9_7 
REMARK    5  A    between atoms: C7_6  and  C10_8 
REMARK    6  A    between atoms: C17_15  and  C19_16 
REMARK    7  A    between atoms: C22_19  and  O23_20 
REMARK    8  A    between atoms: N26_23  and  C27_24 
ROOT
ATOM      1  O1  ZIN A   1      15.967   0.027  11.465  0.00  0.00    -0.272 OA
ATOM      2  C2  ZIN A   1      16.985   0.225  12.095  0.00  0.00     0.231 A 
ATOM      3  C3  ZIN A   1      17.512   1.411  12.847  0.00  0.00     0.106 A 
ATOM      4  C17 ZIN A   1      18.709   0.516  13.145  0.00  0.00     0.139 A 
ATOM      5  N26 ZIN A   1      18.049  -0.534  12.380  0.00  0.00    -0.308 N 
ENDROOT
BRANCH   3   6
ATOM      6  C5  ZIN A   1      17.837   2.615  11.961  0.00  0.00     0.019 C 
BRANCH   6   7
ATOM      7  C6  ZIN A   1      19.234   2.446  11.362  0.00  0.00     0.037 C 
BRANCH   7   8
ATOM      8  C7  ZIN A   1      19.237   2.960   9.921  0.00  0.00     0.151 C 
BRANCH   8   9
ATOM      9  O9  ZIN A   1      18.091   3.787   9.709  0.00  0.00    -0.391 OA
ATOM     10  H38 ZIN A   1      17.703   4.138  10.522  0.00  0.00     0.210 HD
ENDBRANCH   8   9
BRANCH   8  11
ATOM     11  C10 ZIN A   1      19.195   1.791   8.971  0.00  0.00    -0.029 A 
ATOM     12  C16 ZIN A   1      19.526   0.525   9.418  0.00  0.00     0.013 A 
ATOM     13  C15 ZIN A   1      19.484  -0.549   8.550  0.00  0.00     0.043 A 
ATOM     14  C13 ZIN A   1      19.120  -0.355   7.228  0.00  0.00     0.116 A 
ATOM     15  C12 ZIN A   1      18.795   0.913   6.780  0.00  0.00     0.043 A 
ATOM     16  F14 ZIN A   1      19.084  -1.403   6.376  0.00  0.00    -0.206 F 
ATOM     17  C11 ZIN A   1      18.832   1.986   7.651  0.00  0.00     0.013 A 
ENDBRANCH   8  11
ENDBRANCH   7   8
ENDBRANCH   6   7
ENDBRANCH   3   6
BRANCH   4  18
ATOM     18  C19 ZIN A   1      18.861   0.184  14.607  0.00  0.00    -0.034 A 
ATOM     19  C25 ZIN A   1      18.879  -1.137  15.017  0.00  0.00     0.012 A 
ATOM     20  C24 ZIN A   1      19.023  -1.443  16.356  0.00  0.00     0.037 A 
ATOM     21  C22 ZIN A   1      19.138  -0.426  17.291  0.00  0.00     0.065 A 
ATOM     22  C21 ZIN A   1      19.113   0.898  16.879  0.00  0.00     0.037 A 
ATOM     23  C20 ZIN A   1      18.975   1.200  15.537  0.00  0.00     0.012 A 
BRANCH  21  24
ATOM     24  O23 ZIN A   1      19.275  -0.726  18.610  0.00  0.00    -0.361 OA
ATOM     25  H45 ZIN A   1      19.569   0.018  19.153  0.00  0.00     0.217 HD
ENDBRANCH  21  24
ENDBRANCH   4  18
BRANCH   5  26
ATOM     26  C27 ZIN A   1      18.400  -1.850  12.059  0.00  0.00     0.038 A 
ATOM     27  C33 ZIN A   1      17.422  -2.833  11.984  0.00  0.00     0.033 A 
ATOM     28  C32 ZIN A   1      17.771  -4.130  11.659  0.00  0.00     0.044 A 
ATOM     29  C30 ZIN A   1      19.096  -4.453  11.422  0.00  0.00     0.116 A 
ATOM     30  C29 ZIN A   1      20.074  -3.476  11.502  0.00  0.00     0.044 A 
ATOM     31  F31 ZIN A   1      19.435  -5.723  11.110  0.00  0.00    -0.206 F 
ATOM     32  C28 ZIN A   1      19.729  -2.177  11.819  0.00  0.00     0.033 A 
ENDBRANCH   5  26
TORSDOF 8
ENDMDL
MODEL 6
REMARK VINA RESULT:      -8.6      3.281      5.384
REMARK  8 active torsions:
REMARK  status: ('A' for Active; 'I' for Inactive)
REMARK    1  A    between atoms: C3_3  and  C5_4 
REMARK    2  A    between atoms: C5_4  and  C6_5 
REMARK    3  A    between atoms: C6_5  and  C7_6 
REMARK    4  A    between atoms: C7_6  and  O9_7 
REMARK    5  A    between atoms: C7_6  and  C10_8 
REMARK    6  A    between atoms: C17_15  and  C19_16 
REMARK    7  A    between atoms: C22_19  and  O23_20 
REMARK    8  A    between atoms: N26_23  and  C27_24 
ROOT
ATOM      1  O1  ZIN A   1      16.285   0.648  11.763  0.00  0.00    -0.272 OA
ATOM      2  C2  ZIN A   1      17.148  -0.202  11.704  0.00  0.00     0.231 A 
ATOM      3  C3  ZIN A   1      17.658  -1.218  12.682  0.00  0.00     0.106 A 
ATOM      4  C17 ZIN A   1      18.608  -1.620  11.561  0.00  0.00     0.139 A 
ATOM      5  N26 ZIN A   1      17.995  -0.584  10.740  0.00  0.00    -0.308 N 
ENDROOT
BRANCH   3   6
ATOM      6  C5  ZIN A   1      18.351  -0.613  13.904  0.00  0.00     0.019 C 
BRANCH   6   7
ATOM      7  C6  ZIN A   1      19.278   0.518  13.456  0.00  0.00     0.037 C 
BRANCH   7   8
ATOM      8  C7  ZIN A   1      18.916   1.802  14.204  0.00  0.00     0.151 C 
BRANCH   8   9
ATOM      9  O9  ZIN A   1      17.842   1.538  15.110  0.00  0.00    -0.391 OA
ATOM     10  H38 ZIN A   1      18.043   1.751  16.031  0.00  0.00     0.210 HD
ENDBRANCH   8   9
BRANCH   8  11
ATOM     11  C10 ZIN A   1      18.491   2.857  13.215  0.00  0.00    -0.029 A 
ATOM     12  C16 ZIN A   1      17.531   3.787  13.568  0.00  0.00     0.013 A 
ATOM     13  C15 ZIN A   1      17.143   4.758  12.664  0.00  0.00     0.043 A 
ATOM     14  C13 ZIN A   1      17.710   4.792  11.401  0.00  0.00     0.116 A 
ATOM     15  C12 ZIN A   1      18.668   3.857  11.048  0.00  0.00     0.043 A 
ATOM     16  F14 ZIN A   1      17.328   5.737  10.514  0.00  0.00    -0.206 F 
ATOM     17  C11 ZIN A   1      19.058   2.890  11.955  0.00  0.00     0.013 A 
ENDBRANCH   8  11
ENDBRANCH   7   8
ENDBRANCH   6   7
ENDBRANCH   3   6
BRANCH   4  18
ATOM     18  C19 ZIN A   1      18.369  -3.013  11.041  0.00  0.00    -0.034 A 
ATOM     19  C25 ZIN A   1      19.310  -3.618  10.227  0.00  0.00     0.012 A 
ATOM     20  C24 ZIN A   1      19.094  -4.897   9.753  0.00  0.00     0.037 A 
ATOM     21  C22 ZIN A   1      17.930  -5.572  10.085  0.00  0.00     0.065 A 
ATOM     22  C21 ZIN A   1      16.984  -4.962  10.897  0.00  0.00     0.037 A 
ATOM     23  C20 ZIN A   1      17.206  -3.683  11.373  0.00  0.00     0.012 A 
BRANCH  21  24
ATOM     24  O23 ZIN A   1      17.713  -6.829   9.616  0.00  0.00    -0.361 OA
ATOM     25  H45 ZIN A   1      17.518  -7.477  10.306  0.00  0.00     0.217 HD
ENDBRANCH  21  24
ENDBRANCH   4  18
BRANCH   5  26
ATOM     26  C27 ZIN A   1      18.212  -0.146   9.428  0.00  0.00     0.038 A 
ATOM     27  C33 ZIN A   1      19.250   0.732   9.150  0.00  0.00     0.033 A 
ATOM     28  C32 ZIN A   1      19.467   1.156   7.853  0.00  0.00     0.044 A 
ATOM     29  C30 ZIN A   1      18.642   0.716   6.833  0.00  0.00     0.116 A 
ATOM     30  C29 ZIN A   1      17.602  -0.156   7.109  0.00  0.00     0.044 A 
ATOM     31  F31 ZIN A   1      18.852   1.136   5.567  0.00  0.00    -0.206 F 
ATOM     32  C28 ZIN A   1      17.386  -0.588   8.402  0.00  0.00     0.033 A 
ENDBRANCH   5  26
TORSDOF 8
ENDMDL
MODEL 7
REMARK VINA RESULT:      -8.6      2.125      6.312
REMARK  8 active torsions:
REMARK  status: ('A' for Active; 'I' for Inactive)
REMARK    1  A    between atoms: C3_3  and  C5_4 
REMARK    2  A    between atoms: C5_4  and  C6_5 
REMARK    3  A    between atoms: C6_5  and  C7_6 
REMARK    4  A    between atoms: C7_6  and  O9_7 
REMARK    5  A    between atoms: C7_6  and  C10_8 
REMARK    6  A    between atoms: C17_15  and  C19_16 
REMARK    7  A    between atoms: C22_19  and  O23_20 
REMARK    8  A    between atoms: N26_23  and  C27_24 
ROOT
ATOM      1  O1  ZIN A   1      16.483   0.410  10.818  0.00  0.00    -0.272 OA
ATOM      2  C2  ZIN A   1      17.385   1.167  11.109  0.00  0.00     0.231 A 
ATOM      3  C3  ZIN A   1      17.961   2.381  10.443  0.00  0.00     0.106 A 
ATOM      4  C17 ZIN A   1      18.910   2.416  11.635  0.00  0.00     0.139 A 
ATOM      5  N26 ZIN A   1      18.232   1.230  12.143  0.00  0.00    -0.308 N 
ENDROOT
BRANCH   3   6
ATOM      6  C5  ZIN A   1      18.647   2.091   9.106  0.00  0.00     0.019 C 
BRANCH   6   7
ATOM      7  C6  ZIN A   1      19.428   0.781   9.207  0.00  0.00     0.037 C 
BRANCH   7   8
ATOM      8  C7  ZIN A   1      18.935  -0.191   8.133  0.00  0.00     0.151 C 
BRANCH   8   9
ATOM      9  O9  ZIN A   1      17.575   0.107   7.810  0.00  0.00    -0.391 OA
ATOM     10  H38 ZIN A   1      17.473   0.757   7.101  0.00  0.00     0.210 HD
ENDBRANCH   8   9
BRANCH   8  11
ATOM     11  C10 ZIN A   1      19.030  -1.603   8.652  0.00  0.00    -0.029 A 
ATOM     12  C16 ZIN A   1      18.956  -2.668   7.774  0.00  0.00     0.013 A 
ATOM     13  C15 ZIN A   1      19.047  -3.964   8.247  0.00  0.00     0.043 A 
ATOM     14  C13 ZIN A   1      19.203  -4.194   9.603  0.00  0.00     0.116 A 
ATOM     15  C12 ZIN A   1      19.272  -3.127  10.482  0.00  0.00     0.043 A 
ATOM     16  F14 ZIN A   1      19.287  -5.460  10.068  0.00  0.00    -0.206 F 
ATOM     17  C11 ZIN A   1      19.185  -1.832  10.006  0.00  0.00     0.013 A 
ENDBRANCH   8  11
ENDBRANCH   7   8
ENDBRANCH   6   7
ENDBRANCH   3   6
BRANCH   4  18
ATOM     18  C19 ZIN A   1      18.730   3.628  12.510  0.00  0.00    -0.034 A 
ATOM     19  C25 ZIN A   1      19.836   4.339  12.941  0.00  0.00     0.012 A 
ATOM     20  C24 ZIN A   1      19.672   5.454  13.740  0.00  0.00     0.037 A 
ATOM     21  C22 ZIN A   1      18.400   5.854  14.120  0.00  0.00     0.065 A 
ATOM     22  C21 ZIN A   1      17.292   5.136  13.691  0.00  0.00     0.037 A 
ATOM     23  C20 ZIN A   1      17.460   4.025  12.887  0.00  0.00     0.012 A 
BRANCH  21  24
ATOM     24  O23 ZIN A   1      18.237   6.948  14.909  0.00  0.00    -0.361 OA
ATOM     25  H45 ZIN A   1      17.788   7.685  14.473  0.00  0.00     0.217 HD
ENDBRANCH  21  24
ENDBRANCH   4  18
BRANCH   5  26
ATOM     26  C27 ZIN A   1      18.403   0.445  13.289  0.00  0.00     0.038 A 
ATOM     27  C33 ZIN A   1      19.388  -0.534  13.322  0.00  0.00     0.033 A 
ATOM     28  C32 ZIN A   1      19.560  -1.302  14.457  0.00  0.00     0.044 A 
ATOM     29  C30 ZIN A   1      18.744  -1.105  15.558  0.00  0.00     0.116 A 
ATOM     30  C29 ZIN A   1      17.757  -0.134  15.525  0.00  0.00     0.044 A 
ATOM     31  F31 ZIN A   1      18.910  -1.861  16.664  0.00  0.00    -0.206 F 
ATOM     32  C28 ZIN A   1      17.586   0.642  14.395  0.00  0.00     0.033 A 
ENDBRANCH   5  26
TORSDOF 8
ENDMDL
MODEL 8
REMARK VINA RESULT:      -8.5      2.550      7.157
REMARK  8 active torsions:
REMARK  status: ('A' for Active; 'I' for Inactive)
REMARK    1  A    between atoms: C3_3  and  C5_4 
REMARK    2  A    between atoms: C5_4  and  C6_5 
REMARK    3  A    between atoms: C6_5  and  C7_6 
REMARK    4  A    between atoms: C7_6  and  O9_7 
REMARK    5  A    between atoms: C7_6  and  C10_8 
REMARK    6  A    between atoms: C17_15  and  C19_16 
REMARK    7  A    between atoms: C22_19  and  O23_20 
REMARK    8  A    between atoms: N26_23  and  C27_24 
ROOT
ATOM      1  O1  ZIN A   1      16.056   0.278  11.663  0.00  0.00    -0.272 OA
ATOM      2  C2  ZIN A   1      17.007   1.019  11.800  0.00  0.00     0.231 A 
ATOM      3  C3  ZIN A   1      17.481   2.230  11.052  0.00  0.00     0.106 A 
ATOM      4  C17 ZIN A   1      18.619   2.240  12.065  0.00  0.00     0.139 A 
ATOM      5  N26 ZIN A   1      18.018   1.061  12.675  0.00  0.00    -0.308 N 
ENDROOT
BRANCH   3   6
ATOM      6  C5  ZIN A   1      17.924   1.941   9.617  0.00  0.00     0.019 C 
BRANCH   6   7
ATOM      7  C6  ZIN A   1      19.396   1.527   9.611  0.00  0.00     0.037 C 
BRANCH   7   8
ATOM      8  C7  ZIN A   1      19.506   0.037   9.279  0.00  0.00     0.151 C 
BRANCH   8   9
ATOM      9  O9  ZIN A   1      20.846  -0.404   9.507  0.00  0.00    -0.391 OA
ATOM     10  H38 ZIN A   1      20.965  -1.360   9.427  0.00  0.00     0.210 HD
ENDBRANCH   8   9
BRANCH   8  11
ATOM     11  C10 ZIN A   1      19.144  -0.183   7.832  0.00  0.00    -0.029 A 
ATOM     12  C16 ZIN A   1      18.711  -1.426   7.410  0.00  0.00     0.013 A 
ATOM     13  C15 ZIN A   1      18.374  -1.629   6.085  0.00  0.00     0.043 A 
ATOM     14  C13 ZIN A   1      18.482  -0.588   5.178  0.00  0.00     0.116 A 
ATOM     15  C12 ZIN A   1      18.921   0.655   5.601  0.00  0.00     0.043 A 
ATOM     16  F14 ZIN A   1      18.159  -0.786   3.882  0.00  0.00    -0.206 F 
ATOM     17  C11 ZIN A   1      19.252   0.857   6.928  0.00  0.00     0.013 A 
ENDBRANCH   8  11
ENDBRANCH   7   8
ENDBRANCH   6   7
ENDBRANCH   3   6
BRANCH   4  18
ATOM     18  C19 ZIN A   1      18.610   3.448  12.966  0.00  0.00    -0.034 A 
ATOM     19  C25 ZIN A   1      17.529   3.682  13.796  0.00  0.00     0.012 A 
ATOM     20  C24 ZIN A   1      17.521   4.787  14.625  0.00  0.00     0.037 A 
ATOM     21  C22 ZIN A   1      18.592   5.666  14.618  0.00  0.00     0.065 A 
ATOM     22  C21 ZIN A   1      19.674   5.432  13.781  0.00  0.00     0.037 A 
ATOM     23  C20 ZIN A   1      19.680   4.323  12.956  0.00  0.00     0.012 A 
BRANCH  21  24
ATOM     24  O23 ZIN A   1      18.584   6.756  15.431  0.00  0.00    -0.361 OA
ATOM     25  H45 ZIN A   1      18.705   7.594  14.965  0.00  0.00     0.217 HD
ENDBRANCH  21  24
ENDBRANCH   4  18
BRANCH   5  26
ATOM     26  C27 ZIN A   1      18.370   0.264  13.770  0.00  0.00     0.038 A 
ATOM     27  C33 ZIN A   1      19.396  -0.664  13.655  0.00  0.00     0.033 A 
ATOM     28  C32 ZIN A   1      19.746  -1.444  14.741  0.00  0.00     0.044 A 
ATOM     29  C30 ZIN A   1      19.066  -1.310  15.939  0.00  0.00     0.116 A 
ATOM     30  C29 ZIN A   1      18.038  -0.389  16.054  0.00  0.00     0.044 A 
ATOM     31  F31 ZIN A   1      19.406  -2.078  16.997  0.00  0.00    -0.206 F 
ATOM     32  C28 ZIN A   1      17.690   0.398  14.975  0.00  0.00     0.033 A 
ENDBRANCH   5  26
TORSDOF 8
ENDMDL
MODEL 9
REMARK VINA RESULT:      -8.5      2.780      5.247
REMARK  8 active torsions:
REMARK  status: ('A' for Active; 'I' for Inactive)
REMARK    1  A    between atoms: C3_3  and  C5_4 
REMARK    2  A    between atoms: C5_4  and  C6_5 
REMARK    3  A    between atoms: C6_5  and  C7_6 
REMARK    4  A    between atoms: C7_6  and  O9_7 
REMARK    5  A    between atoms: C7_6  and  C10_8 
REMARK    6  A    between atoms: C17_15  and  C19_16 
REMARK    7  A    between atoms: C22_19  and  O23_20 
REMARK    8  A    between atoms: N26_23  and  C27_24 
ROOT
ATOM      1  O1  ZIN A   1      16.968   0.162   9.563  0.00  0.00    -0.272 OA
ATOM      2  C2  ZIN A   1      17.775   0.070  10.464  0.00  0.00     0.231 A 
ATOM      3  C3  ZIN A   1      18.461   1.081  11.335  0.00  0.00     0.106 A 
ATOM      4  C17 ZIN A   1      19.131  -0.128  11.975  0.00  0.00     0.139 A 
ATOM      5  N26 ZIN A   1      18.379  -0.969  11.052  0.00  0.00    -0.308 N 
ENDROOT
BRANCH   3   6
ATOM      6  C5  ZIN A   1      19.421   2.002  10.581  0.00  0.00     0.019 C 
BRANCH   6   7
ATOM      7  C6  ZIN A   1      18.969   3.454  10.743  0.00  0.00     0.037 C 
BRANCH   7   8
ATOM      8  C7  ZIN A   1      17.872   3.530  11.807  0.00  0.00     0.151 C 
BRANCH   8   9
ATOM      9  O9  ZIN A   1      16.750   4.245  11.284  0.00  0.00    -0.391 OA
ATOM     10  H38 ZIN A   1      16.734   4.300  10.318  0.00  0.00     0.210 HD
ENDBRANCH   8   9
BRANCH   8  11
ATOM     11  C10 ZIN A   1      18.401   4.248  13.023  0.00  0.00    -0.029 A 
ATOM     12  C16 ZIN A   1      17.759   4.109  14.239  0.00  0.00     0.013 A 
ATOM     13  C15 ZIN A   1      18.245   4.762  15.357  0.00  0.00     0.043 A 
ATOM     14  C13 ZIN A   1      19.370   5.564  15.254  0.00  0.00     0.116 A 
ATOM     15  C12 ZIN A   1      20.008   5.706  14.034  0.00  0.00     0.043 A 
ATOM     16  F14 ZIN A   1      19.843   6.208  16.343  0.00  0.00    -0.206 F 
ATOM     17  C11 ZIN A   1      19.523   5.047  12.919  0.00  0.00     0.013 A 
ENDBRANCH   8  11
ENDBRANCH   7   8
ENDBRANCH   6   7
ENDBRANCH   3   6
BRANCH   4  18
ATOM     18  C19 ZIN A   1      18.748  -0.334  13.418  0.00  0.00    -0.034 A 
ATOM     19  C25 ZIN A   1      17.737   0.425  13.978  0.00  0.00     0.012 A 
ATOM     20  C24 ZIN A   1      17.381   0.235  15.299  0.00  0.00     0.037 A 
ATOM     21  C22 ZIN A   1      18.045  -0.710  16.067  0.00  0.00     0.065 A 
ATOM     22  C21 ZIN A   1      19.063  -1.466  15.504  0.00  0.00     0.037 A 
ATOM     23  C20 ZIN A   1      19.412  -1.276  14.180  0.00  0.00     0.012 A 
BRANCH  21  24
ATOM     24  O23 ZIN A   1      17.699  -0.895  17.368  0.00  0.00    -0.361 OA
ATOM     25  H45 ZIN A   1      17.435  -0.084  17.824  0.00  0.00     0.217 HD
ENDBRANCH  21  24
ENDBRANCH   4  18
BRANCH   5  26
ATOM     26  C27 ZIN A   1      18.313  -2.353  10.852  0.00  0.00     0.038 A 
ATOM     27  C33 ZIN A   1      17.379  -3.112  11.543  0.00  0.00     0.033 A 
ATOM     28  C32 ZIN A   1      17.312  -4.477  11.338  0.00  0.00     0.044 A 
ATOM     29  C30 ZIN A   1      18.184  -5.089  10.454  0.00  0.00     0.116 A 
ATOM     30  C29 ZIN A   1      19.121  -4.334   9.769  0.00  0.00     0.044 A 
ATOM     31  F31 ZIN A   1      18.120  -6.424  10.259  0.00  0.00    -0.206 F 
ATOM     32  C28 ZIN A   1      19.187  -2.969   9.965  0.00  0.00     0.033 A 
ENDBRANCH   5  26
TORSDOF 8
ENDMDL
