MODEL 1
REMARK VINA RESULT:      -5.4      0.000      0.000
REMARK  10 active torsions:
REMARK  status: ('A' for Active; 'I' for Inactive)
REMARK    1  A    between atoms: N2_2  and  C3_3 
REMARK    2  A    between atoms: C3_3  and  N8_8 
REMARK    3  A    between atoms: C4_4  and  N5_5 
REMARK    4  A    between atoms: N8_8  and  C9_9 
REMARK    5  A    between atoms: C9_9  and  C10_10 
REMARK    6  A    between atoms: C10_10  and  S11_11 
REMARK    7  A    between atoms: S11_11  and  C12_12 
REMARK    8  A    between atoms: C12_12  and  C13_13 
REMARK    9  A    between atoms: C16_16  and  C17_17 
REMARK   10  A    between atoms: C17_17  and  N18_18 
ROOT
ATOM      1  C10 ZIN A   1      19.499  -0.439  12.683  0.00  0.00     0.093 C 
ENDROOT
BRANCH   1   2
ATOM      2  C9  ZIN A   1      19.718   0.542  13.836  0.00  0.00     0.131 C 
BRANCH   2   3
ATOM      3  N8  ZIN A   1      18.424   0.908  14.417  0.00  0.00    -0.374 N 
ATOM      4  H27 ZIN A   1      17.634   0.947  13.856  0.00  0.00     0.161 HD
BRANCH   3   5
ATOM      5  C3  ZIN A   1      18.329   1.200  15.773  0.00  0.00     0.118 C 
ATOM      6  C4  ZIN A   1      19.250   1.963  16.355  0.00  0.00     0.215 C 
BRANCH   5   7
ATOM      7  N2  ZIN A   1      17.271   0.695  16.519  0.00  0.00    -0.380 N 
ATOM      8  C1  ZIN A   1      17.174  -0.745  16.771  0.00  0.00     0.147 C 
ATOM      9  H25 ZIN A   1      16.597   1.295  16.874  0.00  0.00     0.160 HD
ENDBRANCH   5   7
BRANCH   6  10
ATOM     10  N5  ZIN A   1      19.223   2.167  17.822  0.00  0.00    -0.124 N 
ATOM     11  O6  ZIN A   1      19.770   1.365  18.558  0.00  0.00    -0.532 OA
ATOM     12  O7  ZIN A   1      18.654   3.136  18.291  0.00  0.00    -0.532 OA
ENDBRANCH   6  10
ENDBRANCH   3   5
ENDBRANCH   2   3
ENDBRANCH   1   2
BRANCH   1  13
ATOM     13  S11 ZIN A   1      17.758  -0.944  12.641  0.00  0.00    -0.161 SA
BRANCH  13  14
ATOM     14  C12 ZIN A   1      17.213  -0.401  10.999  0.00  0.00     0.133 C 
BRANCH  14  15
ATOM     15  C13 ZIN A   1      17.551   1.056  10.813  0.00  0.00     0.051 A 
ATOM     16  N21 ZIN A   1      17.175   1.989  11.665  0.00  0.00    -0.247 NA
ATOM     17  C16 ZIN A   1      17.528   3.201  11.403  0.00  0.00     0.103 A 
ATOM     18  S15 ZIN A   1      18.418   3.254   9.943  0.00  0.00    -0.083 SA
ATOM     19  C14 ZIN A   1      18.252   1.508   9.769  0.00  0.00     0.079 A 
BRANCH  17  20
ATOM     20  C17 ZIN A   1      17.199   4.400  12.255  0.00  0.00     0.338 C 
BRANCH  20  21
ATOM     21  N18 ZIN A   1      17.838   4.256  13.570  0.00  0.00     0.086 N 
ATOM     22  C19 ZIN A   1      19.263   4.604  13.504  0.00  0.00     0.309 C 
ATOM     23  C20 ZIN A   1      17.145   5.063  14.583  0.00  0.00     0.309 C 
ENDBRANCH  20  21
ENDBRANCH  17  20
ENDBRANCH  14  15
ENDBRANCH  13  14
ENDBRANCH   1  13
TORSDOF 10
ENDMDL
MODEL 2
REMARK VINA RESULT:      -5.1      4.089      6.625
REMARK  10 active torsions:
REMARK  status: ('A' for Active; 'I' for Inactive)
REMARK    1  A    between atoms: N2_2  and  C3_3 
REMARK    2  A    between atoms: C3_3  and  N8_8 
REMARK    3  A    between atoms: C4_4  and  N5_5 
REMARK    4  A    between atoms: N8_8  and  C9_9 
REMARK    5  A    between atoms: C9_9  and  C10_10 
REMARK    6  A    between atoms: C10_10  and  S11_11 
REMARK    7  A    between atoms: S11_11  and  C12_12 
REMARK    8  A    between atoms: C12_12  and  C13_13 
REMARK    9  A    between atoms: C16_16  and  C17_17 
REMARK   10  A    between atoms: C17_17  and  N18_18 
ROOT
ATOM      1  C10 ZIN A   1      19.383   0.635  13.233  0.00  0.00     0.093 C 
ENDROOT
BRANCH   1   2
ATOM      2  C9  ZIN A   1      20.499   0.809  12.200  0.00  0.00     0.131 C 
BRANCH   2   3
ATOM      3  N8  ZIN A   1      20.496   2.189  11.708  0.00  0.00    -0.374 N 
ATOM      4  H27 ZIN A   1      21.260   2.764  11.871  0.00  0.00     0.161 HD
BRANCH   3   5
ATOM      5  C3  ZIN A   1      19.398   2.675  11.007  0.00  0.00     0.118 C 
ATOM      6  C4  ZIN A   1      18.896   3.871  11.303  0.00  0.00     0.215 C 
BRANCH   5   7
ATOM      7  N2  ZIN A   1      18.824   1.911   9.999  0.00  0.00    -0.380 N 
ATOM      8  C1  ZIN A   1      19.325   2.016   8.625  0.00  0.00     0.147 C 
ATOM      9  H25 ZIN A   1      18.093   1.308  10.203  0.00  0.00     0.160 HD
ENDBRANCH   5   7
BRANCH   6  10
ATOM     10  N5  ZIN A   1      17.649   4.333  10.651  0.00  0.00    -0.124 N 
ATOM     11  O6  ZIN A   1      17.708   5.031   9.654  0.00  0.00    -0.532 OA
ATOM     12  O7  ZIN A   1      16.567   4.018  11.111  0.00  0.00    -0.532 OA
ENDBRANCH   6  10
ENDBRANCH   3   5
ENDBRANCH   2   3
ENDBRANCH   1   2
BRANCH   1  13
ATOM     13  S11 ZIN A   1      18.225  -0.639  12.663  0.00  0.00    -0.161 SA
BRANCH  13  14
ATOM     14  C12 ZIN A   1      19.324  -1.945  12.048  0.00  0.00     0.133 C 
BRANCH  14  15
ATOM     15  C13 ZIN A   1      18.961  -2.279  10.624  0.00  0.00     0.051 A 
ATOM     16  N21 ZIN A   1      19.302  -1.517   9.604  0.00  0.00    -0.247 NA
ATOM     17  C16 ZIN A   1      18.938  -1.908   8.430  0.00  0.00     0.103 A 
ATOM     18  S15 ZIN A   1      18.063  -3.373   8.542  0.00  0.00    -0.083 SA
ATOM     19  C14 ZIN A   1      18.263  -3.369  10.293  0.00  0.00     0.079 A 
BRANCH  17  20
ATOM     20  C17 ZIN A   1      19.236  -1.178   7.146  0.00  0.00     0.338 C 
BRANCH  20  21
ATOM     21  N18 ZIN A   1      18.078  -1.276   6.247  0.00  0.00     0.086 N 
ATOM     22  C19 ZIN A   1      17.195  -0.112   6.397  0.00  0.00     0.309 C 
ATOM     23  C20 ZIN A   1      18.506  -1.437   4.852  0.00  0.00     0.309 C 
ENDBRANCH  20  21
ENDBRANCH  17  20
ENDBRANCH  14  15
ENDBRANCH  13  14
ENDBRANCH   1  13
TORSDOF 10
ENDMDL
MODEL 3
REMARK VINA RESULT:      -5.1      5.390      8.192
REMARK  10 active torsions:
REMARK  status: ('A' for Active; 'I' for Inactive)
REMARK    1  A    between atoms: N2_2  and  C3_3 
REMARK    2  A    between atoms: C3_3  and  N8_8 
REMARK    3  A    between atoms: C4_4  and  N5_5 
REMARK    4  A    between atoms: N8_8  and  C9_9 
REMARK    5  A    between atoms: C9_9  and  C10_10 
REMARK    6  A    between atoms: C10_10  and  S11_11 
REMARK    7  A    between atoms: S11_11  and  C12_12 
REMARK    8  A    between atoms: C12_12  and  C13_13 
REMARK    9  A    between atoms: C16_16  and  C17_17 
REMARK   10  A    between atoms: C17_17  and  N18_18 
ROOT
ATOM      1  C10 ZIN A   1      18.452   3.016   9.601  0.00  0.00     0.093 C 
ENDROOT
BRANCH   1   2
ATOM      2  C9  ZIN A   1      19.186   1.953   8.780  0.00  0.00     0.131 C 
BRANCH   2   3
ATOM      3  N8  ZIN A   1      18.359   0.747   8.693  0.00  0.00    -0.374 N 
ATOM      4  H27 ZIN A   1      17.799   0.489   9.441  0.00  0.00     0.161 HD
BRANCH   3   5
ATOM      5  C3  ZIN A   1      18.379  -0.027   7.539  0.00  0.00     0.118 C 
ATOM      6  C4  ZIN A   1      19.041   0.396   6.465  0.00  0.00     0.215 C 
BRANCH   5   7
ATOM      7  N2  ZIN A   1      17.707  -1.243   7.506  0.00  0.00    -0.380 N 
ATOM      8  C1  ZIN A   1      18.393  -2.470   7.918  0.00  0.00     0.147 C 
ATOM      9  H25 ZIN A   1      16.784  -1.279   7.212  0.00  0.00     0.160 HD
ENDBRANCH   5   7
BRANCH   6  10
ATOM     10  N5  ZIN A   1      18.956  -0.362   5.196  0.00  0.00    -0.124 N 
ATOM     11  O6  ZIN A   1      17.869  -0.578   4.689  0.00  0.00    -0.532 OA
ATOM     12  O7  ZIN A   1      19.970  -0.770   4.660  0.00  0.00    -0.532 OA
ENDBRANCH   6  10
ENDBRANCH   3   5
ENDBRANCH   2   3
ENDBRANCH   1   2
BRANCH   1  13
ATOM     13  S11 ZIN A   1      19.157   3.082  11.271  0.00  0.00    -0.161 SA
BRANCH  13  14
ATOM     14  C12 ZIN A   1      17.931   2.193  12.268  0.00  0.00     0.133 C 
BRANCH  14  15
ATOM     15  C13 ZIN A   1      18.481   0.844  12.655  0.00  0.00     0.051 A 
ATOM     16  N21 ZIN A   1      18.821  -0.069  11.767  0.00  0.00    -0.247 NA
ATOM     17  C16 ZIN A   1      19.285  -1.185  12.218  0.00  0.00     0.103 A 
ATOM     18  S15 ZIN A   1      19.315  -1.162  13.928  0.00  0.00    -0.083 SA
ATOM     19  C14 ZIN A   1      18.659   0.473  13.926  0.00  0.00     0.079 A 
BRANCH  17  20
ATOM     20  C17 ZIN A   1      19.730  -2.344  11.363  0.00  0.00     0.338 C 
BRANCH  20  21
ATOM     21  N18 ZIN A   1      18.952  -3.539  11.716  0.00  0.00     0.086 N 
ATOM     22  C19 ZIN A   1      17.522  -3.334  11.447  0.00  0.00     0.309 C 
ATOM     23  C20 ZIN A   1      19.456  -4.723  11.009  0.00  0.00     0.309 C 
ENDBRANCH  20  21
ENDBRANCH  17  20
ENDBRANCH  14  15
ENDBRANCH  13  14
ENDBRANCH   1  13
TORSDOF 10
ENDMDL
MODEL 4
REMARK VINA RESULT:      -5.1      5.566      7.915
REMARK  10 active torsions:
REMARK  status: ('A' for Active; 'I' for Inactive)
REMARK    1  A    between atoms: N2_2  and  C3_3 
REMARK    2  A    between atoms: C3_3  and  N8_8 
REMARK    3  A    between atoms: C4_4  and  N5_5 
REMARK    4  A    between atoms: N8_8  and  C9_9 
REMARK    5  A    between atoms: C9_9  and  C10_10 
REMARK    6  A    between atoms: C10_10  and  S11_11 
REMARK    7  A    between atoms: S11_11  and  C12_12 
REMARK    8  A    between atoms: C12_12  and  C13_13 
REMARK    9  A    between atoms: C16_16  and  C17_17 
REMARK   10  A    between atoms: C17_17  and  N18_18 
ROOT
ATOM      1  C10 ZIN A   1      17.629  -3.764   9.438  0.00  0.00     0.093 C 
ENDROOT
BRANCH   1   2
ATOM      2  C9  ZIN A   1      19.020  -3.811   8.801  0.00  0.00     0.131 C 
BRANCH   2   3
ATOM      3  N8  ZIN A   1      19.524  -2.446   8.629  0.00  0.00    -0.374 N 
ATOM      4  H27 ZIN A   1      20.106  -2.056   9.299  0.00  0.00     0.161 HD
BRANCH   3   5
ATOM      5  C3  ZIN A   1      19.166  -1.710   7.505  0.00  0.00     0.118 C 
ATOM      6  C4  ZIN A   1      19.350  -2.220   6.290  0.00  0.00     0.215 C 
BRANCH   5   7
ATOM      7  N2  ZIN A   1      18.617  -0.442   7.652  0.00  0.00    -0.380 N 
ATOM      8  C1  ZIN A   1      17.211  -0.292   8.037  0.00  0.00     0.147 C 
ATOM      9  H25 ZIN A   1      19.164   0.344   7.499  0.00  0.00     0.160 HD
ENDBRANCH   5   7
BRANCH   6  10
ATOM     10  N5  ZIN A   1      19.093  -1.389   5.092  0.00  0.00    -0.124 N 
ATOM     11  O6  ZIN A   1      20.013  -0.807   4.546  0.00  0.00    -0.532 OA
ATOM     12  O7  ZIN A   1      17.962  -1.286   4.653  0.00  0.00    -0.532 OA
ENDBRANCH   6  10
ENDBRANCH   3   5
ENDBRANCH   2   3
ENDBRANCH   1   2
BRANCH   1  13
ATOM     13  S11 ZIN A   1      17.791  -3.501  11.225  0.00  0.00    -0.161 SA
BRANCH  13  14
ATOM     14  C12 ZIN A   1      17.403  -1.740  11.416  0.00  0.00     0.133 C 
BRANCH  14  15
ATOM     15  C13 ZIN A   1      18.277  -1.147  12.491  0.00  0.00     0.051 A 
ATOM     16  N21 ZIN A   1      18.215  -1.527  13.752  0.00  0.00    -0.247 NA
ATOM     17  C16 ZIN A   1      19.016  -0.950  14.581  0.00  0.00     0.103 A 
ATOM     18  S15 ZIN A   1      19.970   0.212  13.767  0.00  0.00    -0.083 SA
ATOM     19  C14 ZIN A   1      19.175  -0.188  12.246  0.00  0.00     0.079 A 
BRANCH  17  20
ATOM     20  C17 ZIN A   1      19.097  -1.251  16.056  0.00  0.00     0.338 C 
BRANCH  20  21
ATOM     21  N18 ZIN A   1      18.641  -0.083  16.820  0.00  0.00     0.086 N 
ATOM     22  C19 ZIN A   1      17.177  -0.077  16.950  0.00  0.00     0.309 C 
ATOM     23  C20 ZIN A   1      19.287  -0.029  18.137  0.00  0.00     0.309 C 
ENDBRANCH  20  21
ENDBRANCH  17  20
ENDBRANCH  14  15
ENDBRANCH  13  14
ENDBRANCH   1  13
TORSDOF 10
ENDMDL
MODEL 5
REMARK VINA RESULT:      -5.0      5.637      7.553
REMARK  10 active torsions:
REMARK  status: ('A' for Active; 'I' for Inactive)
REMARK    1  A    between atoms: N2_2  and  C3_3 
REMARK    2  A    between atoms: C3_3  and  N8_8 
REMARK    3  A    between atoms: C4_4  and  N5_5 
REMARK    4  A    between atoms: N8_8  and  C9_9 
REMARK    5  A    between atoms: C9_9  and  C10_10 
REMARK    6  A    between atoms: C10_10  and  S11_11 
REMARK    7  A    between atoms: S11_11  and  C12_12 
REMARK    8  A    between atoms: C12_12  and  C13_13 
REMARK    9  A    between atoms: C16_16  and  C17_17 
REMARK   10  A    between atoms: C17_17  and  N18_18 
ROOT
ATOM      1  C10 ZIN A   1      17.707  -3.294   9.980  0.00  0.00     0.093 C 
ENDROOT
BRANCH   1   2
ATOM      2  C9  ZIN A   1      19.011  -3.433   9.191  0.00  0.00     0.131 C 
BRANCH   2   3
ATOM      3  N8  ZIN A   1      19.436  -2.114   8.717  0.00  0.00    -0.374 N 
ATOM      4  H27 ZIN A   1      19.930  -1.523   9.305  0.00  0.00     0.161 HD
BRANCH   3   5
ATOM      5  C3  ZIN A   1      19.131  -1.709   7.422  0.00  0.00     0.118 C 
ATOM      6  C4  ZIN A   1      19.424  -2.499   6.392  0.00  0.00     0.215 C 
BRANCH   5   7
ATOM      7  N2  ZIN A   1      18.519  -0.481   7.205  0.00  0.00    -0.380 N 
ATOM      8  C1  ZIN A   1      17.382  -0.071   8.034  0.00  0.00     0.147 C 
ATOM      9  H25 ZIN A   1      18.844   0.106   6.505  0.00  0.00     0.160 HD
ENDBRANCH   5   7
BRANCH   6  10
ATOM     10  N5  ZIN A   1      19.220  -2.016   5.007  0.00  0.00    -0.124 N 
ATOM     11  O6  ZIN A   1      19.879  -1.082   4.586  0.00  0.00    -0.532 OA
ATOM     12  O7  ZIN A   1      18.393  -2.550   4.291  0.00  0.00    -0.532 OA
ENDBRANCH   6  10
ENDBRANCH   3   5
ENDBRANCH   2   3
ENDBRANCH   1   2
BRANCH   1  13
ATOM     13  S11 ZIN A   1      17.977  -3.825  11.693  0.00  0.00    -0.161 SA
BRANCH  13  14
ATOM     14  C12 ZIN A   1      19.324  -2.746  12.248  0.00  0.00     0.133 C 
BRANCH  14  15
ATOM     15  C13 ZIN A   1      18.845  -1.317  12.274  0.00  0.00     0.051 A 
ATOM     16  N21 ZIN A   1      19.298  -0.398  11.446  0.00  0.00    -0.247 NA
ATOM     17  C16 ZIN A   1      18.810   0.790  11.560  0.00  0.00     0.103 A 
ATOM     18  S15 ZIN A   1      17.664   0.836  12.830  0.00  0.00    -0.083 SA
ATOM     19  C14 ZIN A   1      17.930  -0.877  13.144  0.00  0.00     0.079 A 
BRANCH  17  20
ATOM     20  C17 ZIN A   1      19.197   1.969  10.705  0.00  0.00     0.338 C 
BRANCH  20  21
ATOM     21  N18 ZIN A   1      18.604   3.193  11.261  0.00  0.00     0.086 N 
ATOM     22  C19 ZIN A   1      19.600   3.964  12.016  0.00  0.00     0.309 C 
ATOM     23  C20 ZIN A   1      17.995   4.011  10.204  0.00  0.00     0.309 C 
ENDBRANCH  20  21
ENDBRANCH  17  20
ENDBRANCH  14  15
ENDBRANCH  13  14
ENDBRANCH   1  13
TORSDOF 10
ENDMDL
MODEL 6
REMARK VINA RESULT:      -5.0      2.274      4.456
REMARK  10 active torsions:
REMARK  status: ('A' for Active; 'I' for Inactive)
REMARK    1  A    between atoms: N2_2  and  C3_3 
REMARK    2  A    between atoms: C3_3  and  N8_8 
REMARK    3  A    between atoms: C4_4  and  N5_5 
REMARK    4  A    between atoms: N8_8  and  C9_9 
REMARK    5  A    between atoms: C9_9  and  C10_10 
REMARK    6  A    between atoms: C10_10  and  S11_11 
REMARK    7  A    between atoms: S11_11  and  C12_12 
REMARK    8  A    between atoms: C12_12  and  C13_13 
REMARK    9  A    between atoms: C16_16  and  C17_17 
REMARK   10  A    between atoms: C17_17  and  N18_18 
ROOT
ATOM      1  C10 ZIN A   1      17.838   3.076  12.493  0.00  0.00     0.093 C 
ENDROOT
BRANCH   1   2
ATOM      2  C9  ZIN A   1      18.177   3.479  13.930  0.00  0.00     0.131 C 
BRANCH   2   3
ATOM      3  N8  ZIN A   1      17.644   2.477  14.856  0.00  0.00    -0.374 N 
ATOM      4  H27 ZIN A   1      16.686   2.397  14.985  0.00  0.00     0.161 HD
BRANCH   3   5
ATOM      5  C3  ZIN A   1      18.511   1.641  15.550  0.00  0.00     0.118 C 
ATOM      6  C4  ZIN A   1      18.198   1.227  16.775  0.00  0.00     0.215 C 
BRANCH   5   7
ATOM      7  N2  ZIN A   1      19.705   1.239  14.964  0.00  0.00    -0.380 N 
ATOM      8  C1  ZIN A   1      19.706   0.165  13.966  0.00  0.00     0.147 C 
ATOM      9  H25 ZIN A   1      20.537   1.668  15.215  0.00  0.00     0.160 HD
ENDBRANCH   5   7
BRANCH   6  10
ATOM     10  N5  ZIN A   1      19.176   0.445  17.565  0.00  0.00    -0.124 N 
ATOM     11  O6  ZIN A   1      19.909   1.011  18.357  0.00  0.00    -0.532 OA
ATOM     12  O7  ZIN A   1      19.249  -0.762  17.423  0.00  0.00    -0.532 OA
ENDBRANCH   6  10
ENDBRANCH   3   5
ENDBRANCH   2   3
ENDBRANCH   1   2
BRANCH   1  13
ATOM     13  S11 ZIN A   1      19.318   3.235  11.456  0.00  0.00    -0.161 SA
BRANCH  13  14
ATOM     14  C12 ZIN A   1      18.663   3.033   9.777  0.00  0.00     0.133 C 
BRANCH  14  15
ATOM     15  C13 ZIN A   1      18.901   1.620   9.311  0.00  0.00     0.051 A 
ATOM     16  N21 ZIN A   1      19.080   0.614  10.144  0.00  0.00    -0.247 NA
ATOM     17  C16 ZIN A   1      19.270  -0.552   9.628  0.00  0.00     0.103 A 
ATOM     18  S15 ZIN A   1      19.247  -0.451   7.921  0.00  0.00    -0.083 SA
ATOM     19  C14 ZIN A   1      18.954   1.284   8.018  0.00  0.00     0.079 A 
BRANCH  17  20
ATOM     20  C17 ZIN A   1      19.487  -1.820  10.414  0.00  0.00     0.338 C 
BRANCH  20  21
ATOM     21  N18 ZIN A   1      18.188  -2.396  10.782  0.00  0.00     0.086 N 
ATOM     22  C19 ZIN A   1      17.772  -3.419   9.812  0.00  0.00     0.309 C 
ATOM     23  C20 ZIN A   1      18.221  -2.945  12.143  0.00  0.00     0.309 C 
ENDBRANCH  20  21
ENDBRANCH  17  20
ENDBRANCH  14  15
ENDBRANCH  13  14
ENDBRANCH   1  13
TORSDOF 10
ENDMDL
MODEL 7
REMARK VINA RESULT:      -5.0      6.207      9.075
REMARK  10 active torsions:
REMARK  status: ('A' for Active; 'I' for Inactive)
REMARK    1  A    between atoms: N2_2  and  C3_3 
REMARK    2  A    between atoms: C3_3  and  N8_8 
REMARK    3  A    between atoms: C4_4  and  N5_5 
REMARK    4  A    between atoms: N8_8  and  C9_9 
REMARK    5  A    between atoms: C9_9  and  C10_10 
REMARK    6  A    between atoms: C10_10  and  S11_11 
REMARK    7  A    between atoms: S11_11  and  C12_12 
REMARK    8  A    between atoms: C12_12  and  C13_13 
REMARK    9  A    between atoms: C16_16  and  C17_17 
REMARK   10  A    between atoms: C17_17  and  N18_18 
ROOT
ATOM      1  C10 ZIN A   1      18.771   0.914  10.690  0.00  0.00     0.093 C 
ENDROOT
BRANCH   1   2
ATOM      2  C9  ZIN A   1      19.267   0.296   9.381  0.00  0.00     0.131 C 
BRANCH   2   3
ATOM      3  N8  ZIN A   1      18.168   0.259   8.412  0.00  0.00    -0.374 N 
ATOM      4  H27 ZIN A   1      17.317   0.669   8.629  0.00  0.00     0.161 HD
BRANCH   3   5
ATOM      5  C3  ZIN A   1      18.347  -0.363   7.182  0.00  0.00     0.118 C 
ATOM      6  C4  ZIN A   1      19.020   0.256   6.215  0.00  0.00     0.215 C 
BRANCH   5   7
ATOM      7  N2  ZIN A   1      17.823  -1.631   6.963  0.00  0.00    -0.380 N 
ATOM      8  C1  ZIN A   1      18.543  -2.814   7.441  0.00  0.00     0.147 C 
ATOM      9  H25 ZIN A   1      16.981  -1.733   6.493  0.00  0.00     0.160 HD
ENDBRANCH   5   7
BRANCH   6  10
ATOM     10  N5  ZIN A   1      19.099  -0.347   4.865  0.00  0.00    -0.124 N 
ATOM     11  O6  ZIN A   1      18.237  -0.104   4.039  0.00  0.00    -0.532 OA
ATOM     12  O7  ZIN A   1      20.024  -1.086   4.581  0.00  0.00    -0.532 OA
ENDBRANCH   6  10
ENDBRANCH   3   5
ENDBRANCH   2   3
ENDBRANCH   1   2
BRANCH   1  13
ATOM     13  S11 ZIN A   1      17.166   0.193  11.129  0.00  0.00    -0.161 SA
BRANCH  13  14
ATOM     14  C12 ZIN A   1      17.571  -0.885  12.529  0.00  0.00     0.133 C 
BRANCH  14  15
ATOM     15  C13 ZIN A   1      18.005  -2.234  12.016  0.00  0.00     0.051 A 
ATOM     16  N21 ZIN A   1      17.150  -3.153  11.612  0.00  0.00    -0.247 NA
ATOM     17  C16 ZIN A   1      17.641  -4.268  11.189  0.00  0.00     0.103 A 
ATOM     18  S15 ZIN A   1      19.348  -4.237  11.289  0.00  0.00    -0.083 SA
ATOM     19  C14 ZIN A   1      19.288  -2.599  11.937  0.00  0.00     0.079 A 
BRANCH  17  20
ATOM     20  C17 ZIN A   1      16.828  -5.433  10.684  0.00  0.00     0.338 C 
BRANCH  20  21
ATOM     21  N18 ZIN A   1      16.866  -5.457   9.216  0.00  0.00     0.086 N 
ATOM     22  C19 ZIN A   1      17.807  -6.475   8.730  0.00  0.00     0.309 C 
ATOM     23  C20 ZIN A   1      15.525  -5.670   8.657  0.00  0.00     0.309 C 
ENDBRANCH  20  21
ENDBRANCH  17  20
ENDBRANCH  14  15
ENDBRANCH  13  14
ENDBRANCH   1  13
TORSDOF 10
ENDMDL
MODEL 8
REMARK VINA RESULT:      -4.9      4.384      6.730
REMARK  10 active torsions:
REMARK  status: ('A' for Active; 'I' for Inactive)
REMARK    1  A    between atoms: N2_2  and  C3_3 
REMARK    2  A    between atoms: C3_3  and  N8_8 
REMARK    3  A    between atoms: C4_4  and  N5_5 
REMARK    4  A    between atoms: N8_8  and  C9_9 
REMARK    5  A    between atoms: C9_9  and  C10_10 
REMARK    6  A    between atoms: C10_10  and  S11_11 
REMARK    7  A    between atoms: S11_11  and  C12_12 
REMARK    8  A    between atoms: C12_12  and  C13_13 
REMARK    9  A    between atoms: C16_16  and  C17_17 
REMARK   10  A    between atoms: C17_17  and  N18_18 
ROOT
ATOM      1  C10 ZIN A   1      20.212  -0.030  11.528  0.00  0.00     0.093 C 
ENDROOT
BRANCH   1   2
ATOM      2  C9  ZIN A   1      19.892   1.177  12.412  0.00  0.00     0.131 C 
BRANCH   2   3
ATOM      3  N8  ZIN A   1      20.270   2.407  11.711  0.00  0.00    -0.374 N 
ATOM      4  H27 ZIN A   1      21.166   2.507  11.355  0.00  0.00     0.161 HD
BRANCH   3   5
ATOM      5  C3  ZIN A   1      19.343   3.432  11.558  0.00  0.00     0.118 C 
ATOM      6  C4  ZIN A   1      18.304   3.272  10.743  0.00  0.00     0.215 C 
BRANCH   5   7
ATOM      7  N2  ZIN A   1      19.503   4.623  12.255  0.00  0.00    -0.380 N 
ATOM      8  C1  ZIN A   1      19.240   4.669  13.696  0.00  0.00     0.147 C 
ATOM      9  H25 ZIN A   1      19.789   5.424  11.789  0.00  0.00     0.160 HD
ENDBRANCH   5   7
BRANCH   6  10
ATOM     10  N5  ZIN A   1      17.389   4.406  10.478  0.00  0.00    -0.124 N 
ATOM     11  O6  ZIN A   1      17.645   5.199   9.589  0.00  0.00    -0.532 OA
ATOM     12  O7  ZIN A   1      16.383   4.548  11.149  0.00  0.00    -0.532 OA
ENDBRANCH   6  10
ENDBRANCH   3   5
ENDBRANCH   2   3
ENDBRANCH   1   2
BRANCH   1  13
ATOM     13  S11 ZIN A   1      19.368  -1.497  12.181  0.00  0.00    -0.161 SA
BRANCH  13  14
ATOM     14  C12 ZIN A   1      17.719  -1.386  11.435  0.00  0.00     0.133 C 
BRANCH  14  15
ATOM     15  C13 ZIN A   1      17.853  -1.160   9.951  0.00  0.00     0.051 A 
ATOM     16  N21 ZIN A   1      18.548  -1.960   9.167  0.00  0.00    -0.247 NA
ATOM     17  C16 ZIN A   1      18.587  -1.667   7.912  0.00  0.00     0.103 A 
ATOM     18  S15 ZIN A   1      17.688  -0.243   7.611  0.00  0.00    -0.083 SA
ATOM     19  C14 ZIN A   1      17.282  -0.129   9.322  0.00  0.00     0.079 A 
BRANCH  17  20
ATOM     20  C17 ZIN A   1      19.322  -2.460   6.862  0.00  0.00     0.338 C 
BRANCH  20  21
ATOM     21  N18 ZIN A   1      18.493  -2.560   5.654  0.00  0.00     0.086 N 
ATOM     22  C19 ZIN A   1      19.100  -1.825   4.536  0.00  0.00     0.309 C 
ATOM     23  C20 ZIN A   1      18.253  -3.963   5.293  0.00  0.00     0.309 C 
ENDBRANCH  20  21
ENDBRANCH  17  20
ENDBRANCH  14  15
ENDBRANCH  13  14
ENDBRANCH   1  13
TORSDOF 10
ENDMDL
MODEL 9
REMARK VINA RESULT:      -4.8      5.712      7.915
REMARK  10 active torsions:
REMARK  status: ('A' for Active; 'I' for Inactive)
REMARK    1  A    between atoms: N2_2  and  C3_3 
REMARK    2  A    between atoms: C3_3  and  N8_8 
REMARK    3  A    between atoms: C4_4  and  N5_5 
REMARK    4  A    between atoms: N8_8  and  C9_9 
REMARK    5  A    between atoms: C9_9  and  C10_10 
REMARK    6  A    between atoms: C10_10  and  S11_11 
REMARK    7  A    between atoms: S11_11  and  C12_12 
REMARK    8  A    between atoms: C12_12  and  C13_13 
REMARK    9  A    between atoms: C16_16  and  C17_17 
REMARK   10  A    between atoms: C17_17  and  N18_18 
ROOT
ATOM      1  C10 ZIN A   1      18.144  -1.704  10.735  0.00  0.00     0.093 C 
ENDROOT
BRANCH   1   2
ATOM      2  C9  ZIN A   1      18.451  -2.866   9.788  0.00  0.00     0.131 C 
BRANCH   2   3
ATOM      3  N8  ZIN A   1      19.357  -2.406   8.732  0.00  0.00    -0.374 N 
ATOM      4  H27 ZIN A   1      20.261  -2.136   8.952  0.00  0.00     0.161 HD
BRANCH   3   5
ATOM      5  C3  ZIN A   1      18.918  -2.357   7.413  0.00  0.00     0.118 C 
ATOM      6  C4  ZIN A   1      19.637  -2.928   6.451  0.00  0.00     0.215 C 
BRANCH   5   7
ATOM      7  N2  ZIN A   1      17.729  -1.710   7.101  0.00  0.00    -0.380 N 
ATOM      8  C1  ZIN A   1      17.648  -0.249   7.175  0.00  0.00     0.147 C 
ATOM      9  H25 ZIN A   1      16.952  -2.225   6.835  0.00  0.00     0.160 HD
ENDBRANCH   5   7
BRANCH   6  10
ATOM     10  N5  ZIN A   1      19.241  -2.765   5.034  0.00  0.00    -0.124 N 
ATOM     11  O6  ZIN A   1      19.657  -1.817   4.392  0.00  0.00    -0.532 OA
ATOM     12  O7  ZIN A   1      18.500  -3.577   4.511  0.00  0.00    -0.532 OA
ENDBRANCH   6  10
ENDBRANCH   3   5
ENDBRANCH   2   3
ENDBRANCH   1   2
BRANCH   1  13
ATOM     13  S11 ZIN A   1      19.332  -1.711  12.106  0.00  0.00    -0.161 SA
BRANCH  13  14
ATOM     14  C12 ZIN A   1      20.203  -0.134  11.900  0.00  0.00     0.133 C 
BRANCH  14  15
ATOM     15  C13 ZIN A   1      19.639   0.881  12.861  0.00  0.00     0.051 A 
ATOM     16  N21 ZIN A   1      19.551   0.663  14.158  0.00  0.00    -0.247 NA
ATOM     17  C16 ZIN A   1      19.055   1.608  14.881  0.00  0.00     0.103 A 
ATOM     18  S15 ZIN A   1      18.620   2.937  13.897  0.00  0.00    -0.083 SA
ATOM     19  C14 ZIN A   1      19.182   2.074  12.468  0.00  0.00     0.079 A 
BRANCH  17  20
ATOM     20  C17 ZIN A   1      18.878   1.548  16.377  0.00  0.00     0.338 C 
BRANCH  20  21
ATOM     21  N18 ZIN A   1      18.714   0.150  16.795  0.00  0.00     0.086 N 
ATOM     22  C19 ZIN A   1      19.311  -0.077  18.118  0.00  0.00     0.309 C 
ATOM     23  C20 ZIN A   1      17.298  -0.241  16.783  0.00  0.00     0.309 C 
ENDBRANCH  20  21
ENDBRANCH  17  20
ENDBRANCH  14  15
ENDBRANCH  13  14
ENDBRANCH   1  13
TORSDOF 10
ENDMDL
