MODEL 1
REMARK VINA RESULT:      -8.9      0.000      0.000
REMARK  5 active torsions:
REMARK  status: ('A' for Active; 'I' for Inactive)
REMARK    1  A    between atoms: N1_1  and  C2_2 
REMARK    2  A    between atoms: C4_4  and  N5_5 
REMARK    3  A    between atoms: C7_7  and  C8_8 
REMARK    4  A    between atoms: C17_17  and  N18_18 
REMARK    5  A    between atoms: C20_20  and  O21_21 
ROOT
ATOM      1  N5  ZIN A   1      18.479  -2.133  11.644  0.00  0.00    -0.300 N 
ATOM      2  C6  ZIN A   1      18.384  -2.089  12.981  0.00  0.00     0.121 A 
ATOM      3  C7  ZIN A   1      18.498  -0.907  13.687  0.00  0.00     0.107 A 
ATOM      4  C11 ZIN A   1      18.735   0.345  12.947  0.00  0.00     0.203 A 
ATOM      5  O12 ZIN A   1      18.844   1.412  13.526  0.00  0.00    -0.286 OA
ATOM      6  C13 ZIN A   1      18.836   0.253  11.482  0.00  0.00     0.047 A 
ATOM      7  C14 ZIN A   1      19.060   1.391  10.702  0.00  0.00     0.062 A 
ATOM      8  C15 ZIN A   1      19.149   1.277   9.344  0.00  0.00     0.140 A 
ATOM      9  F16 ZIN A   1      19.366   2.377   8.590  0.00  0.00    -0.204 F 
ATOM     10  C17 ZIN A   1      19.017   0.029   8.731  0.00  0.00     0.074 A 
ATOM     11  C23 ZIN A   1      18.795  -1.108   9.490  0.00  0.00     0.086 A 
ATOM     12 Cl24 ZIN A   1      18.633  -2.654   8.717  0.00  0.00    -0.080 Cl
ATOM     13  C25 ZIN A   1      18.706  -1.009  10.874  0.00  0.00     0.078 A 
ENDROOT
BRANCH   1  14
ATOM     14  C4  ZIN A   1      18.352  -3.368  11.005  0.00  0.00     0.175 A 
ATOM     15  N3  ZIN A   1      17.161  -3.765  10.579  0.00  0.00    -0.207 NA
ATOM     16  C2  ZIN A   1      16.997  -4.928   9.968  0.00  0.00     0.162 A 
ATOM     17  C29 ZIN A   1      18.077  -5.780   9.758  0.00  0.00     0.164 A 
ATOM     18  C28 ZIN A   1      19.337  -5.393  10.186  0.00  0.00     0.092 A 
ATOM     19  F30 ZIN A   1      17.902  -6.965   9.134  0.00  0.00    -0.202 F 
ATOM     20  C26 ZIN A   1      19.474  -4.167  10.822  0.00  0.00     0.165 A 
ATOM     21  F27 ZIN A   1      20.684  -3.755  11.260  0.00  0.00    -0.202 F 
BRANCH  16  22
ATOM     22  N1  ZIN A   1      15.727  -5.305   9.538  0.00  0.00    -0.381 N 
ATOM     23  H31 ZIN A   1      15.619  -5.764   8.689  0.00  0.00     0.157 HD
ATOM     24  H32 ZIN A   1      14.951  -5.113  10.087  0.00  0.00     0.157 HD
ENDBRANCH  16  22
ENDBRANCH   1  14
BRANCH   3  25
ATOM     25  C8  ZIN A   1      18.387  -0.899  15.149  0.00  0.00     0.214 C 
ATOM     26  O9  ZIN A   1      17.391  -0.428  15.685  0.00  0.00    -0.644 OA
ATOM     27  O10 ZIN A   1      19.290  -1.361  15.834  0.00  0.00    -0.644 OA
ENDBRANCH   3  25
BRANCH  10  28
ATOM     28  N18 ZIN A   1      19.112  -0.073   7.343  0.00  0.00    -0.275 NA
ATOM     29  C22 ZIN A   1      17.804  -0.405   6.749  0.00  0.00     0.128 C 
ATOM     30  C20 ZIN A   1      18.118   0.604   5.634  0.00  0.00     0.145 C 
ATOM     31  C19 ZIN A   1      19.002   1.253   6.707  0.00  0.00     0.128 C 
BRANCH  30  32
ATOM     32  O21 ZIN A   1      18.844   0.052   4.533  0.00  0.00    -0.393 OA
ATOM     33  H38 ZIN A   1      19.058   0.694   3.842  0.00  0.00     0.210 HD
ENDBRANCH  30  32
ENDBRANCH  10  28
TORSDOF 5
ENDMDL
MODEL 2
REMARK VINA RESULT:      -8.9      2.439      3.235
REMARK  5 active torsions:
REMARK  status: ('A' for Active; 'I' for Inactive)
REMARK    1  A    between atoms: N1_1  and  C2_2 
REMARK    2  A    between atoms: C4_4  and  N5_5 
REMARK    3  A    between atoms: C7_7  and  C8_8 
REMARK    4  A    between atoms: C17_17  and  N18_18 
REMARK    5  A    between atoms: C20_20  and  O21_21 
ROOT
ATOM      1  N5  ZIN A   1      18.770   0.255  11.191  0.00  0.00    -0.300 N 
ATOM      2  C6  ZIN A   1      18.723   1.068  12.256  0.00  0.00     0.121 A 
ATOM      3  C7  ZIN A   1      18.709   2.444  12.130  0.00  0.00     0.107 A 
ATOM      4  C11 ZIN A   1      18.746   3.036  10.782  0.00  0.00     0.203 A 
ATOM      5  O12 ZIN A   1      18.736   4.244  10.620  0.00  0.00    -0.286 OA
ATOM      6  C13 ZIN A   1      18.799   2.110   9.639  0.00  0.00     0.047 A 
ATOM      7  C14 ZIN A   1      18.838   2.586   8.326  0.00  0.00     0.062 A 
ATOM      8  C15 ZIN A   1      18.887   1.703   7.285  0.00  0.00     0.140 A 
ATOM      9  F16 ZIN A   1      18.925   2.164   6.015  0.00  0.00    -0.204 F 
ATOM     10  C17 ZIN A   1      18.897   0.328   7.526  0.00  0.00     0.074 A 
ATOM     11  C23 ZIN A   1      18.860  -0.160   8.823  0.00  0.00     0.086 A 
ATOM     12 Cl24 ZIN A   1      18.873  -1.872   9.110  0.00  0.00    -0.080 Cl
ATOM     13  C25 ZIN A   1      18.814   0.726   9.893  0.00  0.00     0.078 A 
ENDROOT
BRANCH   1  14
ATOM     14  C4  ZIN A   1      18.782  -1.126  11.403  0.00  0.00     0.175 A 
ATOM     15  N3  ZIN A   1      19.936  -1.776  11.418  0.00  0.00    -0.207 NA
ATOM     16  C2  ZIN A   1      19.992  -3.083  11.617  0.00  0.00     0.162 A 
ATOM     17  C29 ZIN A   1      18.829  -3.823  11.812  0.00  0.00     0.164 A 
ATOM     18  C28 ZIN A   1      17.606  -3.173  11.808  0.00  0.00     0.092 A 
ATOM     19  F30 ZIN A   1      18.894  -5.157  12.014  0.00  0.00    -0.202 F 
ATOM     20  C26 ZIN A   1      17.584  -1.801  11.597  0.00  0.00     0.165 A 
ATOM     21  F27 ZIN A   1      16.410  -1.131  11.580  0.00  0.00    -0.202 F 
BRANCH  16  22
ATOM     22  N1  ZIN A   1      21.228  -3.726  11.623  0.00  0.00    -0.381 N 
ATOM     23  H31 ZIN A   1      21.371  -4.507  11.066  0.00  0.00     0.157 HD
ATOM     24  H32 ZIN A   1      21.947  -3.390  12.181  0.00  0.00     0.157 HD
ENDBRANCH  16  22
ENDBRANCH   1  14
BRANCH   3  25
ATOM     25  C8  ZIN A   1      18.656   3.300  13.319  0.00  0.00     0.214 C 
ATOM     26  O9  ZIN A   1      17.749   3.166  14.131  0.00  0.00    -0.644 OA
ATOM     27  O10 ZIN A   1      19.519   4.150  13.500  0.00  0.00    -0.644 OA
ENDBRANCH   3  25
BRANCH  10  28
ATOM     28  N18 ZIN A   1      18.948  -0.562   6.454  0.00  0.00    -0.275 NA
ATOM     29  C22 ZIN A   1      17.648  -0.629   5.762  0.00  0.00     0.128 C 
ATOM     30  C20 ZIN A   1      18.419  -0.640   4.434  0.00  0.00     0.145 C 
ATOM     31  C19 ZIN A   1      19.492   0.092   5.249  0.00  0.00     0.128 C 
BRANCH  30  32
ATOM     32  O21 ZIN A   1      18.807  -1.943   3.993  0.00  0.00    -0.393 OA
ATOM     33  H38 ZIN A   1      19.717  -1.994   3.669  0.00  0.00     0.210 HD
ENDBRANCH  30  32
ENDBRANCH  10  28
TORSDOF 5
ENDMDL
MODEL 3
REMARK VINA RESULT:      -8.8      1.999      2.622
REMARK  5 active torsions:
REMARK  status: ('A' for Active; 'I' for Inactive)
REMARK    1  A    between atoms: N1_1  and  C2_2 
REMARK    2  A    between atoms: C4_4  and  N5_5 
REMARK    3  A    between atoms: C7_7  and  C8_8 
REMARK    4  A    between atoms: C17_17  and  N18_18 
REMARK    5  A    between atoms: C20_20  and  O21_21 
ROOT
ATOM      1  N5  ZIN A   1      18.675  -0.182  11.052  0.00  0.00    -0.300 N 
ATOM      2  C6  ZIN A   1      18.502   0.606  12.124  0.00  0.00     0.121 A 
ATOM      3  C7  ZIN A   1      18.414   1.980  12.018  0.00  0.00     0.107 A 
ATOM      4  C11 ZIN A   1      18.514   2.601  10.686  0.00  0.00     0.203 A 
ATOM      5  O12 ZIN A   1      18.443   3.809  10.543  0.00  0.00    -0.286 OA
ATOM      6  C13 ZIN A   1      18.706   1.702   9.536  0.00  0.00     0.047 A 
ATOM      7  C14 ZIN A   1      18.812   2.206   8.237  0.00  0.00     0.062 A 
ATOM      8  C15 ZIN A   1      18.990   1.349   7.189  0.00  0.00     0.140 A 
ATOM      9  F16 ZIN A   1      19.093   1.836   5.933  0.00  0.00    -0.204 F 
ATOM     10  C17 ZIN A   1      19.066  -0.028   7.408  0.00  0.00     0.074 A 
ATOM     11  C23 ZIN A   1      18.963  -0.543   8.691  0.00  0.00     0.086 A 
ATOM     12 Cl24 ZIN A   1      19.058  -2.257   8.951  0.00  0.00    -0.080 Cl
ATOM     13  C25 ZIN A   1      18.785   0.317   9.769  0.00  0.00     0.078 A 
ENDROOT
BRANCH   1  14
ATOM     14  C4  ZIN A   1      18.754  -1.563  11.243  0.00  0.00     0.175 A 
ATOM     15  N3  ZIN A   1      17.645  -2.288  11.250  0.00  0.00    -0.207 NA
ATOM     16  C2  ZIN A   1      17.676  -3.599  11.427  0.00  0.00     0.162 A 
ATOM     17  C29 ZIN A   1      18.885  -4.263  11.619  0.00  0.00     0.164 A 
ATOM     18  C28 ZIN A   1      20.064  -3.535  11.612  0.00  0.00     0.092 A 
ATOM     19  F30 ZIN A   1      18.909  -5.601  11.800  0.00  0.00    -0.202 F 
ATOM     20  C26 ZIN A   1      19.995  -2.162  11.423  0.00  0.00     0.165 A 
ATOM     21  F27 ZIN A   1      21.122  -1.416  11.416  0.00  0.00    -0.202 F 
BRANCH  16  22
ATOM     22  N1  ZIN A   1      16.485  -4.322  11.428  0.00  0.00    -0.381 N 
ATOM     23  H31 ZIN A   1      16.095  -4.614  10.589  0.00  0.00     0.157 HD
ATOM     24  H32 ZIN A   1      16.048  -4.535  12.266  0.00  0.00     0.157 HD
ENDBRANCH  16  22
ENDBRANCH   1  14
BRANCH   3  25
ATOM     25  C8  ZIN A   1      18.223   2.808  13.214  0.00  0.00     0.214 C 
ATOM     26  O9  ZIN A   1      17.333   3.649  13.241  0.00  0.00    -0.644 OA
ATOM     27  O10 ZIN A   1      18.955   2.660  14.184  0.00  0.00    -0.644 OA
ENDBRANCH   3  25
BRANCH  10  28
ATOM     28  N18 ZIN A   1      19.248  -0.892   6.329  0.00  0.00    -0.275 NA
ATOM     29  C22 ZIN A   1      17.960  -1.219   5.691  0.00  0.00     0.128 C 
ATOM     30  C20 ZIN A   1      18.660  -1.077   4.332  0.00  0.00     0.145 C 
ATOM     31  C19 ZIN A   1      19.599  -0.144   5.107  0.00  0.00     0.128 C 
BRANCH  30  32
ATOM     32  O21 ZIN A   1      19.283  -2.278   3.867  0.00  0.00    -0.393 OA
ATOM     33  H38 ZIN A   1      19.156  -2.445   2.923  0.00  0.00     0.210 HD
ENDBRANCH  30  32
ENDBRANCH  10  28
TORSDOF 5
ENDMDL
MODEL 4
REMARK VINA RESULT:      -8.7      2.075      5.522
REMARK  5 active torsions:
REMARK  status: ('A' for Active; 'I' for Inactive)
REMARK    1  A    between atoms: N1_1  and  C2_2 
REMARK    2  A    between atoms: C4_4  and  N5_5 
REMARK    3  A    between atoms: C7_7  and  C8_8 
REMARK    4  A    between atoms: C17_17  and  N18_18 
REMARK    5  A    between atoms: C20_20  and  O21_21 
ROOT
ATOM      1  N5  ZIN A   1      18.594  -1.656   8.931  0.00  0.00    -0.300 N 
ATOM      2  C6  ZIN A   1      18.845  -1.970   7.652  0.00  0.00     0.121 A 
ATOM      3  C7  ZIN A   1      19.017  -1.006   6.678  0.00  0.00     0.107 A 
ATOM      4  C11 ZIN A   1      18.920   0.414   7.057  0.00  0.00     0.203 A 
ATOM      5  O12 ZIN A   1      19.063   1.301   6.233  0.00  0.00    -0.286 OA
ATOM      6  C13 ZIN A   1      18.641   0.718   8.470  0.00  0.00     0.047 A 
ATOM      7  C14 ZIN A   1      18.531   2.038   8.916  0.00  0.00     0.062 A 
ATOM      8  C15 ZIN A   1      18.271   2.291  10.233  0.00  0.00     0.140 A 
ATOM      9  F16 ZIN A   1      18.165   3.567  10.664  0.00  0.00    -0.204 F 
ATOM     10  C17 ZIN A   1      18.115   1.237  11.136  0.00  0.00     0.074 A 
ATOM     11  C23 ZIN A   1      18.220  -0.078  10.708  0.00  0.00     0.086 A 
ATOM     12 Cl24 ZIN A   1      18.023  -1.379  11.840  0.00  0.00    -0.080 Cl
ATOM     13  C25 ZIN A   1      18.480  -0.351   9.371  0.00  0.00     0.078 A 
ENDROOT
BRANCH   1  14
ATOM     14  C4  ZIN A   1      18.432  -2.690   9.856  0.00  0.00     0.175 A 
ATOM     15  N3  ZIN A   1      17.287  -3.354   9.902  0.00  0.00    -0.207 NA
ATOM     16  C2  ZIN A   1      17.093  -4.342  10.762  0.00  0.00     0.162 A 
ATOM     17  C29 ZIN A   1      18.093  -4.712  11.656  0.00  0.00     0.164 A 
ATOM     18  C28 ZIN A   1      19.305  -4.042  11.631  0.00  0.00     0.092 A 
ATOM     19  F30 ZIN A   1      17.888  -5.721  12.532  0.00  0.00    -0.202 F 
ATOM     20  C26 ZIN A   1      19.475  -3.012  10.716  0.00  0.00     0.165 A 
ATOM     21  F27 ZIN A   1      20.640  -2.330  10.663  0.00  0.00    -0.202 F 
BRANCH  16  22
ATOM     22  N1  ZIN A   1      15.871  -5.012  10.776  0.00  0.00    -0.381 N 
ATOM     23  H31 ZIN A   1      15.074  -4.573  10.440  0.00  0.00     0.157 HD
ATOM     24  H32 ZIN A   1      15.819  -5.918  11.117  0.00  0.00     0.157 HD
ENDBRANCH  16  22
ENDBRANCH   1  14
BRANCH   3  25
ATOM     25  C8  ZIN A   1      19.292  -1.390   5.290  0.00  0.00     0.214 C 
ATOM     26  O9  ZIN A   1      18.727  -2.359   4.799  0.00  0.00    -0.644 OA
ATOM     27  O10 ZIN A   1      20.088  -0.742   4.622  0.00  0.00    -0.644 OA
ENDBRANCH   3  25
BRANCH  10  28
ATOM     28  N18 ZIN A   1      17.849   1.509  12.477  0.00  0.00    -0.275 NA
ATOM     29  C22 ZIN A   1      19.098   1.602  13.254  0.00  0.00     0.128 C 
ATOM     30  C20 ZIN A   1      18.487   2.805  13.987  0.00  0.00     0.145 C 
ATOM     31  C19 ZIN A   1      17.670   2.956  12.697  0.00  0.00     0.128 C 
BRANCH  30  32
ATOM     32  O21 ZIN A   1      17.709   2.458  15.135  0.00  0.00    -0.393 OA
ATOM     33  H38 ZIN A   1      17.244   1.613  15.053  0.00  0.00     0.210 HD
ENDBRANCH  30  32
ENDBRANCH  10  28
TORSDOF 5
ENDMDL
MODEL 5
REMARK VINA RESULT:      -8.6      4.016      7.382
REMARK  5 active torsions:
REMARK  status: ('A' for Active; 'I' for Inactive)
REMARK    1  A    between atoms: N1_1  and  C2_2 
REMARK    2  A    between atoms: C4_4  and  N5_5 
REMARK    3  A    between atoms: C7_7  and  C8_8 
REMARK    4  A    between atoms: C17_17  and  N18_18 
REMARK    5  A    between atoms: C20_20  and  O21_21 
ROOT
ATOM      1  N5  ZIN A   1      18.406   2.243  12.047  0.00  0.00    -0.300 N 
ATOM      2  C6  ZIN A   1      18.091   3.125  11.087  0.00  0.00     0.121 A 
ATOM      3  C7  ZIN A   1      17.747   4.432  11.374  0.00  0.00     0.107 A 
ATOM      4  C11 ZIN A   1      17.725   4.870  12.780  0.00  0.00     0.203 A 
ATOM      5  O12 ZIN A   1      17.427   6.013  13.083  0.00  0.00    -0.286 OA
ATOM      6  C13 ZIN A   1      18.074   3.872  13.804  0.00  0.00     0.047 A 
ATOM      7  C14 ZIN A   1      18.077   4.201  15.161  0.00  0.00     0.062 A 
ATOM      8  C15 ZIN A   1      18.405   3.255  16.090  0.00  0.00     0.140 A 
ATOM      9  F16 ZIN A   1      18.408   3.574  17.403  0.00  0.00    -0.204 F 
ATOM     10  C17 ZIN A   1      18.738   1.959  15.689  0.00  0.00     0.074 A 
ATOM     11  C23 ZIN A   1      18.739   1.617  14.346  0.00  0.00     0.086 A 
ATOM     12 Cl24 ZIN A   1      19.155   0.003  13.859  0.00  0.00    -0.080 Cl
ATOM     13  C25 ZIN A   1      18.404   2.568  13.390  0.00  0.00     0.078 A 
ENDROOT
BRANCH   1  14
ATOM     14  C4  ZIN A   1      18.742   0.940  11.674  0.00  0.00     0.175 A 
ATOM     15  N3  ZIN A   1      20.008   0.636  11.426  0.00  0.00    -0.207 NA
ATOM     16  C2  ZIN A   1      20.370  -0.587  11.071  0.00  0.00     0.162 A 
ATOM     17  C29 ZIN A   1      19.423  -1.598  10.939  0.00  0.00     0.164 A 
ATOM     18  C28 ZIN A   1      18.091  -1.316  11.196  0.00  0.00     0.092 A 
ATOM     19  F30 ZIN A   1      19.799  -2.844  10.575  0.00  0.00    -0.202 F 
ATOM     20  C26 ZIN A   1      17.747  -0.023  11.567  0.00  0.00     0.165 A 
ATOM     21  F27 ZIN A   1      16.458   0.294  11.820  0.00  0.00    -0.202 F 
BRANCH  16  22
ATOM     22  N1  ZIN A   1      21.712  -0.861  10.819  0.00  0.00    -0.381 N 
ATOM     23  H31 ZIN A   1      21.960  -1.411  10.059  0.00  0.00     0.157 HD
ATOM     24  H32 ZIN A   1      22.399  -0.500  11.401  0.00  0.00     0.157 HD
ENDBRANCH  16  22
ENDBRANCH   1  14
BRANCH   3  25
ATOM     25  C8  ZIN A   1      17.410   5.368  10.296  0.00  0.00     0.214 C 
ATOM     26  O9  ZIN A   1      17.780   5.141   9.151  0.00  0.00    -0.644 OA
ATOM     27  O10 ZIN A   1      16.761   6.376  10.542  0.00  0.00    -0.644 OA
ENDBRANCH   3  25
BRANCH  10  28
ATOM     28  N18 ZIN A   1      19.071   1.003  16.647  0.00  0.00    -0.275 NA
ATOM     29  C22 ZIN A   1      19.224   1.619  17.978  0.00  0.00     0.128 C 
ATOM     30  C20 ZIN A   1      18.482   0.408  18.562  0.00  0.00     0.145 C 
ATOM     31  C19 ZIN A   1      17.864   0.327  17.160  0.00  0.00     0.128 C 
BRANCH  30  32
ATOM     32  O21 ZIN A   1      19.331  -0.695  18.891  0.00  0.00    -0.393 OA
ATOM     33  H38 ZIN A   1      20.246  -0.443  19.080  0.00  0.00     0.210 HD
ENDBRANCH  30  32
ENDBRANCH  10  28
TORSDOF 5
ENDMDL
MODEL 6
REMARK VINA RESULT:      -8.6      1.733      5.648
REMARK  5 active torsions:
REMARK  status: ('A' for Active; 'I' for Inactive)
REMARK    1  A    between atoms: N1_1  and  C2_2 
REMARK    2  A    between atoms: C4_4  and  N5_5 
REMARK    3  A    between atoms: C7_7  and  C8_8 
REMARK    4  A    between atoms: C17_17  and  N18_18 
REMARK    5  A    between atoms: C20_20  and  O21_21 
ROOT
ATOM      1  N5  ZIN A   1      18.343  -2.469   8.393  0.00  0.00    -0.300 N 
ATOM      2  C6  ZIN A   1      18.527  -2.153   7.102  0.00  0.00     0.121 A 
ATOM      3  C7  ZIN A   1      18.880  -0.879   6.702  0.00  0.00     0.107 A 
ATOM      4  C11 ZIN A   1      19.060   0.166   7.724  0.00  0.00     0.203 A 
ATOM      5  O12 ZIN A   1      19.370   1.305   7.419  0.00  0.00    -0.286 OA
ATOM      6  C13 ZIN A   1      18.846  -0.221   9.128  0.00  0.00     0.047 A 
ATOM      7  C14 ZIN A   1      18.995   0.707  10.162  0.00  0.00     0.062 A 
ATOM      8  C15 ZIN A   1      18.790   0.321  11.456  0.00  0.00     0.140 A 
ATOM      9  F16 ZIN A   1      18.934   1.218  12.457  0.00  0.00    -0.204 F 
ATOM     10  C17 ZIN A   1      18.435  -0.997  11.751  0.00  0.00     0.074 A 
ATOM     11  C23 ZIN A   1      18.284  -1.929  10.736  0.00  0.00     0.086 A 
ATOM     12 Cl24 ZIN A   1      17.841  -3.565  11.115  0.00  0.00    -0.080 Cl
ATOM     13  C25 ZIN A   1      18.484  -1.550   9.414  0.00  0.00     0.078 A 
ENDROOT
BRANCH   1  14
ATOM     14  C4  ZIN A   1      17.986  -3.780   8.716  0.00  0.00     0.175 A 
ATOM     15  N3  ZIN A   1      16.707  -4.126   8.730  0.00  0.00    -0.207 NA
ATOM     16  C2  ZIN A   1      16.326  -5.358   9.030  0.00  0.00     0.162 A 
ATOM     17  C29 ZIN A   1      17.266  -6.335   9.348  0.00  0.00     0.164 A 
ATOM     18  C28 ZIN A   1      18.612  -6.008   9.337  0.00  0.00     0.092 A 
ATOM     19  F30 ZIN A   1      16.870  -7.590   9.654  0.00  0.00    -0.202 F 
ATOM     20  C26 ZIN A   1      18.976  -4.707   9.017  0.00  0.00     0.165 A 
ATOM     21  F27 ZIN A   1      20.278  -4.347   9.001  0.00  0.00    -0.202 F 
BRANCH  16  22
ATOM     22  N1  ZIN A   1      14.970  -5.677   9.034  0.00  0.00    -0.381 N 
ATOM     23  H31 ZIN A   1      14.673  -6.526   9.398  0.00  0.00     0.157 HD
ATOM     24  H32 ZIN A   1      14.323  -5.049   8.678  0.00  0.00     0.157 HD
ENDBRANCH  16  22
ENDBRANCH   1  14
BRANCH   3  25
ATOM     25  C8  ZIN A   1      19.074  -0.572   5.281  0.00  0.00     0.214 C 
ATOM     26  O9  ZIN A   1      20.070  -0.979   4.696  0.00  0.00    -0.644 OA
ATOM     27  O10 ZIN A   1      18.239   0.092   4.679  0.00  0.00    -0.644 OA
ENDBRANCH   3  25
BRANCH  10  28
ATOM     28  N18 ZIN A   1      18.229  -1.378  13.076  0.00  0.00    -0.275 NA
ATOM     29  C22 ZIN A   1      19.499  -1.390  13.826  0.00  0.00     0.128 C 
ATOM     30  C20 ZIN A   1      18.745  -0.754  15.003  0.00  0.00     0.145 C 
ATOM     31  C19 ZIN A   1      17.818  -0.226  13.900  0.00  0.00     0.128 C 
BRANCH  30  32
ATOM     32  O21 ZIN A   1      18.129  -1.698  15.882  0.00  0.00    -0.393 OA
ATOM     33  H38 ZIN A   1      18.728  -2.064  16.547  0.00  0.00     0.210 HD
ENDBRANCH  30  32
ENDBRANCH  10  28
TORSDOF 5
ENDMDL
MODEL 7
REMARK VINA RESULT:      -8.3      2.529      5.578
REMARK  5 active torsions:
REMARK  status: ('A' for Active; 'I' for Inactive)
REMARK    1  A    between atoms: N1_1  and  C2_2 
REMARK    2  A    between atoms: C4_4  and  N5_5 
REMARK    3  A    between atoms: C7_7  and  C8_8 
REMARK    4  A    between atoms: C17_17  and  N18_18 
REMARK    5  A    between atoms: C20_20  and  O21_21 
ROOT
ATOM      1  N5  ZIN A   1      17.996   0.944   9.525  0.00  0.00    -0.300 N 
ATOM      2  C6  ZIN A   1      17.856   2.193   9.992  0.00  0.00     0.121 A 
ATOM      3  C7  ZIN A   1      17.718   2.462  11.340  0.00  0.00     0.107 A 
ATOM      4  C11 ZIN A   1      17.723   1.340  12.295  0.00  0.00     0.203 A 
ATOM      5  O12 ZIN A   1      17.603   1.528  13.493  0.00  0.00    -0.286 OA
ATOM      6  C13 ZIN A   1      17.876  -0.015  11.742  0.00  0.00     0.047 A 
ATOM      7  C14 ZIN A   1      17.890  -1.136  12.575  0.00  0.00     0.062 A 
ATOM      8  C15 ZIN A   1      18.034  -2.383  12.036  0.00  0.00     0.140 A 
ATOM      9  F16 ZIN A   1      18.048  -3.467  12.842  0.00  0.00    -0.204 F 
ATOM     10  C17 ZIN A   1      18.167  -2.542  10.654  0.00  0.00     0.074 A 
ATOM     11  C23 ZIN A   1      18.154  -1.439   9.814  0.00  0.00     0.086 A 
ATOM     12 Cl24 ZIN A   1      18.320  -1.650   8.099  0.00  0.00    -0.080 Cl
ATOM     13  C25 ZIN A   1      18.005  -0.165  10.349  0.00  0.00     0.078 A 
ENDROOT
BRANCH   1  14
ATOM     14  C4  ZIN A   1      18.131   0.756   8.147  0.00  0.00     0.175 A 
ATOM     15  N3  ZIN A   1      17.140   0.204   7.462  0.00  0.00    -0.207 NA
ATOM     16  C2  ZIN A   1      17.226   0.008   6.156  0.00  0.00     0.162 A 
ATOM     17  C29 ZIN A   1      18.373   0.374   5.456  0.00  0.00     0.164 A 
ATOM     18  C28 ZIN A   1      19.425   0.960   6.142  0.00  0.00     0.092 A 
ATOM     19  F30 ZIN A   1      18.454   0.172   4.123  0.00  0.00    -0.202 F 
ATOM     20  C26 ZIN A   1      19.301   1.150   7.511  0.00  0.00     0.165 A 
ATOM     21  F27 ZIN A   1      20.307   1.712   8.217  0.00  0.00    -0.202 F 
BRANCH  16  22
ATOM     22  N1  ZIN A   1      16.161  -0.577   5.476  0.00  0.00    -0.381 N 
ATOM     23  H31 ZIN A   1      16.208  -0.700   4.515  0.00  0.00     0.157 HD
ATOM     24  H32 ZIN A   1      15.373  -0.865   5.963  0.00  0.00     0.157 HD
ENDBRANCH  16  22
ENDBRANCH   1  14
BRANCH   3  25
ATOM     25  C8  ZIN A   1      17.569   3.843  11.812  0.00  0.00     0.214 C 
ATOM     26  O9  ZIN A   1      18.515   4.415  12.338  0.00  0.00    -0.644 OA
ATOM     27  O10 ZIN A   1      16.498   4.421  11.682  0.00  0.00    -0.644 OA
ENDBRANCH   3  25
BRANCH  10  28
ATOM     28  N18 ZIN A   1      18.312  -3.820  10.116  0.00  0.00    -0.275 NA
ATOM     29  C22 ZIN A   1      18.629  -4.803  11.169  0.00  0.00     0.128 C 
ATOM     30  C20 ZIN A   1      17.662  -5.773  10.475  0.00  0.00     0.145 C 
ATOM     31  C19 ZIN A   1      17.003  -4.483   9.969  0.00  0.00     0.128 C 
BRANCH  30  32
ATOM     32  O21 ZIN A   1      18.263  -6.565   9.448  0.00  0.00    -0.393 OA
ATOM     33  H38 ZIN A   1      17.955  -6.352   8.556  0.00  0.00     0.210 HD
ENDBRANCH  30  32
ENDBRANCH  10  28
TORSDOF 5
ENDMDL
MODEL 8
REMARK VINA RESULT:      -8.1      4.266      6.668
REMARK  5 active torsions:
REMARK  status: ('A' for Active; 'I' for Inactive)
REMARK    1  A    between atoms: N1_1  and  C2_2 
REMARK    2  A    between atoms: C4_4  and  N5_5 
REMARK    3  A    between atoms: C7_7  and  C8_8 
REMARK    4  A    between atoms: C17_17  and  N18_18 
REMARK    5  A    between atoms: C20_20  and  O21_21 
ROOT
ATOM      1  N5  ZIN A   1      18.012   2.799  14.407  0.00  0.00    -0.300 N 
ATOM      2  C6  ZIN A   1      17.377   3.960  14.623  0.00  0.00     0.121 A 
ATOM      3  C7  ZIN A   1      17.081   4.837  13.598  0.00  0.00     0.107 A 
ATOM      4  C11 ZIN A   1      17.477   4.486  12.223  0.00  0.00     0.203 A 
ATOM      5  O12 ZIN A   1      17.239   5.229  11.286  0.00  0.00    -0.286 OA
ATOM      6  C13 ZIN A   1      18.173   3.204  12.028  0.00  0.00     0.047 A 
ATOM      7  C14 ZIN A   1      18.584   2.793  10.757  0.00  0.00     0.062 A 
ATOM      8  C15 ZIN A   1      19.229   1.598  10.605  0.00  0.00     0.140 A 
ATOM      9  F16 ZIN A   1      19.627   1.201   9.377  0.00  0.00    -0.204 F 
ATOM     10  C17 ZIN A   1      19.478   0.786  11.714  0.00  0.00     0.074 A 
ATOM     11  C23 ZIN A   1      19.076   1.180  12.980  0.00  0.00     0.086 A 
ATOM     12 Cl24 ZIN A   1      19.392   0.161  14.350  0.00  0.00    -0.080 Cl
ATOM     13  C25 ZIN A   1      18.423   2.395  13.151  0.00  0.00     0.078 A 
ENDROOT
BRANCH   1  14
ATOM     14  C4  ZIN A   1      18.274   1.966  15.497  0.00  0.00     0.175 A 
ATOM     15  N3  ZIN A   1      17.561   0.862  15.665  0.00  0.00    -0.207 NA
ATOM     16  C2  ZIN A   1      17.777   0.046  16.684  0.00  0.00     0.162 A 
ATOM     17  C29 ZIN A   1      18.765   0.328  17.623  0.00  0.00     0.164 A 
ATOM     18  C28 ZIN A   1      19.533   1.471  17.475  0.00  0.00     0.092 A 
ATOM     19  F30 ZIN A   1      18.980  -0.510  18.661  0.00  0.00    -0.202 F 
ATOM     20  C26 ZIN A   1      19.279   2.305  16.394  0.00  0.00     0.165 A 
ATOM     21  F27 ZIN A   1      20.002   3.433  16.217  0.00  0.00    -0.202 F 
BRANCH  16  22
ATOM     22  N1  ZIN A   1      17.002  -1.104  16.821  0.00  0.00    -0.381 N 
ATOM     23  H31 ZIN A   1      16.991  -1.583  17.665  0.00  0.00     0.157 HD
ATOM     24  H32 ZIN A   1      16.471  -1.423  16.076  0.00  0.00     0.157 HD
ENDBRANCH  16  22
ENDBRANCH   1  14
BRANCH   3  25
ATOM     25  C8  ZIN A   1      16.385   6.098  13.874  0.00  0.00     0.214 C 
ATOM     26  O9  ZIN A   1      17.006   7.154  13.872  0.00  0.00    -0.644 OA
ATOM     27  O10 ZIN A   1      15.183   6.095  14.108  0.00  0.00    -0.644 OA
ENDBRANCH   3  25
BRANCH  10  28
ATOM     28  N18 ZIN A   1      20.137  -0.431  11.545  0.00  0.00    -0.275 NA
ATOM     29  C22 ZIN A   1      19.477  -1.501  12.316  0.00  0.00     0.128 C 
ATOM     30  C20 ZIN A   1      19.693  -2.426  11.110  0.00  0.00     0.145 C 
ATOM     31  C19 ZIN A   1      19.683  -1.112  10.318  0.00  0.00     0.128 C 
BRANCH  30  32
ATOM     32  O21 ZIN A   1      20.954  -3.101  11.108  0.00  0.00    -0.393 OA
ATOM     33  H38 ZIN A   1      20.999  -3.850  11.718  0.00  0.00     0.210 HD
ENDBRANCH  30  32
ENDBRANCH  10  28
TORSDOF 5
ENDMDL
MODEL 9
REMARK VINA RESULT:      -8.0      4.364      8.713
REMARK  5 active torsions:
REMARK  status: ('A' for Active; 'I' for Inactive)
REMARK    1  A    between atoms: N1_1  and  C2_2 
REMARK    2  A    between atoms: C4_4  and  N5_5 
REMARK    3  A    between atoms: C7_7  and  C8_8 
REMARK    4  A    between atoms: C17_17  and  N18_18 
REMARK    5  A    between atoms: C20_20  and  O21_21 
ROOT
ATOM      1  N5  ZIN A   1      18.191   2.519  12.086  0.00  0.00    -0.300 N 
ATOM      2  C6  ZIN A   1      18.324   2.414  10.755  0.00  0.00     0.121 A 
ATOM      3  C7  ZIN A   1      18.480   1.194  10.126  0.00  0.00     0.107 A 
ATOM      4  C11 ZIN A   1      18.503  -0.031  10.943  0.00  0.00     0.203 A 
ATOM      5  O12 ZIN A   1      18.639  -1.130  10.434  0.00  0.00    -0.286 OA
ATOM      6  C13 ZIN A   1      18.356   0.126  12.399  0.00  0.00     0.047 A 
ATOM      7  C14 ZIN A   1      18.367  -0.983  13.249  0.00  0.00     0.062 A 
ATOM      8  C15 ZIN A   1      18.229  -0.808  14.597  0.00  0.00     0.140 A 
ATOM      9  F16 ZIN A   1      18.239  -1.880  15.419  0.00  0.00    -0.204 F 
ATOM     10  C17 ZIN A   1      18.076   0.475  15.129  0.00  0.00     0.074 A 
ATOM     11  C23 ZIN A   1      18.064   1.585  14.299  0.00  0.00     0.086 A 
ATOM     12 Cl24 ZIN A   1      17.874   3.173  14.973  0.00  0.00    -0.080 Cl
ATOM     13  C25 ZIN A   1      18.207   1.422  12.926  0.00  0.00     0.078 A 
ENDROOT
BRANCH   1  14
ATOM     14  C4  ZIN A   1      18.038   3.789  12.645  0.00  0.00     0.175 A 
ATOM     15  N3  ZIN A   1      16.823   4.237  12.929  0.00  0.00    -0.207 NA
ATOM     16  C2  ZIN A   1      16.633   5.434  13.460  0.00  0.00     0.162 A 
ATOM     17  C29 ZIN A   1      17.713   6.270  13.733  0.00  0.00     0.164 A 
ATOM     18  C28 ZIN A   1      18.997   5.830  13.454  0.00  0.00     0.092 A 
ATOM     19  F30 ZIN A   1      17.512   7.491  14.275  0.00  0.00    -0.202 F 
ATOM     20  C26 ZIN A   1      19.159   4.569  12.898  0.00  0.00     0.165 A 
ATOM     21  F27 ZIN A   1      20.394   4.106  12.605  0.00  0.00    -0.202 F 
BRANCH  16  22
ATOM     22  N1  ZIN A   1      15.339   5.865  13.741  0.00  0.00    -0.381 N 
ATOM     23  H31 ZIN A   1      15.154   6.337  14.568  0.00  0.00     0.157 HD
ATOM     24  H32 ZIN A   1      14.623   5.696  13.109  0.00  0.00     0.157 HD
ENDBRANCH  16  22
ENDBRANCH   1  14
BRANCH   3  25
ATOM     25  C8  ZIN A   1      18.622   1.121   8.668  0.00  0.00     0.214 C 
ATOM     26  O9  ZIN A   1      17.735   0.615   7.992  0.00  0.00    -0.644 OA
ATOM     27  O10 ZIN A   1      19.627   1.564   8.128  0.00  0.00    -0.644 OA
ENDBRANCH   3  25
BRANCH  10  28
ATOM     28  N18 ZIN A   1      17.937   0.639  16.507  0.00  0.00    -0.275 NA
ATOM     29  C22 ZIN A   1      17.800  -0.664  17.183  0.00  0.00     0.128 C 
ATOM     30  C20 ZIN A   1      18.729  -0.127  18.282  0.00  0.00     0.145 C 
ATOM     31  C19 ZIN A   1      19.253   0.777  17.158  0.00  0.00     0.128 C 
BRANCH  30  32
ATOM     32  O21 ZIN A   1      18.053   0.573  19.329  0.00  0.00    -0.393 OA
ATOM     33  H38 ZIN A   1      18.407   0.397  20.212  0.00  0.00     0.210 HD
ENDBRANCH  30  32
ENDBRANCH  10  28
TORSDOF 5
ENDMDL
