MODEL 1
REMARK VINA RESULT:      -5.7      0.000      0.000
REMARK  3 active torsions:
REMARK  status: ('A' for Active; 'I' for Inactive)
REMARK    1  A    between atoms: C2_2  and  C4_4 
REMARK    2  A    between atoms: C8_8  and  C9_9 
REMARK    3  A    between atoms: C12_12  and  O13_13 
ROOT
ATOM      1  C4  <0> d   1      18.336   0.345  13.006  0.00  0.00    -0.021 A 
ATOM      2  C5  <0> d   1      17.273  -0.403  12.537  0.00  0.00     0.010 A 
ATOM      3  C6  <0> d   1      16.778  -0.181  11.265  0.00  0.00     0.001 A 
ATOM      4  C7  <0> d   1      17.345   0.789  10.460  0.00  0.00     0.010 A 
ATOM      5  C8  <0> d   1      18.408   1.539  10.924  0.00  0.00    -0.021 A 
ATOM      6  C12 <0> d   1      18.904   1.323  12.201  0.00  0.00     0.079 A 
ENDROOT
BRANCH   1   7
ATOM      7  C2  <0> d   1      18.875   0.104  14.393  0.00  0.00     0.013 C 
ATOM      8  C1  <0> d   1      17.740   0.237  15.411  0.00  0.00     0.015 C 
ATOM      9  C3  <0> d   1      19.468  -1.305  14.471  0.00  0.00     0.015 C 
ENDBRANCH   1   7
BRANCH   6  10
ATOM     10  O13 <0> d   1      19.949   2.059  12.660  0.00  0.00    -0.360 OA
ATOM     11  H31 <0> d   1      20.790   1.861  12.225  0.00  0.00     0.217 HD
ENDBRANCH   6  10
BRANCH   5  12
ATOM     12  C9  <0> d   1      19.026   2.597  10.045  0.00  0.00     0.013 C 
ATOM     13  C10 <0> d   1      19.164   2.057   8.620  0.00  0.00     0.015 C 
ATOM     14  C11 <0> d   1      18.133   3.838  10.036  0.00  0.00     0.015 C 
ENDBRANCH   5  12
TORSDOF 3
ENDMDL
MODEL 2
REMARK VINA RESULT:      -5.7      0.038      4.574
REMARK  3 active torsions:
REMARK  status: ('A' for Active; 'I' for Inactive)
REMARK    1  A    between atoms: C2_2  and  C4_4 
REMARK    2  A    between atoms: C8_8  and  C9_9 
REMARK    3  A    between atoms: C12_12  and  O13_13 
ROOT
ATOM      1  C4  <0> d   1      18.390   1.537  10.942  0.00  0.00    -0.021 A 
ATOM      2  C5  <0> d   1      17.338   0.779  10.465  0.00  0.00     0.010 A 
ATOM      3  C6  <0> d   1      16.773  -0.200  11.262  0.00  0.00     0.001 A 
ATOM      4  C7  <0> d   1      17.258  -0.421  12.537  0.00  0.00     0.010 A 
ATOM      5  C8  <0> d   1      18.309   0.334  13.018  0.00  0.00    -0.021 A 
ATOM      6  C12 <0> d   1      18.883   1.313  12.220  0.00  0.00     0.079 A 
ENDROOT
BRANCH   1   7
ATOM      7  C2  <0> d   1      19.006   2.603  10.072  0.00  0.00     0.013 C 
ATOM      8  C1  <0> d   1      19.149   2.075   8.643  0.00  0.00     0.015 C 
ATOM      9  C3  <0> d   1      18.109   3.842  10.072  0.00  0.00     0.015 C 
ENDBRANCH   1   7
BRANCH   6  10
ATOM     10  O13 <0> d   1      19.916   2.057  12.691  0.00  0.00    -0.360 OA
ATOM     11  H31 <0> d   1      19.828   2.309  13.621  0.00  0.00     0.217 HD
ENDBRANCH   6  10
BRANCH   5  12
ATOM     12  C9  <0> d   1      18.838   0.092  14.409  0.00  0.00     0.013 C 
ATOM     13  C10 <0> d   1      17.686   0.173  15.413  0.00  0.00     0.015 C 
ATOM     14  C11 <0> d   1      19.477  -1.296  14.477  0.00  0.00     0.015 C 
ENDBRANCH   5  12
TORSDOF 3
ENDMDL
MODEL 3
REMARK VINA RESULT:      -5.5      2.677      4.560
REMARK  3 active torsions:
REMARK  status: ('A' for Active; 'I' for Inactive)
REMARK    1  A    between atoms: C2_2  and  C4_4 
REMARK    2  A    between atoms: C8_8  and  C9_9 
REMARK    3  A    between atoms: C12_12  and  O13_13 
ROOT
ATOM      1  C4  <0> d   1      18.086   0.409   8.705  0.00  0.00    -0.021 A 
ATOM      2  C5  <0> d   1      17.395  -0.367   9.616  0.00  0.00     0.010 A 
ATOM      3  C6  <0> d   1      17.044   0.157  10.847  0.00  0.00     0.001 A 
ATOM      4  C7  <0> d   1      17.383   1.458  11.168  0.00  0.00     0.010 A 
ATOM      5  C8  <0> d   1      18.074   2.238  10.261  0.00  0.00    -0.021 A 
ATOM      6  C12 <0> d   1      18.432   1.713   9.027  0.00  0.00     0.079 A 
ENDROOT
BRANCH   1   7
ATOM      7  C2  <0> d   1      18.469  -0.164   7.365  0.00  0.00     0.013 C 
ATOM      8  C1  <0> d   1      18.905  -1.620   7.537  0.00  0.00     0.015 C 
ATOM      9  C3  <0> d   1      17.266  -0.099   6.421  0.00  0.00     0.015 C 
ENDBRANCH   1   7
BRANCH   6  10
ATOM     10  O13 <0> d   1      19.110   2.478   8.133  0.00  0.00    -0.360 OA
ATOM     11  H31 <0> d   1      18.599   2.707   7.344  0.00  0.00     0.217 HD
ENDBRANCH   6  10
BRANCH   5  12
ATOM     12  C9  <0> d   1      18.443   3.656  10.612  0.00  0.00     0.013 C 
ATOM     13  C10 <0> d   1      17.170   4.462  10.883  0.00  0.00     0.015 C 
ATOM     14  C11 <0> d   1      19.324   3.660  11.862  0.00  0.00     0.015 C 
ENDBRANCH   5  12
TORSDOF 3
ENDMDL
MODEL 4
REMARK VINA RESULT:      -5.5      3.038      5.693
REMARK  3 active torsions:
REMARK  status: ('A' for Active; 'I' for Inactive)
REMARK    1  A    between atoms: C2_2  and  C4_4 
REMARK    2  A    between atoms: C8_8  and  C9_9 
REMARK    3  A    between atoms: C12_12  and  O13_13 
ROOT
ATOM      1  C4  <0> d   1      18.315  -0.392   9.060  0.00  0.00    -0.021 A 
ATOM      2  C5  <0> d   1      17.481   0.294   9.922  0.00  0.00     0.010 A 
ATOM      3  C6  <0> d   1      17.057  -0.303  11.096  0.00  0.00     0.001 A 
ATOM      4  C7  <0> d   1      17.467  -1.586  11.409  0.00  0.00     0.010 A 
ATOM      5  C8  <0> d   1      18.299  -2.275  10.550  0.00  0.00    -0.021 A 
ATOM      6  C12 <0> d   1      18.723  -1.682   9.369  0.00  0.00     0.079 A 
ENDROOT
BRANCH   1   7
ATOM      7  C2  <0> d   1      18.776   0.258   7.781  0.00  0.00     0.013 C 
ATOM      8  C1  <0> d   1      17.668   0.160   6.731  0.00  0.00     0.015 C 
ATOM      9  C3  <0> d   1      19.101   1.730   8.045  0.00  0.00     0.015 C 
ENDBRANCH   1   7
BRANCH   6  10
ATOM     10  O13 <0> d   1      19.543  -2.358   8.524  0.00  0.00    -0.360 OA
ATOM     11  H31 <0> d   1      19.118  -2.630   7.698  0.00  0.00     0.217 HD
ENDBRANCH   6  10
BRANCH   5  12
ATOM     12  C9  <0> d   1      18.745  -3.674  10.892  0.00  0.00     0.013 C 
ATOM     13  C10 <0> d   1      20.048  -3.612  11.693  0.00  0.00     0.015 C 
ATOM     14  C11 <0> d   1      17.665  -4.363  11.727  0.00  0.00     0.015 C 
ENDBRANCH   5  12
TORSDOF 3
ENDMDL
MODEL 5
REMARK VINA RESULT:      -5.5      2.995      3.753
REMARK  3 active torsions:
REMARK  status: ('A' for Active; 'I' for Inactive)
REMARK    1  A    between atoms: C2_2  and  C4_4 
REMARK    2  A    between atoms: C8_8  and  C9_9 
REMARK    3  A    between atoms: C12_12  and  O13_13 
ROOT
ATOM      1  C4  <0> d   1      18.298  -2.235  10.548  0.00  0.00    -0.021 A 
ATOM      2  C5  <0> d   1      17.445  -1.557  11.397  0.00  0.00     0.010 A 
ATOM      3  C6  <0> d   1      17.046  -0.268  11.094  0.00  0.00     0.001 A 
ATOM      4  C7  <0> d   1      17.499   0.345   9.940  0.00  0.00     0.010 A 
ATOM      5  C8  <0> d   1      18.352  -0.329   9.089  0.00  0.00    -0.021 A 
ATOM      6  C12 <0> d   1      18.759  -1.620   9.392  0.00  0.00     0.079 A 
ENDROOT
BRANCH   1   7
ATOM      7  C2  <0> d   1      18.733  -3.639  10.879  0.00  0.00     0.013 C 
ATOM      8  C1  <0> d   1      20.023  -3.593  11.700  0.00  0.00     0.015 C 
ATOM      9  C3  <0> d   1      17.637  -4.335  11.690  0.00  0.00     0.015 C 
ENDBRANCH   1   7
BRANCH   6  10
ATOM     10  O13 <0> d   1      19.597  -2.285   8.556  0.00  0.00    -0.360 OA
ATOM     11  H31 <0> d   1      19.281  -3.162   8.298  0.00  0.00     0.217 HD
ENDBRANCH   6  10
BRANCH   5  12
ATOM     12  C9  <0> d   1      18.846   0.340   7.831  0.00  0.00     0.013 C 
ATOM     13  C10 <0> d   1      17.781   0.221   6.739  0.00  0.00     0.015 C 
ATOM     14  C11 <0> d   1      19.123   1.817   8.115  0.00  0.00     0.015 C 
ENDBRANCH   5  12
TORSDOF 3
ENDMDL
MODEL 6
REMARK VINA RESULT:      -5.3      2.720      5.722
REMARK  3 active torsions:
REMARK  status: ('A' for Active; 'I' for Inactive)
REMARK    1  A    between atoms: C2_2  and  C4_4 
REMARK    2  A    between atoms: C8_8  and  C9_9 
REMARK    3  A    between atoms: C12_12  and  O13_13 
ROOT
ATOM      1  C4  <0> d   1      19.010   0.442   7.629  0.00  0.00    -0.021 A 
ATOM      2  C5  <0> d   1      18.769   1.801   7.693  0.00  0.00     0.010 A 
ATOM      3  C6  <0> d   1      18.906   2.472   8.895  0.00  0.00     0.001 A 
ATOM      4  C7  <0> d   1      19.286   1.786  10.033  0.00  0.00     0.010 A 
ATOM      5  C8  <0> d   1      19.528   0.427   9.973  0.00  0.00    -0.021 A 
ATOM      6  C12 <0> d   1      19.385  -0.250   8.771  0.00  0.00     0.079 A 
ENDROOT
BRANCH   1   7
ATOM      7  C2  <0> d   1      18.859  -0.289   6.320  0.00  0.00     0.013 C 
ATOM      8  C1  <0> d   1      17.373  -0.510   6.028  0.00  0.00     0.015 C 
ATOM      9  C3  <0> d   1      19.482   0.543   5.196  0.00  0.00     0.015 C 
ENDBRANCH   1   7
BRANCH   6  10
ATOM     10  O13 <0> d   1      19.623  -1.586   8.710  0.00  0.00    -0.360 OA
ATOM     11  H31 <0> d   1      18.840  -2.133   8.865  0.00  0.00     0.217 HD
ENDBRANCH   6  10
BRANCH   5  12
ATOM     12  C9  <0> d   1      19.941  -0.321  11.215  0.00  0.00     0.013 C 
ATOM     13  C10 <0> d   1      20.742   0.611  12.128  0.00  0.00     0.015 C 
ATOM     14  C11 <0> d   1      18.695  -0.811  11.954  0.00  0.00     0.015 C 
ENDBRANCH   5  12
TORSDOF 3
ENDMDL
MODEL 7
REMARK VINA RESULT:      -5.3      2.637      4.799
REMARK  3 active torsions:
REMARK  status: ('A' for Active; 'I' for Inactive)
REMARK    1  A    between atoms: C2_2  and  C4_4 
REMARK    2  A    between atoms: C8_8  and  C9_9 
REMARK    3  A    between atoms: C12_12  and  O13_13 
ROOT
ATOM      1  C4  <0> d   1      18.433   3.109  10.857  0.00  0.00    -0.021 A 
ATOM      2  C5  <0> d   1      17.486   3.982  10.357  0.00  0.00     0.010 A 
ATOM      3  C6  <0> d   1      17.077   5.067  11.112  0.00  0.00     0.001 A 
ATOM      4  C7  <0> d   1      17.616   5.280  12.368  0.00  0.00     0.010 A 
ATOM      5  C8  <0> d   1      18.563   4.410  12.871  0.00  0.00    -0.021 A 
ATOM      6  C12 <0> d   1      18.971   3.317  12.119  0.00  0.00     0.079 A 
ENDROOT
BRANCH   1   7
ATOM      7  C2  <0> d   1      18.877   1.927  10.034  0.00  0.00     0.013 C 
ATOM      8  C1  <0> d   1      17.818   0.825  10.112  0.00  0.00     0.015 C 
ATOM      9  C3  <0> d   1      19.058   2.359   8.577  0.00  0.00     0.015 C 
ENDBRANCH   1   7
BRANCH   6  10
ATOM     10  O13 <0> d   1      19.902   2.461  12.612  0.00  0.00    -0.360 OA
ATOM     11  H31 <0> d   1      19.541   1.611  12.900  0.00  0.00     0.217 HD
ENDBRANCH   6  10
BRANCH   5  12
ATOM     12  C9  <0> d   1      19.149   4.643  14.240  0.00  0.00     0.013 C 
ATOM     13  C10 <0> d   1      20.094   5.846  14.192  0.00  0.00     0.015 C 
ATOM     14  C11 <0> d   1      18.023   4.918  15.237  0.00  0.00     0.015 C 
ENDBRANCH   5  12
TORSDOF 3
ENDMDL
MODEL 8
REMARK VINA RESULT:      -5.3      2.582      3.874
REMARK  3 active torsions:
REMARK  status: ('A' for Active; 'I' for Inactive)
REMARK    1  A    between atoms: C2_2  and  C4_4 
REMARK    2  A    between atoms: C8_8  and  C9_9 
REMARK    3  A    between atoms: C12_12  and  O13_13 
ROOT
ATOM      1  C4  <0> d   1      18.681   4.209  12.596  0.00  0.00    -0.021 A 
ATOM      2  C5  <0> d   1      17.816   5.102  11.994  0.00  0.00     0.010 A 
ATOM      3  C6  <0> d   1      17.383   4.880  10.699  0.00  0.00     0.001 A 
ATOM      4  C7  <0> d   1      17.813   3.764  10.006  0.00  0.00     0.010 A 
ATOM      5  C8  <0> d   1      18.678   2.869  10.604  0.00  0.00    -0.021 A 
ATOM      6  C12 <0> d   1      19.119   3.091  11.900  0.00  0.00     0.079 A 
ENDROOT
BRANCH   1   7
ATOM      7  C2  <0> d   1      19.153   4.452  14.006  0.00  0.00     0.013 C 
ATOM      8  C1  <0> d   1      20.044   5.695  14.039  0.00  0.00     0.015 C 
ATOM      9  C3  <0> d   1      17.944   4.666  14.919  0.00  0.00     0.015 C 
ENDBRANCH   1   7
BRANCH   6  10
ATOM     10  O13 <0> d   1      19.969   2.212  12.491  0.00  0.00    -0.360 OA
ATOM     11  H31 <0> d   1      20.751   2.004  11.961  0.00  0.00     0.217 HD
ENDBRANCH   6  10
BRANCH   5  12
ATOM     12  C9  <0> d   1      19.148   1.652   9.847  0.00  0.00     0.013 C 
ATOM     13  C10 <0> d   1      18.151   0.509  10.051  0.00  0.00     0.015 C 
ATOM     14  C11 <0> d   1      19.244   1.984   8.357  0.00  0.00     0.015 C 
ENDBRANCH   5  12
TORSDOF 3
ENDMDL
MODEL 9
REMARK VINA RESULT:      -5.3      2.355      2.816
REMARK  3 active torsions:
REMARK  status: ('A' for Active; 'I' for Inactive)
REMARK    1  A    between atoms: C2_2  and  C4_4 
REMARK    2  A    between atoms: C8_8  and  C9_9 
REMARK    3  A    between atoms: C12_12  and  O13_13 
ROOT
ATOM      1  C4  <0> d   1      18.903  -1.410  10.874  0.00  0.00    -0.021 A 
ATOM      2  C5  <0> d   1      17.609  -1.347  11.356  0.00  0.00     0.010 A 
ATOM      3  C6  <0> d   1      16.847  -0.211  11.147  0.00  0.00     0.001 A 
ATOM      4  C7  <0> d   1      17.378   0.862  10.456  0.00  0.00     0.010 A 
ATOM      5  C8  <0> d   1      18.671   0.804   9.973  0.00  0.00    -0.021 A 
ATOM      6  C12 <0> d   1      19.440  -0.332  10.185  0.00  0.00     0.079 A 
ENDROOT
BRANCH   1   7
ATOM      7  C2  <0> d   1      19.733  -2.647  11.103  0.00  0.00     0.013 C 
ATOM      8  C1  <0> d   1      19.618  -3.075  12.568  0.00  0.00     0.015 C 
ATOM      9  C3  <0> d   1      19.226  -3.775  10.201  0.00  0.00     0.015 C 
ENDBRANCH   1   7
BRANCH   6  10
ATOM     10  O13 <0> d   1      20.711  -0.392   9.711  0.00  0.00    -0.360 OA
ATOM     11  H31 <0> d   1      20.830  -1.021   8.986  0.00  0.00     0.217 HD
ENDBRANCH   6  10
BRANCH   5  12
ATOM     12  C9  <0> d   1      19.249   1.975   9.220  0.00  0.00     0.013 C 
ATOM     13  C10 <0> d   1      19.100   1.737   7.716  0.00  0.00     0.015 C 
ATOM     14  C11 <0> d   1      18.502   3.251   9.611  0.00  0.00     0.015 C 
ENDBRANCH   5  12
TORSDOF 3
ENDMDL
