MODEL 1
REMARK VINA RESULT:      -7.4      0.000      0.000
REMARK  2 active torsions:
REMARK  status: ('A' for Active; 'I' for Inactive)
REMARK    1  A    between atoms: O2_2  and  C3_3 
REMARK    2  A    between atoms: C14_12  and  O16_13 
ROOT
ATOM      1  C3  ZIN A   1      19.512   3.471  11.683  0.00  0.00     0.102 A 
ATOM      2  C4  ZIN A   1      18.305   3.760  11.048  0.00  0.00     0.040 A 
ATOM      3  C5  ZIN A   1      17.458   2.786  10.545  0.00  0.00     0.011 A 
ATOM      4  C6  ZIN A   1      17.797   1.448  10.648  0.00  0.00    -0.046 A 
ATOM      5  C7  ZIN A   1      16.924   0.309  10.231  0.00  0.00     0.072 C 
ATOM      6  C8  ZIN A   1      17.572  -1.051  10.426  0.00  0.00     0.197 C 
ATOM      7  C10 ZIN A   1      18.513  -1.144  11.625  0.00  0.00     0.033 C 
ATOM      8  C12 ZIN A   1      17.795  -0.789  12.923  0.00  0.00     0.010 C 
ATOM      9  C13 ZIN A   1      18.805  -0.904  14.065  0.00  0.00     0.035 C 
ATOM     10  C14 ZIN A   1      19.935   0.089  13.909  0.00  0.00     0.148 C 
ATOM     11  C17 ZIN A   1      20.605   0.106  12.549  0.00  0.00     0.171 C 
ATOM     12  O19 ZIN A   1      20.974   1.500  12.284  0.00  0.00    -0.339 OA
ATOM     13  C20 ZIN A   1      19.867   2.123  11.789  0.00  0.00     0.110 A 
ATOM     14  C21 ZIN A   1      19.011   1.181  11.234  0.00  0.00    -0.004 A 
ATOM     15  C22 ZIN A   1      19.658  -0.174  11.397  0.00  0.00     0.026 C 
ATOM     16  C23 ZIN A   1      20.406  -0.529  10.111  0.00  0.00     0.045 C 
ATOM     17  C24 ZIN A   1      19.404  -0.483   8.950  0.00  0.00     0.236 C 
ATOM     18  N25 ZIN A   1      18.319  -1.436   9.221  0.00  0.00    -0.070 N 
ATOM     19  H26 ZIN A   1      17.668  -1.425   8.451  0.00  0.00     0.279 HD
ATOM     20  C27 ZIN A   1      18.885  -2.786   9.355  0.00  0.00     0.270 C 
ENDROOT
BRANCH   1  21
ATOM     21  O2  ZIN A   1      20.309   4.457  12.174  0.00  0.00    -0.353 OA
ATOM     22  C1  ZIN A   1      19.835   5.166  13.320  0.00  0.00     0.210 C 
ENDBRANCH   1  21
BRANCH  10  23
ATOM     23  O16 ZIN A   1      19.422   1.397  14.169  0.00  0.00    -0.393 OA
ATOM     24  H39 ZIN A   1      19.357   1.957  13.384  0.00  0.00     0.210 HD
ENDBRANCH  10  23
TORSDOF 2
ENDMDL
MODEL 2
REMARK VINA RESULT:      -7.0      3.046      4.855
REMARK  2 active torsions:
REMARK  status: ('A' for Active; 'I' for Inactive)
REMARK    1  A    between atoms: O2_2  and  C3_3 
REMARK    2  A    between atoms: C14_12  and  O16_13 
ROOT
ATOM      1  C3  ZIN A   1      18.239   0.065   7.257  0.00  0.00     0.102 A 
ATOM      2  C4  ZIN A   1      18.949   1.265   7.241  0.00  0.00     0.040 A 
ATOM      3  C5  ZIN A   1      19.443   1.872   8.383  0.00  0.00     0.011 A 
ATOM      4  C6  ZIN A   1      19.231   1.298   9.624  0.00  0.00    -0.046 A 
ATOM      5  C7  ZIN A   1      19.794   1.808  10.911  0.00  0.00     0.072 C 
ATOM      6  C8  ZIN A   1      19.363   0.997  12.122  0.00  0.00     0.197 C 
ATOM      7  C10 ZIN A   1      19.163  -0.492  11.855  0.00  0.00     0.033 C 
ATOM      8  C12 ZIN A   1      20.433  -1.134  11.305  0.00  0.00     0.010 C 
ATOM      9  C13 ZIN A   1      20.145  -2.615  11.064  0.00  0.00     0.035 C 
ATOM     10  C14 ZIN A   1      19.073  -2.810  10.016  0.00  0.00     0.148 C 
ATOM     11  C17 ZIN A   1      17.805  -2.004  10.223  0.00  0.00     0.171 C 
ATOM     12  O19 ZIN A   1      17.324  -1.634   8.889  0.00  0.00    -0.339 OA
ATOM     13  C20 ZIN A   1      18.013  -0.522   8.507  0.00  0.00     0.110 A 
ATOM     14  C21 ZIN A   1      18.488   0.142   9.630  0.00  0.00    -0.004 A 
ATOM     15  C22 ZIN A   1      18.041  -0.640  10.843  0.00  0.00     0.026 C 
ATOM     16  C23 ZIN A   1      16.751  -0.025  11.387  0.00  0.00     0.045 C 
ATOM     17  C24 ZIN A   1      17.024   1.453  11.698  0.00  0.00     0.236 C 
ATOM     18  N25 ZIN A   1      18.115   1.539  12.678  0.00  0.00    -0.070 N 
ATOM     19  H26 ZIN A   1      18.284   2.507  12.902  0.00  0.00     0.279 HD
ATOM     20  C27 ZIN A   1      17.723   0.823  13.900  0.00  0.00     0.270 C 
ENDROOT
BRANCH   1  21
ATOM     21  O2  ZIN A   1      17.781  -0.504   6.111  0.00  0.00    -0.353 OA
ATOM     22  C1  ZIN A   1      18.490  -0.202   4.907  0.00  0.00     0.210 C 
ENDBRANCH   1  21
BRANCH  10  23
ATOM     23  O16 ZIN A   1      19.620  -2.459   8.744  0.00  0.00    -0.393 OA
ATOM     24  H39 ZIN A   1      19.259  -2.970   8.007  0.00  0.00     0.210 HD
ENDBRANCH  10  23
TORSDOF 2
ENDMDL
MODEL 3
REMARK VINA RESULT:      -6.9      1.756      4.095
REMARK  2 active torsions:
REMARK  status: ('A' for Active; 'I' for Inactive)
REMARK    1  A    between atoms: O2_2  and  C3_3 
REMARK    2  A    between atoms: C14_12  and  O16_13 
ROOT
ATOM      1  C3  ZIN A   1      18.370   0.122  15.718  0.00  0.00     0.102 A 
ATOM      2  C4  ZIN A   1      19.144  -1.037  15.705  0.00  0.00     0.040 A 
ATOM      3  C5  ZIN A   1      19.634  -1.612  14.544  0.00  0.00     0.011 A 
ATOM      4  C6  ZIN A   1      19.352  -1.045  13.314  0.00  0.00    -0.046 A 
ATOM      5  C7  ZIN A   1      19.901  -1.518  12.007  0.00  0.00     0.072 C 
ATOM      6  C8  ZIN A   1      19.388  -0.727  10.815  0.00  0.00     0.197 C 
ATOM      7  C10 ZIN A   1      19.116   0.748  11.097  0.00  0.00     0.033 C 
ATOM      8  C12 ZIN A   1      20.367   1.456  11.610  0.00  0.00     0.010 C 
ATOM      9  C13 ZIN A   1      20.007   2.918  11.869  0.00  0.00     0.035 C 
ATOM     10  C14 ZIN A   1      18.960   3.050  12.951  0.00  0.00     0.148 C 
ATOM     11  C17 ZIN A   1      17.732   2.178  12.780  0.00  0.00     0.171 C 
ATOM     12  O19 ZIN A   1      17.314   1.776  14.126  0.00  0.00    -0.339 OA
ATOM     13  C20 ZIN A   1      18.074   0.702  14.480  0.00  0.00     0.110 A 
ATOM     14  C21 ZIN A   1      18.548   0.069  13.338  0.00  0.00    -0.004 A 
ATOM     15  C22 ZIN A   1      18.021   0.831  12.145  0.00  0.00     0.026 C 
ATOM     16  C23 ZIN A   1      16.750   0.149  11.637  0.00  0.00     0.045 C 
ATOM     17  C24 ZIN A   1      17.092  -1.310  11.309  0.00  0.00     0.236 C 
ATOM     18  N25 ZIN A   1      18.155  -1.333  10.295  0.00  0.00    -0.070 N 
ATOM     19  H26 ZIN A   1      18.369  -2.290  10.060  0.00  0.00     0.279 HD
ATOM     20  C27 ZIN A   1      17.686  -0.634   9.090  0.00  0.00     0.270 C 
ENDROOT
BRANCH   1  21
ATOM     21  O2  ZIN A   1      17.919   0.661  16.881  0.00  0.00    -0.353 OA
ATOM     22  C1  ZIN A   1      18.892   0.931  17.893  0.00  0.00     0.210 C 
ENDBRANCH   1  21
BRANCH  10  23
ATOM     23  O16 ZIN A   1      19.565   2.724  14.204  0.00  0.00    -0.393 OA
ATOM     24  H39 ZIN A   1      20.407   3.173  14.361  0.00  0.00     0.210 HD
ENDBRANCH  10  23
TORSDOF 2
ENDMDL
MODEL 4
REMARK VINA RESULT:      -6.9      2.121      3.761
REMARK  2 active torsions:
REMARK  status: ('A' for Active; 'I' for Inactive)
REMARK    1  A    between atoms: O2_2  and  C3_3 
REMARK    2  A    between atoms: C14_12  and  O16_13 
ROOT
ATOM      1  C3  ZIN A   1      17.726   2.999  11.430  0.00  0.00     0.102 A 
ATOM      2  C4  ZIN A   1      18.888   3.318  12.131  0.00  0.00     0.040 A 
ATOM      3  C5  ZIN A   1      19.916   2.415  12.351  0.00  0.00     0.011 A 
ATOM      4  C6  ZIN A   1      19.817   1.119  11.878  0.00  0.00    -0.046 A 
ATOM      5  C7  ZIN A   1      20.895   0.089  11.970  0.00  0.00     0.072 C 
ATOM      6  C8  ZIN A   1      20.492  -1.260  11.399  0.00  0.00     0.197 C 
ATOM      7  C10 ZIN A   1      19.533  -1.191  10.214  0.00  0.00     0.033 C 
ATOM      8  C12 ZIN A   1      20.120  -0.369   9.071  0.00  0.00     0.010 C 
ATOM      9  C13 ZIN A   1      19.099  -0.348   7.934  0.00  0.00     0.035 C 
ATOM     10  C14 ZIN A   1      17.818   0.339   8.349  0.00  0.00     0.148 C 
ATOM     11  C17 ZIN A   1      17.215  -0.140   9.655  0.00  0.00     0.171 C 
ATOM     12  O19 ZIN A   1      16.615   1.035  10.293  0.00  0.00    -0.339 OA
ATOM     13  C20 ZIN A   1      17.613   1.690  10.951  0.00  0.00     0.110 A 
ATOM     14  C21 ZIN A   1      18.646   0.805  11.230  0.00  0.00    -0.004 A 
ATOM     15  C22 ZIN A   1      18.244  -0.547  10.692  0.00  0.00     0.026 C 
ATOM     16  C23 ZIN A   1      17.627  -1.372  11.822  0.00  0.00     0.045 C 
ATOM     17  C24 ZIN A   1      18.653  -1.464  12.958  0.00  0.00     0.236 C 
ATOM     18  N25 ZIN A   1      19.878  -2.091  12.444  0.00  0.00    -0.070 N 
ATOM     19  H26 ZIN A   1      20.549  -2.173  13.191  0.00  0.00     0.279 HD
ATOM     20  C27 ZIN A   1      19.556  -3.432  11.935  0.00  0.00     0.270 C 
ENDROOT
BRANCH   1  21
ATOM     21  O2  ZIN A   1      16.746   3.919  11.226  0.00  0.00    -0.353 OA
ATOM     22  C1  ZIN A   1      17.099   5.092  10.490  0.00  0.00     0.210 C 
ENDBRANCH   1  21
BRANCH  10  23
ATOM     23  O16 ZIN A   1      18.078   1.739   8.467  0.00  0.00    -0.393 OA
ATOM     24  H39 ZIN A   1      19.015   1.958   8.560  0.00  0.00     0.210 HD
ENDBRANCH  10  23
TORSDOF 2
ENDMDL
MODEL 5
REMARK VINA RESULT:      -6.8      3.103      6.011
REMARK  2 active torsions:
REMARK  status: ('A' for Active; 'I' for Inactive)
REMARK    1  A    between atoms: O2_2  and  C3_3 
REMARK    2  A    between atoms: C14_12  and  O16_13 
ROOT
ATOM      1  C3  ZIN A   1      18.610  -4.420   9.824  0.00  0.00     0.102 A 
ATOM      2  C4  ZIN A   1      17.787  -4.525  10.944  0.00  0.00     0.040 A 
ATOM      3  C5  ZIN A   1      17.349  -3.430  11.671  0.00  0.00     0.011 A 
ATOM      4  C6  ZIN A   1      17.737  -2.153  11.307  0.00  0.00    -0.046 A 
ATOM      5  C7  ZIN A   1      17.255  -0.895  11.954  0.00  0.00     0.072 C 
ATOM      6  C8  ZIN A   1      17.880   0.362  11.371  0.00  0.00     0.197 C 
ATOM      7  C10 ZIN A   1      18.199   0.284   9.880  0.00  0.00     0.033 C 
ATOM      8  C12 ZIN A   1      16.950  -0.027   9.061  0.00  0.00     0.010 C 
ATOM      9  C13 ZIN A   1      17.357  -0.091   7.589  0.00  0.00     0.035 C 
ATOM     10  C14 ZIN A   1      18.336  -1.213   7.331  0.00  0.00     0.148 C 
ATOM     11  C17 ZIN A   1      19.532  -1.262   8.261  0.00  0.00     0.171 C 
ATOM     12  O19 ZIN A   1      19.842  -2.680   8.468  0.00  0.00    -0.339 OA
ATOM     13  C20 ZIN A   1      19.013  -3.134   9.449  0.00  0.00     0.110 A 
ATOM     14  C21 ZIN A   1      18.587  -2.068  10.231  0.00  0.00    -0.004 A 
ATOM     15  C22 ZIN A   1      19.225  -0.816   9.677  0.00  0.00     0.026 C 
ATOM     16  C23 ZIN A   1      20.495  -0.509  10.472  0.00  0.00     0.045 C 
ATOM     17  C24 ZIN A   1      20.110  -0.378  11.951  0.00  0.00     0.236 C 
ATOM     18  N25 ZIN A   1      19.117   0.695  12.091  0.00  0.00    -0.070 N 
ATOM     19  H26 ZIN A   1      18.876   0.800  13.064  0.00  0.00     0.279 HD
ATOM     20  C27 ZIN A   1      19.695   1.954  11.600  0.00  0.00     0.270 C 
ENDROOT
BRANCH   1  21
ATOM     21  O2  ZIN A   1      19.007  -5.520   9.130  0.00  0.00    -0.353 OA
ATOM     22  C1  ZIN A   1      18.047  -6.120   8.258  0.00  0.00     0.210 C 
ENDBRANCH   1  21
BRANCH  10  23
ATOM     23  O16 ZIN A   1      17.635  -2.454   7.442  0.00  0.00    -0.393 OA
ATOM     24  H39 ZIN A   1      16.680  -2.377   7.314  0.00  0.00     0.210 HD
ENDBRANCH  10  23
TORSDOF 2
ENDMDL
MODEL 6
REMARK VINA RESULT:      -6.7      3.237      6.191
REMARK  2 active torsions:
REMARK  status: ('A' for Active; 'I' for Inactive)
REMARK    1  A    between atoms: O2_2  and  C3_3 
REMARK    2  A    between atoms: C14_12  and  O16_13 
ROOT
ATOM      1  C3  ZIN A   1      19.401  -2.312  11.395  0.00  0.00     0.102 A 
ATOM      2  C4  ZIN A   1      20.252  -3.301  11.887  0.00  0.00     0.040 A 
ATOM      3  C5  ZIN A   1      20.433  -4.526  11.266  0.00  0.00     0.011 A 
ATOM      4  C6  ZIN A   1      19.744  -4.826  10.105  0.00  0.00    -0.046 A 
ATOM      5  C7  ZIN A   1      19.928  -6.070   9.298  0.00  0.00     0.072 C 
ATOM      6  C8  ZIN A   1      19.008  -6.148   8.091  0.00  0.00     0.197 C 
ATOM      7  C10 ZIN A   1      18.682  -4.803   7.448  0.00  0.00     0.033 C 
ATOM      8  C12 ZIN A   1      19.950  -4.075   7.010  0.00  0.00     0.010 C 
ATOM      9  C13 ZIN A   1      19.535  -2.744   6.385  0.00  0.00     0.035 C 
ATOM     10  C14 ZIN A   1      18.846  -1.849   7.389  0.00  0.00     0.148 C 
ATOM     11  C17 ZIN A   1      17.717  -2.492   8.170  0.00  0.00     0.171 C 
ATOM     12  O19 ZIN A   1      17.759  -1.913   9.517  0.00  0.00    -0.339 OA
ATOM     13  C20 ZIN A   1      18.695  -2.606  10.224  0.00  0.00     0.110 A 
ATOM     14  C21 ZIN A   1      18.873  -3.862   9.658  0.00  0.00    -0.004 A 
ATOM     15  C22 ZIN A   1      17.943  -3.961   8.472  0.00  0.00     0.026 C 
ATOM     16  C23 ZIN A   1      16.655  -4.664   8.905  0.00  0.00     0.045 C 
ATOM     17  C24 ZIN A   1      17.032  -6.034   9.484  0.00  0.00     0.236 C 
ATOM     18  N25 ZIN A   1      17.745  -6.805   8.456  0.00  0.00    -0.070 N 
ATOM     19  H26 ZIN A   1      17.977  -7.714   8.824  0.00  0.00     0.279 HD
ATOM     20  C27 ZIN A   1      16.873  -6.966   7.284  0.00  0.00     0.270 C 
ENDROOT
BRANCH   1  21
ATOM     21  O2  ZIN A   1      19.261  -1.117  12.029  0.00  0.00    -0.353 OA
ATOM     22  C1  ZIN A   1      20.128  -0.058  11.617  0.00  0.00     0.210 C 
ENDBRANCH   1  21
BRANCH  10  23
ATOM     23  O16 ZIN A   1      19.824  -1.383   8.321  0.00  0.00    -0.393 OA
ATOM     24  H39 ZIN A   1      19.620  -1.594   9.242  0.00  0.00     0.210 HD
ENDBRANCH  10  23
TORSDOF 2
ENDMDL
MODEL 7
REMARK VINA RESULT:      -6.6      1.683      3.569
REMARK  2 active torsions:
REMARK  status: ('A' for Active; 'I' for Inactive)
REMARK    1  A    between atoms: O2_2  and  C3_3 
REMARK    2  A    between atoms: C14_12  and  O16_13 
ROOT
ATOM      1  C3  ZIN A   1      18.635   1.892  13.763  0.00  0.00     0.102 A 
ATOM      2  C4  ZIN A   1      19.689   1.098  14.210  0.00  0.00     0.040 A 
ATOM      3  C5  ZIN A   1      20.264   0.095  13.445  0.00  0.00     0.011 A 
ATOM      4  C6  ZIN A   1      19.787  -0.170  12.174  0.00  0.00    -0.046 A 
ATOM      5  C7  ZIN A   1      20.384  -1.157  11.224  0.00  0.00     0.072 C 
ATOM      6  C8  ZIN A   1      19.628  -1.266   9.912  0.00  0.00     0.197 C 
ATOM      7  C10 ZIN A   1      18.984   0.033   9.436  0.00  0.00     0.033 C 
ATOM      8  C12 ZIN A   1      20.021   1.140   9.274  0.00  0.00     0.010 C 
ATOM      9  C13 ZIN A   1      19.295   2.399   8.801  0.00  0.00     0.035 C 
ATOM     10  C14 ZIN A   1      18.298   2.885   9.829  0.00  0.00     0.148 C 
ATOM     11  C17 ZIN A   1      17.342   1.835  10.358  0.00  0.00     0.171 C 
ATOM     12  O19 ZIN A   1      17.106   2.157  11.768  0.00  0.00    -0.339 OA
ATOM     13  C20 ZIN A   1      18.141   1.629  12.481  0.00  0.00     0.110 A 
ATOM     14  C21 ZIN A   1      18.716   0.588  11.765  0.00  0.00    -0.004 A 
ATOM     15  C22 ZIN A   1      17.953   0.451  10.469  0.00  0.00     0.026 C 
ATOM     16  C23 ZIN A   1      16.890  -0.637  10.627  0.00  0.00     0.045 C 
ATOM     17  C24 ZIN A   1      17.595  -1.934  11.043  0.00  0.00     0.236 C 
ATOM     18  N25 ZIN A   1      18.580  -2.292  10.013  0.00  0.00    -0.070 N 
ATOM     19  H26 ZIN A   1      19.031  -3.155  10.271  0.00  0.00     0.279 HD
ATOM     20  C27 ZIN A   1      17.889  -2.474   8.728  0.00  0.00     0.270 C 
ENDROOT
BRANCH   1  21
ATOM     21  O2  ZIN A   1      18.107   2.875  14.540  0.00  0.00    -0.353 OA
ATOM     22  C1  ZIN A   1      18.746   3.124  15.794  0.00  0.00     0.210 C 
ENDBRANCH   1  21
BRANCH  10  23
ATOM     23  O16 ZIN A   1      19.023   3.425  10.936  0.00  0.00    -0.393 OA
ATOM     24  H39 ZIN A   1      19.225   2.779  11.626  0.00  0.00     0.210 HD
ENDBRANCH  10  23
TORSDOF 2
ENDMDL
MODEL 8
REMARK VINA RESULT:      -6.6      2.379      5.048
REMARK  2 active torsions:
REMARK  status: ('A' for Active; 'I' for Inactive)
REMARK    1  A    between atoms: O2_2  and  C3_3 
REMARK    2  A    between atoms: C14_12  and  O16_13 
ROOT
ATOM      1  C3  ZIN A   1      17.607  -3.465  11.029  0.00  0.00     0.102 A 
ATOM      2  C4  ZIN A   1      18.430  -3.766   9.945  0.00  0.00     0.040 A 
ATOM      3  C5  ZIN A   1      19.231  -2.827   9.314  0.00  0.00     0.011 A 
ATOM      4  C6  ZIN A   1      19.232  -1.512   9.743  0.00  0.00    -0.046 A 
ATOM      5  C7  ZIN A   1      20.119  -0.437   9.206  0.00  0.00     0.072 C 
ATOM      6  C8  ZIN A   1      19.874   0.922   9.841  0.00  0.00     0.197 C 
ATOM      7  C10 ZIN A   1      19.449   0.875  11.306  0.00  0.00     0.033 C 
ATOM      8  C12 ZIN A   1      20.484   0.151  12.162  0.00  0.00     0.010 C 
ATOM      9  C13 ZIN A   1      19.980   0.146  13.605  0.00  0.00     0.035 C 
ATOM     10  C14 ZIN A   1      18.689  -0.627  13.740  0.00  0.00     0.148 C 
ATOM     11  C17 ZIN A   1      17.600  -0.256  12.753  0.00  0.00     0.171 C 
ATOM     12  O19 ZIN A   1      16.883  -1.495  12.437  0.00  0.00    -0.339 OA
ATOM     13  C20 ZIN A   1      17.596  -2.137  11.468  0.00  0.00     0.110 A 
ATOM     14  C21 ZIN A   1      18.379  -1.220  10.781  0.00  0.00    -0.004 A 
ATOM     15  C22 ZIN A   1      18.123   0.141  11.386  0.00  0.00     0.026 C 
ATOM     16  C23 ZIN A   1      17.065   0.866  10.553  0.00  0.00     0.045 C 
ATOM     17  C24 ZIN A   1      17.568   0.942   9.106  0.00  0.00     0.236 C 
ATOM     18  N25 ZIN A   1      18.851   1.658   9.086  0.00  0.00    -0.070 N 
ATOM     19  H26 ZIN A   1      19.177   1.730   8.135  0.00  0.00     0.279 HD
ATOM     20  C27 ZIN A   1      18.658   3.009   9.632  0.00  0.00     0.270 C 
ENDROOT
BRANCH   1  21
ATOM     21  O2  ZIN A   1      16.845  -4.418  11.627  0.00  0.00    -0.353 OA
ATOM     22  C1  ZIN A   1      17.233  -5.779  11.429  0.00  0.00     0.210 C 
ENDBRANCH   1  21
BRANCH  10  23
ATOM     23  O16 ZIN A   1      18.979  -2.017  13.581  0.00  0.00    -0.393 OA
ATOM     24  H39 ZIN A   1      19.190  -2.273  12.672  0.00  0.00     0.210 HD
ENDBRANCH  10  23
TORSDOF 2
ENDMDL
MODEL 9
REMARK VINA RESULT:      -6.5      2.195      4.145
REMARK  2 active torsions:
REMARK  status: ('A' for Active; 'I' for Inactive)
REMARK    1  A    between atoms: O2_2  and  C3_3 
REMARK    2  A    between atoms: C14_12  and  O16_13 
ROOT
ATOM      1  C3  ZIN A   1      18.664   1.190   8.647  0.00  0.00     0.102 A 
ATOM      2  C4  ZIN A   1      17.592   0.300   8.663  0.00  0.00     0.040 A 
ATOM      3  C5  ZIN A   1      16.988  -0.143   9.830  0.00  0.00     0.011 A 
ATOM      4  C6  ZIN A   1      17.453   0.288  11.060  0.00  0.00    -0.046 A 
ATOM      5  C7  ZIN A   1      16.827  -0.044  12.375  0.00  0.00     0.072 C 
ATOM      6  C8  ZIN A   1      17.575   0.536  13.564  0.00  0.00     0.197 C 
ATOM      7  C10 ZIN A   1      18.250   1.879  13.300  0.00  0.00     0.033 C 
ATOM      8  C12 ZIN A   1      17.240   2.927  12.841  0.00  0.00     0.010 C 
ATOM      9  C13 ZIN A   1      17.996   4.233  12.597  0.00  0.00     0.035 C 
ATOM     10  C14 ZIN A   1      19.009   4.089  11.484  0.00  0.00     0.148 C 
ATOM     11  C17 ZIN A   1      19.940   2.899  11.599  0.00  0.00     0.171 C 
ATOM     12  O19 ZIN A   1      20.190   2.431  10.232  0.00  0.00    -0.339 OA
ATOM     13  C20 ZIN A   1      19.146   1.628   9.884  0.00  0.00     0.110 A 
ATOM     14  C21 ZIN A   1      18.541   1.126  11.029  0.00  0.00    -0.004 A 
ATOM     15  C22 ZIN A   1      19.295   1.674  12.218  0.00  0.00     0.026 C 
ATOM     16  C23 ZIN A   1      20.331   0.644  12.671  0.00  0.00     0.045 C 
ATOM     17  C24 ZIN A   1      19.595  -0.665  12.984  0.00  0.00     0.236 C 
ATOM     18  N25 ZIN A   1      18.597  -0.411  14.032  0.00  0.00    -0.070 N 
ATOM     19  H26 ZIN A   1      18.125  -1.272  14.256  0.00  0.00     0.279 HD
ATOM     20  C27 ZIN A   1      19.278   0.093  15.233  0.00  0.00     0.270 C 
ENDROOT
BRANCH   1  21
ATOM     21  O2  ZIN A   1      19.220   1.609   7.479  0.00  0.00    -0.353 OA
ATOM     22  C1  ZIN A   1      18.879   0.880   6.298  0.00  0.00     0.210 C 
ENDBRANCH   1  21
BRANCH  10  23
ATOM     23  O16 ZIN A   1      18.302   3.983  10.246  0.00  0.00    -0.393 OA
ATOM     24  H39 ZIN A   1      18.031   4.834   9.875  0.00  0.00     0.210 HD
ENDBRANCH  10  23
TORSDOF 2
ENDMDL
