MODEL 1
REMARK VINA RESULT:       6.8      0.000      0.000
REMARK  10 active torsions:
REMARK  status: ('A' for Active; 'I' for Inactive)
REMARK    1  A    between atoms: O2_2  and  C3_3 
REMARK    2  A    between atoms: C14_13  and  O15_14 
REMARK    3  A    between atoms: C17_16  and  O18_17 
REMARK    4  A    between atoms: C31_29  and  O33_30 
REMARK    5  A    between atoms: C37_33  and  O39_34 
REMARK    6  A    between atoms: C43_37  and  O45_38 
REMARK    7  A    between atoms: O45_38  and  C46_39 
REMARK    8  A    between atoms: C52_44  and  C53_45 
REMARK    9  A    between atoms: N54_46  and  N55_47 
REMARK   10  A    between atoms: C63_55  and  O64_56 
ROOT
ATOM      1  C3  ZIN A   1      18.502  -1.112  15.985  0.00  0.00     0.151 C 
ATOM      2  C5  ZIN A   1      18.989  -0.704  14.623  0.00  0.00     0.029 C 
ATOM      3  C6  ZIN A   1      18.545  -1.291  13.528  0.00  0.00     0.137 C 
ATOM      4  O7  ZIN A   1      19.051  -0.921  12.318  0.00  0.00    -0.319 OA
ATOM      5  C8  ZIN A   1      19.070   0.439  11.960  0.00  0.00     0.237 C 
ATOM      6  C9  ZIN A   1      20.433   1.082  12.256  0.00  0.00     0.089 C 
ATOM      7  O10 ZIN A   1      18.763   0.690  10.568  0.00  0.00    -0.305 OA
ATOM      8  C11 ZIN A   1      18.360   1.998  10.548  0.00  0.00     0.096 C 
ATOM      9  C12 ZIN A   1      18.414   2.949   9.534  0.00  0.00     0.007 C 
ATOM     10  C13 ZIN A   1      18.926   2.549   8.173  0.00  0.00     0.054 C 
ATOM     11  C14 ZIN A   1      18.038   4.260   9.732  0.00  0.00     0.088 C 
ATOM     12  C16 ZIN A   1      17.544   4.709  10.974  0.00  0.00     0.047 C 
ATOM     13  C17 ZIN A   1      17.366   6.070  11.292  0.00  0.00     0.107 C 
ATOM     14  C19 ZIN A   1      16.765   6.439  12.475  0.00  0.00     0.084 C 
ATOM     15  N20 ZIN A   1      16.661   7.763  12.909  0.00  0.00    -0.320 N 
ATOM     16  C21 ZIN A   1      17.127   8.141  14.087  0.00  0.00     0.251 C 
ATOM     17  O22 ZIN A   1      18.328   8.032  14.244  0.00  0.00    -0.268 OA
ATOM     18  C23 ZIN A   1      16.399   8.626  15.230  0.00  0.00     0.006 C 
ATOM     19  C24 ZIN A   1      14.970   9.098  15.075  0.00  0.00     0.054 C 
ATOM     20  C25 ZIN A   1      16.937   8.668  16.467  0.00  0.00     0.012 C 
ATOM     21  C26 ZIN A   1      18.314   8.398  16.801  0.00  0.00    -0.003 C 
ATOM     22  C27 ZIN A   1      18.783   7.443  17.575  0.00  0.00    -0.020 C 
ATOM     23  C28 ZIN A   1      17.918   6.397  18.237  0.00  0.00     0.033 C 
ATOM     24  C30 ZIN A   1      17.712   6.786  19.706  0.00  0.00     0.017 C 
ATOM     25  C31 ZIN A   1      18.667   5.065  18.173  0.00  0.00     0.131 C 
ATOM     26  C34 ZIN A   1      17.739   3.857  18.318  0.00  0.00     0.040 C 
ATOM     27  C36 ZIN A   1      16.699   3.898  17.193  0.00  0.00     0.015 C 
ATOM     28  C37 ZIN A   1      18.572   2.580  18.153  0.00  0.00     0.130 C 
ATOM     29  C40 ZIN A   1      18.045   1.384  18.910  0.00  0.00     0.041 C 
ATOM     30  C42 ZIN A   1      16.597   1.507  19.357  0.00  0.00     0.015 C 
ATOM     31  C43 ZIN A   1      18.279   0.069  18.175  0.00  0.00     0.144 C 
ATOM     32  C49 ZIN A   1      17.890   0.100  16.703  0.00  0.00     0.044 C 
ATOM     33  C51 ZIN A   1      16.367   0.002  16.556  0.00  0.00     0.015 C 
ATOM     34  C52 ZIN A   1      16.204   5.423  13.292  0.00  0.00     0.047 C 
ATOM     35  C63 ZIN A   1      16.525   4.084  13.074  0.00  0.00     0.092 C 
ATOM     36  C65 ZIN A   1      17.266   3.713  11.955  0.00  0.00     0.031 C 
ATOM     37  C66 ZIN A   1      17.814   2.366  11.794  0.00  0.00     0.064 C 
ATOM     38  C67 ZIN A   1      17.977   1.244  12.657  0.00  0.00     0.225 C 
ATOM     39  O68 ZIN A   1      17.390   1.006  13.688  0.00  0.00    -0.286 OA
ATOM     40  H82 ZIN A   1      16.241   8.427  12.322  0.00  0.00     0.169 HD
ENDROOT
BRANCH  34  41
ATOM     41  C53 ZIN A   1      15.275   5.747  14.388  0.00  0.00     0.155 C 
ATOM     42  N54 ZIN A   1      14.012   5.916  14.138  0.00  0.00    -0.189 NA
BRANCH  42  43
ATOM     43  N55 ZIN A   1      13.150   6.350  15.155  0.00  0.00    -0.302 N 
ATOM     44  C62 ZIN A   1      11.867   6.994  14.834  0.00  0.00     0.172 C 
ATOM     45  C61 ZIN A   1      11.761   8.296  15.628  0.00  0.00     0.256 C 
ATOM     46  N58 ZIN A   1      11.959   8.017  17.056  0.00  0.00    -0.072 N 
ATOM     47  C57 ZIN A   1      13.324   7.523  17.284  0.00  0.00     0.256 C 
ATOM     48  H59 ZIN A   1      11.296   7.318  17.357  0.00  0.00     0.279 HD
ATOM     49  C60 ZIN A   1      11.752   9.250  17.826  0.00  0.00     0.269 C 
ATOM     50  C56 ZIN A   1      13.505   6.179  16.571  0.00  0.00     0.172 C 
ENDBRANCH  42  43
ENDBRANCH  34  41
BRANCH  35  51
ATOM     51  O64 ZIN A   1      16.047   3.144  13.926  0.00  0.00    -0.359 OA
ATOM     52 8H11 ZIN A   1      15.520   3.504  14.653  0.00  0.00     0.217 HD
ENDBRANCH  35  51
BRANCH  13  53
ATOM     53  O18 ZIN A   1      17.785   7.033  10.432  0.00  0.00    -0.357 OA
ATOM     54  H81 ZIN A   1      18.648   7.410  10.653  0.00  0.00     0.217 HD
ENDBRANCH  13  53
BRANCH  11  55
ATOM     55  O15 ZIN A   1      18.140   5.125   8.693  0.00  0.00    -0.359 OA
ATOM     56  H80 ZIN A   1      18.498   5.990   8.935  0.00  0.00     0.217 HD
ENDBRANCH  11  55
BRANCH  25  57
ATOM     57  O33 ZIN A   1      19.361   4.984  16.927  0.00  0.00    -0.394 OA
ATOM     58  H92 ZIN A   1      19.231   5.752  16.353  0.00  0.00     0.210 HD
ENDBRANCH  25  57
BRANCH   1  59
ATOM     59  O2  ZIN A   1      17.491  -2.115  15.840  0.00  0.00    -0.386 OA
ATOM     60  C1  ZIN A   1      17.724  -3.290  16.619  0.00  0.00     0.202 C 
ENDBRANCH   1  59
BRANCH  28  61
ATOM     61  O39 ZIN A   1      19.908   2.856  18.616  0.00  0.00    -0.395 OA
ATOM     62  H96 ZIN A   1      19.946   3.458  19.372  0.00  0.00     0.210 HD
ENDBRANCH  28  61
BRANCH  31  63
ATOM     63  O45 ZIN A   1      19.692  -0.269  18.295  0.00  0.00    -0.315 OA
BRANCH  63  64
ATOM     64  C46 ZIN A   1      19.991  -1.546  18.585  0.00  0.00     0.255 C 
ATOM     65  C47 ZIN A   1      20.900  -2.332  17.676  0.00  0.00     0.126 C 
ATOM     66  O48 ZIN A   1      19.531  -2.065  19.574  0.00  0.00    -0.266 OA
ENDBRANCH  63  64
ENDBRANCH  31  63
TORSDOF 10
ENDMDL
