MODEL 1
REMARK VINA RESULT:      -7.4      0.000      0.000
REMARK  19 active torsions:
REMARK  status: ('A' for Active; 'I' for Inactive)
REMARK    1  A    between atoms: O1_1  and  C2_2 
REMARK    2  A    between atoms: C2_2  and  C3_3 
REMARK    3  A    between atoms: C5_5  and  C6_6 
REMARK    4  A    between atoms: C6_6  and  O8_7 
REMARK    5  A    between atoms: C6_6  and  C9_8 
REMARK    6  A    between atoms: C9_8  and  N10_9 
REMARK    7  A    between atoms: N10_9  and  C13_12 
REMARK    8  A    between atoms: C13_12  and  C14_13 
REMARK    9  A    between atoms: C14_13  and  C15_14 
REMARK   10  A    between atoms: C15_14  and  C16_15 
REMARK   11  A    between atoms: C16_15  and  C17_16 
REMARK   12  A    between atoms: C17_16  and  C18_17 
REMARK   13  A    between atoms: C18_17  and  O19_18 
REMARK   14  A    between atoms: O19_18  and  C20_19 
REMARK   15  A    between atoms: C20_19  and  C21_20 
REMARK   16  A    between atoms: C21_20  and  O22_21 
REMARK   17  A    between atoms: O22_21  and  C23_22 
REMARK   18  A    between atoms: C23_22  and  C24_23 
REMARK   19  A    between atoms: C34_33  and  O35_34 
ROOT
ATOM      1  C13 RES d   1      18.999   2.298   9.157  0.00  0.00     0.232 C 
ENDROOT
BRANCH   1   2
ATOM      2  N10 RES d   1      19.931   2.214  10.288  0.00  0.00    -0.072 N 
ATOM      3  H11 RES d   1      19.980   3.109  10.750  0.00  0.00     0.277 HD
ATOM      4  H12 RES d   1      20.848   1.960   9.951  0.00  0.00     0.277 HD
BRANCH   2   5
ATOM      5  C9  RES d   1      19.459   1.197  11.237  0.00  0.00     0.268 C 
BRANCH   5   6
ATOM      6  C6  RES d   1      20.372   1.183  12.465  0.00  0.00     0.176 C 
BRANCH   6   7
ATOM      7  C5  RES d   1      19.707   0.413  13.576  0.00  0.00    -0.027 A 
ATOM      8  C4  RES d   1      19.410   1.043  14.771  0.00  0.00     0.022 A 
ATOM      9  C3  RES d   1      18.800   0.338  15.791  0.00  0.00    -0.001 A 
ATOM     10  C34 RES d   1      18.491  -1.003  15.619  0.00  0.00     0.074 A 
ATOM     11  C33 RES d   1      18.786  -1.631  14.418  0.00  0.00     0.038 A 
ATOM     12  C32 RES d   1      19.395  -0.923  13.400  0.00  0.00     0.012 A 
BRANCH   9  13
ATOM     13  C2  RES d   1      18.477   1.026  17.093  0.00  0.00     0.205 C 
BRANCH  13  14
ATOM     14  O1  RES d   1      17.062   1.017  17.298  0.00  0.00    -0.396 OA
ATOM     15  H36 RES d   1      16.719   1.823  17.707  0.00  0.00     0.209 HD
ENDBRANCH  13  14
ENDBRANCH   9  13
BRANCH  10  16
ATOM     16  O35 RES d   1      17.893  -1.698  16.621  0.00  0.00    -0.360 OA
ATOM     17  H66 RES d   1      18.194  -1.451  17.506  0.00  0.00     0.217 HD
ENDBRANCH  10  16
ENDBRANCH   6   7
BRANCH   6  18
ATOM     18  O8  RES d   1      21.613   0.558  12.129  0.00  0.00    -0.389 OA
ATOM     19  H40 RES d   1      21.752  -0.296  12.558  0.00  0.00     0.210 HD
ENDBRANCH   6  18
ENDBRANCH   5   6
ENDBRANCH   2   5
ENDBRANCH   1   2
BRANCH   1  20
ATOM     20  C14 RES d   1      19.269   1.147   8.186  0.00  0.00     0.027 C 
BRANCH  20  21
ATOM     21  C15 RES d   1      17.983   0.348   7.971  0.00  0.00     0.002 C 
BRANCH  21  22
ATOM     22  C16 RES d   1      17.657   0.296   6.477  0.00  0.00     0.002 C 
BRANCH  22  23
ATOM     23  C17 RES d   1      18.941   0.482   5.667  0.00  0.00     0.026 C 
BRANCH  23  24
ATOM     24  C18 RES d   1      18.942  -0.486   4.482  0.00  0.00     0.167 C 
BRANCH  24  25
ATOM     25  O19 RES d   1      19.821  -1.578   4.759  0.00  0.00    -0.389 OA
BRANCH  25  26
ATOM     26  C20 RES d   1      19.155  -2.766   5.189  0.00  0.00     0.193 C 
BRANCH  26  27
ATOM     27  C21 RES d   1      19.713  -3.200   6.545  0.00  0.00     0.194 C 
BRANCH  27  28
ATOM     28  O22 RES d   1      18.773  -4.058   7.195  0.00  0.00    -0.384 OA
BRANCH  28  29
ATOM     29  C23 RES d   1      17.827  -3.369   8.015  0.00  0.00     0.209 C 
BRANCH  29  30
ATOM     30  C24 RES d   1      17.776  -4.015   9.375  0.00  0.00     0.009 A 
ATOM     31  C30 RES d   1      18.556  -3.522  10.405  0.00  0.00     0.044 A 
ATOM     32  C29 RES d   1      18.505  -4.112  11.656  0.00  0.00     0.024 A 
ATOM     33 Cl31 RES d   1      19.589  -2.153  10.133  0.00  0.00    -0.084 Cl
ATOM     34  C28 RES d   1      17.683  -5.202  11.873  0.00  0.00     0.003 A 
ATOM     35  C27 RES d   1      16.907  -5.699  10.842  0.00  0.00     0.024 A 
ATOM     36  C25 RES d   1      16.953  -5.106   9.593  0.00  0.00     0.044 A 
ATOM     37 Cl26 RES d   1      15.979  -5.730   8.299  0.00  0.00    -0.084 Cl
ENDBRANCH  29  30
ENDBRANCH  28  29
ENDBRANCH  27  28
ENDBRANCH  26  27
ENDBRANCH  25  26
ENDBRANCH  24  25
ENDBRANCH  23  24
ENDBRANCH  22  23
ENDBRANCH  21  22
ENDBRANCH  20  21
ENDBRANCH   1  20
TORSDOF 19
ENDMDL
MODEL 2
REMARK VINA RESULT:      -7.1      3.418      9.582
REMARK  19 active torsions:
REMARK  status: ('A' for Active; 'I' for Inactive)
REMARK    1  A    between atoms: O1_1  and  C2_2 
REMARK    2  A    between atoms: C2_2  and  C3_3 
REMARK    3  A    between atoms: C5_5  and  C6_6 
REMARK    4  A    between atoms: C6_6  and  O8_7 
REMARK    5  A    between atoms: C6_6  and  C9_8 
REMARK    6  A    between atoms: C9_8  and  N10_9 
REMARK    7  A    between atoms: N10_9  and  C13_12 
REMARK    8  A    between atoms: C13_12  and  C14_13 
REMARK    9  A    between atoms: C14_13  and  C15_14 
REMARK   10  A    between atoms: C15_14  and  C16_15 
REMARK   11  A    between atoms: C16_15  and  C17_16 
REMARK   12  A    between atoms: C17_16  and  C18_17 
REMARK   13  A    between atoms: C18_17  and  O19_18 
REMARK   14  A    between atoms: O19_18  and  C20_19 
REMARK   15  A    between atoms: C20_19  and  C21_20 
REMARK   16  A    between atoms: C21_20  and  O22_21 
REMARK   17  A    between atoms: O22_21  and  C23_22 
REMARK   18  A    between atoms: C23_22  and  C24_23 
REMARK   19  A    between atoms: C34_33  and  O35_34 
ROOT
ATOM      1  C13 RES d   1      19.155   0.651  13.847  0.00  0.00     0.232 C 
ENDROOT
BRANCH   1   2
ATOM      2  N10 RES d   1      19.721  -0.282  12.863  0.00  0.00    -0.072 N 
ATOM      3  H11 RES d   1      19.358  -1.208  13.030  0.00  0.00     0.277 HD
ATOM      4  H12 RES d   1      20.726  -0.294  12.950  0.00  0.00     0.277 HD
BRANCH   2   5
ATOM      5  C9  RES d   1      19.352   0.152  11.509  0.00  0.00     0.268 C 
BRANCH   5   6
ATOM      6  C6  RES d   1      20.059  -0.733  10.480  0.00  0.00     0.176 C 
BRANCH   6   7
ATOM      7  C5  RES d   1      19.647  -0.316   9.092  0.00  0.00    -0.027 A 
ATOM      8  C4  RES d   1      19.491  -1.270   8.102  0.00  0.00     0.022 A 
ATOM      9  C3  RES d   1      19.113  -0.890   6.829  0.00  0.00    -0.001 A 
ATOM     10  C34 RES d   1      18.895   0.449   6.541  0.00  0.00     0.074 A 
ATOM     11  C33 RES d   1      19.047   1.404   7.537  0.00  0.00     0.038 A 
ATOM     12  C32 RES d   1      19.424   1.019   8.809  0.00  0.00     0.012 A 
BRANCH   9  13
ATOM     13  C2  RES d   1      18.944  -1.930   5.751  0.00  0.00     0.205 C 
BRANCH  13  14
ATOM     14  O1  RES d   1      19.787  -1.610   4.643  0.00  0.00    -0.396 OA
ATOM     15  H36 RES d   1      19.812  -0.668   4.426  0.00  0.00     0.209 HD
ENDBRANCH  13  14
ENDBRANCH   9  13
BRANCH  10  16
ATOM     16  O35 RES d   1      18.524   0.826   5.290  0.00  0.00    -0.360 OA
ATOM     17  H66 RES d   1      18.416   0.089   4.673  0.00  0.00     0.217 HD
ENDBRANCH  10  16
ENDBRANCH   6   7
BRANCH   6  18
ATOM     18  O8  RES d   1      21.473  -0.590  10.620  0.00  0.00    -0.389 OA
ATOM     19  H40 RES d   1      21.739   0.122  11.217  0.00  0.00     0.210 HD
ENDBRANCH   6  18
ENDBRANCH   5   6
ENDBRANCH   2   5
ENDBRANCH   1   2
BRANCH   1  20
ATOM     20  C14 RES d   1      18.129  -0.082  14.714  0.00  0.00     0.027 C 
BRANCH  20  21
ATOM     21  C15 RES d   1      18.812  -0.611  15.976  0.00  0.00     0.002 C 
BRANCH  21  22
ATOM     22  C16 RES d   1      17.847  -0.513  17.159  0.00  0.00     0.002 C 
BRANCH  22  23
ATOM     23  C17 RES d   1      18.596   0.008  18.388  0.00  0.00     0.026 C 
BRANCH  23  24
ATOM     24  C18 RES d   1      18.261   1.485  18.601  0.00  0.00     0.167 C 
BRANCH  24  25
ATOM     25  O19 RES d   1      19.419   2.280  18.338  0.00  0.00    -0.389 OA
BRANCH  25  26
ATOM     26  C20 RES d   1      19.153   3.464  17.584  0.00  0.00     0.193 C 
BRANCH  26  27
ATOM     27  C21 RES d   1      19.579   3.247  16.130  0.00  0.00     0.194 C 
BRANCH  27  28
ATOM     28  O22 RES d   1      18.606   3.823  15.257  0.00  0.00    -0.384 OA
BRANCH  28  29
ATOM     29  C23 RES d   1      19.142   4.779  14.340  0.00  0.00     0.209 C 
BRANCH  29  30
ATOM     30  C24 RES d   1      18.361   4.731  13.052  0.00  0.00     0.009 A 
ATOM     31  C30 RES d   1      18.919   4.155  11.925  0.00  0.00     0.044 A 
ATOM     32  C29 RES d   1      18.199   4.107  10.743  0.00  0.00     0.024 A 
ATOM     33 Cl31 RES d   1      20.517   3.482  11.996  0.00  0.00    -0.084 Cl
ATOM     34  C28 RES d   1      16.926   4.644  10.687  0.00  0.00     0.003 A 
ATOM     35  C27 RES d   1      16.370   5.224  11.812  0.00  0.00     0.024 A 
ATOM     36  C25 RES d   1      17.087   5.268  12.995  0.00  0.00     0.044 A 
ATOM     37 Cl26 RES d   1      16.388   5.997  14.407  0.00  0.00    -0.084 Cl
ENDBRANCH  29  30
ENDBRANCH  28  29
ENDBRANCH  27  28
ENDBRANCH  26  27
ENDBRANCH  25  26
ENDBRANCH  24  25
ENDBRANCH  23  24
ENDBRANCH  22  23
ENDBRANCH  21  22
ENDBRANCH  20  21
ENDBRANCH   1  20
TORSDOF 19
ENDMDL
MODEL 3
REMARK VINA RESULT:      -7.0      3.288      8.872
REMARK  19 active torsions:
REMARK  status: ('A' for Active; 'I' for Inactive)
REMARK    1  A    between atoms: O1_1  and  C2_2 
REMARK    2  A    between atoms: C2_2  and  C3_3 
REMARK    3  A    between atoms: C5_5  and  C6_6 
REMARK    4  A    between atoms: C6_6  and  O8_7 
REMARK    5  A    between atoms: C6_6  and  C9_8 
REMARK    6  A    between atoms: C9_8  and  N10_9 
REMARK    7  A    between atoms: N10_9  and  C13_12 
REMARK    8  A    between atoms: C13_12  and  C14_13 
REMARK    9  A    between atoms: C14_13  and  C15_14 
REMARK   10  A    between atoms: C15_14  and  C16_15 
REMARK   11  A    between atoms: C16_15  and  C17_16 
REMARK   12  A    between atoms: C17_16  and  C18_17 
REMARK   13  A    between atoms: C18_17  and  O19_18 
REMARK   14  A    between atoms: O19_18  and  C20_19 
REMARK   15  A    between atoms: C20_19  and  C21_20 
REMARK   16  A    between atoms: C21_20  and  O22_21 
REMARK   17  A    between atoms: O22_21  and  C23_22 
REMARK   18  A    between atoms: C23_22  and  C24_23 
REMARK   19  A    between atoms: C34_33  and  O35_34 
ROOT
ATOM      1  C13 RES d   1      17.815   3.193  10.355  0.00  0.00     0.232 C 
ENDROOT
BRANCH   1   2
ATOM      2  N10 RES d   1      18.953   2.668   9.590  0.00  0.00    -0.072 N 
ATOM      3  H11 RES d   1      19.807   3.079   9.933  0.00  0.00     0.277 HD
ATOM      4  H12 RES d   1      18.838   2.898   8.614  0.00  0.00     0.277 HD
BRANCH   2   5
ATOM      5  C9  RES d   1      19.016   1.208   9.745  0.00  0.00     0.268 C 
BRANCH   5   6
ATOM      6  C6  RES d   1      17.847   0.565   8.996  0.00  0.00     0.176 C 
BRANCH   6   7
ATOM      7  C5  RES d   1      18.346  -0.035   7.707  0.00  0.00    -0.027 A 
ATOM      8  C4  RES d   1      18.568  -1.398   7.621  0.00  0.00     0.022 A 
ATOM      9  C3  RES d   1      19.025  -1.951   6.440  0.00  0.00    -0.001 A 
ATOM     10  C34 RES d   1      19.268  -1.138   5.343  0.00  0.00     0.074 A 
ATOM     11  C33 RES d   1      19.040   0.228   5.431  0.00  0.00     0.038 A 
ATOM     12  C32 RES d   1      18.581   0.776   6.613  0.00  0.00     0.012 A 
BRANCH   9  13
ATOM     13  C2  RES d   1      19.266  -3.435   6.347  0.00  0.00     0.205 C 
BRANCH  13  14
ATOM     14  O1  RES d   1      20.663  -3.702   6.493  0.00  0.00    -0.396 OA
ATOM     15  H36 RES d   1      21.124  -3.855   5.657  0.00  0.00     0.209 HD
ENDBRANCH  13  14
ENDBRANCH   9  13
BRANCH  10  16
ATOM     16  O35 RES d   1      19.719  -1.679   4.181  0.00  0.00    -0.360 OA
ATOM     17  H66 RES d   1      19.311  -2.527   3.957  0.00  0.00     0.217 HD
ENDBRANCH  10  16
ENDBRANCH   6   7
BRANCH   6  18
ATOM     18  O8  RES d   1      17.267  -0.459   9.806  0.00  0.00    -0.389 OA
ATOM     19  H40 RES d   1      17.515  -0.410  10.739  0.00  0.00     0.210 HD
ENDBRANCH   6  18
ENDBRANCH   5   6
ENDBRANCH   2   5
ENDBRANCH   1   2
BRANCH   1  20
ATOM     20  C14 RES d   1      17.710   4.705  10.142  0.00  0.00     0.027 C 
BRANCH  20  21
ATOM     21  C15 RES d   1      16.722   5.296  11.148  0.00  0.00     0.002 C 
BRANCH  21  22
ATOM     22  C16 RES d   1      16.918   4.626  12.510  0.00  0.00     0.002 C 
BRANCH  22  23
ATOM     23  C17 RES d   1      17.641   5.589  13.454  0.00  0.00     0.026 C 
BRANCH  23  24
ATOM     24  C18 RES d   1      17.142   5.373  14.883  0.00  0.00     0.167 C 
BRANCH  24  25
ATOM     25  O19 RES d   1      18.091   5.912  15.806  0.00  0.00    -0.389 OA
BRANCH  25  26
ATOM     26  C20 RES d   1      18.526   4.984  16.802  0.00  0.00     0.193 C 
BRANCH  26  27
ATOM     27  C21 RES d   1      19.876   4.394  16.391  0.00  0.00     0.194 C 
BRANCH  27  28
ATOM     28  O22 RES d   1      19.911   3.005  16.726  0.00  0.00    -0.384 OA
BRANCH  28  29
ATOM     29  C23 RES d   1      18.651   2.344  16.595  0.00  0.00     0.209 C 
BRANCH  29  30
ATOM     30  C24 RES d   1      18.870   0.943  16.083  0.00  0.00     0.009 A 
ATOM     31  C30 RES d   1      18.863  -0.124  16.962  0.00  0.00     0.044 A 
ATOM     32  C29 RES d   1      19.059  -1.411  16.491  0.00  0.00     0.024 A 
ATOM     33 Cl31 RES d   1      18.596   0.149  18.656  0.00  0.00    -0.084 Cl
ATOM     34  C28 RES d   1      19.272  -1.627  15.142  0.00  0.00     0.003 A 
ATOM     35  C27 RES d   1      19.284  -0.561  14.264  0.00  0.00     0.024 A 
ATOM     36  C25 RES d   1      19.083   0.726  14.733  0.00  0.00     0.044 A 
ATOM     37 Cl26 RES d   1      19.099   2.065  13.629  0.00  0.00    -0.084 Cl
ENDBRANCH  29  30
ENDBRANCH  28  29
ENDBRANCH  27  28
ENDBRANCH  26  27
ENDBRANCH  25  26
ENDBRANCH  24  25
ENDBRANCH  23  24
ENDBRANCH  22  23
ENDBRANCH  21  22
ENDBRANCH  20  21
ENDBRANCH   1  20
TORSDOF 19
ENDMDL
MODEL 4
REMARK VINA RESULT:      -6.7      3.145      7.587
REMARK  19 active torsions:
REMARK  status: ('A' for Active; 'I' for Inactive)
REMARK    1  A    between atoms: O1_1  and  C2_2 
REMARK    2  A    between atoms: C2_2  and  C3_3 
REMARK    3  A    between atoms: C5_5  and  C6_6 
REMARK    4  A    between atoms: C6_6  and  O8_7 
REMARK    5  A    between atoms: C6_6  and  C9_8 
REMARK    6  A    between atoms: C9_8  and  N10_9 
REMARK    7  A    between atoms: N10_9  and  C13_12 
REMARK    8  A    between atoms: C13_12  and  C14_13 
REMARK    9  A    between atoms: C14_13  and  C15_14 
REMARK   10  A    between atoms: C15_14  and  C16_15 
REMARK   11  A    between atoms: C16_15  and  C17_16 
REMARK   12  A    between atoms: C17_16  and  C18_17 
REMARK   13  A    between atoms: C18_17  and  O19_18 
REMARK   14  A    between atoms: O19_18  and  C20_19 
REMARK   15  A    between atoms: C20_19  and  C21_20 
REMARK   16  A    between atoms: C21_20  and  O22_21 
REMARK   17  A    between atoms: O22_21  and  C23_22 
REMARK   18  A    between atoms: C23_22  and  C24_23 
REMARK   19  A    between atoms: C34_33  and  O35_34 
ROOT
ATOM      1  C13 RES d   1      19.161   2.150   9.706  0.00  0.00     0.232 C 
ENDROOT
BRANCH   1   2
ATOM      2  N10 RES d   1      18.857   0.952   8.914  0.00  0.00    -0.072 N 
ATOM      3  H11 RES d   1      18.736   1.210   7.947  0.00  0.00     0.277 HD
ATOM      4  H12 RES d   1      18.008   0.528   9.257  0.00  0.00     0.277 HD
BRANCH   2   5
ATOM      5  C9  RES d   1      19.965  -0.006   9.030  0.00  0.00     0.268 C 
BRANCH   5   6
ATOM      6  C6  RES d   1      20.134  -0.415  10.495  0.00  0.00     0.176 C 
BRANCH   6   7
ATOM      7  C5  RES d   1      19.424  -1.722  10.736  0.00  0.00    -0.027 A 
ATOM      8  C4  RES d   1      18.827  -2.389   9.682  0.00  0.00     0.022 A 
ATOM      9  C3  RES d   1      18.176  -3.587   9.901  0.00  0.00    -0.001 A 
ATOM     10  C34 RES d   1      18.117  -4.120  11.181  0.00  0.00     0.074 A 
ATOM     11  C33 RES d   1      18.721  -3.452  12.236  0.00  0.00     0.038 A 
ATOM     12  C32 RES d   1      19.372  -2.254  12.011  0.00  0.00     0.012 A 
BRANCH   9  13
ATOM     13  C2  RES d   1      17.525  -4.313   8.751  0.00  0.00     0.205 C 
BRANCH  13  14
ATOM     14  O1  RES d   1      18.039  -5.645   8.676  0.00  0.00    -0.396 OA
ATOM     15  H36 RES d   1      18.307  -5.913   7.787  0.00  0.00     0.209 HD
ENDBRANCH  13  14
ENDBRANCH   9  13
BRANCH  10  16
ATOM     16  O35 RES d   1      17.476  -5.298  11.399  0.00  0.00    -0.360 OA
ATOM     17  H66 RES d   1      17.807  -5.790  12.163  0.00  0.00     0.217 HD
ENDBRANCH  10  16
ENDBRANCH   6   7
BRANCH   6  18
ATOM     18  O8  RES d   1      21.523  -0.566  10.790  0.00  0.00    -0.389 OA
ATOM     19  H40 RES d   1      21.738  -1.378  11.267  0.00  0.00     0.210 HD
ENDBRANCH   6  18
ENDBRANCH   5   6
ENDBRANCH   2   5
ENDBRANCH   1   2
BRANCH   1  20
ATOM     20  C14 RES d   1      17.867   2.713  10.298  0.00  0.00     0.027 C 
BRANCH  20  21
ATOM     21  C15 RES d   1      17.903   4.241  10.244  0.00  0.00     0.002 C 
BRANCH  21  22
ATOM     22  C16 RES d   1      16.921   4.811  11.270  0.00  0.00     0.002 C 
BRANCH  22  23
ATOM     23  C17 RES d   1      17.305   4.326  12.669  0.00  0.00     0.026 C 
BRANCH  23  24
ATOM     24  C18 RES d   1      18.066   5.432  13.402  0.00  0.00     0.167 C 
BRANCH  24  25
ATOM     25  O19 RES d   1      19.393   4.987  13.690  0.00  0.00    -0.389 OA
BRANCH  25  26
ATOM     26  C20 RES d   1      19.958   5.569  14.866  0.00  0.00     0.193 C 
BRANCH  26  27
ATOM     27  C21 RES d   1      19.612   4.702  16.078  0.00  0.00     0.194 C 
BRANCH  27  28
ATOM     28  O22 RES d   1      19.635   3.324  15.701  0.00  0.00    -0.384 OA
BRANCH  28  29
ATOM     29  C23 RES d   1      18.381   2.657  15.857  0.00  0.00     0.209 C 
BRANCH  29  30
ATOM     30  C24 RES d   1      18.621   1.194  16.128  0.00  0.00     0.009 A 
ATOM     31  C30 RES d   1      18.994   0.776  17.392  0.00  0.00     0.044 A 
ATOM     32  C29 RES d   1      19.208  -0.569  17.642  0.00  0.00     0.024 A 
ATOM     33 Cl31 RES d   1      19.180   1.936  18.670  0.00  0.00    -0.084 Cl
ATOM     34  C28 RES d   1      19.061  -1.492  16.624  0.00  0.00     0.003 A 
ATOM     35  C27 RES d   1      18.693  -1.075  15.359  0.00  0.00     0.024 A 
ATOM     36  C25 RES d   1      18.473   0.269  15.110  0.00  0.00     0.044 A 
ATOM     37 Cl26 RES d   1      18.012   0.793  13.520  0.00  0.00    -0.084 Cl
ENDBRANCH  29  30
ENDBRANCH  28  29
ENDBRANCH  27  28
ENDBRANCH  26  27
ENDBRANCH  25  26
ENDBRANCH  24  25
ENDBRANCH  23  24
ENDBRANCH  22  23
ENDBRANCH  21  22
ENDBRANCH  20  21
ENDBRANCH   1  20
TORSDOF 19
ENDMDL
MODEL 5
REMARK VINA RESULT:      -6.7      1.709      1.932
REMARK  19 active torsions:
REMARK  status: ('A' for Active; 'I' for Inactive)
REMARK    1  A    between atoms: O1_1  and  C2_2 
REMARK    2  A    between atoms: C2_2  and  C3_3 
REMARK    3  A    between atoms: C5_5  and  C6_6 
REMARK    4  A    between atoms: C6_6  and  O8_7 
REMARK    5  A    between atoms: C6_6  and  C9_8 
REMARK    6  A    between atoms: C9_8  and  N10_9 
REMARK    7  A    between atoms: N10_9  and  C13_12 
REMARK    8  A    between atoms: C13_12  and  C14_13 
REMARK    9  A    between atoms: C14_13  and  C15_14 
REMARK   10  A    between atoms: C15_14  and  C16_15 
REMARK   11  A    between atoms: C16_15  and  C17_16 
REMARK   12  A    between atoms: C17_16  and  C18_17 
REMARK   13  A    between atoms: C18_17  and  O19_18 
REMARK   14  A    between atoms: O19_18  and  C20_19 
REMARK   15  A    between atoms: C20_19  and  C21_20 
REMARK   16  A    between atoms: C21_20  and  O22_21 
REMARK   17  A    between atoms: O22_21  and  C23_22 
REMARK   18  A    between atoms: C23_22  and  C24_23 
REMARK   19  A    between atoms: C34_33  and  O35_34 
ROOT
ATOM      1  C13 RES d   1      18.072   2.242   9.892  0.00  0.00     0.232 C 
ENDROOT
BRANCH   1   2
ATOM      2  N10 RES d   1      17.579   1.264  10.870  0.00  0.00    -0.072 N 
ATOM      3  H11 RES d   1      17.034   0.560  10.397  0.00  0.00     0.277 HD
ATOM      4  H12 RES d   1      17.003   1.732  11.554  0.00  0.00     0.277 HD
BRANCH   2   5
ATOM      5  C9  RES d   1      18.719   0.628  11.545  0.00  0.00     0.268 C 
BRANCH   5   6
ATOM      6  C6  RES d   1      18.236  -0.605  12.310  0.00  0.00     0.176 C 
BRANCH   6   7
ATOM      7  C5  RES d   1      18.473  -0.406  13.785  0.00  0.00    -0.027 A 
ATOM      8  C4  RES d   1      18.662   0.869  14.288  0.00  0.00     0.022 A 
ATOM      9  C3  RES d   1      18.879   1.054  15.639  0.00  0.00    -0.001 A 
ATOM     10  C34 RES d   1      18.913  -0.040  16.492  0.00  0.00     0.074 A 
ATOM     11  C33 RES d   1      18.719  -1.317  15.985  0.00  0.00     0.038 A 
ATOM     12  C32 RES d   1      18.501  -1.497  14.633  0.00  0.00     0.012 A 
BRANCH   9  13
ATOM     13  C2  RES d   1      19.084   2.443  16.186  0.00  0.00     0.205 C 
BRANCH  13  14
ATOM     14  O1  RES d   1      18.025   2.761  17.092  0.00  0.00    -0.396 OA
ATOM     15  H36 RES d   1      17.906   3.709  17.241  0.00  0.00     0.209 HD
ENDBRANCH  13  14
ENDBRANCH   9  13
BRANCH  10  16
ATOM     16  O35 RES d   1      19.128   0.139  17.822  0.00  0.00    -0.360 OA
ATOM     17  H66 RES d   1      18.343  -0.001  18.369  0.00  0.00     0.217 HD
ENDBRANCH  10  16
ENDBRANCH   6   7
BRANCH   6  18
ATOM     18  O8  RES d   1      16.840  -0.797  12.073  0.00  0.00    -0.389 OA
ATOM     19  H40 RES d   1      16.635  -1.152  11.198  0.00  0.00     0.210 HD
ENDBRANCH   6  18
ENDBRANCH   5   6
ENDBRANCH   2   5
ENDBRANCH   1   2
BRANCH   1  20
ATOM     20  C14 RES d   1      19.329   1.696   9.212  0.00  0.00     0.027 C 
BRANCH  20  21
ATOM     21  C15 RES d   1      19.045   1.460   7.728  0.00  0.00     0.002 C 
BRANCH  21  22
ATOM     22  C16 RES d   1      18.208   0.189   7.563  0.00  0.00     0.002 C 
BRANCH  22  23
ATOM     23  C17 RES d   1      19.136  -1.017   7.402  0.00  0.00     0.026 C 
BRANCH  23  24
ATOM     24  C18 RES d   1      19.144  -1.461   5.938  0.00  0.00     0.167 C 
BRANCH  24  25
ATOM     25  O19 RES d   1      19.839  -2.705   5.822  0.00  0.00    -0.389 OA
BRANCH  25  26
ATOM     26  C20 RES d   1      19.077  -3.837   6.244  0.00  0.00     0.193 C 
BRANCH  26  27
ATOM     27  C21 RES d   1      20.017  -4.891   6.833  0.00  0.00     0.194 C 
BRANCH  27  28
ATOM     28  O22 RES d   1      20.287  -4.579   8.201  0.00  0.00    -0.384 OA
BRANCH  28  29
ATOM     29  C23 RES d   1      20.026  -5.654   9.105  0.00  0.00     0.209 C 
BRANCH  29  30
ATOM     30  C24 RES d   1      18.802  -5.336   9.924  0.00  0.00     0.009 A 
ATOM     31  C30 RES d   1      18.909  -4.537  11.047  0.00  0.00     0.044 A 
ATOM     32  C29 RES d   1      17.783  -4.240  11.797  0.00  0.00     0.024 A 
ATOM     33 Cl31 RES d   1      20.454  -3.894  11.510  0.00  0.00    -0.084 Cl
ATOM     34  C28 RES d   1      16.554  -4.753  11.428  0.00  0.00     0.003 A 
ATOM     35  C27 RES d   1      16.446  -5.556  10.308  0.00  0.00     0.024 A 
ATOM     36  C25 RES d   1      17.570  -5.849   9.556  0.00  0.00     0.044 A 
ATOM     37 Cl26 RES d   1      17.435  -6.858   8.150  0.00  0.00    -0.084 Cl
ENDBRANCH  29  30
ENDBRANCH  28  29
ENDBRANCH  27  28
ENDBRANCH  26  27
ENDBRANCH  25  26
ENDBRANCH  24  25
ENDBRANCH  23  24
ENDBRANCH  22  23
ENDBRANCH  21  22
ENDBRANCH  20  21
ENDBRANCH   1  20
TORSDOF 19
ENDMDL
MODEL 6
REMARK VINA RESULT:      -6.7      1.614      2.464
REMARK  19 active torsions:
REMARK  status: ('A' for Active; 'I' for Inactive)
REMARK    1  A    between atoms: O1_1  and  C2_2 
REMARK    2  A    between atoms: C2_2  and  C3_3 
REMARK    3  A    between atoms: C5_5  and  C6_6 
REMARK    4  A    between atoms: C6_6  and  O8_7 
REMARK    5  A    between atoms: C6_6  and  C9_8 
REMARK    6  A    between atoms: C9_8  and  N10_9 
REMARK    7  A    between atoms: N10_9  and  C13_12 
REMARK    8  A    between atoms: C13_12  and  C14_13 
REMARK    9  A    between atoms: C14_13  and  C15_14 
REMARK   10  A    between atoms: C15_14  and  C16_15 
REMARK   11  A    between atoms: C16_15  and  C17_16 
REMARK   12  A    between atoms: C17_16  and  C18_17 
REMARK   13  A    between atoms: C18_17  and  O19_18 
REMARK   14  A    between atoms: O19_18  and  C20_19 
REMARK   15  A    between atoms: C20_19  and  C21_20 
REMARK   16  A    between atoms: C21_20  and  O22_21 
REMARK   17  A    between atoms: O22_21  and  C23_22 
REMARK   18  A    between atoms: C23_22  and  C24_23 
REMARK   19  A    between atoms: C34_33  and  O35_34 
ROOT
ATOM      1  C13 RES d   1      18.007  -0.736  10.385  0.00  0.00     0.232 C 
ENDROOT
BRANCH   1   2
ATOM      2  N10 RES d   1      19.422  -1.032  10.129  0.00  0.00    -0.072 N 
ATOM      3  H11 RES d   1      19.813  -0.318   9.535  0.00  0.00     0.277 HD
ATOM      4  H12 RES d   1      19.501  -1.929   9.672  0.00  0.00     0.277 HD
BRANCH   2   5
ATOM      5  C9  RES d   1      20.154  -1.065  11.402  0.00  0.00     0.268 C 
BRANCH   5   6
ATOM      6  C6  RES d   1      20.342   0.362  11.920  0.00  0.00     0.176 C 
BRANCH   6   7
ATOM      7  C5  RES d   1      19.566   0.539  13.199  0.00  0.00    -0.027 A 
ATOM      8  C4  RES d   1      19.565  -0.466  14.151  0.00  0.00     0.022 A 
ATOM      9  C3  RES d   1      18.855  -0.306  15.324  0.00  0.00    -0.001 A 
ATOM     10  C34 RES d   1      18.137   0.860  15.546  0.00  0.00     0.074 A 
ATOM     11  C33 RES d   1      18.143   1.868  14.593  0.00  0.00     0.038 A 
ATOM     12  C32 RES d   1      18.856   1.704  13.421  0.00  0.00     0.012 A 
BRANCH   9  13
ATOM     13  C2  RES d   1      18.854  -1.401  16.360  0.00  0.00     0.205 C 
BRANCH  13  14
ATOM     14  O1  RES d   1      19.432  -0.911  17.572  0.00  0.00    -0.396 OA
ATOM     15  H36 RES d   1      19.448  -1.559  18.290  0.00  0.00     0.209 HD
ENDBRANCH  13  14
ENDBRANCH   9  13
BRANCH  10  16
ATOM     16  O35 RES d   1      17.436   1.019  16.700  0.00  0.00    -0.360 OA
ATOM     17  H66 RES d   1      16.490   0.836  16.614  0.00  0.00     0.217 HD
ENDBRANCH  10  16
ENDBRANCH   6   7
BRANCH   6  18
ATOM     18  O8  RES d   1      21.729   0.601  12.167  0.00  0.00    -0.389 OA
ATOM     19  H40 RES d   1      21.980   0.532  13.098  0.00  0.00     0.210 HD
ENDBRANCH   6  18
ENDBRANCH   5   6
ENDBRANCH   2   5
ENDBRANCH   1   2
BRANCH   1  20
ATOM     20  C14 RES d   1      17.438   0.083   9.225  0.00  0.00     0.027 C 
BRANCH  20  21
ATOM     21  C15 RES d   1      18.338   1.292   8.963  0.00  0.00     0.002 C 
BRANCH  21  22
ATOM     22  C16 RES d   1      19.010   1.143   7.597  0.00  0.00     0.002 C 
BRANCH  22  23
ATOM     23  C17 RES d   1      18.128   0.288   6.684  0.00  0.00     0.026 C 
BRANCH  23  24
ATOM     24  C18 RES d   1      18.972  -0.819   6.051  0.00  0.00     0.167 C 
BRANCH  24  25
ATOM     25  O19 RES d   1      19.329  -1.777   7.050  0.00  0.00    -0.389 OA
BRANCH  25  26
ATOM     26  C20 RES d   1      19.565  -3.090   6.538  0.00  0.00     0.193 C 
BRANCH  26  27
ATOM     27  C21 RES d   1      18.354  -3.976   6.836  0.00  0.00     0.194 C 
BRANCH  27  28
ATOM     28  O22 RES d   1      18.735  -5.350   6.746  0.00  0.00    -0.384 OA
BRANCH  28  29
ATOM     29  C23 RES d   1      18.095  -6.195   7.704  0.00  0.00     0.209 C 
BRANCH  29  30
ATOM     30  C24 RES d   1      18.145  -5.542   9.062  0.00  0.00     0.009 A 
ATOM     31  C30 RES d   1      16.974  -5.156   9.688  0.00  0.00     0.044 A 
ATOM     32  C29 RES d   1      17.020  -4.561  10.937  0.00  0.00     0.024 A 
ATOM     33 Cl31 RES d   1      15.445  -5.429   8.913  0.00  0.00    -0.084 Cl
ATOM     34  C28 RES d   1      18.238  -4.343  11.554  0.00  0.00     0.003 A 
ATOM     35  C27 RES d   1      19.409  -4.724  10.926  0.00  0.00     0.024 A 
ATOM     36  C25 RES d   1      19.364  -5.324   9.680  0.00  0.00     0.044 A 
ATOM     37 Cl26 RES d   1      20.835  -5.801   8.891  0.00  0.00    -0.084 Cl
ENDBRANCH  29  30
ENDBRANCH  28  29
ENDBRANCH  27  28
ENDBRANCH  26  27
ENDBRANCH  25  26
ENDBRANCH  24  25
ENDBRANCH  23  24
ENDBRANCH  22  23
ENDBRANCH  21  22
ENDBRANCH  20  21
ENDBRANCH   1  20
TORSDOF 19
ENDMDL
MODEL 7
REMARK VINA RESULT:      -6.7      3.701      9.692
REMARK  19 active torsions:
REMARK  status: ('A' for Active; 'I' for Inactive)
REMARK    1  A    between atoms: O1_1  and  C2_2 
REMARK    2  A    between atoms: C2_2  and  C3_3 
REMARK    3  A    between atoms: C5_5  and  C6_6 
REMARK    4  A    between atoms: C6_6  and  O8_7 
REMARK    5  A    between atoms: C6_6  and  C9_8 
REMARK    6  A    between atoms: C9_8  and  N10_9 
REMARK    7  A    between atoms: N10_9  and  C13_12 
REMARK    8  A    between atoms: C13_12  and  C14_13 
REMARK    9  A    between atoms: C14_13  and  C15_14 
REMARK   10  A    between atoms: C15_14  and  C16_15 
REMARK   11  A    between atoms: C16_15  and  C17_16 
REMARK   12  A    between atoms: C17_16  and  C18_17 
REMARK   13  A    between atoms: C18_17  and  O19_18 
REMARK   14  A    between atoms: O19_18  and  C20_19 
REMARK   15  A    between atoms: C20_19  and  C21_20 
REMARK   16  A    between atoms: C21_20  and  O22_21 
REMARK   17  A    between atoms: O22_21  and  C23_22 
REMARK   18  A    between atoms: C23_22  and  C24_23 
REMARK   19  A    between atoms: C34_33  and  O35_34 
ROOT
ATOM      1  C13 RES d   1      18.606  -1.025  13.387  0.00  0.00     0.232 C 
ENDROOT
BRANCH   1   2
ATOM      2  N10 RES d   1      18.420  -2.163  12.477  0.00  0.00    -0.072 N 
ATOM      3  H11 RES d   1      18.104  -2.964  13.000  0.00  0.00     0.277 HD
ATOM      4  H12 RES d   1      19.296  -2.380  12.026  0.00  0.00     0.277 HD
BRANCH   2   5
ATOM      5  C9  RES d   1      17.419  -1.817  11.459  0.00  0.00     0.268 C 
BRANCH   5   6
ATOM      6  C6  RES d   1      17.342  -0.295  11.315  0.00  0.00     0.176 C 
BRANCH   6   7
ATOM      7  C5  RES d   1      17.839   0.106   9.951  0.00  0.00    -0.027 A 
ATOM      8  C4  RES d   1      17.772  -0.790   8.900  0.00  0.00     0.022 A 
ATOM      9  C3  RES d   1      18.228  -0.424   7.648  0.00  0.00    -0.001 A 
ATOM     10  C34 RES d   1      18.757   0.842   7.446  0.00  0.00     0.074 A 
ATOM     11  C33 RES d   1      18.819   1.741   8.501  0.00  0.00     0.038 A 
ATOM     12  C32 RES d   1      18.361   1.371   9.751  0.00  0.00     0.012 A 
BRANCH   9  13
ATOM     13  C2  RES d   1      18.155  -1.402   6.504  0.00  0.00     0.205 C 
BRANCH  13  14
ATOM     14  O1  RES d   1      17.163  -0.970   5.570  0.00  0.00    -0.396 OA
ATOM     15  H36 RES d   1      16.362  -0.618   5.981  0.00  0.00     0.209 HD
ENDBRANCH  13  14
ENDBRANCH   9  13
BRANCH  10  16
ATOM     16  O35 RES d   1      19.207   1.205   6.216  0.00  0.00    -0.360 OA
ATOM     17  H66 RES d   1      18.569   1.714   5.699  0.00  0.00     0.217 HD
ENDBRANCH  10  16
ENDBRANCH   6   7
BRANCH   6  18
ATOM     18  O8  RES d   1      15.987   0.130  11.472  0.00  0.00    -0.389 OA
ATOM     19  H40 RES d   1      15.570   0.425  10.652  0.00  0.00     0.210 HD
ENDBRANCH   6  18
ENDBRANCH   5   6
ENDBRANCH   2   5
ENDBRANCH   1   2
BRANCH   1  20
ATOM     20  C14 RES d   1      19.544  -1.430  14.525  0.00  0.00     0.027 C 
BRANCH  20  21
ATOM     21  C15 RES d   1      18.748  -1.554  15.825  0.00  0.00     0.002 C 
BRANCH  21  22
ATOM     22  C16 RES d   1      17.827  -0.342  15.977  0.00  0.00     0.002 C 
BRANCH  22  23
ATOM     23  C17 RES d   1      17.799   0.098  17.442  0.00  0.00     0.026 C 
BRANCH  23  24
ATOM     24  C18 RES d   1      19.222   0.409  17.908  0.00  0.00     0.167 C 
BRANCH  24  25
ATOM     25  O19 RES d   1      19.427   1.824  17.902  0.00  0.00    -0.389 OA
BRANCH  25  26
ATOM     26  C20 RES d   1      18.221   2.586  17.988  0.00  0.00     0.193 C 
BRANCH  26  27
ATOM     27  C21 RES d   1      18.549   4.073  17.844  0.00  0.00     0.194 C 
BRANCH  27  28
ATOM     28  O22 RES d   1      17.837   4.613  16.728  0.00  0.00    -0.384 OA
BRANCH  28  29
ATOM     29  C23 RES d   1      18.678   5.170  15.717  0.00  0.00     0.209 C 
BRANCH  29  30
ATOM     30  C24 RES d   1      18.022   5.003  14.370  0.00  0.00     0.009 A 
ATOM     31  C30 RES d   1      18.164   3.816  13.675  0.00  0.00     0.044 A 
ATOM     32  C29 RES d   1      17.558   3.660  12.440  0.00  0.00     0.024 A 
ATOM     33 Cl31 RES d   1      19.092   2.516  14.356  0.00  0.00    -0.084 Cl
ATOM     34  C28 RES d   1      16.820   4.696  11.898  0.00  0.00     0.003 A 
ATOM     35  C27 RES d   1      16.681   5.884  12.590  0.00  0.00     0.024 A 
ATOM     36  C25 RES d   1      17.283   6.038  13.827  0.00  0.00     0.044 A 
ATOM     37 Cl26 RES d   1      17.110   7.531  14.696  0.00  0.00    -0.084 Cl
ENDBRANCH  29  30
ENDBRANCH  28  29
ENDBRANCH  27  28
ENDBRANCH  26  27
ENDBRANCH  25  26
ENDBRANCH  24  25
ENDBRANCH  23  24
ENDBRANCH  22  23
ENDBRANCH  21  22
ENDBRANCH  20  21
ENDBRANCH   1  20
TORSDOF 19
ENDMDL
MODEL 8
REMARK VINA RESULT:      -6.7      2.688      4.164
REMARK  19 active torsions:
REMARK  status: ('A' for Active; 'I' for Inactive)
REMARK    1  A    between atoms: O1_1  and  C2_2 
REMARK    2  A    between atoms: C2_2  and  C3_3 
REMARK    3  A    between atoms: C5_5  and  C6_6 
REMARK    4  A    between atoms: C6_6  and  O8_7 
REMARK    5  A    between atoms: C6_6  and  C9_8 
REMARK    6  A    between atoms: C9_8  and  N10_9 
REMARK    7  A    between atoms: N10_9  and  C13_12 
REMARK    8  A    between atoms: C13_12  and  C14_13 
REMARK    9  A    between atoms: C14_13  and  C15_14 
REMARK   10  A    between atoms: C15_14  and  C16_15 
REMARK   11  A    between atoms: C16_15  and  C17_16 
REMARK   12  A    between atoms: C17_16  and  C18_17 
REMARK   13  A    between atoms: C18_17  and  O19_18 
REMARK   14  A    between atoms: O19_18  and  C20_19 
REMARK   15  A    between atoms: C20_19  and  C21_20 
REMARK   16  A    between atoms: C21_20  and  O22_21 
REMARK   17  A    between atoms: O22_21  and  C23_22 
REMARK   18  A    between atoms: C23_22  and  C24_23 
REMARK   19  A    between atoms: C34_33  and  O35_34 
ROOT
ATOM      1  C13 RES d   1      16.894   5.188  14.079  0.00  0.00     0.232 C 
ENDROOT
BRANCH   1   2
ATOM      2  N10 RES d   1      17.451   4.805  15.383  0.00  0.00    -0.072 N 
ATOM      3  H11 RES d   1      16.881   4.081  15.792  0.00  0.00     0.277 HD
ATOM      4  H12 RES d   1      17.464   5.609  15.993  0.00  0.00     0.277 HD
BRANCH   2   5
ATOM      5  C9  RES d   1      18.821   4.306  15.202  0.00  0.00     0.268 C 
BRANCH   5   6
ATOM      6  C6  RES d   1      19.356   3.789  16.539  0.00  0.00     0.176 C 
BRANCH   6   7
ATOM      7  C5  RES d   1      19.232   2.288  16.583  0.00  0.00    -0.027 A 
ATOM      8  C4  RES d   1      19.124   1.569  15.407  0.00  0.00     0.022 A 
ATOM      9  C3  RES d   1      19.011   0.193  15.445  0.00  0.00    -0.001 A 
ATOM     10  C34 RES d   1      19.000  -0.468  16.664  0.00  0.00     0.074 A 
ATOM     11  C33 RES d   1      19.114   0.255  17.843  0.00  0.00     0.038 A 
ATOM     12  C32 RES d   1      19.228   1.631  17.800  0.00  0.00     0.012 A 
BRANCH   9  13
ATOM     13  C2  RES d   1      18.893  -0.589  14.162  0.00  0.00     0.205 C 
BRANCH  13  14
ATOM     14  O1  RES d   1      20.033  -1.439  14.015  0.00  0.00    -0.396 OA
ATOM     15  H36 RES d   1      20.868  -0.962  13.911  0.00  0.00     0.209 HD
ENDBRANCH  13  14
ENDBRANCH   9  13
BRANCH  10  16
ATOM     16  O35 RES d   1      18.888  -1.822  16.705  0.00  0.00    -0.360 OA
ATOM     17  H66 RES d   1      18.187  -2.141  17.290  0.00  0.00     0.217 HD
ENDBRANCH  10  16
ENDBRANCH   6   7
BRANCH   6  18
ATOM     18  O8  RES d   1      20.729   4.158  16.678  0.00  0.00    -0.389 OA
ATOM     19  H40 RES d   1      20.953   4.520  17.546  0.00  0.00     0.210 HD
ENDBRANCH   6  18
ENDBRANCH   5   6
ENDBRANCH   2   5
ENDBRANCH   1   2
BRANCH   1  20
ATOM     20  C14 RES d   1      17.433   4.250  12.997  0.00  0.00     0.027 C 
BRANCH  20  21
ATOM     21  C15 RES d   1      17.011   4.762  11.620  0.00  0.00     0.002 C 
BRANCH  21  22
ATOM     22  C16 RES d   1      17.707   3.941  10.533  0.00  0.00     0.002 C 
BRANCH  22  23
ATOM     23  C17 RES d   1      19.006   3.354  11.089  0.00  0.00     0.026 C 
BRANCH  23  24
ATOM     24  C18 RES d   1      19.236   1.966  10.490  0.00  0.00     0.167 C 
BRANCH  24  25
ATOM     25  O19 RES d   1      19.235   2.057   9.063  0.00  0.00    -0.389 OA
BRANCH  25  26
ATOM     26  C20 RES d   1      18.331   1.152   8.425  0.00  0.00     0.193 C 
BRANCH  26  27
ATOM     27  C21 RES d   1      19.124   0.159   7.572  0.00  0.00     0.194 C 
BRANCH  27  28
ATOM     28  O22 RES d   1      19.296  -1.061   8.297  0.00  0.00    -0.384 OA
BRANCH  28  29
ATOM     29  C23 RES d   1      18.108  -1.849   8.397  0.00  0.00     0.209 C 
BRANCH  29  30
ATOM     30  C24 RES d   1      18.258  -2.841   9.521  0.00  0.00     0.009 A 
ATOM     31  C30 RES d   1      17.858  -2.503  10.801  0.00  0.00     0.044 A 
ATOM     32  C29 RES d   1      17.990  -3.418  11.832  0.00  0.00     0.024 A 
ATOM     33 Cl31 RES d   1      17.176  -0.937  11.112  0.00  0.00    -0.084 Cl
ATOM     34  C28 RES d   1      18.533  -4.665  11.584  0.00  0.00     0.003 A 
ATOM     35  C27 RES d   1      18.938  -5.001  10.306  0.00  0.00     0.024 A 
ATOM     36  C25 RES d   1      18.801  -4.090   9.273  0.00  0.00     0.044 A 
ATOM     37 Cl26 RES d   1      19.310  -4.512   7.669  0.00  0.00    -0.084 Cl
ENDBRANCH  29  30
ENDBRANCH  28  29
ENDBRANCH  27  28
ENDBRANCH  26  27
ENDBRANCH  25  26
ENDBRANCH  24  25
ENDBRANCH  23  24
ENDBRANCH  22  23
ENDBRANCH  21  22
ENDBRANCH  20  21
ENDBRANCH   1  20
TORSDOF 19
ENDMDL
MODEL 9
REMARK VINA RESULT:      -6.7      3.280      5.882
REMARK  19 active torsions:
REMARK  status: ('A' for Active; 'I' for Inactive)
REMARK    1  A    between atoms: O1_1  and  C2_2 
REMARK    2  A    between atoms: C2_2  and  C3_3 
REMARK    3  A    between atoms: C5_5  and  C6_6 
REMARK    4  A    between atoms: C6_6  and  O8_7 
REMARK    5  A    between atoms: C6_6  and  C9_8 
REMARK    6  A    between atoms: C9_8  and  N10_9 
REMARK    7  A    between atoms: N10_9  and  C13_12 
REMARK    8  A    between atoms: C13_12  and  C14_13 
REMARK    9  A    between atoms: C14_13  and  C15_14 
REMARK   10  A    between atoms: C15_14  and  C16_15 
REMARK   11  A    between atoms: C16_15  and  C17_16 
REMARK   12  A    between atoms: C17_16  and  C18_17 
REMARK   13  A    between atoms: C18_17  and  O19_18 
REMARK   14  A    between atoms: O19_18  and  C20_19 
REMARK   15  A    between atoms: C20_19  and  C21_20 
REMARK   16  A    between atoms: C21_20  and  O22_21 
REMARK   17  A    between atoms: O22_21  and  C23_22 
REMARK   18  A    between atoms: C23_22  and  C24_23 
REMARK   19  A    between atoms: C34_33  and  O35_34 
ROOT
ATOM      1  C13 RES d   1      17.268   6.075  15.301  0.00  0.00     0.232 C 
ENDROOT
BRANCH   1   2
ATOM      2  N10 RES d   1      17.454   4.632  15.498  0.00  0.00    -0.072 N 
ATOM      3  H11 RES d   1      16.852   4.126  14.868  0.00  0.00     0.277 HD
ATOM      4  H12 RES d   1      17.222   4.390  16.451  0.00  0.00     0.277 HD
BRANCH   2   5
ATOM      5  C9  RES d   1      18.854   4.277  15.230  0.00  0.00     0.268 C 
BRANCH   5   6
ATOM      6  C6  RES d   1      19.501   3.749  16.512  0.00  0.00     0.176 C 
BRANCH   6   7
ATOM      7  C5  RES d   1      19.295   2.259  16.602  0.00  0.00    -0.027 A 
ATOM      8  C4  RES d   1      19.196   1.505  15.447  0.00  0.00     0.022 A 
ATOM      9  C3  RES d   1      19.007   0.139  15.527  0.00  0.00    -0.001 A 
ATOM     10  C34 RES d   1      18.910  -0.476  16.767  0.00  0.00     0.074 A 
ATOM     11  C33 RES d   1      19.015   0.282  17.924  0.00  0.00     0.038 A 
ATOM     12  C32 RES d   1      19.205   1.648  17.839  0.00  0.00     0.012 A 
BRANCH   9  13
ATOM     13  C2  RES d   1      18.898  -0.682  14.268  0.00  0.00     0.205 C 
BRANCH  13  14
ATOM     14  O1  RES d   1      20.107  -1.420  14.075  0.00  0.00    -0.396 OA
ATOM     15  H36 RES d   1      20.377  -1.941  14.843  0.00  0.00     0.209 HD
ENDBRANCH  13  14
ENDBRANCH   9  13
BRANCH  10  16
ATOM     16  O35 RES d   1      18.723  -1.819  16.849  0.00  0.00    -0.360 OA
ATOM     17  H66 RES d   1      18.041  -2.084  17.481  0.00  0.00     0.217 HD
ENDBRANCH  10  16
ENDBRANCH   6   7
BRANCH   6  18
ATOM     18  O8  RES d   1      20.901   4.036  16.493  0.00  0.00    -0.389 OA
ATOM     19  H40 RES d   1      21.239   4.401  17.321  0.00  0.00     0.210 HD
ENDBRANCH   6  18
ENDBRANCH   5   6
ENDBRANCH   2   5
ENDBRANCH   1   2
BRANCH   1  20
ATOM     20  C14 RES d   1      16.176   6.311  14.256  0.00  0.00     0.027 C 
BRANCH  20  21
ATOM     21  C15 RES d   1      16.256   5.228  13.179  0.00  0.00     0.002 C 
BRANCH  21  22
ATOM     22  C16 RES d   1      16.889   5.810  11.914  0.00  0.00     0.002 C 
BRANCH  22  23
ATOM     23  C17 RES d   1      17.153   4.685  10.911  0.00  0.00     0.026 C 
BRANCH  23  24
ATOM     24  C18 RES d   1      17.709   3.466  11.647  0.00  0.00     0.167 C 
BRANCH  24  25
ATOM     25  O19 RES d   1      17.093   2.280  11.139  0.00  0.00    -0.389 OA
BRANCH  25  26
ATOM     26  C20 RES d   1      17.859   1.092  11.349  0.00  0.00     0.193 C 
BRANCH  26  27
ATOM     27  C21 RES d   1      17.008  -0.130  10.996  0.00  0.00     0.194 C 
BRANCH  27  28
ATOM     28  O22 RES d   1      17.501  -0.722   9.792  0.00  0.00    -0.384 OA
BRANCH  28  29
ATOM     29  C23 RES d   1      18.831  -0.326   9.453  0.00  0.00     0.209 C 
BRANCH  29  30
ATOM     30  C24 RES d   1      18.972  -0.273   7.953  0.00  0.00     0.009 A 
ATOM     31  C30 RES d   1      19.072  -1.445   7.226  0.00  0.00     0.044 A 
ATOM     32  C29 RES d   1      19.196  -1.397   5.848  0.00  0.00     0.024 A 
ATOM     33 Cl31 RES d   1      19.028  -2.978   8.040  0.00  0.00    -0.084 Cl
ATOM     34  C28 RES d   1      19.231  -0.176   5.200  0.00  0.00     0.003 A 
ATOM     35  C27 RES d   1      19.137   0.996   5.927  0.00  0.00     0.024 A 
ATOM     36  C25 RES d   1      19.007   0.948   7.304  0.00  0.00     0.044 A 
ATOM     37 Cl26 RES d   1      18.890   2.420   8.217  0.00  0.00    -0.084 Cl
ENDBRANCH  29  30
ENDBRANCH  28  29
ENDBRANCH  27  28
ENDBRANCH  26  27
ENDBRANCH  25  26
ENDBRANCH  24  25
ENDBRANCH  23  24
ENDBRANCH  22  23
ENDBRANCH  21  22
ENDBRANCH  20  21
ENDBRANCH   1  20
TORSDOF 19
ENDMDL
