MODEL 1
REMARK VINA RESULT:      -6.1      0.000      0.000
REMARK  9 active torsions:
REMARK  status: ('A' for Active; 'I' for Inactive)
REMARK    1  A    between atoms: N1_1  and  C5_5 
REMARK    2  A    between atoms: C5_5  and  C7_6 
REMARK    3  A    between atoms: C5_5  and  C21_20 
REMARK    4  A    between atoms: C7_6  and  C8_7 
REMARK    5  A    between atoms: C11_10  and  N12_11 
REMARK    6  A    between atoms: N12_11  and  C13_12 
REMARK    7  A    between atoms: N12_11  and  C16_15 
REMARK    8  A    between atoms: C13_12  and  C14_13 
REMARK    9  A    between atoms: C16_15  and  C17_16 
ROOT
ATOM      1  C8  ZIN A   1      18.086   0.533   7.818  0.00  0.00    -0.056 A 
ATOM      2  C9  ZIN A   1      19.022   1.527   8.039  0.00  0.00     0.009 A 
ATOM      3  C10 ZIN A   1      19.236   2.005   9.317  0.00  0.00     0.030 A 
ATOM      4  C11 ZIN A   1      18.514   1.482  10.381  0.00  0.00     0.030 A 
ATOM      5  C19 ZIN A   1      17.569   0.489  10.156  0.00  0.00     0.030 A 
ATOM      6  C20 ZIN A   1      17.360   0.015   8.876  0.00  0.00     0.009 A 
ENDROOT
BRANCH   1   7
ATOM      7  C7  ZIN A   1      17.855   0.014   6.422  0.00  0.00     0.082 C 
BRANCH   7   8
ATOM      8  C5  ZIN A   1      19.188  -0.428   5.815  0.00  0.00     0.287 C 
BRANCH   8   9
ATOM      9  N1  ZIN A   1      19.520   0.441   4.678  0.00  0.00    -0.065 N 
ATOM     10  H2  ZIN A   1      19.916  -0.115   3.935  0.00  0.00     0.275 HD
ATOM     11  H3  ZIN A   1      18.684   0.899   4.348  0.00  0.00     0.275 HD
ATOM     12  H4  ZIN A   1      20.191   1.136   4.971  0.00  0.00     0.275 HD
ENDBRANCH   8   9
BRANCH   8  13
ATOM     13  C21 ZIN A   1      19.077  -1.854   5.342  0.00  0.00     0.204 C 
ATOM     14  O22 ZIN A   1      19.602  -2.192   4.295  0.00  0.00    -0.646 OA
ATOM     15  O23 ZIN A   1      18.462  -2.671   6.007  0.00  0.00    -0.646 OA
ENDBRANCH   8  13
ENDBRANCH   7   8
ENDBRANCH   1   7
BRANCH   4  16
ATOM     16  N12 ZIN A   1      18.732   1.960  11.677  0.00  0.00    -0.379 N 
BRANCH  16  17
ATOM     17  C13 ZIN A   1      19.196   3.334  11.881  0.00  0.00     0.138 C 
BRANCH  17  18
ATOM     18  C14 ZIN A   1      18.027   4.204  12.348  0.00  0.00     0.134 C 
ATOM     19 Cl15 ZIN A   1      16.965   4.588  10.942  0.00  0.00    -0.129 Cl
ENDBRANCH  17  18
ENDBRANCH  16  17
BRANCH  16  20
ATOM     20  C16 ZIN A   1      18.496   1.088  12.828  0.00  0.00     0.138 C 
BRANCH  20  21
ATOM     21  C17 ZIN A   1      19.827   0.503  13.307  0.00  0.00     0.134 C 
ATOM     22 Cl18 ZIN A   1      19.538  -1.102  14.075  0.00  0.00    -0.129 Cl
ENDBRANCH  20  21
ENDBRANCH  16  20
ENDBRANCH   4  16
TORSDOF 9
ENDMDL
MODEL 2
REMARK VINA RESULT:      -6.0      0.248      2.841
REMARK  9 active torsions:
REMARK  status: ('A' for Active; 'I' for Inactive)
REMARK    1  A    between atoms: N1_1  and  C5_5 
REMARK    2  A    between atoms: C5_5  and  C7_6 
REMARK    3  A    between atoms: C5_5  and  C21_20 
REMARK    4  A    between atoms: C7_6  and  C8_7 
REMARK    5  A    between atoms: C11_10  and  N12_11 
REMARK    6  A    between atoms: N12_11  and  C13_12 
REMARK    7  A    between atoms: N12_11  and  C16_15 
REMARK    8  A    between atoms: C13_12  and  C14_13 
REMARK    9  A    between atoms: C16_15  and  C17_16 
ROOT
ATOM      1  C8  ZIN A   1      18.076   0.583   7.800  0.00  0.00    -0.056 A 
ATOM      2  C9  ZIN A   1      18.972   1.621   7.985  0.00  0.00     0.009 A 
ATOM      3  C10 ZIN A   1      19.171   2.147   9.245  0.00  0.00     0.030 A 
ATOM      4  C11 ZIN A   1      18.476   1.629  10.330  0.00  0.00     0.030 A 
ATOM      5  C19 ZIN A   1      17.573   0.591  10.142  0.00  0.00     0.030 A 
ATOM      6  C20 ZIN A   1      17.377   0.070   8.878  0.00  0.00     0.009 A 
ENDROOT
BRANCH   1   7
ATOM      7  C7  ZIN A   1      17.859   0.011   6.423  0.00  0.00     0.082 C 
BRANCH   7   8
ATOM      8  C5  ZIN A   1      19.200  -0.444   5.843  0.00  0.00     0.287 C 
BRANCH   8   9
ATOM      9  N1  ZIN A   1      19.564   0.421   4.712  0.00  0.00    -0.065 N 
ATOM     10  H2  ZIN A   1      19.807  -0.150   3.917  0.00  0.00     0.275 HD
ATOM     11  H3  ZIN A   1      18.782   1.013   4.476  0.00  0.00     0.275 HD
ATOM     12  H4  ZIN A   1      20.355   0.994   4.968  0.00  0.00     0.275 HD
ENDBRANCH   8   9
BRANCH   8  13
ATOM     13  C21 ZIN A   1      19.085  -1.869   5.369  0.00  0.00     0.204 C 
ATOM     14  O22 ZIN A   1      18.502  -2.694   6.052  0.00  0.00    -0.646 OA
ATOM     15  O23 ZIN A   1      19.573  -2.198   4.301  0.00  0.00    -0.646 OA
ENDBRANCH   8  13
ENDBRANCH   7   8
ENDBRANCH   1   7
BRANCH   4  16
ATOM     16  N12 ZIN A   1      18.681   2.156  11.608  0.00  0.00    -0.379 N 
BRANCH  16  17
ATOM     17  C13 ZIN A   1      18.379   1.346  12.791  0.00  0.00     0.138 C 
BRANCH  17  18
ATOM     18  C14 ZIN A   1      19.653   0.647  13.270  0.00  0.00     0.134 C 
ATOM     19 Cl15 ZIN A   1      19.411  -1.139  13.227  0.00  0.00    -0.129 Cl
ENDBRANCH  17  18
ENDBRANCH  16  17
BRANCH  16  20
ATOM     20  C16 ZIN A   1      19.197   3.517  11.765  0.00  0.00     0.138 C 
BRANCH  20  21
ATOM     21  C17 ZIN A   1      18.069   4.440  12.233  0.00  0.00     0.134 C 
ATOM     22 Cl18 ZIN A   1      16.948   4.762  10.858  0.00  0.00    -0.129 Cl
ENDBRANCH  20  21
ENDBRANCH  16  20
ENDBRANCH   4  16
TORSDOF 9
ENDMDL
MODEL 3
REMARK VINA RESULT:      -5.9      5.616      8.414
REMARK  9 active torsions:
REMARK  status: ('A' for Active; 'I' for Inactive)
REMARK    1  A    between atoms: N1_1  and  C5_5 
REMARK    2  A    between atoms: C5_5  and  C7_6 
REMARK    3  A    between atoms: C5_5  and  C21_20 
REMARK    4  A    between atoms: C7_6  and  C8_7 
REMARK    5  A    between atoms: C11_10  and  N12_11 
REMARK    6  A    between atoms: N12_11  and  C13_12 
REMARK    7  A    between atoms: N12_11  and  C16_15 
REMARK    8  A    between atoms: C13_12  and  C14_13 
REMARK    9  A    between atoms: C16_15  and  C17_16 
ROOT
ATOM      1  C8  ZIN A   1      18.064  -0.310  15.323  0.00  0.00    -0.056 A 
ATOM      2  C9  ZIN A   1      17.422   0.481  14.387  0.00  0.00     0.009 A 
ATOM      3  C10 ZIN A   1      17.661   0.291  13.040  0.00  0.00     0.030 A 
ATOM      4  C11 ZIN A   1      18.541  -0.700  12.626  0.00  0.00     0.030 A 
ATOM      5  C19 ZIN A   1      19.188  -1.489  13.568  0.00  0.00     0.030 A 
ATOM      6  C20 ZIN A   1      18.946  -1.293  14.913  0.00  0.00     0.009 A 
ENDROOT
BRANCH   1   7
ATOM      7  C7  ZIN A   1      17.802  -0.100  16.792  0.00  0.00     0.082 C 
BRANCH   7   8
ATOM      8  C5  ZIN A   1      19.088   0.367  17.478  0.00  0.00     0.287 C 
BRANCH   8   9
ATOM      9  N1  ZIN A   1      19.601  -0.707  18.339  0.00  0.00    -0.065 N 
ATOM     10  H2  ZIN A   1      20.165  -1.338  17.789  0.00  0.00     0.275 HD
ATOM     11  H3  ZIN A   1      20.162  -0.309  19.076  0.00  0.00     0.275 HD
ATOM     12  H4  ZIN A   1      18.827  -1.215  18.741  0.00  0.00     0.275 HD
ENDBRANCH   8   9
BRANCH   8  13
ATOM     13  C21 ZIN A   1      18.798   1.586  18.313  0.00  0.00     0.204 C 
ATOM     14  O22 ZIN A   1      17.644   1.886  18.574  0.00  0.00    -0.646 OA
ATOM     15  O23 ZIN A   1      19.715   2.273  18.729  0.00  0.00    -0.646 OA
ENDBRANCH   8  13
ENDBRANCH   7   8
ENDBRANCH   1   7
BRANCH   4  16
ATOM     16  N12 ZIN A   1      18.779  -0.899  11.263  0.00  0.00    -0.379 N 
BRANCH  16  17
ATOM     17  C13 ZIN A   1      19.926  -0.252  10.619  0.00  0.00     0.138 C 
BRANCH  17  18
ATOM     18  C14 ZIN A   1      19.638  -0.073   9.127  0.00  0.00     0.134 C 
ATOM     19 Cl15 ZIN A   1      19.441   1.681   8.759  0.00  0.00    -0.129 Cl
ENDBRANCH  17  18
ENDBRANCH  16  17
BRANCH  16  20
ATOM     20  C16 ZIN A   1      17.884  -1.752  10.480  0.00  0.00     0.138 C 
BRANCH  20  21
ATOM     21  C17 ZIN A   1      18.400  -3.193  10.507  0.00  0.00     0.134 C 
ATOM     22 Cl18 ZIN A   1      17.379  -4.176  11.623  0.00  0.00    -0.129 Cl
ENDBRANCH  20  21
ENDBRANCH  16  20
ENDBRANCH   4  16
TORSDOF 9
ENDMDL
MODEL 4
REMARK VINA RESULT:      -5.8      2.234      2.666
REMARK  9 active torsions:
REMARK  status: ('A' for Active; 'I' for Inactive)
REMARK    1  A    between atoms: N1_1  and  C5_5 
REMARK    2  A    between atoms: C5_5  and  C7_6 
REMARK    3  A    between atoms: C5_5  and  C21_20 
REMARK    4  A    between atoms: C7_6  and  C8_7 
REMARK    5  A    between atoms: C11_10  and  N12_11 
REMARK    6  A    between atoms: N12_11  and  C13_12 
REMARK    7  A    between atoms: N12_11  and  C16_15 
REMARK    8  A    between atoms: C13_12  and  C14_13 
REMARK    9  A    between atoms: C16_15  and  C17_16 
ROOT
ATOM      1  C8  ZIN A   1      18.489   0.508   8.270  0.00  0.00    -0.056 A 
ATOM      2  C9  ZIN A   1      17.720   0.370   9.412  0.00  0.00     0.009 A 
ATOM      3  C10 ZIN A   1      17.653   1.399  10.330  0.00  0.00     0.030 A 
ATOM      4  C11 ZIN A   1      18.354   2.576  10.104  0.00  0.00     0.030 A 
ATOM      5  C19 ZIN A   1      19.131   2.710   8.960  0.00  0.00     0.030 A 
ATOM      6  C20 ZIN A   1      19.194   1.677   8.046  0.00  0.00     0.009 A 
ENDROOT
BRANCH   1   7
ATOM      7  C7  ZIN A   1      18.560  -0.616   7.270  0.00  0.00     0.082 C 
BRANCH   7   8
ATOM      8  C5  ZIN A   1      17.923  -0.168   5.953  0.00  0.00     0.287 C 
BRANCH   8   9
ATOM      9  N1  ZIN A   1      16.473  -0.399   6.007  0.00  0.00    -0.065 N 
ATOM     10  H2  ZIN A   1      16.040  -0.010   5.182  0.00  0.00     0.275 HD
ATOM     11  H3  ZIN A   1      16.290  -1.390   6.047  0.00  0.00     0.275 HD
ATOM     12  H4  ZIN A   1      16.092   0.048   6.828  0.00  0.00     0.275 HD
ENDBRANCH   8   9
BRANCH   8  13
ATOM     13  C21 ZIN A   1      18.515  -0.957   4.815  0.00  0.00     0.204 C 
ATOM     14  O22 ZIN A   1      19.727  -1.044   4.698  0.00  0.00    -0.646 OA
ATOM     15  O23 ZIN A   1      17.784  -1.509   4.010  0.00  0.00    -0.646 OA
ENDBRANCH   8  13
ENDBRANCH   7   8
ENDBRANCH   1   7
BRANCH   4  16
ATOM     16  N12 ZIN A   1      18.284   3.621  11.029  0.00  0.00    -0.379 N 
BRANCH  16  17
ATOM     17  C13 ZIN A   1      17.556   4.848  10.694  0.00  0.00     0.138 C 
BRANCH  17  18
ATOM     18  C14 ZIN A   1      16.338   4.984  11.609  0.00  0.00     0.134 C 
ATOM     19 Cl15 ZIN A   1      16.676   6.215  12.882  0.00  0.00    -0.129 Cl
ENDBRANCH  17  18
ENDBRANCH  16  17
BRANCH  16  20
ATOM     20  C16 ZIN A   1      18.937   3.490  12.333  0.00  0.00     0.138 C 
BRANCH  20  21
ATOM     21  C17 ZIN A   1      19.956   4.619  12.508  0.00  0.00     0.134 C 
ATOM     22 Cl18 ZIN A   1      19.817   5.301  14.172  0.00  0.00    -0.129 Cl
ENDBRANCH  20  21
ENDBRANCH  16  20
ENDBRANCH   4  16
TORSDOF 9
ENDMDL
MODEL 5
REMARK VINA RESULT:      -5.8      5.437      8.615
REMARK  9 active torsions:
REMARK  status: ('A' for Active; 'I' for Inactive)
REMARK    1  A    between atoms: N1_1  and  C5_5 
REMARK    2  A    between atoms: C5_5  and  C7_6 
REMARK    3  A    between atoms: C5_5  and  C21_20 
REMARK    4  A    between atoms: C7_6  and  C8_7 
REMARK    5  A    between atoms: C11_10  and  N12_11 
REMARK    6  A    between atoms: N12_11  and  C13_12 
REMARK    7  A    between atoms: N12_11  and  C16_15 
REMARK    8  A    between atoms: C13_12  and  C14_13 
REMARK    9  A    between atoms: C16_15  and  C17_16 
ROOT
ATOM      1  C8  ZIN A   1      18.130  -0.245  15.201  0.00  0.00    -0.056 A 
ATOM      2  C9  ZIN A   1      17.427   0.375  14.184  0.00  0.00     0.009 A 
ATOM      3  C10 ZIN A   1      17.670   0.036  12.868  0.00  0.00     0.030 A 
ATOM      4  C11 ZIN A   1      18.616  -0.934  12.566  0.00  0.00     0.030 A 
ATOM      5  C19 ZIN A   1      19.325  -1.552  13.588  0.00  0.00     0.030 A 
ATOM      6  C20 ZIN A   1      19.078  -1.207  14.902  0.00  0.00     0.009 A 
ENDROOT
BRANCH   1   7
ATOM      7  C7  ZIN A   1      17.864   0.127  16.637  0.00  0.00     0.082 C 
BRANCH   7   8
ATOM      8  C5  ZIN A   1      19.176   0.531  17.311  0.00  0.00     0.287 C 
BRANCH   8   9
ATOM      9  N1  ZIN A   1      19.455  -0.384  18.427  0.00  0.00    -0.065 N 
ATOM     10  H2  ZIN A   1      19.386   0.120  19.298  0.00  0.00     0.275 HD
ATOM     11  H3  ZIN A   1      18.786  -1.138  18.419  0.00  0.00     0.275 HD
ATOM     12  H4  ZIN A   1      20.387  -0.759  18.329  0.00  0.00     0.275 HD
ENDBRANCH   8   9
BRANCH   8  13
ATOM     13  C21 ZIN A   1      19.062   1.939  17.832  0.00  0.00     0.204 C 
ATOM     14  O22 ZIN A   1      19.672   2.270  18.835  0.00  0.00    -0.646 OA
ATOM     15  O23 ZIN A   1      18.359   2.749  17.251  0.00  0.00    -0.646 OA
ENDBRANCH   8  13
ENDBRANCH   7   8
ENDBRANCH   1   7
BRANCH   4  16
ATOM     16  N12 ZIN A   1      18.859  -1.284  11.234  0.00  0.00    -0.379 N 
BRANCH  16  17
ATOM     17  C13 ZIN A   1      17.827  -1.977  10.459  0.00  0.00     0.138 C 
BRANCH  17  18
ATOM     18  C14 ZIN A   1      17.470  -3.295  11.149  0.00  0.00     0.134 C 
ATOM     19 Cl15 ZIN A   1      18.937  -4.338  11.250  0.00  0.00    -0.129 Cl
ENDBRANCH  17  18
ENDBRANCH  16  17
BRANCH  16  20
ATOM     20  C16 ZIN A   1      20.145  -0.958  10.615  0.00  0.00     0.138 C 
BRANCH  20  21
ATOM     21  C17 ZIN A   1      19.903  -0.235   9.288  0.00  0.00     0.134 C 
ATOM     22 Cl18 ZIN A   1      19.270   1.422   9.612  0.00  0.00    -0.129 Cl
ENDBRANCH  20  21
ENDBRANCH  16  20
ENDBRANCH   4  16
TORSDOF 9
ENDMDL
MODEL 6
REMARK VINA RESULT:      -5.6      1.908      2.966
REMARK  9 active torsions:
REMARK  status: ('A' for Active; 'I' for Inactive)
REMARK    1  A    between atoms: N1_1  and  C5_5 
REMARK    2  A    between atoms: C5_5  and  C7_6 
REMARK    3  A    between atoms: C5_5  and  C21_20 
REMARK    4  A    between atoms: C7_6  and  C8_7 
REMARK    5  A    between atoms: C11_10  and  N12_11 
REMARK    6  A    between atoms: N12_11  and  C13_12 
REMARK    7  A    between atoms: N12_11  and  C16_15 
REMARK    8  A    between atoms: C13_12  and  C14_13 
REMARK    9  A    between atoms: C16_15  and  C17_16 
ROOT
ATOM      1  C8  ZIN A   1      18.474   0.923   8.124  0.00  0.00    -0.056 A 
ATOM      2  C9  ZIN A   1      17.482   0.228   8.792  0.00  0.00     0.009 A 
ATOM      3  C10 ZIN A   1      17.374   0.325  10.166  0.00  0.00     0.030 A 
ATOM      4  C11 ZIN A   1      18.259   1.127  10.875  0.00  0.00     0.030 A 
ATOM      5  C19 ZIN A   1      19.258   1.819  10.202  0.00  0.00     0.030 A 
ATOM      6  C20 ZIN A   1      19.360   1.717   8.828  0.00  0.00     0.009 A 
ENDROOT
BRANCH   1   7
ATOM      7  C7  ZIN A   1      18.589   0.814   6.625  0.00  0.00     0.082 C 
BRANCH   7   8
ATOM      8  C5  ZIN A   1      18.558  -0.660   6.216  0.00  0.00     0.287 C 
BRANCH   8   9
ATOM      9  N1  ZIN A   1      19.488  -1.421   7.062  0.00  0.00    -0.065 N 
ATOM     10  H2  ZIN A   1      20.205  -0.804   7.413  0.00  0.00     0.275 HD
ATOM     11  H3  ZIN A   1      18.985  -1.827   7.836  0.00  0.00     0.275 HD
ATOM     12  H4  ZIN A   1      19.915  -2.155   6.516  0.00  0.00     0.275 HD
ENDBRANCH   8   9
BRANCH   8  13
ATOM     13  C21 ZIN A   1      18.969  -0.790   4.773  0.00  0.00     0.204 C 
ATOM     14  O22 ZIN A   1      18.542  -0.003   3.944  0.00  0.00    -0.646 OA
ATOM     15  O23 ZIN A   1      19.730  -1.680   4.434  0.00  0.00    -0.646 OA
ENDBRANCH   8  13
ENDBRANCH   7   8
ENDBRANCH   1   7
BRANCH   4  16
ATOM     16  N12 ZIN A   1      18.149   1.232  12.264  0.00  0.00    -0.379 N 
BRANCH  16  17
ATOM     17  C13 ZIN A   1      17.403   0.221  13.017  0.00  0.00     0.138 C 
BRANCH  17  18
ATOM     18  C14 ZIN A   1      18.339  -0.929  13.393  0.00  0.00     0.134 C 
ATOM     19 Cl15 ZIN A   1      18.285  -1.191  15.176  0.00  0.00    -0.129 Cl
ENDBRANCH  17  18
ENDBRANCH  16  17
BRANCH  16  20
ATOM     20  C16 ZIN A   1      18.778   2.351  12.966  0.00  0.00     0.138 C 
BRANCH  20  21
ATOM     21  C17 ZIN A   1      18.074   2.574  14.306  0.00  0.00     0.134 C 
ATOM     22 Cl18 ZIN A   1      19.216   2.207  15.653  0.00  0.00    -0.129 Cl
ENDBRANCH  20  21
ENDBRANCH  16  20
ENDBRANCH   4  16
TORSDOF 9
ENDMDL
MODEL 7
REMARK VINA RESULT:      -5.6      4.195      6.436
REMARK  9 active torsions:
REMARK  status: ('A' for Active; 'I' for Inactive)
REMARK    1  A    between atoms: N1_1  and  C5_5 
REMARK    2  A    between atoms: C5_5  and  C7_6 
REMARK    3  A    between atoms: C5_5  and  C21_20 
REMARK    4  A    between atoms: C7_6  and  C8_7 
REMARK    5  A    between atoms: C11_10  and  N12_11 
REMARK    6  A    between atoms: N12_11  and  C13_12 
REMARK    7  A    between atoms: N12_11  and  C16_15 
REMARK    8  A    between atoms: C13_12  and  C14_13 
REMARK    9  A    between atoms: C16_15  and  C17_16 
ROOT
ATOM      1  C8  ZIN A   1      18.311   2.249   9.569  0.00  0.00    -0.056 A 
ATOM      2  C9  ZIN A   1      17.547   1.253  10.150  0.00  0.00     0.009 A 
ATOM      3  C10 ZIN A   1      17.635  -0.045   9.690  0.00  0.00     0.030 A 
ATOM      4  C11 ZIN A   1      18.497  -0.353   8.646  0.00  0.00     0.030 A 
ATOM      5  C19 ZIN A   1      19.260   0.649   8.060  0.00  0.00     0.030 A 
ATOM      6  C20 ZIN A   1      19.167   1.946   8.525  0.00  0.00     0.009 A 
ENDROOT
BRANCH   1   7
ATOM      7  C7  ZIN A   1      18.212   3.665  10.074  0.00  0.00     0.082 C 
BRANCH   7   8
ATOM      8  C5  ZIN A   1      17.710   3.658  11.519  0.00  0.00     0.287 C 
BRANCH   8   9
ATOM      9  N1  ZIN A   1      16.830   4.816  11.737  0.00  0.00    -0.065 N 
ATOM     10  H2  ZIN A   1      17.192   5.373  12.497  0.00  0.00     0.275 HD
ATOM     11  H3  ZIN A   1      16.794   5.373  10.898  0.00  0.00     0.275 HD
ATOM     12  H4  ZIN A   1      15.903   4.494  11.969  0.00  0.00     0.275 HD
ENDBRANCH   8   9
BRANCH   8  13
ATOM     13  C21 ZIN A   1      18.884   3.735  12.459  0.00  0.00     0.204 C 
ATOM     14  O22 ZIN A   1      19.089   2.831  13.253  0.00  0.00    -0.646 OA
ATOM     15  O23 ZIN A   1      19.629   4.699  12.428  0.00  0.00    -0.646 OA
ENDBRANCH   8  13
ENDBRANCH   7   8
ENDBRANCH   1   7
BRANCH   4  16
ATOM     16  N12 ZIN A   1      18.593  -1.668   8.182  0.00  0.00    -0.379 N 
BRANCH  16  17
ATOM     17  C13 ZIN A   1      19.355  -1.961   6.965  0.00  0.00     0.138 C 
BRANCH  17  18
ATOM     18  C14 ZIN A   1      18.428  -1.876   5.751  0.00  0.00     0.134 C 
ATOM     19 Cl15 ZIN A   1      19.103  -0.701   4.561  0.00  0.00    -0.129 Cl
ENDBRANCH  17  18
ENDBRANCH  16  17
BRANCH  16  20
ATOM     20  C16 ZIN A   1      17.932  -2.752   8.912  0.00  0.00     0.138 C 
BRANCH  20  21
ATOM     21  C17 ZIN A   1      18.989  -3.690   9.499  0.00  0.00     0.134 C 
ATOM     22 Cl18 ZIN A   1      19.634  -2.986  11.029  0.00  0.00    -0.129 Cl
ENDBRANCH  20  21
ENDBRANCH  16  20
ENDBRANCH   4  16
TORSDOF 9
ENDMDL
MODEL 8
REMARK VINA RESULT:      -5.5      1.543      3.239
REMARK  9 active torsions:
REMARK  status: ('A' for Active; 'I' for Inactive)
REMARK    1  A    between atoms: N1_1  and  C5_5 
REMARK    2  A    between atoms: C5_5  and  C7_6 
REMARK    3  A    between atoms: C5_5  and  C21_20 
REMARK    4  A    between atoms: C7_6  and  C8_7 
REMARK    5  A    between atoms: C11_10  and  N12_11 
REMARK    6  A    between atoms: N12_11  and  C13_12 
REMARK    7  A    between atoms: N12_11  and  C16_15 
REMARK    8  A    between atoms: C13_12  and  C14_13 
REMARK    9  A    between atoms: C16_15  and  C17_16 
ROOT
ATOM      1  C8  ZIN A   1      18.611  -0.045   8.604  0.00  0.00    -0.056 A 
ATOM      2  C9  ZIN A   1      17.733  -0.436   9.599  0.00  0.00     0.009 A 
ATOM      3  C10 ZIN A   1      17.625   0.305  10.758  0.00  0.00     0.030 A 
ATOM      4  C11 ZIN A   1      18.394   1.450  10.923  0.00  0.00     0.030 A 
ATOM      5  C19 ZIN A   1      19.280   1.838   9.925  0.00  0.00     0.030 A 
ATOM      6  C20 ZIN A   1      19.384   1.091   8.768  0.00  0.00     0.009 A 
ENDROOT
BRANCH   1   7
ATOM      7  C7  ZIN A   1      18.728  -0.856   7.340  0.00  0.00     0.082 C 
BRANCH   7   8
ATOM      8  C5  ZIN A   1      18.152  -0.060   6.168  0.00  0.00     0.287 C 
BRANCH   8   9
ATOM      9  N1  ZIN A   1      16.685  -0.157   6.182  0.00  0.00    -0.065 N 
ATOM     10  H2  ZIN A   1      16.398  -0.977   5.669  0.00  0.00     0.275 HD
ATOM     11  H3  ZIN A   1      16.362  -0.227   7.135  0.00  0.00     0.275 HD
ATOM     12  H4  ZIN A   1      16.289   0.664   5.751  0.00  0.00     0.275 HD
ENDBRANCH   8   9
BRANCH   8  13
ATOM     13  C21 ZIN A   1      18.680  -0.619   4.873  0.00  0.00     0.204 C 
ATOM     14  O22 ZIN A   1      19.880  -0.623   4.654  0.00  0.00    -0.646 OA
ATOM     15  O23 ZIN A   1      17.908  -1.069   4.043  0.00  0.00    -0.646 OA
ENDBRANCH   8  13
ENDBRANCH   7   8
ENDBRANCH   1   7
BRANCH   4  16
ATOM     16  N12 ZIN A   1      18.283   2.206  12.093  0.00  0.00    -0.379 N 
BRANCH  16  17
ATOM     17  C13 ZIN A   1      17.938   1.551  13.357  0.00  0.00     0.138 C 
BRANCH  17  18
ATOM     18  C14 ZIN A   1      19.220   1.202  14.117  0.00  0.00     0.134 C 
ATOM     19 Cl15 ZIN A   1      19.202   2.012  15.728  0.00  0.00    -0.129 Cl
ENDBRANCH  17  18
ENDBRANCH  16  17
BRANCH  16  20
ATOM     20  C16 ZIN A   1      18.510   3.651  12.055  0.00  0.00     0.138 C 
BRANCH  20  21
ATOM     21  C17 ZIN A   1      17.222   4.360  11.631  0.00  0.00     0.134 C 
ATOM     22 Cl18 ZIN A   1      17.456   5.111  10.008  0.00  0.00    -0.129 Cl
ENDBRANCH  20  21
ENDBRANCH  16  20
ENDBRANCH   4  16
TORSDOF 9
ENDMDL
MODEL 9
REMARK VINA RESULT:      -5.5      5.041      7.950
REMARK  9 active torsions:
REMARK  status: ('A' for Active; 'I' for Inactive)
REMARK    1  A    between atoms: N1_1  and  C5_5 
REMARK    2  A    between atoms: C5_5  and  C7_6 
REMARK    3  A    between atoms: C5_5  and  C21_20 
REMARK    4  A    between atoms: C7_6  and  C8_7 
REMARK    5  A    between atoms: C11_10  and  N12_11 
REMARK    6  A    between atoms: N12_11  and  C13_12 
REMARK    7  A    between atoms: N12_11  and  C16_15 
REMARK    8  A    between atoms: C13_12  and  C14_13 
REMARK    9  A    between atoms: C16_15  and  C17_16 
ROOT
ATOM      1  C8  ZIN A   1      18.858   0.122  14.271  0.00  0.00    -0.056 A 
ATOM      2  C9  ZIN A   1      17.569   0.318  13.810  0.00  0.00     0.009 A 
ATOM      3  C10 ZIN A   1      17.347   0.607  12.478  0.00  0.00     0.030 A 
ATOM      4  C11 ZIN A   1      18.419   0.693  11.600  0.00  0.00     0.030 A 
ATOM      5  C19 ZIN A   1      19.713   0.501  12.066  0.00  0.00     0.030 A 
ATOM      6  C20 ZIN A   1      19.928   0.214  13.400  0.00  0.00     0.009 A 
ENDROOT
BRANCH   1   7
ATOM      7  C7  ZIN A   1      19.097  -0.193  15.726  0.00  0.00     0.082 C 
BRANCH   7   8
ATOM      8  C5  ZIN A   1      18.854   1.063  16.565  0.00  0.00     0.287 C 
BRANCH   8   9
ATOM      9  N1  ZIN A   1      19.596   2.191  15.985  0.00  0.00    -0.065 N 
ATOM     10  H2  ZIN A   1      20.371   2.429  16.587  0.00  0.00     0.275 HD
ATOM     11  H3  ZIN A   1      19.944   1.933  15.074  0.00  0.00     0.275 HD
ATOM     12  H4  ZIN A   1      18.983   2.988  15.898  0.00  0.00     0.275 HD
ENDBRANCH   8   9
BRANCH   8  13
ATOM     13  C21 ZIN A   1      19.326   0.824  17.975  0.00  0.00     0.204 C 
ATOM     14  O22 ZIN A   1      19.277  -0.298  18.453  0.00  0.00    -0.646 OA
ATOM     15  O23 ZIN A   1      19.757   1.751  18.640  0.00  0.00    -0.646 OA
ENDBRANCH   8  13
ENDBRANCH   7   8
ENDBRANCH   1   7
BRANCH   4  16
ATOM     16  N12 ZIN A   1      18.196   0.979  10.250  0.00  0.00    -0.379 N 
BRANCH  16  17
ATOM     17  C13 ZIN A   1      17.387   0.071   9.433  0.00  0.00     0.138 C 
BRANCH  17  18
ATOM     18  C14 ZIN A   1      18.192  -1.192   9.124  0.00  0.00     0.134 C 
ATOM     19 Cl15 ZIN A   1      17.744  -2.492  10.290  0.00  0.00    -0.129 Cl
ENDBRANCH  17  18
ENDBRANCH  16  17
BRANCH  16  20
ATOM     20  C16 ZIN A   1      18.772   2.185   9.653  0.00  0.00     0.138 C 
BRANCH  20  21
ATOM     21  C17 ZIN A   1      18.070   3.421  10.220  0.00  0.00     0.134 C 
ATOM     22 Cl18 ZIN A   1      19.048   4.098  11.575  0.00  0.00    -0.129 Cl
ENDBRANCH  20  21
ENDBRANCH  16  20
ENDBRANCH   4  16
TORSDOF 9
ENDMDL
