MODEL 1
REMARK VINA RESULT:      -7.8      0.000      0.000
REMARK  3 active torsions:
REMARK  status: ('A' for Active; 'I' for Inactive)
REMARK    1  A    between atoms: N5_5  and  C7_7 
REMARK    2  A    between atoms: C7_7  and  C9_8 
REMARK    3  A    between atoms: C7_7  and  C15_14 
ROOT
ATOM      1  C7  <0> d   1      19.273  -0.724  12.873  0.00  0.00     0.254 C 
ENDROOT
BRANCH   1   2
ATOM      2  N5  <0> d   1      18.624   0.390  12.170  0.00  0.00    -0.055 N 
ATOM      3  C4  <0> d   1      18.955   0.327  10.740  0.00  0.00     0.266 C 
ATOM      4  C3  <0> d   1      18.263   1.476  10.004  0.00  0.00     0.299 C 
ATOM      5  N2  <0> d   1      18.712   2.756  10.571  0.00  0.00     0.087 N 
ATOM      6  C1  <0> d   1      18.113   3.889   9.852  0.00  0.00     0.310 C 
ATOM      7  C23 <0> d   1      18.410   2.825  12.008  0.00  0.00     0.299 C 
ATOM      8  C22 <0> d   1      19.100   1.664  12.727  0.00  0.00     0.266 C 
ATOM      9  H6  <0> d   1      17.624   0.325  12.287  0.00  0.00     0.281 HD
ENDBRANCH   1   2
BRANCH   1  10
ATOM     10  C9  <0> d   1      18.800  -0.760  14.303  0.00  0.00    -0.023 A 
ATOM     11  C14 <0> d   1      19.502  -1.487  15.246  0.00  0.00     0.009 A 
ATOM     12  C13 <0> d   1      19.071  -1.515  16.559  0.00  0.00     0.001 A 
ATOM     13  C12 <0> d   1      17.933  -0.824  16.928  0.00  0.00     0.000 A 
ATOM     14  C11 <0> d   1      17.228  -0.100  15.984  0.00  0.00     0.001 A 
ATOM     15  C10 <0> d   1      17.661  -0.069  14.672  0.00  0.00     0.009 A 
ENDBRANCH   1  10
BRANCH   1  16
ATOM     16  C15 <0> d   1      18.917  -2.022  12.194  0.00  0.00    -0.023 A 
ATOM     17  C21 <0> d   1      17.596  -2.321  11.923  0.00  0.00     0.011 A 
ATOM     18  C20 <0> d   1      17.271  -3.509  11.295  0.00  0.00     0.024 A 
ATOM     19  C18 <0> d   1      18.268  -4.402  10.946  0.00  0.00     0.034 A 
ATOM     20  C17 <0> d   1      19.590  -4.105  11.223  0.00  0.00     0.024 A 
ATOM     21 Cl19 <0> d   1      17.859  -5.897  10.165  0.00  0.00    -0.084 Cl
ATOM     22  C16 <0> d   1      19.914  -2.915  11.847  0.00  0.00     0.011 A 
ENDBRANCH   1  16
TORSDOF 3
ENDMDL
MODEL 2
REMARK VINA RESULT:      -7.4      1.660      4.743
REMARK  3 active torsions:
REMARK  status: ('A' for Active; 'I' for Inactive)
REMARK    1  A    between atoms: N5_5  and  C7_7 
REMARK    2  A    between atoms: C7_7  and  C9_8 
REMARK    3  A    between atoms: C7_7  and  C15_14 
ROOT
ATOM      1  C7  <0> d   1      17.895  -0.204  12.930  0.00  0.00     0.254 C 
ENDROOT
BRANCH   1   2
ATOM      2  N5  <0> d   1      18.574  -0.139  14.231  0.00  0.00    -0.055 N 
ATOM      3  C4  <0> d   1      18.273  -1.352  15.003  0.00  0.00     0.266 C 
ATOM      4  C3  <0> d   1      18.996  -1.293  16.350  0.00  0.00     0.299 C 
ATOM      5  N2  <0> d   1      18.552  -0.102  17.088  0.00  0.00     0.087 N 
ATOM      6  C1  <0> d   1      19.182  -0.039  18.414  0.00  0.00     0.310 C 
ATOM      7  C23 <0> d   1      18.823   1.121  16.318  0.00  0.00     0.299 C 
ATOM      8  C22 <0> d   1      18.103   1.041  14.971  0.00  0.00     0.266 C 
ATOM      9  H6  <0> d   1      19.570  -0.069  14.088  0.00  0.00     0.281 HD
ENDBRANCH   1   2
BRANCH   1  10
ATOM     10  C9  <0> d   1      18.279   0.995  12.102  0.00  0.00    -0.023 A 
ATOM     11  C14 <0> d   1      17.397   1.498  11.164  0.00  0.00     0.009 A 
ATOM     12  C13 <0> d   1      17.748   2.601  10.408  0.00  0.00     0.001 A 
ATOM     13  C12 <0> d   1      18.984   3.194  10.582  0.00  0.00     0.000 A 
ATOM     14  C11 <0> d   1      19.868   2.687  11.516  0.00  0.00     0.001 A 
ATOM     15  C10 <0> d   1      19.515   1.587  12.276  0.00  0.00     0.009 A 
ENDBRANCH   1  10
BRANCH   1  16
ATOM     16  C15 <0> d   1      18.305  -1.464  12.212  0.00  0.00    -0.023 A 
ATOM     17  C21 <0> d   1      19.633  -1.846  12.191  0.00  0.00     0.011 A 
ATOM     18  C20 <0> d   1      20.008  -3.005  11.537  0.00  0.00     0.024 A 
ATOM     19  C18 <0> d   1      19.055  -3.776  10.896  0.00  0.00     0.034 A 
ATOM     20  C17 <0> d   1      17.727  -3.390  10.913  0.00  0.00     0.024 A 
ATOM     21 Cl19 <0> d   1      19.527  -5.227  10.068  0.00  0.00    -0.084 Cl
ATOM     22  C16 <0> d   1      17.352  -2.234  11.571  0.00  0.00     0.011 A 
ENDBRANCH   1  16
TORSDOF 3
ENDMDL
MODEL 3
REMARK VINA RESULT:      -7.3      3.998      7.581
REMARK  3 active torsions:
REMARK  status: ('A' for Active; 'I' for Inactive)
REMARK    1  A    between atoms: N5_5  and  C7_7 
REMARK    2  A    between atoms: C7_7  and  C9_8 
REMARK    3  A    between atoms: C7_7  and  C15_14 
ROOT
ATOM      1  C7  <0> d   1      19.016  -0.930   8.626  0.00  0.00     0.254 C 
ENDROOT
BRANCH   1   2
ATOM      2  N5  <0> d   1      18.289  -1.971   9.366  0.00  0.00    -0.055 N 
ATOM      3  C4  <0> d   1      19.062  -2.358  10.554  0.00  0.00     0.266 C 
ATOM      4  C3  <0> d   1      18.296  -3.428  11.334  0.00  0.00     0.299 C 
ATOM      5  N2  <0> d   1      18.077  -4.597  10.470  0.00  0.00     0.087 N 
ATOM      6  C1  <0> d   1      17.393  -5.672  11.202  0.00  0.00     0.310 C 
ATOM      7  C23 <0> d   1      17.326  -4.221   9.263  0.00  0.00     0.299 C 
ATOM      8  C22 <0> d   1      18.100  -3.144   8.501  0.00  0.00     0.266 C 
ATOM      9  H6  <0> d   1      17.389  -1.615   9.650  0.00  0.00     0.281 HD
ENDBRANCH   1   2
BRANCH   1  10
ATOM     10  C9  <0> d   1      18.613  -0.971   7.175  0.00  0.00    -0.023 A 
ATOM     11  C14 <0> d   1      19.428  -1.593   6.248  0.00  0.00     0.009 A 
ATOM     12  C13 <0> d   1      19.056  -1.634   4.918  0.00  0.00     0.001 A 
ATOM     13  C12 <0> d   1      17.874  -1.045   4.512  0.00  0.00     0.000 A 
ATOM     14  C11 <0> d   1      17.061  -0.418   5.438  0.00  0.00     0.001 A 
ATOM     15  C10 <0> d   1      17.431  -0.380   6.769  0.00  0.00     0.009 A 
ENDBRANCH   1  10
BRANCH   1  16
ATOM     16  C15 <0> d   1      18.682   0.422   9.203  0.00  0.00    -0.023 A 
ATOM     17  C21 <0> d   1      17.745   0.530  10.213  0.00  0.00     0.011 A 
ATOM     18  C20 <0> d   1      17.443   1.770  10.746  0.00  0.00     0.024 A 
ATOM     19  C18 <0> d   1      18.073   2.902  10.261  0.00  0.00     0.034 A 
ATOM     20  C17 <0> d   1      19.007   2.794   9.246  0.00  0.00     0.024 A 
ATOM     21 Cl19 <0> d   1      17.688   4.459  10.924  0.00  0.00    -0.084 Cl
ATOM     22  C16 <0> d   1      19.311   1.553   8.718  0.00  0.00     0.011 A 
ENDBRANCH   1  16
TORSDOF 3
ENDMDL
MODEL 4
REMARK VINA RESULT:      -7.3      2.788      3.619
REMARK  3 active torsions:
REMARK  status: ('A' for Active; 'I' for Inactive)
REMARK    1  A    between atoms: N5_5  and  C7_7 
REMARK    2  A    between atoms: C7_7  and  C9_8 
REMARK    3  A    between atoms: C7_7  and  C15_14 
ROOT
ATOM      1  C7  <0> d   1      18.809   1.652  13.453  0.00  0.00     0.254 C 
ENDROOT
BRANCH   1   2
ATOM      2  N5  <0> d   1      18.016   2.835  13.811  0.00  0.00    -0.055 N 
ATOM      3  C4  <0> d   1      17.794   3.657  12.614  0.00  0.00     0.266 C 
ATOM      4  C3  <0> d   1      16.951   4.879  12.983  0.00  0.00     0.299 C 
ATOM      5  N2  <0> d   1      17.652   5.661  14.012  0.00  0.00     0.087 N 
ATOM      6  C1  <0> d   1      16.900   6.876  14.353  0.00  0.00     0.310 C 
ATOM      7  C23 <0> d   1      17.904   4.844  15.208  0.00  0.00     0.299 C 
ATOM      8  C22 <0> d   1      18.738   3.622  14.820  0.00  0.00     0.266 C 
ATOM      9  H6  <0> d   1      17.126   2.542  14.188  0.00  0.00     0.281 HD
ENDBRANCH   1   2
BRANCH   1  10
ATOM     10  C9  <0> d   1      18.573   0.562  14.466  0.00  0.00    -0.023 A 
ATOM     11  C14 <0> d   1      19.422  -0.527  14.521  0.00  0.00     0.009 A 
ATOM     12  C13 <0> d   1      19.208  -1.524  15.454  0.00  0.00     0.001 A 
ATOM     13  C12 <0> d   1      18.140  -1.437  16.327  0.00  0.00     0.000 A 
ATOM     14  C11 <0> d   1      17.288  -0.350  16.269  0.00  0.00     0.001 A 
ATOM     15  C10 <0> d   1      17.504   0.650  15.338  0.00  0.00     0.009 A 
ENDBRANCH   1  10
BRANCH   1  16
ATOM     16  C15 <0> d   1      18.398   1.166  12.087  0.00  0.00    -0.023 A 
ATOM     17  C21 <0> d   1      17.185   0.527  11.917  0.00  0.00     0.011 A 
ATOM     18  C20 <0> d   1      16.806   0.086  10.663  0.00  0.00     0.024 A 
ATOM     19  C18 <0> d   1      17.645   0.276   9.580  0.00  0.00     0.034 A 
ATOM     20  C17 <0> d   1      18.863   0.910   9.752  0.00  0.00     0.024 A 
ATOM     21 Cl19 <0> d   1      17.173  -0.285   8.007  0.00  0.00    -0.084 Cl
ATOM     22  C16 <0> d   1      19.239   1.355  11.006  0.00  0.00     0.011 A 
ENDBRANCH   1  16
TORSDOF 3
ENDMDL
MODEL 5
REMARK VINA RESULT:      -7.3      3.198      5.849
REMARK  3 active torsions:
REMARK  status: ('A' for Active; 'I' for Inactive)
REMARK    1  A    between atoms: N5_5  and  C7_7 
REMARK    2  A    between atoms: C7_7  and  C9_8 
REMARK    3  A    between atoms: C7_7  and  C15_14 
ROOT
ATOM      1  C7  <0> d   1      17.660   0.498   9.964  0.00  0.00     0.254 C 
ENDROOT
BRANCH   1   2
ATOM      2  N5  <0> d   1      18.258  -0.687  10.592  0.00  0.00    -0.055 N 
ATOM      3  C4  <0> d   1      18.574  -1.683   9.559  0.00  0.00     0.266 C 
ATOM      4  C3  <0> d   1      19.215  -2.910  10.211  0.00  0.00     0.299 C 
ATOM      5  N2  <0> d   1      18.283  -3.480  11.195  0.00  0.00     0.087 N 
ATOM      6  C1  <0> d   1      18.840  -4.696  11.803  0.00  0.00     0.310 C 
ATOM      7  C23 <0> d   1      17.937  -2.487  12.222  0.00  0.00     0.299 C 
ATOM      8  C22 <0> d   1      17.307  -1.264  11.553  0.00  0.00     0.266 C 
ATOM      9  H6  <0> d   1      19.103  -0.422  11.074  0.00  0.00     0.281 HD
ENDBRANCH   1   2
BRANCH   1  10
ATOM     10  C9  <0> d   1      18.269   1.742  10.556  0.00  0.00    -0.023 A 
ATOM     11  C14 <0> d   1      19.449   1.662  11.270  0.00  0.00     0.009 A 
ATOM     12  C13 <0> d   1      20.011   2.804  11.809  0.00  0.00     0.001 A 
ATOM     13  C12 <0> d   1      19.387   4.026  11.643  0.00  0.00     0.000 A 
ATOM     14  C11 <0> d   1      18.203   4.106  10.933  0.00  0.00     0.001 A 
ATOM     15  C10 <0> d   1      17.644   2.964  10.390  0.00  0.00     0.009 A 
ENDBRANCH   1  10
BRANCH   1  16
ATOM     16  C15 <0> d   1      17.923   0.467   8.480  0.00  0.00    -0.023 A 
ATOM     17  C21 <0> d   1      19.058   1.065   7.967  0.00  0.00     0.011 A 
ATOM     18  C20 <0> d   1      19.301   1.031   6.606  0.00  0.00     0.024 A 
ATOM     19  C18 <0> d   1      18.404   0.407   5.758  0.00  0.00     0.034 A 
ATOM     20  C17 <0> d   1      17.265  -0.186   6.272  0.00  0.00     0.024 A 
ATOM     21 Cl19 <0> d   1      18.706   0.372   4.049  0.00  0.00    -0.084 Cl
ATOM     22  C16 <0> d   1      17.025  -0.156   7.633  0.00  0.00     0.011 A 
ENDBRANCH   1  16
TORSDOF 3
ENDMDL
MODEL 6
REMARK VINA RESULT:      -7.2      2.616      5.573
REMARK  3 active torsions:
REMARK  status: ('A' for Active; 'I' for Inactive)
REMARK    1  A    between atoms: N5_5  and  C7_7 
REMARK    2  A    between atoms: C7_7  and  C9_8 
REMARK    3  A    between atoms: C7_7  and  C15_14 
ROOT
ATOM      1  C7  <0> d   1      19.170  -0.462  12.033  0.00  0.00     0.254 C 
ENDROOT
BRANCH   1   2
ATOM      2  N5  <0> d   1      18.299  -1.385  11.294  0.00  0.00    -0.055 N 
ATOM      3  C4  <0> d   1      18.173  -2.644  12.041  0.00  0.00     0.266 C 
ATOM      4  C3  <0> d   1      17.251  -3.599  11.280  0.00  0.00     0.299 C 
ATOM      5  N2  <0> d   1      17.811  -3.856   9.945  0.00  0.00     0.087 N 
ATOM      6  C1  <0> d   1      16.982  -4.816   9.203  0.00  0.00     0.310 C 
ATOM      7  C23 <0> d   1      17.966  -2.602   9.194  0.00  0.00     0.299 C 
ATOM      8  C22 <0> d   1      18.882  -1.655   9.973  0.00  0.00     0.266 C 
ATOM      9  H6  <0> d   1      17.387  -0.969  11.180  0.00  0.00     0.281 HD
ENDBRANCH   1   2
BRANCH   1  10
ATOM     10  C9  <0> d   1      18.993   0.935  11.496  0.00  0.00    -0.023 A 
ATOM     11  C14 <0> d   1      17.876   1.251  10.745  0.00  0.00     0.009 A 
ATOM     12  C13 <0> d   1      17.712   2.533  10.257  0.00  0.00     0.001 A 
ATOM     13  C12 <0> d   1      18.669   3.497  10.509  0.00  0.00     0.000 A 
ATOM     14  C11 <0> d   1      19.789   3.180  11.256  0.00  0.00     0.001 A 
ATOM     15  C10 <0> d   1      19.951   1.898  11.748  0.00  0.00     0.009 A 
ENDBRANCH   1  10
BRANCH   1  16
ATOM     16  C15 <0> d   1      18.804  -0.488  13.495  0.00  0.00    -0.023 A 
ATOM     17  C21 <0> d   1      17.729   0.252  13.952  0.00  0.00     0.011 A 
ATOM     18  C20 <0> d   1      17.390   0.224  15.292  0.00  0.00     0.024 A 
ATOM     19  C18 <0> d   1      18.133  -0.537  16.177  0.00  0.00     0.034 A 
ATOM     20  C17 <0> d   1      19.212  -1.273  15.720  0.00  0.00     0.024 A 
ATOM     21 Cl19 <0> d   1      17.712  -0.567  17.860  0.00  0.00    -0.084 Cl
ATOM     22  C16 <0> d   1      19.547  -1.247  14.379  0.00  0.00     0.011 A 
ENDBRANCH   1  16
TORSDOF 3
ENDMDL
MODEL 7
REMARK VINA RESULT:      -7.2      2.512      5.234
REMARK  3 active torsions:
REMARK  status: ('A' for Active; 'I' for Inactive)
REMARK    1  A    between atoms: N5_5  and  C7_7 
REMARK    2  A    between atoms: C7_7  and  C9_8 
REMARK    3  A    between atoms: C7_7  and  C15_14 
ROOT
ATOM      1  C7  <0> d   1      19.418   0.743  11.691  0.00  0.00     0.254 C 
ENDROOT
BRANCH   1   2
ATOM      2  N5  <0> d   1      18.893  -0.090  10.601  0.00  0.00    -0.055 N 
ATOM      3  C4  <0> d   1      18.556  -1.423  11.120  0.00  0.00     0.266 C 
ATOM      4  C3  <0> d   1      17.991  -2.284   9.988  0.00  0.00     0.299 C 
ATOM      5  N2  <0> d   1      18.991  -2.396   8.917  0.00  0.00     0.087 N 
ATOM      6  C1  <0> d   1      18.508  -3.265   7.835  0.00  0.00     0.310 C 
ATOM      7  C23 <0> d   1      19.358  -1.068   8.403  0.00  0.00     0.299 C 
ATOM      8  C22 <0> d   1      19.911  -0.217   9.548  0.00  0.00     0.266 C 
ATOM      9  H6  <0> d   1      18.065   0.341  10.217  0.00  0.00     0.281 HD
ENDBRANCH   1   2
BRANCH   1  10
ATOM     10  C9  <0> d   1      18.961   2.166  11.501  0.00  0.00    -0.023 A 
ATOM     11  C14 <0> d   1      17.901   2.445  10.659  0.00  0.00     0.009 A 
ATOM     12  C13 <0> d   1      17.479   3.750  10.490  0.00  0.00     0.001 A 
ATOM     13  C12 <0> d   1      18.122   4.777  11.154  0.00  0.00     0.000 A 
ATOM     14  C11 <0> d   1      19.186   4.498  11.992  0.00  0.00     0.001 A 
ATOM     15  C10 <0> d   1      19.606   3.192  12.165  0.00  0.00     0.009 A 
ENDBRANCH   1  10
BRANCH   1  16
ATOM     16  C15 <0> d   1      18.908   0.222  13.011  0.00  0.00    -0.023 A 
ATOM     17  C21 <0> d   1      17.679   0.636  13.488  0.00  0.00     0.011 A 
ATOM     18  C20 <0> d   1      17.210   0.154  14.696  0.00  0.00     0.024 A 
ATOM     19  C18 <0> d   1      17.975  -0.734  15.431  0.00  0.00     0.034 A 
ATOM     20  C17 <0> d   1      19.208  -1.143  14.955  0.00  0.00     0.024 A 
ATOM     21 Cl19 <0> d   1      17.389  -1.333  16.951  0.00  0.00    -0.084 Cl
ATOM     22  C16 <0> d   1      19.674  -0.664  13.745  0.00  0.00     0.011 A 
ENDBRANCH   1  16
TORSDOF 3
ENDMDL
MODEL 8
REMARK VINA RESULT:      -7.1      2.428      5.182
REMARK  3 active torsions:
REMARK  status: ('A' for Active; 'I' for Inactive)
REMARK    1  A    between atoms: N5_5  and  C7_7 
REMARK    2  A    between atoms: C7_7  and  C9_8 
REMARK    3  A    between atoms: C7_7  and  C15_14 
ROOT
ATOM      1  C7  <0> d   1      19.639  -1.043  12.067  0.00  0.00     0.254 C 
ENDROOT
BRANCH   1   2
ATOM      2  N5  <0> d   1      18.983  -0.458  13.244  0.00  0.00    -0.055 N 
ATOM      3  C4  <0> d   1      19.797   0.652  13.757  0.00  0.00     0.266 C 
ATOM      4  C3  <0> d   1      19.104   1.274  14.972  0.00  0.00     0.299 C 
ATOM      5  N2  <0> d   1      18.933   0.249  16.012  0.00  0.00     0.087 N 
ATOM      6  C1  <0> d   1      18.322   0.821  17.219  0.00  0.00     0.310 C 
ATOM      7  C23 <0> d   1      18.142  -0.882  15.506  0.00  0.00     0.299 C 
ATOM      8  C22 <0> d   1      18.842  -1.485  14.286  0.00  0.00     0.266 C 
ATOM      9  H6  <0> d   1      18.070  -0.115  12.985  0.00  0.00     0.281 HD
ENDBRANCH   1   2
BRANCH   1  10
ATOM     10  C9  <0> d   1      19.071  -2.414  11.804  0.00  0.00    -0.023 A 
ATOM     11  C14 <0> d   1      17.706  -2.582  11.667  0.00  0.00     0.009 A 
ATOM     12  C13 <0> d   1      17.185  -3.838  11.421  0.00  0.00     0.001 A 
ATOM     13  C12 <0> d   1      18.028  -4.929  11.321  0.00  0.00     0.000 A 
ATOM     14  C11 <0> d   1      19.393  -4.761  11.464  0.00  0.00     0.001 A 
ATOM     15  C10 <0> d   1      19.914  -3.504  11.706  0.00  0.00     0.009 A 
ENDBRANCH   1  10
BRANCH   1  16
ATOM     16  C15 <0> d   1      19.399  -0.161  10.869  0.00  0.00    -0.023 A 
ATOM     17  C21 <0> d   1      18.498   0.883  10.948  0.00  0.00     0.011 A 
ATOM     18  C20 <0> d   1      18.283   1.695   9.850  0.00  0.00     0.024 A 
ATOM     19  C18 <0> d   1      18.963   1.457   8.670  0.00  0.00     0.034 A 
ATOM     20  C17 <0> d   1      19.861   0.407   8.589  0.00  0.00     0.024 A 
ATOM     21 Cl19 <0> d   1      18.687   2.471   7.289  0.00  0.00    -0.084 Cl
ATOM     22  C16 <0> d   1      20.079  -0.401   9.689  0.00  0.00     0.011 A 
ENDBRANCH   1  16
TORSDOF 3
ENDMDL
MODEL 9
REMARK VINA RESULT:      -7.1      2.666      4.374
REMARK  3 active torsions:
REMARK  status: ('A' for Active; 'I' for Inactive)
REMARK    1  A    between atoms: N5_5  and  C7_7 
REMARK    2  A    between atoms: C7_7  and  C9_8 
REMARK    3  A    between atoms: C7_7  and  C15_14 
ROOT
ATOM      1  C7  <0> d   1      19.065   1.219  10.592  0.00  0.00     0.254 C 
ENDROOT
BRANCH   1   2
ATOM      2  N5  <0> d   1      18.141   2.224  11.135  0.00  0.00    -0.055 N 
ATOM      3  C4  <0> d   1      18.044   3.356  10.204  0.00  0.00     0.266 C 
ATOM      4  C3  <0> d   1      17.067   4.393  10.762  0.00  0.00     0.299 C 
ATOM      5  N2  <0> d   1      17.544   4.856  12.073  0.00  0.00     0.087 N 
ATOM      6  C1  <0> d   1      16.661   5.896  12.617  0.00  0.00     0.310 C 
ATOM      7  C23 <0> d   1      17.671   3.729  13.009  0.00  0.00     0.299 C 
ATOM      8  C22 <0> d   1      18.642   2.698  12.433  0.00  0.00     0.266 C 
ATOM      9  H6  <0> d   1      17.229   1.810  11.259  0.00  0.00     0.281 HD
ENDBRANCH   1   2
BRANCH   1  10
ATOM     10  C9  <0> d   1      18.971  -0.044  11.407  0.00  0.00    -0.023 A 
ATOM     11  C14 <0> d   1      19.889  -1.060  11.216  0.00  0.00     0.009 A 
ATOM     12  C13 <0> d   1      19.805  -2.217  11.967  0.00  0.00     0.001 A 
ATOM     13  C12 <0> d   1      18.798  -2.363  12.903  0.00  0.00     0.000 A 
ATOM     14  C11 <0> d   1      17.877  -1.349  13.090  0.00  0.00     0.001 A 
ATOM     15  C10 <0> d   1      17.964  -0.190  12.342  0.00  0.00     0.009 A 
ENDBRANCH   1  10
BRANCH   1  16
ATOM     16  C15 <0> d   1      18.699   0.923   9.160  0.00  0.00    -0.023 A 
ATOM     17  C21 <0> d   1      19.473   1.425   8.131  0.00  0.00     0.011 A 
ATOM     18  C20 <0> d   1      19.140   1.148   6.818  0.00  0.00     0.024 A 
ATOM     19  C18 <0> d   1      18.027   0.377   6.534  0.00  0.00     0.034 A 
ATOM     20  C17 <0> d   1      17.250  -0.120   7.565  0.00  0.00     0.024 A 
ATOM     21 Cl19 <0> d   1      17.605   0.036   4.886  0.00  0.00    -0.084 Cl
ATOM     22  C16 <0> d   1      17.586   0.153   8.878  0.00  0.00     0.011 A 
ENDBRANCH   1  16
TORSDOF 3
ENDMDL
