MODEL 1
REMARK VINA RESULT:      -8.8      0.000      0.000
REMARK  5 active torsions:
REMARK  status: ('A' for Active; 'I' for Inactive)
REMARK    1  A    between atoms: N5_5  and  C6_6 
REMARK    2  A    between atoms: C6_6  and  C7_7 
REMARK    3  A    between atoms: C7_7  and  C8_8 
REMARK    4  A    between atoms: C8_8  and  N9_9 
REMARK    5  A    between atoms: C20_20  and  C21_21 
ROOT
ATOM      1  N9  ZIN A   1      18.194   2.411  13.421  0.00  0.00    -0.345 N 
ATOM      2  C10 ZIN A   1      18.310   2.709  12.066  0.00  0.00     0.052 A 
ATOM      3  C11 ZIN A   1      17.619   3.805  11.560  0.00  0.00     0.031 A 
ATOM      4  C12 ZIN A   1      17.714   4.134  10.222  0.00  0.00     0.002 A 
ATOM      5  C13 ZIN A   1      18.498   3.374   9.375  0.00  0.00     0.002 A 
ATOM      6  C14 ZIN A   1      19.188   2.281   9.867  0.00  0.00     0.021 A 
ATOM      7  C15 ZIN A   1      19.097   1.944  11.209  0.00  0.00     0.032 A 
ATOM      8  S16 ZIN A   1      19.979   0.544  11.810  0.00  0.00    -0.086 SA
ATOM      9  C17 ZIN A   1      19.195   0.194  13.346  0.00  0.00     0.032 A 
ATOM     10  C18 ZIN A   1      19.380  -1.049  13.936  0.00  0.00     0.022 A 
ATOM     11  C19 ZIN A   1      18.770  -1.345  15.142  0.00  0.00     0.017 A 
ATOM     12  C20 ZIN A   1      17.978  -0.400  15.764  0.00  0.00     0.050 A 
ATOM     13  C25 ZIN A   1      17.790   0.840  15.184  0.00  0.00     0.047 A 
ATOM     14  C26 ZIN A   1      18.403   1.149  13.972  0.00  0.00     0.053 A 
ENDROOT
BRANCH   1  15
ATOM     15  C8  ZIN A   1      17.832   3.501  14.332  0.00  0.00     0.131 C 
BRANCH  15  16
ATOM     16  C7  ZIN A   1      19.075   4.337  14.646  0.00  0.00     0.050 C 
BRANCH  16  17
ATOM     17  C6  ZIN A   1      19.576   3.996  16.050  0.00  0.00     0.274 C 
BRANCH  17  18
ATOM     18  N5  ZIN A   1      18.434   3.912  16.970  0.00  0.00     0.091 N 
ATOM     19  C4  ZIN A   1      18.099   5.234  17.517  0.00  0.00     0.302 C 
ATOM     20  C3  ZIN A   1      16.858   5.116  18.406  0.00  0.00     0.302 C 
ATOM     21  N2  ZIN A   1      17.121   4.154  19.485  0.00  0.00     0.087 N 
ATOM     22  C1  ZIN A   1      15.978   4.070  20.404  0.00  0.00     0.310 C 
ATOM     23  C28 ZIN A   1      17.455   2.832  18.937  0.00  0.00     0.302 C 
ATOM     24  C27 ZIN A   1      18.695   2.948  18.049  0.00  0.00     0.302 C 
ENDBRANCH  17  18
ENDBRANCH  16  17
ENDBRANCH  15  16
ENDBRANCH   1  15
BRANCH  12  25
ATOM     25  C21 ZIN A   1      17.313  -0.724  17.078  0.00  0.00     0.417 C 
ATOM     26  F22 ZIN A   1      18.234  -0.562  18.118  0.00  0.00    -0.166 F 
ATOM     27  F23 ZIN A   1      16.230   0.138  17.276  0.00  0.00    -0.166 F 
ATOM     28  F24 ZIN A   1      16.859  -2.047  17.057  0.00  0.00    -0.166 F 
ENDBRANCH  12  25
TORSDOF 5
ENDMDL
MODEL 2
REMARK VINA RESULT:      -8.3      3.693      4.906
REMARK  5 active torsions:
REMARK  status: ('A' for Active; 'I' for Inactive)
REMARK    1  A    between atoms: N5_5  and  C6_6 
REMARK    2  A    between atoms: C6_6  and  C7_7 
REMARK    3  A    between atoms: C7_7  and  C8_8 
REMARK    4  A    between atoms: C8_8  and  N9_9 
REMARK    5  A    between atoms: C20_20  and  C21_21 
ROOT
ATOM      1  N9  ZIN A   1      18.043  -0.562  11.411  0.00  0.00    -0.345 N 
ATOM      2  C10 ZIN A   1      18.167   0.729  10.902  0.00  0.00     0.052 A 
ATOM      3  C11 ZIN A   1      17.563   1.778  11.586  0.00  0.00     0.031 A 
ATOM      4  C12 ZIN A   1      17.669   3.072  11.113  0.00  0.00     0.002 A 
ATOM      5  C13 ZIN A   1      18.377   3.332   9.955  0.00  0.00     0.002 A 
ATOM      6  C14 ZIN A   1      18.980   2.295   9.267  0.00  0.00     0.021 A 
ATOM      7  C15 ZIN A   1      18.878   0.993   9.734  0.00  0.00     0.032 A 
ATOM      8  S16 ZIN A   1      19.649  -0.310   8.836  0.00  0.00    -0.086 SA
ATOM      9  C17 ZIN A   1      18.857  -1.756   9.452  0.00  0.00     0.032 A 
ATOM     10  C18 ZIN A   1      18.945  -2.939   8.731  0.00  0.00     0.022 A 
ATOM     11  C19 ZIN A   1      18.328  -4.086   9.197  0.00  0.00     0.017 A 
ATOM     12  C20 ZIN A   1      17.624  -4.056  10.385  0.00  0.00     0.050 A 
ATOM     13  C25 ZIN A   1      17.532  -2.882  11.109  0.00  0.00     0.047 A 
ATOM     14  C26 ZIN A   1      18.154  -1.724  10.651  0.00  0.00     0.053 A 
ENDROOT
BRANCH   1  15
ATOM     15  C8  ZIN A   1      17.784  -0.708  12.845  0.00  0.00     0.131 C 
BRANCH  15  16
ATOM     16  C7  ZIN A   1      19.113  -0.731  13.604  0.00  0.00     0.050 C 
BRANCH  16  17
ATOM     17  C6  ZIN A   1      18.885  -1.279  15.014  0.00  0.00     0.274 C 
BRANCH  17  18
ATOM     18  N5  ZIN A   1      18.589  -0.168  15.929  0.00  0.00     0.091 N 
ATOM     19  C4  ZIN A   1      19.235   1.072  15.476  0.00  0.00     0.302 C 
ATOM     20  C3  ZIN A   1      18.838   2.219  16.410  0.00  0.00     0.302 C 
ATOM     21  N2  ZIN A   1      19.240   1.890  17.784  0.00  0.00     0.087 N 
ATOM     22  C1  ZIN A   1      18.943   3.002  18.698  0.00  0.00     0.310 C 
ATOM     23  C28 ZIN A   1      18.594   0.650  18.236  0.00  0.00     0.302 C 
ATOM     24  C27 ZIN A   1      18.990  -0.497  17.304  0.00  0.00     0.302 C 
ENDBRANCH  17  18
ENDBRANCH  16  17
ENDBRANCH  15  16
ENDBRANCH   1  15
BRANCH  12  25
ATOM     25  C21 ZIN A   1      16.951  -5.307  10.891  0.00  0.00     0.417 C 
ATOM     26  F22 ZIN A   1      15.629  -5.341  10.437  0.00  0.00    -0.166 F 
ATOM     27  F23 ZIN A   1      17.637  -6.429  10.415  0.00  0.00    -0.166 F 
ATOM     28  F24 ZIN A   1      16.965  -5.310  12.290  0.00  0.00    -0.166 F 
ENDBRANCH  12  25
TORSDOF 5
ENDMDL
MODEL 3
REMARK VINA RESULT:      -8.3      3.801      7.887
REMARK  5 active torsions:
REMARK  status: ('A' for Active; 'I' for Inactive)
REMARK    1  A    between atoms: N5_5  and  C6_6 
REMARK    2  A    between atoms: C6_6  and  C7_7 
REMARK    3  A    between atoms: C7_7  and  C8_8 
REMARK    4  A    between atoms: C8_8  and  N9_9 
REMARK    5  A    between atoms: C20_20  and  C21_21 
ROOT
ATOM      1  N9  ZIN A   1      18.820   1.278  14.128  0.00  0.00    -0.345 N 
ATOM      2  C10 ZIN A   1      18.902   0.764  15.420  0.00  0.00     0.052 A 
ATOM      3  C11 ZIN A   1      18.672  -0.594  15.616  0.00  0.00     0.031 A 
ATOM      4  C12 ZIN A   1      18.749  -1.140  16.882  0.00  0.00     0.002 A 
ATOM      5  C13 ZIN A   1      19.056  -0.339  17.966  0.00  0.00     0.002 A 
ATOM      6  C14 ZIN A   1      19.285   1.013  17.783  0.00  0.00     0.021 A 
ATOM      7  C15 ZIN A   1      19.209   1.569  16.514  0.00  0.00     0.032 A 
ATOM      8  S16 ZIN A   1      19.498   3.293  16.308  0.00  0.00    -0.086 SA
ATOM      9  C17 ZIN A   1      18.810   3.638  14.725  0.00  0.00     0.032 A 
ATOM     10  C18 ZIN A   1      18.530   4.952  14.377  0.00  0.00     0.022 A 
ATOM     11  C19 ZIN A   1      17.987   5.244  13.139  0.00  0.00     0.017 A 
ATOM     12  C20 ZIN A   1      17.723   4.225  12.244  0.00  0.00     0.050 A 
ATOM     13  C25 ZIN A   1      18.000   2.913  12.583  0.00  0.00     0.047 A 
ATOM     14  C26 ZIN A   1      18.552   2.611  13.825  0.00  0.00     0.053 A 
ENDROOT
BRANCH   1  15
ATOM     15  C8  ZIN A   1      19.038   0.355  13.011  0.00  0.00     0.131 C 
BRANCH  15  16
ATOM     16  C7  ZIN A   1      20.440   0.569  12.438  0.00  0.00     0.050 C 
BRANCH  16  17
ATOM     17  C6  ZIN A   1      20.649  -0.361  11.242  0.00  0.00     0.274 C 
BRANCH  17  18
ATOM     18  N5  ZIN A   1      19.530  -0.210  10.303  0.00  0.00     0.091 N 
ATOM     19  C4  ZIN A   1      19.179  -1.499   9.690  0.00  0.00     0.302 C 
ATOM     20  C3  ZIN A   1      17.961  -1.313   8.780  0.00  0.00     0.302 C 
ATOM     21  N2  ZIN A   1      18.269  -0.310   7.752  0.00  0.00     0.087 N 
ATOM     22  C1  ZIN A   1      17.150  -0.159   6.814  0.00  0.00     0.310 C 
ATOM     23  C28 ZIN A   1      18.620   0.979   8.366  0.00  0.00     0.302 C 
ATOM     24  C27 ZIN A   1      19.837   0.794   9.275  0.00  0.00     0.302 C 
ENDBRANCH  17  18
ENDBRANCH  16  17
ENDBRANCH  15  16
ENDBRANCH   1  15
BRANCH  12  25
ATOM     25  C21 ZIN A   1      17.130   4.544  10.895  0.00  0.00     0.417 C 
ATOM     26  F22 ZIN A   1      17.205   3.414  10.075  0.00  0.00    -0.166 F 
ATOM     27  F23 ZIN A   1      15.791   4.919  11.053  0.00  0.00    -0.166 F 
ATOM     28  F24 ZIN A   1      17.843   5.595  10.309  0.00  0.00    -0.166 F 
ENDBRANCH  12  25
TORSDOF 5
ENDMDL
MODEL 4
REMARK VINA RESULT:      -8.2      3.908      7.378
REMARK  5 active torsions:
REMARK  status: ('A' for Active; 'I' for Inactive)
REMARK    1  A    between atoms: N5_5  and  C6_6 
REMARK    2  A    between atoms: C6_6  and  C7_7 
REMARK    3  A    between atoms: C7_7  and  C8_8 
REMARK    4  A    between atoms: C8_8  and  N9_9 
REMARK    5  A    between atoms: C20_20  and  C21_21 
ROOT
ATOM      1  N9  ZIN A   1      17.797   0.059  12.035  0.00  0.00    -0.345 N 
ATOM      2  C10 ZIN A   1      18.202   0.737  10.887  0.00  0.00     0.052 A 
ATOM      3  C11 ZIN A   1      18.407   0.012   9.719  0.00  0.00     0.031 A 
ATOM      4  C12 ZIN A   1      18.804   0.651   8.560  0.00  0.00     0.002 A 
ATOM      5  C13 ZIN A   1      19.001   2.019   8.556  0.00  0.00     0.002 A 
ATOM      6  C14 ZIN A   1      18.802   2.749   9.713  0.00  0.00     0.021 A 
ATOM      7  C15 ZIN A   1      18.404   2.114  10.880  0.00  0.00     0.032 A 
ATOM      8  S16 ZIN A   1      18.164   3.066  12.342  0.00  0.00    -0.086 SA
ATOM      9  C17 ZIN A   1      18.190   1.860  13.624  0.00  0.00     0.032 A 
ATOM     10  C18 ZIN A   1      18.389   2.267  14.937  0.00  0.00     0.022 A 
ATOM     11  C19 ZIN A   1      18.415   1.334  15.958  0.00  0.00     0.017 A 
ATOM     12  C20 ZIN A   1      18.239  -0.006  15.673  0.00  0.00     0.050 A 
ATOM     13  C25 ZIN A   1      18.039  -0.418  14.369  0.00  0.00     0.047 A 
ATOM     14  C26 ZIN A   1      18.006   0.513  13.335  0.00  0.00     0.053 A 
ENDROOT
BRANCH   1  15
ATOM     15  C8  ZIN A   1      17.099  -1.218  11.863  0.00  0.00     0.131 C 
BRANCH  15  16
ATOM     16  C7  ZIN A   1      18.122  -2.352  11.783  0.00  0.00     0.050 C 
BRANCH  16  17
ATOM     17  C6  ZIN A   1      17.393  -3.684  11.593  0.00  0.00     0.274 C 
BRANCH  17  18
ATOM     18  N5  ZIN A   1      17.958  -4.390  10.435  0.00  0.00     0.091 N 
ATOM     19  C4  ZIN A   1      19.416  -4.526  10.562  0.00  0.00     0.302 C 
ATOM     20  C3  ZIN A   1      19.955  -5.334   9.379  0.00  0.00     0.302 C 
ATOM     21  N2  ZIN A   1      19.598  -4.658   8.124  0.00  0.00     0.087 N 
ATOM     22  C1  ZIN A   1      20.164  -5.365   6.967  0.00  0.00     0.310 C 
ATOM     23  C28 ZIN A   1      18.141  -4.523   7.998  0.00  0.00     0.302 C 
ATOM     24  C27 ZIN A   1      17.601  -3.715   9.180  0.00  0.00     0.302 C 
ENDBRANCH  17  18
ENDBRANCH  16  17
ENDBRANCH  15  16
ENDBRANCH   1  15
BRANCH  12  25
ATOM     25  C21 ZIN A   1      18.268  -1.021  16.787  0.00  0.00     0.417 C 
ATOM     26  F22 ZIN A   1      19.321  -1.917  16.574  0.00  0.00    -0.166 F 
ATOM     27  F23 ZIN A   1      18.454  -0.365  18.009  0.00  0.00    -0.166 F 
ATOM     28  F24 ZIN A   1      17.057  -1.720  16.813  0.00  0.00    -0.166 F 
ENDBRANCH  12  25
TORSDOF 5
ENDMDL
MODEL 5
REMARK VINA RESULT:      -8.1      3.919      7.883
REMARK  5 active torsions:
REMARK  status: ('A' for Active; 'I' for Inactive)
REMARK    1  A    between atoms: N5_5  and  C6_6 
REMARK    2  A    between atoms: C6_6  and  C7_7 
REMARK    3  A    between atoms: C7_7  and  C8_8 
REMARK    4  A    between atoms: C8_8  and  N9_9 
REMARK    5  A    between atoms: C20_20  and  C21_21 
ROOT
ATOM      1  N9  ZIN A   1      18.291   1.303  14.505  0.00  0.00    -0.345 N 
ATOM      2  C10 ZIN A   1      18.333   0.981  15.859  0.00  0.00     0.052 A 
ATOM      3  C11 ZIN A   1      17.773  -0.221  16.279  0.00  0.00     0.031 A 
ATOM      4  C12 ZIN A   1      17.800  -0.575  17.614  0.00  0.00     0.002 A 
ATOM      5  C13 ZIN A   1      18.386   0.263  18.543  0.00  0.00     0.002 A 
ATOM      6  C14 ZIN A   1      18.944   1.461  18.137  0.00  0.00     0.021 A 
ATOM      7  C15 ZIN A   1      18.920   1.825  16.798  0.00  0.00     0.032 A 
ATOM      8  S16 ZIN A   1      19.631   3.359  16.307  0.00  0.00    -0.086 SA
ATOM      9  C17 ZIN A   1      18.939   3.640  14.713  0.00  0.00     0.032 A 
ATOM     10  C18 ZIN A   1      18.986   4.916  14.167  0.00  0.00     0.022 A 
ATOM     11  C19 ZIN A   1      18.445   5.158  12.917  0.00  0.00     0.017 A 
ATOM     12  C20 ZIN A   1      17.859   4.128  12.208  0.00  0.00     0.050 A 
ATOM     13  C25 ZIN A   1      17.810   2.854  12.745  0.00  0.00     0.047 A 
ATOM     14  C26 ZIN A   1      18.356   2.600  14.000  0.00  0.00     0.053 A 
ENDROOT
BRANCH   1  15
ATOM     15  C8  ZIN A   1      18.176   0.203  13.544  0.00  0.00     0.131 C 
BRANCH  15  16
ATOM     16  C7  ZIN A   1      19.564  -0.376  13.264  0.00  0.00     0.050 C 
BRANCH  16  17
ATOM     17  C6  ZIN A   1      19.894  -0.215  11.779  0.00  0.00     0.274 C 
BRANCH  17  18
ATOM     18  N5  ZIN A   1      19.893  -1.534  11.132  0.00  0.00     0.091 N 
ATOM     19  C4  ZIN A   1      18.851  -1.612  10.098  0.00  0.00     0.302 C 
ATOM     20  C3  ZIN A   1      18.936  -2.970   9.395  0.00  0.00     0.302 C 
ATOM     21  N2  ZIN A   1      18.772  -4.042  10.385  0.00  0.00     0.087 N 
ATOM     22  C1  ZIN A   1      18.771  -5.360   9.737  0.00  0.00     0.310 C 
ATOM     23  C28 ZIN A   1      19.814  -3.964  11.419  0.00  0.00     0.302 C 
ATOM     24  C27 ZIN A   1      19.730  -2.607  12.122  0.00  0.00     0.302 C 
ENDBRANCH  17  18
ENDBRANCH  16  17
ENDBRANCH  15  16
ENDBRANCH   1  15
BRANCH  12  25
ATOM     25  C21 ZIN A   1      17.270   4.393  10.846  0.00  0.00     0.417 C 
ATOM     26  F22 ZIN A   1      18.019   5.381  10.199  0.00  0.00    -0.166 F 
ATOM     27  F23 ZIN A   1      17.298   3.216  10.090  0.00  0.00    -0.166 F 
ATOM     28  F24 ZIN A   1      15.947   4.826  10.986  0.00  0.00    -0.166 F 
ENDBRANCH  12  25
TORSDOF 5
ENDMDL
MODEL 6
REMARK VINA RESULT:      -8.0      3.686      5.733
REMARK  5 active torsions:
REMARK  status: ('A' for Active; 'I' for Inactive)
REMARK    1  A    between atoms: N5_5  and  C6_6 
REMARK    2  A    between atoms: C6_6  and  C7_7 
REMARK    3  A    between atoms: C7_7  and  C8_8 
REMARK    4  A    between atoms: C8_8  and  N9_9 
REMARK    5  A    between atoms: C20_20  and  C21_21 
ROOT
ATOM      1  N9  ZIN A   1      18.482  -1.153  11.408  0.00  0.00    -0.345 N 
ATOM      2  C10 ZIN A   1      18.802  -2.401  10.879  0.00  0.00     0.052 A 
ATOM      3  C11 ZIN A   1      19.135  -3.432  11.751  0.00  0.00     0.031 A 
ATOM      4  C12 ZIN A   1      19.454  -4.684  11.262  0.00  0.00     0.002 A 
ATOM      5  C13 ZIN A   1      19.444  -4.921   9.900  0.00  0.00     0.002 A 
ATOM      6  C14 ZIN A   1      19.117  -3.902   9.025  0.00  0.00     0.021 A 
ATOM      7  C15 ZIN A   1      18.796  -2.642   9.508  0.00  0.00     0.032 A 
ATOM      8  S16 ZIN A   1      18.389  -1.360   8.372  0.00  0.00    -0.086 SA
ATOM      9  C17 ZIN A   1      18.570   0.107   9.328  0.00  0.00     0.032 A 
ATOM     10  C18 ZIN A   1      18.682   1.331   8.682  0.00  0.00     0.022 A 
ATOM     11  C19 ZIN A   1      18.827   2.495   9.415  0.00  0.00     0.017 A 
ATOM     12  C20 ZIN A   1      18.860   2.441  10.794  0.00  0.00     0.050 A 
ATOM     13  C25 ZIN A   1      18.748   1.226  11.446  0.00  0.00     0.047 A 
ATOM     14  C26 ZIN A   1      18.596   0.050  10.716  0.00  0.00     0.053 A 
ENDROOT
BRANCH   1  15
ATOM     15  C8  ZIN A   1      17.986  -1.103  12.786  0.00  0.00     0.131 C 
BRANCH  15  16
ATOM     16  C7  ZIN A   1      19.155  -0.856  13.741  0.00  0.00     0.050 C 
BRANCH  16  17
ATOM     17  C6  ZIN A   1      18.795  -1.377  15.134  0.00  0.00     0.274 C 
BRANCH  17  18
ATOM     18  N5  ZIN A   1      18.527  -0.241  16.026  0.00  0.00     0.091 N 
ATOM     19  C4  ZIN A   1      19.117   0.996  15.495  0.00  0.00     0.302 C 
ATOM     20  C3  ZIN A   1      18.749   2.167  16.411  0.00  0.00     0.302 C 
ATOM     21  N2  ZIN A   1      19.236   1.894  17.770  0.00  0.00     0.087 N 
ATOM     22  C1  ZIN A   1      18.968   3.030  18.662  0.00  0.00     0.310 C 
ATOM     23  C28 ZIN A   1      18.646   0.658  18.300  0.00  0.00     0.302 C 
ATOM     24  C27 ZIN A   1      19.014  -0.513  17.386  0.00  0.00     0.302 C 
ENDBRANCH  17  18
ENDBRANCH  16  17
ENDBRANCH  15  16
ENDBRANCH   1  15
BRANCH  12  25
ATOM     25  C21 ZIN A   1      19.019   3.710  11.592  0.00  0.00     0.417 C 
ATOM     26  F22 ZIN A   1      18.420   4.771  10.905  0.00  0.00    -0.166 F 
ATOM     27  F23 ZIN A   1      18.404   3.556  12.839  0.00  0.00    -0.166 F 
ATOM     28  F24 ZIN A   1      20.380   3.979  11.774  0.00  0.00    -0.166 F 
ENDBRANCH  12  25
TORSDOF 5
ENDMDL
MODEL 7
REMARK VINA RESULT:      -7.9      5.688      9.467
REMARK  5 active torsions:
REMARK  status: ('A' for Active; 'I' for Inactive)
REMARK    1  A    between atoms: N5_5  and  C6_6 
REMARK    2  A    between atoms: C6_6  and  C7_7 
REMARK    3  A    between atoms: C7_7  and  C8_8 
REMARK    4  A    between atoms: C8_8  and  N9_9 
REMARK    5  A    between atoms: C20_20  and  C21_21 
ROOT
ATOM      1  N9  ZIN A   1      19.438  -0.521  11.663  0.00  0.00    -0.345 N 
ATOM      2  C10 ZIN A   1      19.098  -0.341  13.001  0.00  0.00     0.052 A 
ATOM      3  C11 ZIN A   1      18.873  -1.462  13.792  0.00  0.00     0.031 A 
ATOM      4  C12 ZIN A   1      18.537  -1.322  15.124  0.00  0.00     0.002 A 
ATOM      5  C13 ZIN A   1      18.423  -0.062  15.682  0.00  0.00     0.002 A 
ATOM      6  C14 ZIN A   1      18.643   1.060  14.905  0.00  0.00     0.021 A 
ATOM      7  C15 ZIN A   1      18.980   0.927  13.565  0.00  0.00     0.032 A 
ATOM      8  S16 ZIN A   1      19.248   2.371  12.595  0.00  0.00    -0.086 SA
ATOM      9  C17 ZIN A   1      19.125   1.782  10.941  0.00  0.00     0.032 A 
ATOM     10  C18 ZIN A   1      18.925   2.689   9.909  0.00  0.00     0.022 A 
ATOM     11  C19 ZIN A   1      18.823   2.246   8.602  0.00  0.00     0.017 A 
ATOM     12  C20 ZIN A   1      18.923   0.897   8.322  0.00  0.00     0.050 A 
ATOM     13  C25 ZIN A   1      19.124  -0.012   9.344  0.00  0.00     0.047 A 
ATOM     14  C26 ZIN A   1      19.232   0.425  10.662  0.00  0.00     0.053 A 
ENDROOT
BRANCH   1  15
ATOM     15  C8  ZIN A   1      20.062  -1.792  11.283  0.00  0.00     0.131 C 
BRANCH  15  16
ATOM     16  C7  ZIN A   1      18.976  -2.792  10.878  0.00  0.00     0.050 C 
BRANCH  16  17
ATOM     17  C6  ZIN A   1      19.604  -4.172  10.680  0.00  0.00     0.274 C 
BRANCH  17  18
ATOM     18  N5  ZIN A   1      19.211  -4.704   9.368  0.00  0.00     0.091 N 
ATOM     19  C4  ZIN A   1      18.590  -3.660   8.541  0.00  0.00     0.302 C 
ATOM     20  C3  ZIN A   1      18.267  -4.233   7.158  0.00  0.00     0.302 C 
ATOM     21  N2  ZIN A   1      17.371  -5.388   7.306  0.00  0.00     0.087 N 
ATOM     22  C1  ZIN A   1      16.979  -5.919   5.994  0.00  0.00     0.310 C 
ATOM     23  C28 ZIN A   1      17.994  -6.432   8.132  0.00  0.00     0.302 C 
ATOM     24  C27 ZIN A   1      18.316  -5.860   9.515  0.00  0.00     0.302 C 
ENDBRANCH  17  18
ENDBRANCH  16  17
ENDBRANCH  15  16
ENDBRANCH   1  15
BRANCH  12  25
ATOM     25  C21 ZIN A   1      18.811   0.415   6.898  0.00  0.00     0.417 C 
ATOM     26  F22 ZIN A   1      19.409  -0.844   6.784  0.00  0.00    -0.166 F 
ATOM     27  F23 ZIN A   1      17.461   0.325   6.542  0.00  0.00    -0.166 F 
ATOM     28  F24 ZIN A   1      19.459   1.318   6.048  0.00  0.00    -0.166 F 
ENDBRANCH  12  25
TORSDOF 5
ENDMDL
MODEL 8
REMARK VINA RESULT:      -7.9      4.643      6.946
REMARK  5 active torsions:
REMARK  status: ('A' for Active; 'I' for Inactive)
REMARK    1  A    between atoms: N5_5  and  C6_6 
REMARK    2  A    between atoms: C6_6  and  C7_7 
REMARK    3  A    between atoms: C7_7  and  C8_8 
REMARK    4  A    between atoms: C8_8  and  N9_9 
REMARK    5  A    between atoms: C20_20  and  C21_21 
ROOT
ATOM      1  N9  ZIN A   1      18.536  -2.050   9.528  0.00  0.00    -0.345 N 
ATOM      2  C10 ZIN A   1      19.033  -3.239   8.999  0.00  0.00     0.052 A 
ATOM      3  C11 ZIN A   1      19.333  -4.283   9.866  0.00  0.00     0.031 A 
ATOM      4  C12 ZIN A   1      19.823  -5.479   9.376  0.00  0.00     0.002 A 
ATOM      5  C13 ZIN A   1      20.020  -5.644   8.018  0.00  0.00     0.002 A 
ATOM      6  C14 ZIN A   1      19.727  -4.610   7.148  0.00  0.00     0.021 A 
ATOM      7  C15 ZIN A   1      19.235  -3.407   7.632  0.00  0.00     0.032 A 
ATOM      8  S16 ZIN A   1      18.876  -2.105   6.503  0.00  0.00    -0.086 SA
ATOM      9  C17 ZIN A   1      18.797  -0.680   7.534  0.00  0.00     0.032 A 
ATOM     10  C18 ZIN A   1      18.888   0.581   6.959  0.00  0.00     0.022 A 
ATOM     11  C19 ZIN A   1      18.830   1.713   7.752  0.00  0.00     0.017 A 
ATOM     12  C20 ZIN A   1      18.679   1.590   9.119  0.00  0.00     0.050 A 
ATOM     13  C25 ZIN A   1      18.586   0.338   9.699  0.00  0.00     0.047 A 
ATOM     14  C26 ZIN A   1      18.638  -0.807   8.908  0.00  0.00     0.053 A 
ENDROOT
BRANCH   1  15
ATOM     15  C8  ZIN A   1      17.854  -2.112  10.824  0.00  0.00     0.131 C 
BRANCH  15  16
ATOM     16  C7  ZIN A   1      18.858  -1.823  11.942  0.00  0.00     0.050 C 
BRANCH  16  17
ATOM     17  C6  ZIN A   1      18.161  -1.953  13.298  0.00  0.00     0.274 C 
BRANCH  17  18
ATOM     18  N5  ZIN A   1      18.139  -0.644  13.965  0.00  0.00     0.091 N 
ATOM     19  C4  ZIN A   1      19.115   0.272  13.358  0.00  0.00     0.302 C 
ATOM     20  C3  ZIN A   1      19.006   1.645  14.027  0.00  0.00     0.302 C 
ATOM     21  N2  ZIN A   1      19.245   1.505  15.469  0.00  0.00     0.087 N 
ATOM     22  C1  ZIN A   1      19.223   2.814  16.135  0.00  0.00     0.310 C 
ATOM     23  C28 ZIN A   1      18.268   0.589  16.075  0.00  0.00     0.302 C 
ATOM     24  C27 ZIN A   1      18.377  -0.784  15.408  0.00  0.00     0.302 C 
ENDBRANCH  17  18
ENDBRANCH  16  17
ENDBRANCH  15  16
ENDBRANCH   1  15
BRANCH  12  25
ATOM     25  C21 ZIN A   1      18.617   2.825   9.983  0.00  0.00     0.417 C 
ATOM     26  F22 ZIN A   1      18.492   3.956   9.169  0.00  0.00    -0.166 F 
ATOM     27  F23 ZIN A   1      17.513   2.740  10.837  0.00  0.00    -0.166 F 
ATOM     28  F24 ZIN A   1      19.788   2.922  10.742  0.00  0.00    -0.166 F 
ENDBRANCH  12  25
TORSDOF 5
ENDMDL
MODEL 9
REMARK VINA RESULT:      -7.8      5.016      9.228
REMARK  5 active torsions:
REMARK  status: ('A' for Active; 'I' for Inactive)
REMARK    1  A    between atoms: N5_5  and  C6_6 
REMARK    2  A    between atoms: C6_6  and  C7_7 
REMARK    3  A    between atoms: C7_7  and  C8_8 
REMARK    4  A    between atoms: C8_8  and  N9_9 
REMARK    5  A    between atoms: C20_20  and  C21_21 
ROOT
ATOM      1  N9  ZIN A   1      18.246   0.499  10.453  0.00  0.00    -0.345 N 
ATOM      2  C10 ZIN A   1      18.429  -0.794  10.937  0.00  0.00     0.052 A 
ATOM      3  C11 ZIN A   1      17.837  -1.853  10.258  0.00  0.00     0.031 A 
ATOM      4  C12 ZIN A   1      18.001  -3.150  10.706  0.00  0.00     0.002 A 
ATOM      5  C13 ZIN A   1      18.756  -3.403  11.835  0.00  0.00     0.002 A 
ATOM      6  C14 ZIN A   1      19.348  -2.358  12.519  0.00  0.00     0.021 A 
ATOM      7  C15 ZIN A   1      19.188  -1.053  12.076  0.00  0.00     0.032 A 
ATOM      8  S16 ZIN A   1      19.946   0.261  12.968  0.00  0.00    -0.086 SA
ATOM      9  C17 ZIN A   1      19.087   1.690  12.402  0.00  0.00     0.032 A 
ATOM     10  C18 ZIN A   1      19.161   2.865  13.139  0.00  0.00     0.022 A 
ATOM     11  C19 ZIN A   1      18.492   3.997  12.712  0.00  0.00     0.017 A 
ATOM     12  C20 ZIN A   1      17.748   3.961  11.549  0.00  0.00     0.050 A 
ATOM     13  C25 ZIN A   1      17.671   2.796  10.809  0.00  0.00     0.047 A 
ATOM     14  C26 ZIN A   1      18.345   1.652  11.228  0.00  0.00     0.053 A 
ENDROOT
BRANCH   1  15
ATOM     15  C8  ZIN A   1      17.933   0.658   9.031  0.00  0.00     0.131 C 
BRANCH  15  16
ATOM     16  C7  ZIN A   1      19.234   0.737   8.228  0.00  0.00     0.050 C 
BRANCH  16  17
ATOM     17  C6  ZIN A   1      18.907   0.821   6.736  0.00  0.00     0.274 C 
BRANCH  17  18
ATOM     18  N5  ZIN A   1      18.400  -0.477   6.273  0.00  0.00     0.091 N 
ATOM     19  C4  ZIN A   1      19.326  -1.562   6.629  0.00  0.00     0.302 C 
ATOM     20  C3  ZIN A   1      18.724  -2.903   6.200  0.00  0.00     0.302 C 
ATOM     21  N2  ZIN A   1      18.472  -2.883   4.753  0.00  0.00     0.087 N 
ATOM     22  C1  ZIN A   1      17.964  -4.182   4.290  0.00  0.00     0.310 C 
ATOM     23  C28 ZIN A   1      17.546  -1.799   4.398  0.00  0.00     0.302 C 
ATOM     24  C27 ZIN A   1      18.146  -0.458   4.826  0.00  0.00     0.302 C 
ENDBRANCH  17  18
ENDBRANCH  16  17
ENDBRANCH  15  16
ENDBRANCH   1  15
BRANCH  12  25
ATOM     25  C21 ZIN A   1      17.018   5.197  11.085  0.00  0.00     0.417 C 
ATOM     26  F22 ZIN A   1      17.697   5.759   9.999  0.00  0.00    -0.166 F 
ATOM     27  F23 ZIN A   1      15.720   4.851  10.696  0.00  0.00    -0.166 F 
ATOM     28  F24 ZIN A   1      16.960   6.124  12.131  0.00  0.00    -0.166 F 
ENDBRANCH  12  25
TORSDOF 5
ENDMDL
