MODEL 1
REMARK VINA RESULT:      -9.1      0.000      0.000
REMARK  9 active torsions:
REMARK  status: ('A' for Active; 'I' for Inactive)
REMARK    1  A    between atoms: O1_1  and  C2_2 
REMARK    2  A    between atoms: C2_2  and  C3_3 
REMARK    3  A    between atoms: C2_2  and  C9_9 
REMARK    4  A    between atoms: C2_2  and  C15_15 
REMARK    5  A    between atoms: N18_18  and  C19_19 
REMARK    6  A    between atoms: C19_19  and  C20_20 
REMARK    7  A    between atoms: C20_20  and  O21_21 
REMARK    8  A    between atoms: O21_21  and  C22_22 
REMARK    9  A    between atoms: C22_22  and  C23_23 
ROOT
ATOM      1  C15 ZIN A   1      19.115  -0.808  12.303  0.00  0.00     0.004 C 
ATOM      2  C16 ZIN A   1      17.849   0.026  12.064  0.00  0.00     0.041 C 
ATOM      3  C17 ZIN A   1      17.507   0.783  13.349  0.00  0.00     0.238 C 
ATOM      4  N18 ZIN A   1      18.490   0.472  14.391  0.00  0.00    -0.065 N 
ATOM      5  C29 ZIN A   1      18.472  -0.958  14.706  0.00  0.00     0.238 C 
ATOM      6  C30 ZIN A   1      18.838  -1.790  13.450  0.00  0.00     0.041 C 
ATOM      7  C31 ZIN A   1      19.831   0.881  13.972  0.00  0.00     0.238 C 
ATOM      8  C32 ZIN A   1      20.260   0.121  12.728  0.00  0.00     0.041 C 
ENDROOT
BRANCH   1   9
ATOM      9  C2  ZIN A   1      19.494  -1.572  11.032  0.00  0.00     0.120 C 
BRANCH   9  10
ATOM     10  O1  ZIN A   1      20.913  -1.733  10.980  0.00  0.00    -0.379 OA
ATOM     11  H33 ZIN A   1      21.200  -2.539  10.528  0.00  0.00     0.211 HD
ENDBRANCH   9  10
BRANCH   9  12
ATOM     12  C3  ZIN A   1      19.033  -0.797   9.824  0.00  0.00    -0.019 A 
ATOM     13  C8  ZIN A   1      19.863   0.148   9.251  0.00  0.00     0.010 A 
ATOM     14  C7  ZIN A   1      19.441   0.856   8.140  0.00  0.00     0.001 A 
ATOM     15  C6  ZIN A   1      18.187   0.624   7.609  0.00  0.00     0.000 A 
ATOM     16  C5  ZIN A   1      17.355  -0.318   8.186  0.00  0.00     0.001 A 
ATOM     17  C4  ZIN A   1      17.778  -1.028   9.293  0.00  0.00     0.010 A 
ENDBRANCH   9  12
BRANCH   9  18
ATOM     18  C9  ZIN A   1      18.833  -2.926  11.043  0.00  0.00    -0.019 A 
ATOM     19  C14 ZIN A   1      19.562  -4.053  10.711  0.00  0.00     0.010 A 
ATOM     20  C13 ZIN A   1      18.957  -5.296  10.725  0.00  0.00     0.001 A 
ATOM     21  C12 ZIN A   1      17.621  -5.410  11.064  0.00  0.00     0.000 A 
ATOM     22  C11 ZIN A   1      16.892  -4.283  11.392  0.00  0.00     0.001 A 
ATOM     23  C10 ZIN A   1      17.498  -3.040  11.381  0.00  0.00     0.010 A 
ENDBRANCH   9  18
ENDBRANCH   1   9
BRANCH   4  24
ATOM     24  C19 ZIN A   1      18.133   1.220  15.604  0.00  0.00     0.263 C 
BRANCH  24  25
ATOM     25  C20 ZIN A   1      18.951   2.511  15.666  0.00  0.00     0.196 C 
BRANCH  25  26
ATOM     26  O21 ZIN A   1      18.149   3.606  15.222  0.00  0.00    -0.385 OA
BRANCH  26  27
ATOM     27  C22 ZIN A   1      18.841   4.529  14.378  0.00  0.00     0.206 C 
BRANCH  27  28
ATOM     28  C23 ZIN A   1      18.538   4.214  12.935  0.00  0.00    -0.035 A 
ATOM     29  C28 ZIN A   1      19.516   3.666  12.126  0.00  0.00     0.009 A 
ATOM     30  C27 ZIN A   1      19.236   3.373  10.805  0.00  0.00     0.001 A 
ATOM     31  C26 ZIN A   1      17.981   3.635  10.289  0.00  0.00     0.000 A 
ATOM     32  C25 ZIN A   1      17.005   4.188  11.097  0.00  0.00     0.001 A 
ATOM     33  C24 ZIN A   1      17.282   4.477  12.420  0.00  0.00     0.009 A 
ENDBRANCH  27  28
ENDBRANCH  26  27
ENDBRANCH  25  26
ENDBRANCH  24  25
ENDBRANCH   4  24
TORSDOF 9
ENDMDL
MODEL 2
REMARK VINA RESULT:      -9.0      2.012      7.130
REMARK  9 active torsions:
REMARK  status: ('A' for Active; 'I' for Inactive)
REMARK    1  A    between atoms: O1_1  and  C2_2 
REMARK    2  A    between atoms: C2_2  and  C3_3 
REMARK    3  A    between atoms: C2_2  and  C9_9 
REMARK    4  A    between atoms: C2_2  and  C15_15 
REMARK    5  A    between atoms: N18_18  and  C19_19 
REMARK    6  A    between atoms: C19_19  and  C20_20 
REMARK    7  A    between atoms: C20_20  and  O21_21 
REMARK    8  A    between atoms: O21_21  and  C22_22 
REMARK    9  A    between atoms: C22_22  and  C23_23 
ROOT
ATOM      1  C15 ZIN A   1      19.127   1.177  10.365  0.00  0.00     0.004 C 
ATOM      2  C16 ZIN A   1      17.682   0.663  10.292  0.00  0.00     0.041 C 
ATOM      3  C17 ZIN A   1      17.491  -0.083   8.969  0.00  0.00     0.238 C 
ATOM      4  N18 ZIN A   1      18.738  -0.067   8.200  0.00  0.00    -0.065 N 
ATOM      5  C29 ZIN A   1      19.127   1.308   7.877  0.00  0.00     0.238 C 
ATOM      6  C30 ZIN A   1      19.366   2.118   9.177  0.00  0.00     0.041 C 
ATOM      7  C31 ZIN A   1      19.809  -0.735   8.941  0.00  0.00     0.238 C 
ATOM      8  C32 ZIN A   1      20.093  -0.008  10.245  0.00  0.00     0.041 C 
ENDROOT
BRANCH   1   9
ATOM      9  C2  ZIN A   1      19.359   1.919  11.683  0.00  0.00     0.120 C 
BRANCH   9  10
ATOM     10  O1  ZIN A   1      20.731   2.306  11.777  0.00  0.00    -0.379 OA
ATOM     11  H33 ZIN A   1      21.235   1.810  12.438  0.00  0.00     0.211 HD
ENDBRANCH   9  10
BRANCH   9  12
ATOM     12  C3  ZIN A   1      19.012   1.014  12.837  0.00  0.00    -0.019 A 
ATOM     13  C8  ZIN A   1      20.005   0.292  13.472  0.00  0.00     0.010 A 
ATOM     14  C7  ZIN A   1      19.688  -0.536  14.533  0.00  0.00     0.001 A 
ATOM     15  C6  ZIN A   1      18.377  -0.647  14.954  0.00  0.00     0.000 A 
ATOM     16  C5  ZIN A   1      17.383   0.072  14.317  0.00  0.00     0.001 A 
ATOM     17  C4  ZIN A   1      17.700   0.902  13.258  0.00  0.00     0.010 A 
ENDBRANCH   9  12
BRANCH   9  18
ATOM     18  C9  ZIN A   1      18.486   3.148  11.729  0.00  0.00    -0.019 A 
ATOM     19  C14 ZIN A   1      17.640   3.433  10.674  0.00  0.00     0.010 A 
ATOM     20  C13 ZIN A   1      16.837   4.557  10.717  0.00  0.00     0.001 A 
ATOM     21  C12 ZIN A   1      16.885   5.400  11.813  0.00  0.00     0.000 A 
ATOM     22  C11 ZIN A   1      17.735   5.116  12.865  0.00  0.00     0.001 A 
ATOM     23  C10 ZIN A   1      18.536   3.990  12.824  0.00  0.00     0.010 A 
ENDBRANCH   9  18
ENDBRANCH   1   9
BRANCH   4  24
ATOM     24  C19 ZIN A   1      18.517  -0.795   6.943  0.00  0.00     0.263 C 
BRANCH  24  25
ATOM     25  C20 ZIN A   1      19.158  -2.181   7.038  0.00  0.00     0.196 C 
BRANCH  25  26
ATOM     26  O21 ZIN A   1      18.146  -3.158   7.288  0.00  0.00    -0.385 OA
BRANCH  26  27
ATOM     27  C22 ZIN A   1      18.590  -4.265   8.076  0.00  0.00     0.206 C 
BRANCH  27  28
ATOM     28  C23 ZIN A   1      18.600  -3.873   9.532  0.00  0.00    -0.035 A 
ATOM     29  C28 ZIN A   1      19.735  -4.075  10.294  0.00  0.00     0.009 A 
ATOM     30  C27 ZIN A   1      19.746  -3.711  11.627  0.00  0.00     0.001 A 
ATOM     31  C26 ZIN A   1      18.619  -3.154  12.202  0.00  0.00     0.000 A 
ATOM     32  C25 ZIN A   1      17.482  -2.957  11.440  0.00  0.00     0.001 A 
ATOM     33  C24 ZIN A   1      17.472  -3.316  10.105  0.00  0.00     0.009 A 
ENDBRANCH  27  28
ENDBRANCH  26  27
ENDBRANCH  25  26
ENDBRANCH  24  25
ENDBRANCH   4  24
TORSDOF 9
ENDMDL
MODEL 3
REMARK VINA RESULT:      -8.5      1.434      3.570
REMARK  9 active torsions:
REMARK  status: ('A' for Active; 'I' for Inactive)
REMARK    1  A    between atoms: O1_1  and  C2_2 
REMARK    2  A    between atoms: C2_2  and  C3_3 
REMARK    3  A    between atoms: C2_2  and  C9_9 
REMARK    4  A    between atoms: C2_2  and  C15_15 
REMARK    5  A    between atoms: N18_18  and  C19_19 
REMARK    6  A    between atoms: C19_19  and  C20_20 
REMARK    7  A    between atoms: C20_20  and  O21_21 
REMARK    8  A    between atoms: O21_21  and  C22_22 
REMARK    9  A    between atoms: C22_22  and  C23_23 
ROOT
ATOM      1  C15 ZIN A   1      18.944   0.791  10.526  0.00  0.00     0.004 C 
ATOM      2  C16 ZIN A   1      17.781   0.338  11.419  0.00  0.00     0.041 C 
ATOM      3  C17 ZIN A   1      17.345   1.515  12.294  0.00  0.00     0.238 C 
ATOM      4  N18 ZIN A   1      18.171   2.690  12.004  0.00  0.00    -0.065 N 
ATOM      5  C29 ZIN A   1      19.578   2.417  12.304  0.00  0.00     0.238 C 
ATOM      6  C30 ZIN A   1      20.098   1.248  11.429  0.00  0.00     0.041 C 
ATOM      7  C31 ZIN A   1      18.020   3.092  10.604  0.00  0.00     0.238 C 
ATOM      8  C32 ZIN A   1      18.494   1.986   9.675  0.00  0.00     0.041 C 
ENDROOT
BRANCH   1   9
ATOM      9  C2  ZIN A   1      19.400  -0.359   9.625  0.00  0.00     0.120 C 
BRANCH   9  10
ATOM     10  O1  ZIN A   1      20.813  -0.279   9.429  0.00  0.00    -0.379 OA
ATOM     11  H33 ZIN A   1      21.235  -1.132   9.257  0.00  0.00     0.211 HD
ENDBRANCH   9  10
BRANCH   9  12
ATOM     12  C3  ZIN A   1      18.703  -0.261   8.293  0.00  0.00    -0.019 A 
ATOM     13  C8  ZIN A   1      19.443  -0.174   7.129  0.00  0.00     0.010 A 
ATOM     14  C7  ZIN A   1      18.803  -0.088   5.907  0.00  0.00     0.001 A 
ATOM     15  C6  ZIN A   1      17.423  -0.081   5.849  0.00  0.00     0.000 A 
ATOM     16  C5  ZIN A   1      16.682  -0.163   7.013  0.00  0.00     0.001 A 
ATOM     17  C4  ZIN A   1      17.322  -0.253   8.235  0.00  0.00     0.010 A 
ENDBRANCH   9  12
BRANCH   9  18
ATOM     18  C9  ZIN A   1      19.057  -1.674  10.277  0.00  0.00    -0.019 A 
ATOM     19  C14 ZIN A   1      18.005  -2.430   9.794  0.00  0.00     0.010 A 
ATOM     20  C13 ZIN A   1      17.692  -3.638  10.389  0.00  0.00     0.001 A 
ATOM     21  C12 ZIN A   1      18.427  -4.086  11.472  0.00  0.00     0.000 A 
ATOM     22  C11 ZIN A   1      19.475  -3.327  11.956  0.00  0.00     0.001 A 
ATOM     23  C10 ZIN A   1      19.790  -2.121  11.360  0.00  0.00     0.010 A 
ENDBRANCH   9  18
ENDBRANCH   1   9
BRANCH   4  24
ATOM     24  C19 ZIN A   1      17.719   3.797  12.857  0.00  0.00     0.263 C 
BRANCH  24  25
ATOM     25  C20 ZIN A   1      18.644   3.916  14.070  0.00  0.00     0.196 C 
BRANCH  25  26
ATOM     26  O21 ZIN A   1      18.076   3.208  15.173  0.00  0.00    -0.385 OA
BRANCH  26  27
ATOM     27  C22 ZIN A   1      19.035   2.512  15.972  0.00  0.00     0.206 C 
BRANCH  27  28
ATOM     28  C23 ZIN A   1      18.699   1.043  15.993  0.00  0.00    -0.035 A 
ATOM     29  C28 ZIN A   1      19.254   0.193  15.054  0.00  0.00     0.009 A 
ATOM     30  C27 ZIN A   1      18.949  -1.155  15.077  0.00  0.00     0.001 A 
ATOM     31  C26 ZIN A   1      18.083  -1.653  16.032  0.00  0.00     0.000 A 
ATOM     32  C25 ZIN A   1      17.524  -0.802  16.967  0.00  0.00     0.001 A 
ATOM     33  C24 ZIN A   1      17.833   0.546  16.949  0.00  0.00     0.009 A 
ENDBRANCH  27  28
ENDBRANCH  26  27
ENDBRANCH  25  26
ENDBRANCH  24  25
ENDBRANCH   4  24
TORSDOF 9
ENDMDL
MODEL 4
REMARK VINA RESULT:      -8.3      1.568      3.695
REMARK  9 active torsions:
REMARK  status: ('A' for Active; 'I' for Inactive)
REMARK    1  A    between atoms: O1_1  and  C2_2 
REMARK    2  A    between atoms: C2_2  and  C3_3 
REMARK    3  A    between atoms: C2_2  and  C9_9 
REMARK    4  A    between atoms: C2_2  and  C15_15 
REMARK    5  A    between atoms: N18_18  and  C19_19 
REMARK    6  A    between atoms: C19_19  and  C20_20 
REMARK    7  A    between atoms: C20_20  and  O21_21 
REMARK    8  A    between atoms: O21_21  and  C22_22 
REMARK    9  A    between atoms: C22_22  and  C23_23 
ROOT
ATOM      1  C15 ZIN A   1      19.477   0.424  11.882  0.00  0.00     0.004 C 
ATOM      2  C16 ZIN A   1      20.051   1.824  11.625  0.00  0.00     0.041 C 
ATOM      3  C17 ZIN A   1      19.551   2.770  12.720  0.00  0.00     0.238 C 
ATOM      4  N18 ZIN A   1      18.690   2.043  13.657  0.00  0.00    -0.065 N 
ATOM      5  C29 ZIN A   1      17.513   1.509  12.966  0.00  0.00     0.238 C 
ATOM      6  C30 ZIN A   1      17.945   0.518  11.856  0.00  0.00     0.041 C 
ATOM      7  C31 ZIN A   1      19.431   0.959  14.303  0.00  0.00     0.238 C 
ATOM      8  C32 ZIN A   1      19.909  -0.053  13.274  0.00  0.00     0.041 C 
ENDROOT
BRANCH   1   9
ATOM      9  C2  ZIN A   1      19.966  -0.553  10.811  0.00  0.00     0.120 C 
BRANCH   9  10
ATOM     10  O1  ZIN A   1      21.393  -0.615  10.839  0.00  0.00    -0.379 OA
ATOM     11  H33 ZIN A   1      21.754  -0.999  11.651  0.00  0.00     0.211 HD
ENDBRANCH   9  10
BRANCH   9  12
ATOM     12  C3  ZIN A   1      19.511  -0.081   9.454  0.00  0.00    -0.019 A 
ATOM     13  C8  ZIN A   1      19.123  -0.999   8.496  0.00  0.00     0.010 A 
ATOM     14  C7  ZIN A   1      18.703  -0.565   7.252  0.00  0.00     0.001 A 
ATOM     15  C6  ZIN A   1      18.678   0.786   6.964  0.00  0.00     0.000 A 
ATOM     16  C5  ZIN A   1      19.070   1.704   7.920  0.00  0.00     0.001 A 
ATOM     17  C4  ZIN A   1      19.487   1.271   9.165  0.00  0.00     0.010 A 
ENDBRANCH   9  12
BRANCH   9  18
ATOM     18  C9  ZIN A   1      19.397  -1.922  11.082  0.00  0.00    -0.019 A 
ATOM     19  C14 ZIN A   1      20.246  -2.993  11.292  0.00  0.00     0.010 A 
ATOM     20  C13 ZIN A   1      19.724  -4.248  11.546  0.00  0.00     0.001 A 
ATOM     21  C12 ZIN A   1      18.354  -4.433  11.581  0.00  0.00     0.000 A 
ATOM     22  C11 ZIN A   1      17.507  -3.363  11.366  0.00  0.00     0.001 A 
ATOM     23  C10 ZIN A   1      18.028  -2.107  11.116  0.00  0.00     0.010 A 
ENDBRANCH   9  18
ENDBRANCH   1   9
BRANCH   4  24
ATOM     24  C19 ZIN A   1      18.236   2.979  14.693  0.00  0.00     0.263 C 
BRANCH  24  25
ATOM     25  C20 ZIN A   1      19.124   2.838  15.931  0.00  0.00     0.196 C 
BRANCH  25  26
ATOM     26  O21 ZIN A   1      18.352   3.105  17.103  0.00  0.00    -0.385 OA
BRANCH  26  27
ATOM     27  C22 ZIN A   1      18.576   2.180  18.170  0.00  0.00     0.206 C 
BRANCH  27  28
ATOM     28  C23 ZIN A   1      18.403   0.773  17.659  0.00  0.00    -0.035 A 
ATOM     29  C28 ZIN A   1      17.181   0.365  17.157  0.00  0.00     0.009 A 
ATOM     30  C27 ZIN A   1      17.024  -0.924  16.683  0.00  0.00     0.001 A 
ATOM     31  C26 ZIN A   1      18.085  -1.809  16.719  0.00  0.00     0.000 A 
ATOM     32  C25 ZIN A   1      19.305  -1.402  17.226  0.00  0.00     0.001 A 
ATOM     33  C24 ZIN A   1      19.465  -0.112  17.695  0.00  0.00     0.009 A 
ENDBRANCH  27  28
ENDBRANCH  26  27
ENDBRANCH  25  26
ENDBRANCH  24  25
ENDBRANCH   4  24
TORSDOF 9
ENDMDL
MODEL 5
REMARK VINA RESULT:      -7.8      2.451      7.698
REMARK  9 active torsions:
REMARK  status: ('A' for Active; 'I' for Inactive)
REMARK    1  A    between atoms: O1_1  and  C2_2 
REMARK    2  A    between atoms: C2_2  and  C3_3 
REMARK    3  A    between atoms: C2_2  and  C9_9 
REMARK    4  A    between atoms: C2_2  and  C15_15 
REMARK    5  A    between atoms: N18_18  and  C19_19 
REMARK    6  A    between atoms: C19_19  and  C20_20 
REMARK    7  A    between atoms: C20_20  and  O21_21 
REMARK    8  A    between atoms: O21_21  and  C22_22 
REMARK    9  A    between atoms: C22_22  and  C23_23 
ROOT
ATOM      1  C15 ZIN A   1      19.102   0.955  10.263  0.00  0.00     0.004 C 
ATOM      2  C16 ZIN A   1      17.657   0.439  10.292  0.00  0.00     0.041 C 
ATOM      3  C17 ZIN A   1      17.336  -0.201   8.939  0.00  0.00     0.238 C 
ATOM      4  N18 ZIN A   1      18.501  -0.117   8.054  0.00  0.00    -0.065 N 
ATOM      5  C29 ZIN A   1      18.859   1.282   7.805  0.00  0.00     0.238 C 
ATOM      6  C30 ZIN A   1      19.225   1.988   9.135  0.00  0.00     0.041 C 
ATOM      7  C31 ZIN A   1      19.639  -0.835   8.632  0.00  0.00     0.238 C 
ATOM      8  C32 ZIN A   1      20.050  -0.211   9.956  0.00  0.00     0.041 C 
ENDROOT
BRANCH   1   9
ATOM      9  C2  ZIN A   1      19.464   1.593  11.607  0.00  0.00     0.120 C 
BRANCH   9  10
ATOM     10  O1  ZIN A   1      20.877   1.793  11.674  0.00  0.00    -0.379 OA
ATOM     11  H33 ZIN A   1      21.335   1.646  10.834  0.00  0.00     0.211 HD
ENDBRANCH   9  10
BRANCH   9  12
ATOM     12  C3  ZIN A   1      19.032   0.682  12.727  0.00  0.00    -0.019 A 
ATOM     13  C8  ZIN A   1      19.775  -0.444  13.028  0.00  0.00     0.010 A 
ATOM     14  C7  ZIN A   1      19.381  -1.278  14.058  0.00  0.00     0.001 A 
ATOM     15  C6  ZIN A   1      18.240  -0.989  14.782  0.00  0.00     0.000 A 
ATOM     16  C5  ZIN A   1      17.494   0.135  14.478  0.00  0.00     0.001 A 
ATOM     17  C4  ZIN A   1      17.890   0.970  13.451  0.00  0.00     0.010 A 
ENDBRANCH   9  12
BRANCH   9  18
ATOM     18  C9  ZIN A   1      18.761   2.920  11.739  0.00  0.00    -0.019 A 
ATOM     19  C14 ZIN A   1      17.537   3.117  11.127  0.00  0.00     0.010 A 
ATOM     20  C13 ZIN A   1      16.891   4.332  11.252  0.00  0.00     0.001 A 
ATOM     21  C12 ZIN A   1      17.472   5.353  11.982  0.00  0.00     0.000 A 
ATOM     22  C11 ZIN A   1      18.698   5.156  12.589  0.00  0.00     0.001 A 
ATOM     23  C10 ZIN A   1      19.343   3.940  12.467  0.00  0.00     0.010 A 
ENDBRANCH   9  18
ENDBRANCH   1   9
BRANCH   4  24
ATOM     24  C19 ZIN A   1      18.157  -0.745   6.772  0.00  0.00     0.263 C 
BRANCH  24  25
ATOM     25  C20 ZIN A   1      19.436  -1.016   5.977  0.00  0.00     0.196 C 
BRANCH  25  26
ATOM     26  O21 ZIN A   1      19.380  -2.329   5.418  0.00  0.00    -0.385 OA
BRANCH  26  27
ATOM     27  C22 ZIN A   1      18.356  -3.155   5.977  0.00  0.00     0.206 C 
BRANCH  27  28
ATOM     28  C23 ZIN A   1      18.956  -4.057   7.024  0.00  0.00    -0.035 A 
ATOM     29  C28 ZIN A   1      18.281  -4.286   8.209  0.00  0.00     0.009 A 
ATOM     30  C27 ZIN A   1      18.829  -5.117   9.167  0.00  0.00     0.001 A 
ATOM     31  C26 ZIN A   1      20.056  -5.714   8.946  0.00  0.00     0.000 A 
ATOM     32  C25 ZIN A   1      20.733  -5.481   7.764  0.00  0.00     0.001 A 
ATOM     33  C24 ZIN A   1      20.184  -4.653   6.802  0.00  0.00     0.009 A 
ENDBRANCH  27  28
ENDBRANCH  26  27
ENDBRANCH  25  26
ENDBRANCH  24  25
ENDBRANCH   4  24
TORSDOF 9
ENDMDL
MODEL 6
REMARK VINA RESULT:      -7.8      1.460      2.025
REMARK  9 active torsions:
REMARK  status: ('A' for Active; 'I' for Inactive)
REMARK    1  A    between atoms: O1_1  and  C2_2 
REMARK    2  A    between atoms: C2_2  and  C3_3 
REMARK    3  A    between atoms: C2_2  and  C9_9 
REMARK    4  A    between atoms: C2_2  and  C15_15 
REMARK    5  A    between atoms: N18_18  and  C19_19 
REMARK    6  A    between atoms: C19_19  and  C20_20 
REMARK    7  A    between atoms: C20_20  and  O21_21 
REMARK    8  A    between atoms: O21_21  and  C22_22 
REMARK    9  A    between atoms: C22_22  and  C23_23 
ROOT
ATOM      1  C15 ZIN A   1      19.098  -0.829  12.460  0.00  0.00     0.004 C 
ATOM      2  C16 ZIN A   1      17.692  -0.228  12.327  0.00  0.00     0.041 C 
ATOM      3  C17 ZIN A   1      17.330   0.472  13.639  0.00  0.00     0.238 C 
ATOM      4  N18 ZIN A   1      18.432   0.346  14.596  0.00  0.00    -0.065 N 
ATOM      5  C29 ZIN A   1      18.686  -1.063  14.906  0.00  0.00     0.238 C 
ATOM      6  C30 ZIN A   1      19.088  -1.832  13.621  0.00  0.00     0.041 C 
ATOM      7  C31 ZIN A   1      19.645   0.976  14.072  0.00  0.00     0.238 C 
ATOM      8  C32 ZIN A   1      20.096   0.288  12.794  0.00  0.00     0.041 C 
ENDROOT
BRANCH   1   9
ATOM      9  C2  ZIN A   1      19.501  -1.529  11.160  0.00  0.00     0.120 C 
BRANCH   9  10
ATOM     10  O1  ZIN A   1      20.921  -1.678  11.119  0.00  0.00    -0.379 OA
ATOM     11  H33 ZIN A   1      21.361  -1.086  10.493  0.00  0.00     0.211 HD
ENDBRANCH   9  10
BRANCH   9  12
ATOM     12  C3  ZIN A   1      19.050  -0.701   9.984  0.00  0.00    -0.019 A 
ATOM     13  C8  ZIN A   1      19.742   0.444   9.637  0.00  0.00     0.010 A 
ATOM     14  C7  ZIN A   1      19.330   1.201   8.556  0.00  0.00     0.001 A 
ATOM     15  C6  ZIN A   1      18.221   0.817   7.827  0.00  0.00     0.000 A 
ATOM     16  C5  ZIN A   1      17.526  -0.326   8.176  0.00  0.00     0.001 A 
ATOM     17  C4  ZIN A   1      17.940  -1.085   9.254  0.00  0.00     0.010 A 
ENDBRANCH   9  12
BRANCH   9  18
ATOM     18  C9  ZIN A   1      18.850  -2.887  11.097  0.00  0.00    -0.019 A 
ATOM     19  C14 ZIN A   1      19.589  -3.990  10.711  0.00  0.00     0.010 A 
ATOM     20  C13 ZIN A   1      18.994  -5.236  10.658  0.00  0.00     0.001 A 
ATOM     21  C12 ZIN A   1      17.657  -5.378  10.984  0.00  0.00     0.000 A 
ATOM     22  C11 ZIN A   1      16.918  -4.274  11.366  0.00  0.00     0.001 A 
ATOM     23  C10 ZIN A   1      17.514  -3.028  11.422  0.00  0.00     0.010 A 
ENDBRANCH   9  18
ENDBRANCH   1   9
BRANCH   4  24
ATOM     24  C19 ZIN A   1      18.050   1.033  15.837  0.00  0.00     0.263 C 
BRANCH  24  25
ATOM     25  C20 ZIN A   1      19.207   0.965  16.835  0.00  0.00     0.196 C 
BRANCH  25  26
ATOM     26  O21 ZIN A   1      19.544   2.285  17.264  0.00  0.00    -0.385 OA
BRANCH  26  27
ATOM     27  C22 ZIN A   1      18.520   3.253  17.024  0.00  0.00     0.206 C 
BRANCH  27  28
ATOM     28  C23 ZIN A   1      19.041   4.312  16.086  0.00  0.00    -0.035 A 
ATOM     29  C28 ZIN A   1      20.307   4.836  16.270  0.00  0.00     0.009 A 
ATOM     30  C27 ZIN A   1      20.787   5.804  15.407  0.00  0.00     0.001 A 
ATOM     31  C26 ZIN A   1      19.997   6.254  14.365  0.00  0.00     0.000 A 
ATOM     32  C25 ZIN A   1      18.730   5.734  14.185  0.00  0.00     0.001 A 
ATOM     33  C24 ZIN A   1      18.251   4.762  15.045  0.00  0.00     0.009 A 
ENDBRANCH  27  28
ENDBRANCH  26  27
ENDBRANCH  25  26
ENDBRANCH  24  25
ENDBRANCH   4  24
TORSDOF 9
ENDMDL
MODEL 7
REMARK VINA RESULT:      -7.7      1.363      2.531
REMARK  9 active torsions:
REMARK  status: ('A' for Active; 'I' for Inactive)
REMARK    1  A    between atoms: O1_1  and  C2_2 
REMARK    2  A    between atoms: C2_2  and  C3_3 
REMARK    3  A    between atoms: C2_2  and  C9_9 
REMARK    4  A    between atoms: C2_2  and  C15_15 
REMARK    5  A    between atoms: N18_18  and  C19_19 
REMARK    6  A    between atoms: C19_19  and  C20_20 
REMARK    7  A    between atoms: C20_20  and  O21_21 
REMARK    8  A    between atoms: O21_21  and  C22_22 
REMARK    9  A    between atoms: C22_22  and  C23_23 
ROOT
ATOM      1  C15 ZIN A   1      19.124  -0.903  12.476  0.00  0.00     0.004 C 
ATOM      2  C16 ZIN A   1      19.158  -1.911  13.633  0.00  0.00     0.041 C 
ATOM      3  C17 ZIN A   1      18.759  -1.194  14.924  0.00  0.00     0.238 C 
ATOM      4  N18 ZIN A   1      18.473   0.217  14.647  0.00  0.00    -0.065 N 
ATOM      5  C29 ZIN A   1      19.664   0.889  14.121  0.00  0.00     0.238 C 
ATOM      6  C30 ZIN A   1      20.111   0.229  12.792  0.00  0.00     0.041 C 
ATOM      7  C31 ZIN A   1      17.363   0.341  13.702  0.00  0.00     0.238 C 
ATOM      8  C32 ZIN A   1      17.716  -0.302  12.371  0.00  0.00     0.041 C 
ENDROOT
BRANCH   1   9
ATOM      9  C2  ZIN A   1      19.507  -1.590  11.163  0.00  0.00     0.120 C 
BRANCH   9  10
ATOM     10  O1  ZIN A   1      20.926  -1.750  11.107  0.00  0.00    -0.379 OA
ATOM     11  H33 ZIN A   1      21.352  -1.232  10.409  0.00  0.00     0.211 HD
ENDBRANCH   9  10
BRANCH   9  12
ATOM     12  C3  ZIN A   1      19.051  -0.744  10.002  0.00  0.00    -0.019 A 
ATOM     13  C8  ZIN A   1      17.903  -1.081   9.311  0.00  0.00     0.010 A 
ATOM     14  C7  ZIN A   1      17.482  -0.303   8.248  0.00  0.00     0.001 A 
ATOM     15  C6  ZIN A   1      18.214   0.807   7.872  0.00  0.00     0.000 A 
ATOM     16  C5  ZIN A   1      19.365   1.142   8.561  0.00  0.00     0.001 A 
ATOM     17  C4  ZIN A   1      19.783   0.366   9.626  0.00  0.00     0.010 A 
ENDBRANCH   9  12
BRANCH   9  18
ATOM     18  C9  ZIN A   1      18.845  -2.942  11.091  0.00  0.00    -0.019 A 
ATOM     19  C14 ZIN A   1      17.526  -3.086  11.481  0.00  0.00     0.010 A 
ATOM     20  C13 ZIN A   1      16.918  -4.325  11.411  0.00  0.00     0.001 A 
ATOM     21  C12 ZIN A   1      17.630  -5.421  10.958  0.00  0.00     0.000 A 
ATOM     22  C11 ZIN A   1      18.949  -5.276  10.573  0.00  0.00     0.001 A 
ATOM     23  C10 ZIN A   1      19.557  -4.036  10.640  0.00  0.00     0.010 A 
ENDBRANCH   9  18
ENDBRANCH   1   9
BRANCH   4  24
ATOM     24  C19 ZIN A   1      18.089   0.869  15.906  0.00  0.00     0.263 C 
BRANCH  24  25
ATOM     25  C20 ZIN A   1      19.181   1.856  16.323  0.00  0.00     0.196 C 
BRANCH  25  26
ATOM     26  O21 ZIN A   1      18.602   3.144  16.534  0.00  0.00    -0.385 OA
BRANCH  26  27
ATOM     27  C22 ZIN A   1      19.393   4.226  16.035  0.00  0.00     0.206 C 
BRANCH  27  28
ATOM     28  C23 ZIN A   1      18.497   5.236  15.366  0.00  0.00    -0.035 A 
ATOM     29  C28 ZIN A   1      17.426   4.811  14.602  0.00  0.00     0.009 A 
ATOM     30  C27 ZIN A   1      16.601   5.737  13.992  0.00  0.00     0.001 A 
ATOM     31  C26 ZIN A   1      16.852   7.088  14.138  0.00  0.00     0.000 A 
ATOM     32  C25 ZIN A   1      17.926   7.513  14.897  0.00  0.00     0.001 A 
ATOM     33  C24 ZIN A   1      18.749   6.587  15.511  0.00  0.00     0.009 A 
ENDBRANCH  27  28
ENDBRANCH  26  27
ENDBRANCH  25  26
ENDBRANCH  24  25
ENDBRANCH   4  24
TORSDOF 9
ENDMDL
MODEL 8
REMARK VINA RESULT:      -7.6      2.050      3.554
REMARK  9 active torsions:
REMARK  status: ('A' for Active; 'I' for Inactive)
REMARK    1  A    between atoms: O1_1  and  C2_2 
REMARK    2  A    between atoms: C2_2  and  C3_3 
REMARK    3  A    between atoms: C2_2  and  C9_9 
REMARK    4  A    between atoms: C2_2  and  C15_15 
REMARK    5  A    between atoms: N18_18  and  C19_19 
REMARK    6  A    between atoms: C19_19  and  C20_20 
REMARK    7  A    between atoms: C20_20  and  O21_21 
REMARK    8  A    between atoms: O21_21  and  C22_22 
REMARK    9  A    between atoms: C22_22  and  C23_23 
ROOT
ATOM      1  C15 ZIN A   1      19.151  -0.895  12.548  0.00  0.00     0.004 C 
ATOM      2  C16 ZIN A   1      17.717  -0.352  12.486  0.00  0.00     0.041 C 
ATOM      3  C17 ZIN A   1      17.388   0.325  13.819  0.00  0.00     0.238 C 
ATOM      4  N18 ZIN A   1      18.539   0.239  14.722  0.00  0.00    -0.065 N 
ATOM      5  C29 ZIN A   1      18.866  -1.160  15.009  0.00  0.00     0.238 C 
ATOM      6  C30 ZIN A   1      19.238  -1.904  13.700  0.00  0.00     0.041 C 
ATOM      7  C31 ZIN A   1      19.699   0.922  14.146  0.00  0.00     0.238 C 
ATOM      8  C32 ZIN A   1      20.117   0.261  12.843  0.00  0.00     0.041 C 
ENDROOT
BRANCH   1   9
ATOM      9  C2  ZIN A   1      19.520  -1.569  11.224  0.00  0.00     0.120 C 
BRANCH   9  10
ATOM     10  O1  ZIN A   1      20.938  -1.722  11.147  0.00  0.00    -0.379 OA
ATOM     11  H33 ZIN A   1      21.425  -0.886  11.169  0.00  0.00     0.211 HD
ENDBRANCH   9  10
BRANCH   9  12
ATOM     12  C3  ZIN A   1      19.044  -0.716  10.076  0.00  0.00    -0.019 A 
ATOM     13  C8  ZIN A   1      17.894  -1.059   9.390  0.00  0.00     0.010 A 
ATOM     14  C7  ZIN A   1      17.455  -0.275   8.339  0.00  0.00     0.001 A 
ATOM     15  C6  ZIN A   1      18.171   0.847   7.970  0.00  0.00     0.000 A 
ATOM     16  C5  ZIN A   1      19.324   1.188   8.653  0.00  0.00     0.001 A 
ATOM     17  C4  ZIN A   1      19.760   0.406   9.706  0.00  0.00     0.010 A 
ENDBRANCH   9  12
BRANCH   9  18
ATOM     18  C9  ZIN A   1      18.862  -2.924  11.150  0.00  0.00    -0.019 A 
ATOM     19  C14 ZIN A   1      19.581  -4.016  10.703  0.00  0.00     0.010 A 
ATOM     20  C13 ZIN A   1      18.980  -5.259  10.639  0.00  0.00     0.001 A 
ATOM     21  C12 ZIN A   1      17.657  -5.407  11.015  0.00  0.00     0.000 A 
ATOM     22  C11 ZIN A   1      16.938  -4.313  11.458  0.00  0.00     0.001 A 
ATOM     23  C10 ZIN A   1      17.540  -3.071  11.525  0.00  0.00     0.010 A 
ENDBRANCH   9  18
ENDBRANCH   1   9
BRANCH   4  24
ATOM     24  C19 ZIN A   1      18.188   0.902  15.985  0.00  0.00     0.263 C 
BRANCH  24  25
ATOM     25  C20 ZIN A   1      19.234   0.560  17.048  0.00  0.00     0.196 C 
BRANCH  25  26
ATOM     26  O21 ZIN A   1      19.371   1.658  17.952  0.00  0.00    -0.385 OA
BRANCH  26  27
ATOM     27  C22 ZIN A   1      19.147   2.936  17.351  0.00  0.00     0.206 C 
BRANCH  27  28
ATOM     28  C23 ZIN A   1      18.078   3.670  18.119  0.00  0.00    -0.035 A 
ATOM     29  C28 ZIN A   1      17.372   3.020  19.115  0.00  0.00     0.009 A 
ATOM     30  C27 ZIN A   1      16.395   3.695  19.822  0.00  0.00     0.001 A 
ATOM     31  C26 ZIN A   1      16.117   5.017  19.530  0.00  0.00     0.000 A 
ATOM     32  C25 ZIN A   1      16.819   5.664  18.531  0.00  0.00     0.001 A 
ATOM     33  C24 ZIN A   1      17.800   4.992  17.826  0.00  0.00     0.009 A 
ENDBRANCH  27  28
ENDBRANCH  26  27
ENDBRANCH  25  26
ENDBRANCH  24  25
ENDBRANCH   4  24
TORSDOF 9
ENDMDL
MODEL 9
REMARK VINA RESULT:      -7.5      3.278      8.007
REMARK  9 active torsions:
REMARK  status: ('A' for Active; 'I' for Inactive)
REMARK    1  A    between atoms: O1_1  and  C2_2 
REMARK    2  A    between atoms: C2_2  and  C3_3 
REMARK    3  A    between atoms: C2_2  and  C9_9 
REMARK    4  A    between atoms: C2_2  and  C15_15 
REMARK    5  A    between atoms: N18_18  and  C19_19 
REMARK    6  A    between atoms: C19_19  and  C20_20 
REMARK    7  A    between atoms: C20_20  and  O21_21 
REMARK    8  A    between atoms: O21_21  and  C22_22 
REMARK    9  A    between atoms: C22_22  and  C23_23 
ROOT
ATOM      1  C15 ZIN A   1      19.119   1.021  10.494  0.00  0.00     0.004 C 
ATOM      2  C16 ZIN A   1      17.667   0.526  10.539  0.00  0.00     0.041 C 
ATOM      3  C17 ZIN A   1      17.325  -0.121   9.195  0.00  0.00     0.238 C 
ATOM      4  N18 ZIN A   1      18.484  -0.062   8.300  0.00  0.00    -0.065 N 
ATOM      5  C29 ZIN A   1      18.859   1.329   8.035  0.00  0.00     0.238 C 
ATOM      6  C30 ZIN A   1      19.247   2.042   9.356  0.00  0.00     0.041 C 
ATOM      7  C31 ZIN A   1      19.616  -0.791   8.874  0.00  0.00     0.238 C 
ATOM      8  C32 ZIN A   1      20.048  -0.162  10.189  0.00  0.00     0.041 C 
ENDROOT
BRANCH   1   9
ATOM      9  C2  ZIN A   1      19.502   1.665  11.829  0.00  0.00     0.120 C 
BRANCH   9  10
ATOM     10  O1  ZIN A   1      20.912   1.894  11.860  0.00  0.00    -0.379 OA
ATOM     11  H33 ZIN A   1      21.366   1.659  11.039  0.00  0.00     0.211 HD
ENDBRANCH   9  10
BRANCH   9  12
ATOM     12  C3  ZIN A   1      19.118   0.744  12.959  0.00  0.00    -0.019 A 
ATOM     13  C8  ZIN A   1      19.982  -0.258  13.358  0.00  0.00     0.010 A 
ATOM     14  C7  ZIN A   1      19.631  -1.100  14.397  0.00  0.00     0.001 A 
ATOM     15  C6  ZIN A   1      18.413  -0.945  15.031  0.00  0.00     0.000 A 
ATOM     16  C5  ZIN A   1      17.547   0.055  14.628  0.00  0.00     0.001 A 
ATOM     17  C4  ZIN A   1      17.899   0.899  13.592  0.00  0.00     0.010 A 
ENDBRANCH   9  12
BRANCH   9  18
ATOM     18  C9  ZIN A   1      18.775   2.977  11.980  0.00  0.00    -0.019 A 
ATOM     19  C14 ZIN A   1      19.216   3.908  12.902  0.00  0.00     0.010 A 
ATOM     20  C13 ZIN A   1      18.552   5.113  13.038  0.00  0.00     0.001 A 
ATOM     21  C12 ZIN A   1      17.443   5.383  12.258  0.00  0.00     0.000 A 
ATOM     22  C11 ZIN A   1      17.000   4.449  11.340  0.00  0.00     0.001 A 
ATOM     23  C10 ZIN A   1      17.666   3.245  11.202  0.00  0.00     0.010 A 
ENDBRANCH   9  18
ENDBRANCH   1   9
BRANCH   4  24
ATOM     24  C19 ZIN A   1      18.119  -0.696   7.027  0.00  0.00     0.263 C 
BRANCH  24  25
ATOM     25  C20 ZIN A   1      19.297  -0.602   6.055  0.00  0.00     0.196 C 
BRANCH  25  26
ATOM     26  O21 ZIN A   1      19.564  -1.893   5.504  0.00  0.00    -0.385 OA
BRANCH  26  27
ATOM     27  C22 ZIN A   1      18.753  -2.936   6.049  0.00  0.00     0.206 C 
BRANCH  27  28
ATOM     28  C23 ZIN A   1      18.004  -3.623   4.935  0.00  0.00    -0.035 A 
ATOM     29  C28 ZIN A   1      18.075  -4.997   4.800  0.00  0.00     0.009 A 
ATOM     30  C27 ZIN A   1      17.385  -5.627   3.782  0.00  0.00     0.001 A 
ATOM     31  C26 ZIN A   1      16.631  -4.884   2.893  0.00  0.00     0.000 A 
ATOM     32  C25 ZIN A   1      16.565  -3.509   3.026  0.00  0.00     0.001 A 
ATOM     33  C24 ZIN A   1      17.251  -2.879   4.047  0.00  0.00     0.009 A 
ENDBRANCH  27  28
ENDBRANCH  26  27
ENDBRANCH  25  26
ENDBRANCH  24  25
ENDBRANCH   4  24
TORSDOF 9
ENDMDL
