MODEL 1
REMARK VINA RESULT:      -8.2      0.000      0.000
REMARK  5 active torsions:
REMARK  status: ('A' for Active; 'I' for Inactive)
REMARK    1  A    between atoms: N2_2  and  C4_4 
REMARK    2  A    between atoms: N2_2  and  C15_15 
REMARK    3  A    between atoms: C4_4  and  C5_5 
REMARK    4  A    between atoms: C8_8  and  C9_9 
REMARK    5  A    between atoms: C15_15  and  C16_16 
ROOT
ATOM      1  C1  ZIN A   1      19.002   0.792  14.506  0.00  0.00     0.270 C 
ATOM      2  N2  ZIN A   1      19.147  -0.061  13.318  0.00  0.00    -0.067 N 
ATOM      3  H3  ZIN A   1      18.280  -0.067  12.801  0.00  0.00     0.280 HD
ENDROOT
BRANCH   2   4
ATOM      4  C4  ZIN A   1      19.478  -1.430  13.736  0.00  0.00     0.273 C 
BRANCH   4   5
ATOM      5  C5  ZIN A   1      19.164  -2.387  12.615  0.00  0.00    -0.033 A 
ATOM      6  C14 ZIN A   1      20.150  -3.222  12.122  0.00  0.00     0.009 A 
ATOM      7  C13 ZIN A   1      19.860  -4.101  11.096  0.00  0.00     0.008 A 
ATOM      8  C8  ZIN A   1      18.588  -4.142  10.557  0.00  0.00    -0.051 A 
ATOM      9  C7  ZIN A   1      17.604  -3.303  11.047  0.00  0.00     0.008 A 
ATOM     10  C6  ZIN A   1      17.892  -2.425  12.075  0.00  0.00     0.009 A 
BRANCH   8  11
ATOM     11  C9  ZIN A   1      18.274  -5.100   9.438  0.00  0.00    -0.024 C 
ATOM     12  C10 ZIN A   1      17.758  -4.317   8.228  0.00  0.00     0.019 C 
ATOM     13  C11 ZIN A   1      19.541  -5.863   9.048  0.00  0.00     0.019 C 
ATOM     14  C12 ZIN A   1      17.203  -6.090   9.898  0.00  0.00     0.019 C 
ENDBRANCH   8  11
ENDBRANCH   4   5
ENDBRANCH   2   4
BRANCH   2  15
ATOM     15  C15 ZIN A   1      20.222   0.466  12.466  0.00  0.00     0.274 C 
BRANCH  15  16
ATOM     16  C16 ZIN A   1      19.629   1.328  11.383  0.00  0.00    -0.021 A 
ATOM     17  C25 ZIN A   1      19.280   2.617  11.648  0.00  0.00     0.010 A 
ATOM     18  C24 ZIN A   1      18.735   3.430  10.657  0.00  0.00     0.002 A 
ATOM     19  C23 ZIN A   1      18.525   2.958   9.399  0.00  0.00     0.012 A 
ATOM     20  C22 ZIN A   1      18.866   1.630   9.088  0.00  0.00    -0.025 A 
ATOM     21  C17 ZIN A   1      19.426   0.804  10.094  0.00  0.00    -0.018 A 
ATOM     22  C21 ZIN A   1      18.664   1.107   7.800  0.00  0.00     0.012 A 
ATOM     23  C18 ZIN A   1      19.767  -0.524   9.784  0.00  0.00     0.013 A 
ATOM     24  C19 ZIN A   1      19.557  -0.997   8.526  0.00  0.00     0.001 A 
ATOM     25  C20 ZIN A   1      19.007  -0.183   7.536  0.00  0.00     0.001 A 
ENDBRANCH  15  16
ENDBRANCH   2  15
TORSDOF 5
ENDMDL
MODEL 2
REMARK VINA RESULT:      -8.2      2.810      5.936
REMARK  5 active torsions:
REMARK  status: ('A' for Active; 'I' for Inactive)
REMARK    1  A    between atoms: N2_2  and  C4_4 
REMARK    2  A    between atoms: N2_2  and  C15_15 
REMARK    3  A    between atoms: C4_4  and  C5_5 
REMARK    4  A    between atoms: C8_8  and  C9_9 
REMARK    5  A    between atoms: C15_15  and  C16_16 
ROOT
ATOM      1  C1  ZIN A   1      19.579   4.554  12.596  0.00  0.00     0.270 C 
ATOM      2  N2  ZIN A   1      19.103   3.164  12.560  0.00  0.00    -0.067 N 
ATOM      3  H3  ZIN A   1      19.779   2.590  12.079  0.00  0.00     0.280 HD
ENDROOT
BRANCH   2   4
ATOM      4  C4  ZIN A   1      17.817   3.105  11.851  0.00  0.00     0.273 C 
BRANCH   4   5
ATOM      5  C5  ZIN A   1      17.981   2.318  10.577  0.00  0.00    -0.033 A 
ATOM      6  C14 ZIN A   1      18.736   2.833   9.539  0.00  0.00     0.009 A 
ATOM      7  C13 ZIN A   1      18.888   2.110   8.372  0.00  0.00     0.008 A 
ATOM      8  C8  ZIN A   1      18.281   0.875   8.238  0.00  0.00    -0.051 A 
ATOM      9  C7  ZIN A   1      17.523   0.363   9.274  0.00  0.00     0.008 A 
ATOM     10  C6  ZIN A   1      17.372   1.085  10.443  0.00  0.00     0.009 A 
BRANCH   8  11
ATOM     11  C9  ZIN A   1      18.447   0.088   6.964  0.00  0.00    -0.024 C 
ATOM     12  C10 ZIN A   1      19.165  -1.229   7.268  0.00  0.00     0.019 C 
ATOM     13  C11 ZIN A   1      17.070  -0.209   6.365  0.00  0.00     0.019 C 
ATOM     14  C12 ZIN A   1      19.273   0.900   5.965  0.00  0.00     0.019 C 
ENDBRANCH   8  11
ENDBRANCH   4   5
ENDBRANCH   2   4
BRANCH   2  15
ATOM     15  C15 ZIN A   1      18.929   2.671  13.933  0.00  0.00     0.274 C 
BRANCH  15  16
ATOM     16  C16 ZIN A   1      19.112   1.175  13.956  0.00  0.00    -0.021 A 
ATOM     17  C25 ZIN A   1      19.839   0.559  12.984  0.00  0.00     0.010 A 
ATOM     18  C24 ZIN A   1      20.023  -0.821  12.992  0.00  0.00     0.002 A 
ATOM     19  C23 ZIN A   1      19.474  -1.596  13.966  0.00  0.00     0.012 A 
ATOM     20  C22 ZIN A   1      18.711  -0.997  14.984  0.00  0.00    -0.025 A 
ATOM     21  C17 ZIN A   1      18.528   0.408  14.979  0.00  0.00    -0.018 A 
ATOM     22  C21 ZIN A   1      18.128  -1.764  16.007  0.00  0.00     0.012 A 
ATOM     23  C18 ZIN A   1      17.766   1.008  15.997  0.00  0.00     0.013 A 
ATOM     24  C19 ZIN A   1      17.216   0.233  16.970  0.00  0.00     0.001 A 
ATOM     25  C20 ZIN A   1      17.396  -1.150  16.976  0.00  0.00     0.001 A 
ENDBRANCH  15  16
ENDBRANCH   2  15
TORSDOF 5
ENDMDL
MODEL 3
REMARK VINA RESULT:      -8.1      2.868      6.242
REMARK  5 active torsions:
REMARK  status: ('A' for Active; 'I' for Inactive)
REMARK    1  A    between atoms: N2_2  and  C4_4 
REMARK    2  A    between atoms: N2_2  and  C15_15 
REMARK    3  A    between atoms: C4_4  and  C5_5 
REMARK    4  A    between atoms: C8_8  and  C9_9 
REMARK    5  A    between atoms: C15_15  and  C16_16 
ROOT
ATOM      1  C1  ZIN A   1      20.103   3.537  12.124  0.00  0.00     0.270 C 
ATOM      2  N2  ZIN A   1      19.027   2.547  12.265  0.00  0.00    -0.067 N 
ATOM      3  H3  ZIN A   1      19.385   1.628  12.049  0.00  0.00     0.280 HD
ENDROOT
BRANCH   2   4
ATOM      4  C4  ZIN A   1      17.934   2.876  11.339  0.00  0.00     0.273 C 
BRANCH   4   5
ATOM      5  C5  ZIN A   1      18.086   2.069  10.075  0.00  0.00    -0.033 A 
ATOM      6  C14 ZIN A   1      17.410   0.871   9.936  0.00  0.00     0.009 A 
ATOM      7  C13 ZIN A   1      17.547   0.133   8.776  0.00  0.00     0.008 A 
ATOM      8  C8  ZIN A   1      18.364   0.587   7.758  0.00  0.00    -0.051 A 
ATOM      9  C7  ZIN A   1      19.044   1.783   7.900  0.00  0.00     0.008 A 
ATOM     10  C6  ZIN A   1      18.905   2.523   9.059  0.00  0.00     0.009 A 
BRANCH   8  11
ATOM     11  C9  ZIN A   1      18.515  -0.219   6.494  0.00  0.00    -0.024 C 
ATOM     12  C10 ZIN A   1      17.134  -0.471   5.884  0.00  0.00     0.019 C 
ATOM     13  C11 ZIN A   1      19.380   0.552   5.496  0.00  0.00     0.019 C 
ATOM     14  C12 ZIN A   1      19.180  -1.558   6.819  0.00  0.00     0.019 C 
ENDBRANCH   8  11
ENDBRANCH   4   5
ENDBRANCH   2   4
BRANCH   2  15
ATOM     15  C15 ZIN A   1      18.522   2.565  13.644  0.00  0.00     0.274 C 
BRANCH  15  16
ATOM     16  C16 ZIN A   1      18.583   1.173  14.220  0.00  0.00    -0.021 A 
ATOM     17  C25 ZIN A   1      18.425   0.090  13.411  0.00  0.00     0.010 A 
ATOM     18  C24 ZIN A   1      18.484  -1.203  13.925  0.00  0.00     0.002 A 
ATOM     19  C23 ZIN A   1      18.692  -1.422  15.251  0.00  0.00     0.012 A 
ATOM     20  C22 ZIN A   1      18.854  -0.329  16.120  0.00  0.00    -0.025 A 
ATOM     21  C17 ZIN A   1      18.798   0.988  15.596  0.00  0.00    -0.018 A 
ATOM     22  C21 ZIN A   1      19.069  -0.514  17.495  0.00  0.00     0.012 A 
ATOM     23  C18 ZIN A   1      18.960   2.081  16.464  0.00  0.00     0.013 A 
ATOM     24  C19 ZIN A   1      19.166   1.863  17.791  0.00  0.00     0.001 A 
ATOM     25  C20 ZIN A   1      19.221   0.568  18.306  0.00  0.00     0.001 A 
ENDBRANCH  15  16
ENDBRANCH   2  15
TORSDOF 5
ENDMDL
MODEL 4
REMARK VINA RESULT:      -8.0      3.131      6.194
REMARK  5 active torsions:
REMARK  status: ('A' for Active; 'I' for Inactive)
REMARK    1  A    between atoms: N2_2  and  C4_4 
REMARK    2  A    between atoms: N2_2  and  C15_15 
REMARK    3  A    between atoms: C4_4  and  C5_5 
REMARK    4  A    between atoms: C8_8  and  C9_9 
REMARK    5  A    between atoms: C15_15  and  C16_16 
ROOT
ATOM      1  C1  ZIN A   1      19.954   5.363  15.339  0.00  0.00     0.270 C 
ATOM      2  N2  ZIN A   1      19.396   4.344  14.439  0.00  0.00    -0.067 N 
ATOM      3  H3  ZIN A   1      20.076   3.613  14.295  0.00  0.00     0.280 HD
ENDROOT
BRANCH   2   4
ATOM      4  C4  ZIN A   1      19.059   4.962  13.149  0.00  0.00     0.273 C 
BRANCH   4   5
ATOM      5  C5  ZIN A   1      18.994   3.898  12.084  0.00  0.00    -0.033 A 
ATOM      6  C14 ZIN A   1      20.081   3.072  11.865  0.00  0.00     0.009 A 
ATOM      7  C13 ZIN A   1      20.020   2.094  10.891  0.00  0.00     0.008 A 
ATOM      8  C8  ZIN A   1      18.876   1.946  10.130  0.00  0.00    -0.051 A 
ATOM      9  C7  ZIN A   1      17.791   2.774  10.346  0.00  0.00     0.008 A 
ATOM     10  C6  ZIN A   1      17.851   3.751  11.323  0.00  0.00     0.009 A 
BRANCH   8  11
ATOM     11  C9  ZIN A   1      18.811   0.881   9.066  0.00  0.00    -0.024 C 
ATOM     12  C10 ZIN A   1      19.907  -0.158   9.317  0.00  0.00     0.019 C 
ATOM     13  C11 ZIN A   1      17.442   0.198   9.111  0.00  0.00     0.019 C 
ATOM     14  C12 ZIN A   1      19.018   1.518   7.692  0.00  0.00     0.019 C 
ENDBRANCH   8  11
ENDBRANCH   4   5
ENDBRANCH   2   4
BRANCH   2  15
ATOM     15  C15 ZIN A   1      18.182   3.773  15.040  0.00  0.00     0.274 C 
BRANCH  15  16
ATOM     16  C16 ZIN A   1      18.547   2.550  15.841  0.00  0.00    -0.021 A 
ATOM     17  C25 ZIN A   1      18.964   2.675  17.131  0.00  0.00     0.010 A 
ATOM     18  C24 ZIN A   1      19.300   1.555  17.887  0.00  0.00     0.002 A 
ATOM     19  C23 ZIN A   1      19.230   0.304  17.357  0.00  0.00     0.012 A 
ATOM     20  C22 ZIN A   1      18.810   0.134  16.027  0.00  0.00    -0.025 A 
ATOM     21  C17 ZIN A   1      18.463   1.273  15.258  0.00  0.00    -0.018 A 
ATOM     22  C21 ZIN A   1      18.726  -1.141  15.445  0.00  0.00     0.012 A 
ATOM     23  C18 ZIN A   1      18.043   1.104  13.927  0.00  0.00     0.013 A 
ATOM     24  C19 ZIN A   1      17.975  -0.147  13.397  0.00  0.00     0.001 A 
ATOM     25  C20 ZIN A   1      18.315  -1.267  14.154  0.00  0.00     0.001 A 
ENDBRANCH  15  16
ENDBRANCH   2  15
TORSDOF 5
ENDMDL
MODEL 5
REMARK VINA RESULT:      -8.0      3.169      6.527
REMARK  5 active torsions:
REMARK  status: ('A' for Active; 'I' for Inactive)
REMARK    1  A    between atoms: N2_2  and  C4_4 
REMARK    2  A    between atoms: N2_2  and  C15_15 
REMARK    3  A    between atoms: C4_4  and  C5_5 
REMARK    4  A    between atoms: C8_8  and  C9_9 
REMARK    5  A    between atoms: C15_15  and  C16_16 
ROOT
ATOM      1  C1  ZIN A   1      19.779   4.871  15.371  0.00  0.00     0.270 C 
ATOM      2  N2  ZIN A   1      19.288   3.935  14.351  0.00  0.00    -0.067 N 
ATOM      3  H3  ZIN A   1      19.953   3.184  14.236  0.00  0.00     0.280 HD
ENDROOT
BRANCH   2   4
ATOM      4  C4  ZIN A   1      19.124   4.644  13.074  0.00  0.00     0.273 C 
BRANCH   4   5
ATOM      5  C5  ZIN A   1      19.047   3.643  11.950  0.00  0.00    -0.033 A 
ATOM      6  C14 ZIN A   1      20.030   2.680  11.814  0.00  0.00     0.009 A 
ATOM      7  C13 ZIN A   1      19.957   1.761  10.785  0.00  0.00     0.008 A 
ATOM      8  C8  ZIN A   1      18.907   1.807   9.888  0.00  0.00    -0.051 A 
ATOM      9  C7  ZIN A   1      17.927   2.773  10.022  0.00  0.00     0.008 A 
ATOM     10  C6  ZIN A   1      17.998   3.691  11.052  0.00  0.00     0.009 A 
BRANCH   8  11
ATOM     11  C9  ZIN A   1      18.830   0.806   8.765  0.00  0.00    -0.024 C 
ATOM     12  C10 ZIN A   1      19.890  -0.278   8.974  0.00  0.00     0.019 C 
ATOM     13  C11 ZIN A   1      17.441   0.162   8.749  0.00  0.00     0.019 C 
ATOM     14  C12 ZIN A   1      19.080   1.512   7.432  0.00  0.00     0.019 C 
ENDBRANCH   8  11
ENDBRANCH   4   5
ENDBRANCH   2   4
BRANCH   2  15
ATOM     15  C15 ZIN A   1      17.994   3.383  14.775  0.00  0.00     0.274 C 
BRANCH  15  16
ATOM     16  C16 ZIN A   1      18.078   1.879  14.815  0.00  0.00    -0.021 A 
ATOM     17  C25 ZIN A   1      17.742   1.145  13.719  0.00  0.00     0.010 A 
ATOM     18  C24 ZIN A   1      17.818  -0.245  13.737  0.00  0.00     0.002 A 
ATOM     19  C23 ZIN A   1      18.221  -0.911  14.852  0.00  0.00     0.012 A 
ATOM     20  C22 ZIN A   1      18.571  -0.189  16.006  0.00  0.00    -0.025 A 
ATOM     21  C17 ZIN A   1      18.498   1.227  15.987  0.00  0.00    -0.018 A 
ATOM     22  C21 ZIN A   1      18.991  -0.841  17.177  0.00  0.00     0.012 A 
ATOM     23  C18 ZIN A   1      18.848   1.950  17.141  0.00  0.00     0.013 A 
ATOM     24  C19 ZIN A   1      19.250   1.284  18.256  0.00  0.00     0.001 A 
ATOM     25  C20 ZIN A   1      19.322  -0.109  18.275  0.00  0.00     0.001 A 
ENDBRANCH  15  16
ENDBRANCH   2  15
TORSDOF 5
ENDMDL
MODEL 6
REMARK VINA RESULT:      -7.8      2.023      6.674
REMARK  5 active torsions:
REMARK  status: ('A' for Active; 'I' for Inactive)
REMARK    1  A    between atoms: N2_2  and  C4_4 
REMARK    2  A    between atoms: N2_2  and  C15_15 
REMARK    3  A    between atoms: C4_4  and  C5_5 
REMARK    4  A    between atoms: C8_8  and  C9_9 
REMARK    5  A    between atoms: C15_15  and  C16_16 
ROOT
ATOM      1  C1  ZIN A   1      17.918  -2.587   5.353  0.00  0.00     0.270 C 
ATOM      2  N2  ZIN A   1      18.115  -1.859   6.614  0.00  0.00    -0.067 N 
ATOM      3  H3  ZIN A   1      17.242  -1.819   7.119  0.00  0.00     0.280 HD
ENDROOT
BRANCH   2   4
ATOM      4  C4  ZIN A   1      18.577  -0.495   6.325  0.00  0.00     0.273 C 
BRANCH   4   5
ATOM      5  C5  ZIN A   1      18.479   0.344   7.573  0.00  0.00    -0.033 A 
ATOM      6  C14 ZIN A   1      19.472   1.258   7.871  0.00  0.00     0.009 A 
ATOM      7  C13 ZIN A   1      19.381   2.029   9.015  0.00  0.00     0.008 A 
ATOM      8  C8  ZIN A   1      18.300   1.882   9.864  0.00  0.00    -0.051 A 
ATOM      9  C7  ZIN A   1      17.309   0.965   9.567  0.00  0.00     0.008 A 
ATOM     10  C6  ZIN A   1      17.399   0.195   8.422  0.00  0.00     0.009 A 
BRANCH   8  11
ATOM     11  C9  ZIN A   1      18.201   2.722  11.111  0.00  0.00    -0.024 C 
ATOM     12  C10 ZIN A   1      19.595   3.214  11.505  0.00  0.00     0.019 C 
ATOM     13  C11 ZIN A   1      17.292   3.924  10.846  0.00  0.00     0.019 C 
ATOM     14  C12 ZIN A   1      17.617   1.881  12.247  0.00  0.00     0.019 C 
ENDBRANCH   8  11
ENDBRANCH   4   5
ENDBRANCH   2   4
BRANCH   2  15
ATOM     15  C15 ZIN A   1      19.120  -2.555   7.429  0.00  0.00     0.274 C 
BRANCH  15  16
ATOM     16  C16 ZIN A   1      18.454  -3.168   8.633  0.00  0.00    -0.021 A 
ATOM     17  C25 ZIN A   1      17.558  -4.181   8.478  0.00  0.00     0.010 A 
ATOM     18  C24 ZIN A   1      16.936  -4.763   9.581  0.00  0.00     0.002 A 
ATOM     19  C23 ZIN A   1      17.200  -4.331  10.843  0.00  0.00     0.012 A 
ATOM     20  C22 ZIN A   1      18.115  -3.283  11.044  0.00  0.00    -0.025 A 
ATOM     21  C17 ZIN A   1      18.751  -2.694   9.923  0.00  0.00    -0.018 A 
ATOM     22  C21 ZIN A   1      18.412  -2.810  12.332  0.00  0.00     0.012 A 
ATOM     23  C18 ZIN A   1      19.667  -1.646  10.122  0.00  0.00     0.013 A 
ATOM     24  C19 ZIN A   1      19.930  -1.213  11.385  0.00  0.00     0.001 A 
ATOM     25  C20 ZIN A   1      19.304  -1.793  12.488  0.00  0.00     0.001 A 
ENDBRANCH  15  16
ENDBRANCH   2  15
TORSDOF 5
ENDMDL
MODEL 7
REMARK VINA RESULT:      -7.8      0.980      2.940
REMARK  5 active torsions:
REMARK  status: ('A' for Active; 'I' for Inactive)
REMARK    1  A    between atoms: N2_2  and  C4_4 
REMARK    2  A    between atoms: N2_2  and  C15_15 
REMARK    3  A    between atoms: C4_4  and  C5_5 
REMARK    4  A    between atoms: C8_8  and  C9_9 
REMARK    5  A    between atoms: C15_15  and  C16_16 
ROOT
ATOM      1  C1  ZIN A   1      17.725   0.328  14.538  0.00  0.00     0.270 C 
ATOM      2  N2  ZIN A   1      18.523  -0.068  13.369  0.00  0.00    -0.067 N 
ATOM      3  H3  ZIN A   1      17.912  -0.218  12.580  0.00  0.00     0.280 HD
ENDROOT
BRANCH   2   4
ATOM      4  C4  ZIN A   1      19.249  -1.309  13.669  0.00  0.00     0.273 C 
BRANCH   4   5
ATOM      5  C5  ZIN A   1      19.005  -2.312  12.572  0.00  0.00    -0.033 A 
ATOM      6  C14 ZIN A   1      17.742  -2.445  12.026  0.00  0.00     0.009 A 
ATOM      7  C13 ZIN A   1      17.519  -3.363  11.017  0.00  0.00     0.008 A 
ATOM      8  C8  ZIN A   1      18.556  -4.154  10.559  0.00  0.00    -0.051 A 
ATOM      9  C7  ZIN A   1      19.818  -4.024  11.109  0.00  0.00     0.008 A 
ATOM     10  C6  ZIN A   1      20.042  -3.104  12.116  0.00  0.00     0.009 A 
BRANCH   8  11
ATOM     11  C9  ZIN A   1      18.312  -5.156   9.461  0.00  0.00    -0.024 C 
ATOM     12  C10 ZIN A   1      19.633  -5.830   9.083  0.00  0.00     0.019 C 
ATOM     13  C11 ZIN A   1      17.320  -6.215   9.947  0.00  0.00     0.019 C 
ATOM     14  C12 ZIN A   1      17.736  -4.442   8.237  0.00  0.00     0.019 C 
ENDBRANCH   8  11
ENDBRANCH   4   5
ENDBRANCH   2   4
BRANCH   2  15
ATOM     15  C15 ZIN A   1      19.483   0.997  13.049  0.00  0.00     0.274 C 
BRANCH  15  16
ATOM     16  C16 ZIN A   1      19.211   1.520  11.662  0.00  0.00    -0.021 A 
ATOM     17  C25 ZIN A   1      19.594   0.800  10.572  0.00  0.00     0.010 A 
ATOM     18  C24 ZIN A   1      19.347   1.266   9.283  0.00  0.00     0.002 A 
ATOM     19  C23 ZIN A   1      18.723   2.456   9.075  0.00  0.00     0.012 A 
ATOM     20  C22 ZIN A   1      18.317   3.231  10.175  0.00  0.00    -0.025 A 
ATOM     21  C17 ZIN A   1      18.565   2.756  11.488  0.00  0.00    -0.018 A 
ATOM     22  C21 ZIN A   1      17.671   4.466  10.001  0.00  0.00     0.012 A 
ATOM     23  C18 ZIN A   1      18.160   3.530  12.589  0.00  0.00     0.013 A 
ATOM     24  C19 ZIN A   1      17.537   4.721  12.381  0.00  0.00     0.001 A 
ATOM     25  C20 ZIN A   1      17.293   5.189  11.090  0.00  0.00     0.001 A 
ENDBRANCH  15  16
ENDBRANCH   2  15
TORSDOF 5
ENDMDL
MODEL 8
REMARK VINA RESULT:      -7.5      2.416      5.552
REMARK  5 active torsions:
REMARK  status: ('A' for Active; 'I' for Inactive)
REMARK    1  A    between atoms: N2_2  and  C4_4 
REMARK    2  A    between atoms: N2_2  and  C15_15 
REMARK    3  A    between atoms: C4_4  and  C5_5 
REMARK    4  A    between atoms: C8_8  and  C9_9 
REMARK    5  A    between atoms: C15_15  and  C16_16 
ROOT
ATOM      1  C1  ZIN A   1      17.518   3.503  10.562  0.00  0.00     0.270 C 
ATOM      2  N2  ZIN A   1      18.434   2.364  10.700  0.00  0.00    -0.067 N 
ATOM      3  H3  ZIN A   1      17.922   1.558  11.027  0.00  0.00     0.280 HD
ENDROOT
BRANCH   2   4
ATOM      4  C4  ZIN A   1      19.490   2.698  11.666  0.00  0.00     0.273 C 
BRANCH   4   5
ATOM      5  C5  ZIN A   1      19.247   1.954  12.953  0.00  0.00    -0.033 A 
ATOM      6  C14 ZIN A   1      19.693   0.652  13.093  0.00  0.00     0.009 A 
ATOM      7  C13 ZIN A   1      19.473  -0.030  14.275  0.00  0.00     0.008 A 
ATOM      8  C8  ZIN A   1      18.802   0.586  15.315  0.00  0.00    -0.051 A 
ATOM      9  C7  ZIN A   1      18.352   1.886  15.173  0.00  0.00     0.008 A 
ATOM     10  C6  ZIN A   1      18.574   2.569  13.992  0.00  0.00     0.009 A 
BRANCH   8  11
ATOM     11  C9  ZIN A   1      18.560  -0.158  16.602  0.00  0.00    -0.024 C 
ATOM     12  C10 ZIN A   1      19.166  -1.560  16.501  0.00  0.00     0.019 C 
ATOM     13  C11 ZIN A   1      19.217   0.597  17.759  0.00  0.00     0.019 C 
ATOM     14  C12 ZIN A   1      17.056  -0.270  16.853  0.00  0.00     0.019 C 
ENDBRANCH   8  11
ENDBRANCH   4   5
ENDBRANCH   2   4
BRANCH   2  15
ATOM     15  C15 ZIN A   1      19.041   2.063   9.396  0.00  0.00     0.274 C 
BRANCH  15  16
ATOM     16  C16 ZIN A   1      18.688   0.655   8.991  0.00  0.00    -0.021 A 
ATOM     17  C25 ZIN A   1      18.310  -0.254   9.931  0.00  0.00     0.010 A 
ATOM     18  C24 ZIN A   1      17.976  -1.558   9.574  0.00  0.00     0.002 A 
ATOM     19  C23 ZIN A   1      18.026  -1.965   8.277  0.00  0.00     0.012 A 
ATOM     20  C22 ZIN A   1      18.417  -1.057   7.278  0.00  0.00    -0.025 A 
ATOM     21  C17 ZIN A   1      18.753   0.272   7.640  0.00  0.00    -0.018 A 
ATOM     22  C21 ZIN A   1      18.482  -1.440   5.928  0.00  0.00     0.012 A 
ATOM     23  C18 ZIN A   1      19.145   1.180   6.641  0.00  0.00     0.013 A 
ATOM     24  C19 ZIN A   1      19.196   0.773   5.345  0.00  0.00     0.001 A 
ATOM     25  C20 ZIN A   1      18.866  -0.534   4.988  0.00  0.00     0.001 A 
ENDBRANCH  15  16
ENDBRANCH   2  15
TORSDOF 5
ENDMDL
MODEL 9
REMARK VINA RESULT:      -7.5      2.137      5.426
REMARK  5 active torsions:
REMARK  status: ('A' for Active; 'I' for Inactive)
REMARK    1  A    between atoms: N2_2  and  C4_4 
REMARK    2  A    between atoms: N2_2  and  C15_15 
REMARK    3  A    between atoms: C4_4  and  C5_5 
REMARK    4  A    between atoms: C8_8  and  C9_9 
REMARK    5  A    between atoms: C15_15  and  C16_16 
ROOT
ATOM      1  C1  ZIN A   1      19.753  -2.430  10.756  0.00  0.00     0.270 C 
ATOM      2  N2  ZIN A   1      18.735  -1.548  11.343  0.00  0.00    -0.067 N 
ATOM      3  H3  ZIN A   1      19.176  -0.707  11.685  0.00  0.00     0.280 HD
ENDROOT
BRANCH   2   4
ATOM      4  C4  ZIN A   1      18.071  -2.241  12.457  0.00  0.00     0.273 C 
BRANCH   4   5
ATOM      5  C5  ZIN A   1      18.218  -1.424  13.715  0.00  0.00    -0.033 A 
ATOM      6  C14 ZIN A   1      17.665  -0.159  13.786  0.00  0.00     0.009 A 
ATOM      7  C13 ZIN A   1      17.798   0.589  14.941  0.00  0.00     0.008 A 
ATOM      8  C8  ZIN A   1      18.488   0.074  16.023  0.00  0.00    -0.051 A 
ATOM      9  C7  ZIN A   1      19.044  -1.189  15.949  0.00  0.00     0.008 A 
ATOM     10  C6  ZIN A   1      18.910  -1.938  14.795  0.00  0.00     0.009 A 
BRANCH   8  11
ATOM     11  C9  ZIN A   1      18.633   0.890  17.281  0.00  0.00    -0.024 C 
ATOM     12  C10 ZIN A   1      19.609   0.192  18.231  0.00  0.00     0.019 C 
ATOM     13  C11 ZIN A   1      19.171   2.279  16.930  0.00  0.00     0.019 C 
ATOM     14  C12 ZIN A   1      17.270   1.028  17.961  0.00  0.00     0.019 C 
ENDBRANCH   8  11
ENDBRANCH   4   5
ENDBRANCH   2   4
BRANCH   2  15
ATOM     15  C15 ZIN A   1      17.740  -1.200  10.320  0.00  0.00     0.274 C 
BRANCH  15  16
ATOM     16  C16 ZIN A   1      18.140   0.088   9.649  0.00  0.00    -0.021 A 
ATOM     17  C25 ZIN A   1      18.256   1.233  10.377  0.00  0.00     0.010 A 
ATOM     18  C24 ZIN A   1      18.630   2.432   9.774  0.00  0.00     0.002 A 
ATOM     19  C23 ZIN A   1      18.880   2.496   8.438  0.00  0.00     0.012 A 
ATOM     20  C22 ZIN A   1      18.764   1.338   7.651  0.00  0.00    -0.025 A 
ATOM     21  C17 ZIN A   1      18.389   0.116   8.266  0.00  0.00    -0.018 A 
ATOM     22  C21 ZIN A   1      19.014   1.365   6.269  0.00  0.00     0.012 A 
ATOM     23  C18 ZIN A   1      18.274  -1.043   7.479  0.00  0.00     0.013 A 
ATOM     24  C19 ZIN A   1      18.522  -0.978   6.144  0.00  0.00     0.001 A 
ATOM     25  C20 ZIN A   1      18.892   0.223   5.540  0.00  0.00     0.001 A 
ENDBRANCH  15  16
ENDBRANCH   2  15
TORSDOF 5
ENDMDL
