MODEL 1
REMARK VINA RESULT:      -8.7      0.000      0.000
REMARK  6 active torsions:
REMARK  status: ('A' for Active; 'I' for Inactive)
REMARK    1  A    between atoms: O2_2  and  C3_3 
REMARK    2  A    between atoms: C4_4  and  C5_5 
REMARK       I    between atoms: C5_5  and  N6_6 
REMARK    3  A    between atoms: C15_15  and  O16_16 
REMARK    4  A    between atoms: O16_16  and  C17_17 
REMARK    5  A    between atoms: C20_20  and  N21_21 
REMARK       I    between atoms: N21_21  and  C22_22 
REMARK       I    between atoms: C22_22  and  N24_24 
REMARK    6  A    between atoms: N24_24  and  C25_25 
ROOT
ATOM      1  C3  ZIN A   1      19.591  -4.335   7.355  0.00  0.00     0.086 A 
ATOM      2  C4  ZIN A   1      18.765  -3.807   8.370  0.00  0.00     0.066 A 
ATOM      3  C8  ZIN A   1      18.223  -2.536   8.240  0.00  0.00     0.036 A 
ATOM      4  C9  ZIN A   1      18.500  -1.784   7.095  0.00  0.00     0.028 A 
ATOM      5  C10 ZIN A   1      19.331  -2.320   6.079  0.00  0.00     0.072 A 
ATOM      6  C11 ZIN A   1      19.873  -3.607   6.237  0.00  0.00     0.070 A 
ATOM      7  N12 ZIN A   1      19.596  -1.598   4.984  0.00  0.00    -0.260 NA
ATOM      8  C13 ZIN A   1      19.105  -0.391   4.819  0.00  0.00     0.120 A 
ATOM      9  C14 ZIN A   1      18.284   0.203   5.767  0.00  0.00     0.057 A 
ATOM     10  C15 ZIN A   1      17.965  -0.485   6.926  0.00  0.00     0.090 A 
ENDROOT
BRANCH  10  11
ATOM     11  O16 ZIN A   1      17.166   0.070   7.869  0.00  0.00    -0.310 OA
BRANCH  11  12
ATOM     12  C17 ZIN A   1      17.758   0.638   8.953  0.00  0.00     0.077 A 
ATOM     13  C30 ZIN A   1      17.314   0.325  10.229  0.00  0.00     0.063 A 
ATOM     14  C28 ZIN A   1      17.918   0.900  11.332  0.00  0.00     0.063 A 
ATOM     15  C20 ZIN A   1      18.963   1.800  11.160  0.00  0.00     0.058 A 
ATOM     16 Cl29 ZIN A   1      17.368   0.503  12.930  0.00  0.00    -0.082 Cl
ATOM     17  C19 ZIN A   1      19.403   2.116   9.882  0.00  0.00     0.034 A 
ATOM     18  C18 ZIN A   1      18.801   1.538   8.781  0.00  0.00     0.039 A 
BRANCH  15  19
ATOM     19  N21 ZIN A   1      19.573   2.388  12.276  0.00  0.00    -0.307 N 
ATOM     20  C22 ZIN A   1      19.186   3.610  12.690  0.00  0.00     0.321 C 
ATOM     21  O23 ZIN A   1      18.361   4.236  12.052  0.00  0.00    -0.247 OA
ATOM     22  N24 ZIN A   1      19.711   4.139  13.813  0.00  0.00    -0.338 N 
ATOM     23  H43 ZIN A   1      20.368   3.639  14.323  0.00  0.00     0.164 HD
ATOM     24  H42 ZIN A   1      20.275   1.915  12.750  0.00  0.00     0.170 HD
BRANCH  22  25
ATOM     25  C25 ZIN A   1      19.289   5.468  14.265  0.00  0.00     0.086 A 
ATOM     26  C27 ZIN A   1      20.383   6.502  14.537  0.00  0.00     0.027 A 
ATOM     27  C26 ZIN A   1      19.626   5.864  15.703  0.00  0.00     0.027 A 
ENDBRANCH  22  25
ENDBRANCH  15  19
ENDBRANCH  11  12
ENDBRANCH  10  11
BRANCH   2  28
ATOM     28  C5  ZIN A   1      18.479  -4.608   9.575  0.00  0.00     0.252 C 
ATOM     29  N6  ZIN A   1      19.435  -4.788  10.507  0.00  0.00    -0.366 N 
ATOM     30  H34 ZIN A   1      20.311  -4.391  10.386  0.00  0.00     0.159 HD
ATOM     31  H35 ZIN A   1      19.247  -5.314  11.300  0.00  0.00     0.159 HD
ATOM     32  O7  ZIN A   1      17.380  -5.106   9.727  0.00  0.00    -0.268 OA
ENDBRANCH   2  28
BRANCH   1  33
ATOM     33  O2  ZIN A   1      20.116  -5.578   7.496  0.00  0.00    -0.355 OA
ATOM     34  C1  ZIN A   1      21.528  -5.668   7.692  0.00  0.00     0.210 C 
ENDBRANCH   1  33
TORSDOF 6
ENDMDL
MODEL 2
REMARK VINA RESULT:      -8.5      3.222      9.813
REMARK  6 active torsions:
REMARK  status: ('A' for Active; 'I' for Inactive)
REMARK    1  A    between atoms: O2_2  and  C3_3 
REMARK    2  A    between atoms: C4_4  and  C5_5 
REMARK       I    between atoms: C5_5  and  N6_6 
REMARK    3  A    between atoms: C15_15  and  O16_16 
REMARK    4  A    between atoms: O16_16  and  C17_17 
REMARK    5  A    between atoms: C20_20  and  N21_21 
REMARK       I    between atoms: N21_21  and  C22_22 
REMARK       I    between atoms: C22_22  and  N24_24 
REMARK    6  A    between atoms: N24_24  and  C25_25 
ROOT
ATOM      1  C3  ZIN A   1      19.315   4.350  15.748  0.00  0.00     0.086 A 
ATOM      2  C4  ZIN A   1      18.503   3.769  14.750  0.00  0.00     0.066 A 
ATOM      3  C8  ZIN A   1      18.090   2.449  14.864  0.00  0.00     0.036 A 
ATOM      4  C9  ZIN A   1      18.484   1.699  15.976  0.00  0.00     0.028 A 
ATOM      5  C10 ZIN A   1      19.300   2.288  16.975  0.00  0.00     0.072 A 
ATOM      6  C11 ZIN A   1      19.710   3.625  16.833  0.00  0.00     0.070 A 
ATOM      7  N12 ZIN A   1      19.676   1.568  18.038  0.00  0.00    -0.260 NA
ATOM      8  C13 ZIN A   1      19.311   0.316  18.187  0.00  0.00     0.120 A 
ATOM      9  C14 ZIN A   1      18.513  -0.331  17.254  0.00  0.00     0.057 A 
ATOM     10  C15 ZIN A   1      18.084   0.351  16.127  0.00  0.00     0.090 A 
ENDROOT
BRANCH  10  11
ATOM     11  O16 ZIN A   1      17.304  -0.255  15.199  0.00  0.00    -0.310 OA
BRANCH  11  12
ATOM     12  C17 ZIN A   1      17.880  -0.622  14.024  0.00  0.00     0.077 A 
ATOM     13  C30 ZIN A   1      17.405  -0.106  12.827  0.00  0.00     0.063 A 
ATOM     14  C28 ZIN A   1      17.993  -0.476  11.632  0.00  0.00     0.063 A 
ATOM     15  C20 ZIN A   1      19.053  -1.374  11.630  0.00  0.00     0.058 A 
ATOM     16 Cl29 ZIN A   1      17.402   0.176  10.135  0.00  0.00    -0.082 Cl
ATOM     17  C19 ZIN A   1      19.524  -1.894  12.827  0.00  0.00     0.034 A 
ATOM     18  C18 ZIN A   1      18.939  -1.520  14.021  0.00  0.00     0.039 A 
BRANCH  15  19
ATOM     19  N21 ZIN A   1      19.647  -1.754  10.419  0.00  0.00    -0.307 N 
ATOM     20  C22 ZIN A   1      19.139  -2.783   9.713  0.00  0.00     0.321 C 
ATOM     21  O23 ZIN A   1      18.214  -3.432  10.163  0.00  0.00    -0.247 OA
ATOM     22  N24 ZIN A   1      19.656  -3.095   8.508  0.00  0.00    -0.338 N 
ATOM     23  H43 ZIN A   1      20.394  -2.577   8.148  0.00  0.00     0.164 HD
ATOM     24  H42 ZIN A   1      20.424  -1.276  10.088  0.00  0.00     0.170 HD
BRANCH  22  25
ATOM     25  C25 ZIN A   1      19.104  -4.214   7.740  0.00  0.00     0.086 A 
ATOM     26  C27 ZIN A   1      20.093  -5.135   7.022  0.00  0.00     0.027 A 
ATOM     27  C26 ZIN A   1      19.234  -4.158   6.217  0.00  0.00     0.027 A 
ENDBRANCH  22  25
ENDBRANCH  15  19
ENDBRANCH  11  12
ENDBRANCH  10  11
BRANCH   2  28
ATOM     28  C5  ZIN A   1      18.093   4.569  13.580  0.00  0.00     0.252 C 
ATOM     29  N6  ZIN A   1      18.984   4.844  12.607  0.00  0.00    -0.366 N 
ATOM     30  H34 ZIN A   1      19.894   4.517  12.676  0.00  0.00     0.159 HD
ATOM     31  H35 ZIN A   1      18.714   5.369  11.837  0.00  0.00     0.159 HD
ATOM     32  O7  ZIN A   1      16.952   4.979  13.494  0.00  0.00    -0.268 OA
ENDBRANCH   2  28
BRANCH   1  33
ATOM     33  O2  ZIN A   1      19.711   5.641  15.623  0.00  0.00    -0.355 OA
ATOM     34  C1  ZIN A   1      21.116   5.882  15.531  0.00  0.00     0.210 C 
ENDBRANCH   1  33
TORSDOF 6
ENDMDL
MODEL 3
REMARK VINA RESULT:      -8.4      3.639      9.570
REMARK  6 active torsions:
REMARK  status: ('A' for Active; 'I' for Inactive)
REMARK    1  A    between atoms: O2_2  and  C3_3 
REMARK    2  A    between atoms: C4_4  and  C5_5 
REMARK       I    between atoms: C5_5  and  N6_6 
REMARK    3  A    between atoms: C15_15  and  O16_16 
REMARK    4  A    between atoms: O16_16  and  C17_17 
REMARK    5  A    between atoms: C20_20  and  N21_21 
REMARK       I    between atoms: N21_21  and  C22_22 
REMARK       I    between atoms: C22_22  and  N24_24 
REMARK    6  A    between atoms: N24_24  and  C25_25 
ROOT
ATOM      1  C3  ZIN A   1      18.540   2.960  13.665  0.00  0.00     0.086 A 
ATOM      2  C4  ZIN A   1      19.324   2.191  12.778  0.00  0.00     0.066 A 
ATOM      3  C8  ZIN A   1      19.525   0.838  13.016  0.00  0.00     0.036 A 
ATOM      4  C9  ZIN A   1      18.944   0.244  14.140  0.00  0.00     0.028 A 
ATOM      5  C10 ZIN A   1      18.157   1.022  15.026  0.00  0.00     0.072 A 
ATOM      6  C11 ZIN A   1      17.974   2.391  14.767  0.00  0.00     0.070 A 
ATOM      7  N12 ZIN A   1      17.603   0.451  16.102  0.00  0.00    -0.260 NA
ATOM      8  C13 ZIN A   1      17.767  -0.824  16.367  0.00  0.00     0.120 A 
ATOM      9  C14 ZIN A   1      18.522  -1.653  15.547  0.00  0.00     0.057 A 
ATOM     10  C15 ZIN A   1      19.126  -1.132  14.415  0.00  0.00     0.090 A 
ENDROOT
BRANCH  10  11
ATOM     11  O16 ZIN A   1      19.869  -1.917  13.597  0.00  0.00    -0.310 OA
BRANCH  11  12
ATOM     12  C17 ZIN A   1      19.268  -2.436  12.494  0.00  0.00     0.077 A 
ATOM     13  C30 ZIN A   1      19.893  -3.445  11.774  0.00  0.00     0.063 A 
ATOM     14  C28 ZIN A   1      19.281  -3.976  10.655  0.00  0.00     0.063 A 
ATOM     15  C20 ZIN A   1      18.045  -3.492  10.245  0.00  0.00     0.058 A 
ATOM     16 Cl29 ZIN A   1      20.059  -5.243   9.759  0.00  0.00    -0.082 Cl
ATOM     17  C19 ZIN A   1      17.423  -2.479  10.962  0.00  0.00     0.034 A 
ATOM     18  C18 ZIN A   1      18.034  -1.952  12.083  0.00  0.00     0.039 A 
BRANCH  15  19
ATOM     19  N21 ZIN A   1      17.426  -4.026   9.107  0.00  0.00    -0.307 N 
ATOM     20  C22 ZIN A   1      16.451  -4.947   9.239  0.00  0.00     0.321 C 
ATOM     21  O23 ZIN A   1      16.161  -5.372  10.342  0.00  0.00    -0.247 OA
ATOM     22  N24 ZIN A   1      15.796  -5.397   8.151  0.00  0.00    -0.338 N 
ATOM     23  H43 ZIN A   1      16.026  -5.058   7.271  0.00  0.00     0.164 HD
ATOM     24  H42 ZIN A   1      17.699  -3.734   8.223  0.00  0.00     0.170 HD
BRANCH  22  25
ATOM     25  C25 ZIN A   1      14.735  -6.398   8.295  0.00  0.00     0.086 A 
ATOM     26  C27 ZIN A   1      14.628  -7.476   7.215  0.00  0.00     0.027 A 
ATOM     27  C26 ZIN A   1      13.585  -6.359   7.286  0.00  0.00     0.027 A 
ENDBRANCH  22  25
ENDBRANCH  15  19
ENDBRANCH  11  12
ENDBRANCH  10  11
BRANCH   2  28
ATOM     28  C5  ZIN A   1      19.934   2.827  11.595  0.00  0.00     0.252 C 
ATOM     29  N6  ZIN A   1      21.058   3.557  11.728  0.00  0.00    -0.366 N 
ATOM     30  H34 ZIN A   1      21.467   3.665  12.601  0.00  0.00     0.159 HD
ATOM     31  H35 ZIN A   1      21.459   3.976  10.950  0.00  0.00     0.159 HD
ATOM     32  O7  ZIN A   1      19.421   2.693  10.501  0.00  0.00    -0.268 OA
ENDBRANCH   2  28
BRANCH   1  33
ATOM     33  O2  ZIN A   1      18.353   4.281  13.420  0.00  0.00    -0.355 OA
ATOM     34  C1  ZIN A   1      17.357   4.949  14.197  0.00  0.00     0.210 C 
ENDBRANCH   1  33
TORSDOF 6
ENDMDL
MODEL 4
REMARK VINA RESULT:      -8.4      3.178      9.360
REMARK  6 active torsions:
REMARK  status: ('A' for Active; 'I' for Inactive)
REMARK    1  A    between atoms: O2_2  and  C3_3 
REMARK    2  A    between atoms: C4_4  and  C5_5 
REMARK       I    between atoms: C5_5  and  N6_6 
REMARK    3  A    between atoms: C15_15  and  O16_16 
REMARK    4  A    between atoms: O16_16  and  C17_17 
REMARK    5  A    between atoms: C20_20  and  N21_21 
REMARK       I    between atoms: N21_21  and  C22_22 
REMARK       I    between atoms: C22_22  and  N24_24 
REMARK    6  A    between atoms: N24_24  and  C25_25 
ROOT
ATOM      1  C3  ZIN A   1      17.888   5.205  15.501  0.00  0.00     0.086 A 
ATOM      2  C4  ZIN A   1      19.104   4.582  15.148  0.00  0.00     0.066 A 
ATOM      3  C8  ZIN A   1      19.343   4.209  13.833  0.00  0.00     0.036 A 
ATOM      4  C9  ZIN A   1      18.369   4.456  12.860  0.00  0.00     0.028 A 
ATOM      5  C10 ZIN A   1      17.150   5.082  13.221  0.00  0.00     0.072 A 
ATOM      6  C11 ZIN A   1      16.929   5.444  14.561  0.00  0.00     0.070 A 
ATOM      7  N12 ZIN A   1      16.220   5.316  12.289  0.00  0.00    -0.260 NA
ATOM      8  C13 ZIN A   1      16.402   4.979  11.033  0.00  0.00     0.120 A 
ATOM      9  C14 ZIN A   1      17.568   4.364  10.601  0.00  0.00     0.057 A 
ATOM     10  C15 ZIN A   1      18.577   4.089  11.509  0.00  0.00     0.090 A 
ENDROOT
BRANCH  10  11
ATOM     11  O16 ZIN A   1      19.726   3.489  11.117  0.00  0.00    -0.310 OA
BRANCH  11  12
ATOM     12  C17 ZIN A   1      19.686   2.161  10.829  0.00  0.00     0.077 A 
ATOM     13  C30 ZIN A   1      19.349   1.738   9.551  0.00  0.00     0.063 A 
ATOM     14  C28 ZIN A   1      19.313   0.389   9.256  0.00  0.00     0.063 A 
ATOM     15  C20 ZIN A   1      19.603  -0.545  10.244  0.00  0.00     0.058 A 
ATOM     16 Cl29 ZIN A   1      18.897  -0.140   7.656  0.00  0.00    -0.082 Cl
ATOM     17  C19 ZIN A   1      19.935  -0.121  11.523  0.00  0.00     0.034 A 
ATOM     18  C18 ZIN A   1      19.975   1.229  11.815  0.00  0.00     0.039 A 
BRANCH  15  19
ATOM     19  N21 ZIN A   1      19.561  -1.914   9.949  0.00  0.00    -0.307 N 
ATOM     20  C22 ZIN A   1      18.452  -2.629  10.223  0.00  0.00     0.321 C 
ATOM     21  O23 ZIN A   1      17.516  -2.105  10.797  0.00  0.00    -0.247 OA
ATOM     22  N24 ZIN A   1      18.379  -3.925   9.861  0.00  0.00    -0.338 N 
ATOM     23  H43 ZIN A   1      19.126  -4.344   9.403  0.00  0.00     0.164 HD
ATOM     24  H42 ZIN A   1      20.330  -2.347   9.547  0.00  0.00     0.170 HD
BRANCH  22  25
ATOM     25  C25 ZIN A   1      17.174  -4.703  10.159  0.00  0.00     0.086 A 
ATOM     26  C27 ZIN A   1      17.320  -5.903  11.096  0.00  0.00     0.027 A 
ATOM     27  C26 ZIN A   1      17.094  -6.125   9.599  0.00  0.00     0.027 A 
ENDBRANCH  22  25
ENDBRANCH  15  19
ENDBRANCH  11  12
ENDBRANCH  10  11
BRANCH   2  28
ATOM     28  C5  ZIN A   1      20.124   4.325  16.182  0.00  0.00     0.252 C 
ATOM     29  N6  ZIN A   1      21.230   5.093  16.242  0.00  0.00    -0.366 N 
ATOM     30  H34 ZIN A   1      21.356   5.813  15.605  0.00  0.00     0.159 HD
ATOM     31  H35 ZIN A   1      21.901   4.925  16.922  0.00  0.00     0.159 HD
ATOM     32  O7  ZIN A   1      19.967   3.421  16.980  0.00  0.00    -0.268 OA
ENDBRANCH   2  28
BRANCH   1  33
ATOM     33  O2  ZIN A   1      17.667   5.564  16.790  0.00  0.00    -0.355 OA
ATOM     34  C1  ZIN A   1      17.718   6.959  17.093  0.00  0.00     0.210 C 
ENDBRANCH   1  33
TORSDOF 6
ENDMDL
MODEL 5
REMARK VINA RESULT:      -8.4      2.765      9.399
REMARK  6 active torsions:
REMARK  status: ('A' for Active; 'I' for Inactive)
REMARK    1  A    between atoms: O2_2  and  C3_3 
REMARK    2  A    between atoms: C4_4  and  C5_5 
REMARK       I    between atoms: C5_5  and  N6_6 
REMARK    3  A    between atoms: C15_15  and  O16_16 
REMARK    4  A    between atoms: O16_16  and  C17_17 
REMARK    5  A    between atoms: C20_20  and  N21_21 
REMARK       I    between atoms: N21_21  and  C22_22 
REMARK       I    between atoms: C22_22  and  N24_24 
REMARK    6  A    between atoms: N24_24  and  C25_25 
ROOT
ATOM      1  C3  ZIN A   1      17.740   4.757  15.068  0.00  0.00     0.086 A 
ATOM      2  C4  ZIN A   1      18.678   3.749  14.758  0.00  0.00     0.066 A 
ATOM      3  C8  ZIN A   1      18.916   3.399  13.436  0.00  0.00     0.036 A 
ATOM      4  C9  ZIN A   1      18.220   4.053  12.415  0.00  0.00     0.028 A 
ATOM      5  C10 ZIN A   1      17.279   5.064  12.734  0.00  0.00     0.072 A 
ATOM      6  C11 ZIN A   1      17.051   5.396  14.080  0.00  0.00     0.070 A 
ATOM      7  N12 ZIN A   1      16.614   5.688  11.755  0.00  0.00    -0.260 NA
ATOM      8  C13 ZIN A   1      16.806   5.389  10.491  0.00  0.00     0.120 A 
ATOM      9  C14 ZIN A   1      17.710   4.411  10.098  0.00  0.00     0.057 A 
ATOM     10  C15 ZIN A   1      18.436   3.723  11.056  0.00  0.00     0.090 A 
ENDROOT
BRANCH  10  11
ATOM     11  O16 ZIN A   1      19.325   2.764  10.702  0.00  0.00    -0.310 OA
BRANCH  11  12
ATOM     12  C17 ZIN A   1      18.903   1.780   9.864  0.00  0.00     0.077 A 
ATOM     13  C30 ZIN A   1      19.221   1.835   8.515  0.00  0.00     0.063 A 
ATOM     14  C28 ZIN A   1      18.795   0.833   7.663  0.00  0.00     0.063 A 
ATOM     15  C20 ZIN A   1      18.040  -0.222   8.157  0.00  0.00     0.058 A 
ATOM     16 Cl29 ZIN A   1      19.199   0.898   5.976  0.00  0.00    -0.082 Cl
ATOM     17  C19 ZIN A   1      17.718  -0.274   9.506  0.00  0.00     0.034 A 
ATOM     18  C18 ZIN A   1      18.147   0.726  10.357  0.00  0.00     0.039 A 
BRANCH  15  19
ATOM     19  N21 ZIN A   1      17.603  -1.236   7.294  0.00  0.00    -0.307 N 
ATOM     20  C22 ZIN A   1      18.354  -2.341   7.117  0.00  0.00     0.321 C 
ATOM     21  O23 ZIN A   1      19.447  -2.425   7.646  0.00  0.00    -0.247 OA
ATOM     22  N24 ZIN A   1      17.895  -3.354   6.356  0.00  0.00    -0.338 N 
ATOM     23  H43 ZIN A   1      17.023  -3.287   5.934  0.00  0.00     0.164 HD
ATOM     24  H42 ZIN A   1      16.760  -1.143   6.824  0.00  0.00     0.170 HD
BRANCH  22  25
ATOM     25  C25 ZIN A   1      18.711  -4.556   6.163  0.00  0.00     0.086 A 
ATOM     26  C27 ZIN A   1      18.094  -5.711   5.374  0.00  0.00     0.027 A 
ATOM     27  C26 ZIN A   1      18.274  -5.830   6.888  0.00  0.00     0.027 A 
ENDBRANCH  22  25
ENDBRANCH  15  19
ENDBRANCH  11  12
ENDBRANCH  10  11
BRANCH   2  28
ATOM     28  C5  ZIN A   1      19.407   3.065  15.842  0.00  0.00     0.252 C 
ATOM     29  N6  ZIN A   1      20.295   3.747  16.591  0.00  0.00    -0.366 N 
ATOM     30  H34 ZIN A   1      20.456   4.687  16.418  0.00  0.00     0.159 HD
ATOM     31  H35 ZIN A   1      20.774   3.297  17.305  0.00  0.00     0.159 HD
ATOM     32  O7  ZIN A   1      19.206   1.885  16.059  0.00  0.00    -0.268 OA
ENDBRANCH   2  28
BRANCH   1  33
ATOM     33  O2  ZIN A   1      17.517   5.088  16.365  0.00  0.00    -0.355 OA
ATOM     34  C1  ZIN A   1      17.842   6.423  16.758  0.00  0.00     0.210 C 
ENDBRANCH   1  33
TORSDOF 6
ENDMDL
MODEL 6
REMARK VINA RESULT:      -8.1      3.833      9.567
REMARK  6 active torsions:
REMARK  status: ('A' for Active; 'I' for Inactive)
REMARK    1  A    between atoms: O2_2  and  C3_3 
REMARK    2  A    between atoms: C4_4  and  C5_5 
REMARK       I    between atoms: C5_5  and  N6_6 
REMARK    3  A    between atoms: C15_15  and  O16_16 
REMARK    4  A    between atoms: O16_16  and  C17_17 
REMARK    5  A    between atoms: C20_20  and  N21_21 
REMARK       I    between atoms: N21_21  and  C22_22 
REMARK       I    between atoms: C22_22  and  N24_24 
REMARK    6  A    between atoms: N24_24  and  C25_25 
ROOT
ATOM      1  C3  ZIN A   1      16.524   5.749  15.173  0.00  0.00     0.086 A 
ATOM      2  C4  ZIN A   1      17.690   5.017  15.483  0.00  0.00     0.066 A 
ATOM      3  C8  ZIN A   1      18.378   4.342  14.485  0.00  0.00     0.036 A 
ATOM      4  C9  ZIN A   1      17.908   4.394  13.169  0.00  0.00     0.028 A 
ATOM      5  C10 ZIN A   1      16.736   5.131  12.864  0.00  0.00     0.072 A 
ATOM      6  C11 ZIN A   1      16.054   5.801  13.894  0.00  0.00     0.070 A 
ATOM      7  N12 ZIN A   1      16.287   5.179  11.605  0.00  0.00    -0.260 NA
ATOM      8  C13 ZIN A   1      16.905   4.555  10.629  0.00  0.00     0.120 A 
ATOM      9  C14 ZIN A   1      18.058   3.813  10.846  0.00  0.00     0.057 A 
ATOM     10  C15 ZIN A   1      18.582   3.718  12.125  0.00  0.00     0.090 A 
ENDROOT
BRANCH  10  11
ATOM     11  O16 ZIN A   1      19.706   3.001  12.367  0.00  0.00    -0.310 OA
BRANCH  11  12
ATOM     12  C17 ZIN A   1      19.620   1.645  12.321  0.00  0.00     0.077 A 
ATOM     13  C30 ZIN A   1      19.292   0.931  13.464  0.00  0.00     0.063 A 
ATOM     14  C28 ZIN A   1      19.201  -0.447  13.416  0.00  0.00     0.063 A 
ATOM     15  C20 ZIN A   1      19.448  -1.117  12.225  0.00  0.00     0.058 A 
ATOM     16 Cl29 ZIN A   1      18.784  -1.340  14.846  0.00  0.00    -0.082 Cl
ATOM     17  C19 ZIN A   1      19.780  -0.403  11.082  0.00  0.00     0.034 A 
ATOM     18  C18 ZIN A   1      19.867   0.975  11.131  0.00  0.00     0.039 A 
BRANCH  15  19
ATOM     19  N21 ZIN A   1      19.360  -2.515  12.176  0.00  0.00    -0.307 N 
ATOM     20  C22 ZIN A   1      18.229  -3.105  11.742  0.00  0.00     0.321 C 
ATOM     21  O23 ZIN A   1      17.257  -2.428  11.466  0.00  0.00    -0.247 OA
ATOM     22  N24 ZIN A   1      18.175  -4.445  11.612  0.00  0.00    -0.338 N 
ATOM     23  H43 ZIN A   1      18.950  -4.986  11.832  0.00  0.00     0.164 HD
ATOM     24  H42 ZIN A   1      20.114  -3.058  12.454  0.00  0.00     0.170 HD
BRANCH  22  25
ATOM     25  C25 ZIN A   1      16.945  -5.087  11.140  0.00  0.00     0.086 A 
ATOM     26  C27 ZIN A   1      17.088  -6.367  10.314  0.00  0.00     0.027 A 
ATOM     27  C26 ZIN A   1      16.668  -5.062   9.636  0.00  0.00     0.027 A 
ENDBRANCH  22  25
ENDBRANCH  15  19
ENDBRANCH  11  12
ENDBRANCH  10  11
BRANCH   2  28
ATOM     28  C5  ZIN A   1      18.178   4.968  16.874  0.00  0.00     0.252 C 
ATOM     29  N6  ZIN A   1      18.656   6.083  17.460  0.00  0.00    -0.366 N 
ATOM     30  H34 ZIN A   1      18.681   6.917  16.967  0.00  0.00     0.159 HD
ATOM     31  H35 ZIN A   1      18.977   6.051  18.375  0.00  0.00     0.159 HD
ATOM     32  O7  ZIN A   1      18.148   3.921  17.492  0.00  0.00    -0.268 OA
ENDBRANCH   2  28
BRANCH   1  33
ATOM     33  O2  ZIN A   1      15.861   6.404  16.159  0.00  0.00    -0.355 OA
ATOM     34  C1  ZIN A   1      15.181   7.607  15.796  0.00  0.00     0.210 C 
ENDBRANCH   1  33
TORSDOF 6
ENDMDL
MODEL 7
REMARK VINA RESULT:      -8.0      2.115      3.951
REMARK  6 active torsions:
REMARK  status: ('A' for Active; 'I' for Inactive)
REMARK    1  A    between atoms: O2_2  and  C3_3 
REMARK    2  A    between atoms: C4_4  and  C5_5 
REMARK       I    between atoms: C5_5  and  N6_6 
REMARK    3  A    between atoms: C15_15  and  O16_16 
REMARK    4  A    between atoms: O16_16  and  C17_17 
REMARK    5  A    between atoms: C20_20  and  N21_21 
REMARK       I    between atoms: N21_21  and  C22_22 
REMARK       I    between atoms: C22_22  and  N24_24 
REMARK    6  A    between atoms: N24_24  and  C25_25 
ROOT
ATOM      1  C3  ZIN A   1      19.239  -2.399   6.484  0.00  0.00     0.086 A 
ATOM      2  C4  ZIN A   1      18.415  -1.486   7.177  0.00  0.00     0.066 A 
ATOM      3  C8  ZIN A   1      18.015  -1.755   8.478  0.00  0.00     0.036 A 
ATOM      4  C9  ZIN A   1      18.435  -2.936   9.097  0.00  0.00     0.028 A 
ATOM      5  C10 ZIN A   1      19.262  -3.849   8.395  0.00  0.00     0.072 A 
ATOM      6  C11 ZIN A   1      19.648  -3.557   7.076  0.00  0.00     0.070 A 
ATOM      7  N12 ZIN A   1      19.661  -4.979   8.990  0.00  0.00    -0.260 NA
ATOM      8  C13 ZIN A   1      19.306  -5.275  10.218  0.00  0.00     0.120 A 
ATOM      9  C14 ZIN A   1      18.499  -4.433  10.972  0.00  0.00     0.057 A 
ATOM     10  C15 ZIN A   1      18.047  -3.244  10.423  0.00  0.00     0.090 A 
ENDROOT
BRANCH  10  11
ATOM     11  O16 ZIN A   1      17.258  -2.403  11.134  0.00  0.00    -0.310 OA
BRANCH  11  12
ATOM     12  C17 ZIN A   1      17.862  -1.477  11.925  0.00  0.00     0.077 A 
ATOM     13  C30 ZIN A   1      18.169  -1.785  13.242  0.00  0.00     0.063 A 
ATOM     14  C28 ZIN A   1      18.787  -0.846  14.046  0.00  0.00     0.063 A 
ATOM     15  C20 ZIN A   1      19.091   0.411  13.537  0.00  0.00     0.058 A 
ATOM     16 Cl29 ZIN A   1      19.177  -1.233  15.693  0.00  0.00    -0.082 Cl
ATOM     17  C19 ZIN A   1      18.778   0.720  12.220  0.00  0.00     0.034 A 
ATOM     18  C18 ZIN A   1      18.165  -0.222  11.416  0.00  0.00     0.039 A 
BRANCH  15  19
ATOM     19  N21 ZIN A   1      19.712   1.366  14.352  0.00  0.00    -0.307 N 
ATOM     20  C22 ZIN A   1      18.999   2.395  14.849  0.00  0.00     0.321 C 
ATOM     21  O23 ZIN A   1      17.834   2.539  14.529  0.00  0.00    -0.247 OA
ATOM     22  N24 ZIN A   1      19.575   3.266  15.701  0.00  0.00    -0.338 N 
ATOM     23  H43 ZIN A   1      20.504   3.151  15.957  0.00  0.00     0.164 HD
ATOM     24  H42 ZIN A   1      20.657   1.287  14.558  0.00  0.00     0.170 HD
BRANCH  22  25
ATOM     25  C25 ZIN A   1      18.799   4.385  16.243  0.00  0.00     0.086 A 
ATOM     26  C27 ZIN A   1      18.449   5.529  15.290  0.00  0.00     0.027 A 
ATOM     27  C26 ZIN A   1      19.505   5.735  16.377  0.00  0.00     0.027 A 
ENDBRANCH  22  25
ENDBRANCH  15  19
ENDBRANCH  11  12
ENDBRANCH  10  11
BRANCH   2  28
ATOM     28  C5  ZIN A   1      17.978  -0.243   6.515  0.00  0.00     0.252 C 
ATOM     29  N6  ZIN A   1      18.886   0.686   6.160  0.00  0.00    -0.366 N 
ATOM     30  H34 ZIN A   1      19.827   0.539   6.341  0.00  0.00     0.159 HD
ATOM     31  H35 ZIN A   1      18.598   1.504   5.724  0.00  0.00     0.159 HD
ATOM     32  O7  ZIN A   1      16.797  -0.058   6.289  0.00  0.00    -0.268 OA
ENDBRANCH   2  28
BRANCH   1  33
ATOM     33  O2  ZIN A   1      19.622  -2.125   5.212  0.00  0.00    -0.355 OA
ATOM     34  C1  ZIN A   1      18.821  -2.669   4.161  0.00  0.00     0.210 C 
ENDBRANCH   1  33
TORSDOF 6
ENDMDL
MODEL 8
REMARK VINA RESULT:      -7.9      3.233      8.833
REMARK  6 active torsions:
REMARK  status: ('A' for Active; 'I' for Inactive)
REMARK    1  A    between atoms: O2_2  and  C3_3 
REMARK    2  A    between atoms: C4_4  and  C5_5 
REMARK       I    between atoms: C5_5  and  N6_6 
REMARK    3  A    between atoms: C15_15  and  O16_16 
REMARK    4  A    between atoms: O16_16  and  C17_17 
REMARK    5  A    between atoms: C20_20  and  N21_21 
REMARK       I    between atoms: N21_21  and  C22_22 
REMARK       I    between atoms: C22_22  and  N24_24 
REMARK    6  A    between atoms: N24_24  and  C25_25 
ROOT
ATOM      1  C3  ZIN A   1      18.837   1.996  16.432  0.00  0.00     0.086 A 
ATOM      2  C4  ZIN A   1      18.078   1.120  15.627  0.00  0.00     0.066 A 
ATOM      3  C8  ZIN A   1      17.752   1.473  14.325  0.00  0.00     0.036 A 
ATOM      4  C9  ZIN A   1      18.182   2.703  13.818  0.00  0.00     0.028 A 
ATOM      5  C10 ZIN A   1      18.944   3.578  14.632  0.00  0.00     0.072 A 
ATOM      6  C11 ZIN A   1      19.256   3.201  15.949  0.00  0.00     0.070 A 
ATOM      7  N12 ZIN A   1      19.353   4.755  14.144  0.00  0.00    -0.260 NA
ATOM      8  C13 ZIN A   1      19.067   5.131  12.919  0.00  0.00     0.120 A 
ATOM      9  C14 ZIN A   1      18.326   4.330  12.060  0.00  0.00     0.057 A 
ATOM     10  C15 ZIN A   1      17.868   3.098  12.495  0.00  0.00     0.090 A 
ENDROOT
BRANCH  10  11
ATOM     11  O16 ZIN A   1      17.143   2.295  11.679  0.00  0.00    -0.310 OA
BRANCH  11  12
ATOM     12  C17 ZIN A   1      17.813   1.412  10.892  0.00  0.00     0.077 A 
ATOM     13  C30 ZIN A   1      18.144   1.757   9.590  0.00  0.00     0.063 A 
ATOM     14  C28 ZIN A   1      18.829   0.862   8.790  0.00  0.00     0.063 A 
ATOM     15  C20 ZIN A   1      19.177  -0.387   9.288  0.00  0.00     0.058 A 
ATOM     16 Cl29 ZIN A   1      19.249   1.296   7.162  0.00  0.00    -0.082 Cl
ATOM     17  C19 ZIN A   1      18.841  -0.733  10.590  0.00  0.00     0.034 A 
ATOM     18  C18 ZIN A   1      18.160   0.164  11.389  0.00  0.00     0.039 A 
BRANCH  15  19
ATOM     19  N21 ZIN A   1      19.867  -1.298   8.477  0.00  0.00    -0.307 N 
ATOM     20  C22 ZIN A   1      19.201  -2.303   7.874  0.00  0.00     0.321 C 
ATOM     21  O23 ZIN A   1      18.016  -2.466   8.094  0.00  0.00    -0.247 OA
ATOM     22  N24 ZIN A   1      19.848  -3.127   7.027  0.00  0.00    -0.338 N 
ATOM     23  H43 ZIN A   1      20.794  -2.997   6.851  0.00  0.00     0.164 HD
ATOM     24  H42 ZIN A   1      20.824  -1.206   8.350  0.00  0.00     0.170 HD
BRANCH  22  25
ATOM     25  C25 ZIN A   1      19.124  -4.219   6.370  0.00  0.00     0.086 A 
ATOM     26  C27 ZIN A   1      18.323  -5.172   7.260  0.00  0.00     0.027 A 
ATOM     27  C26 ZIN A   1      19.626  -5.644   6.611  0.00  0.00     0.027 A 
ENDBRANCH  22  25
ENDBRANCH  15  19
ENDBRANCH  11  12
ENDBRANCH  10  11
BRANCH   2  28
ATOM     28  C5  ZIN A   1      17.629  -0.175  16.172  0.00  0.00     0.252 C 
ATOM     29  N6  ZIN A   1      16.658  -0.212  17.106  0.00  0.00    -0.366 N 
ATOM     30  H34 ZIN A   1      16.256   0.612  17.420  0.00  0.00     0.159 HD
ATOM     31  H35 ZIN A   1      16.363  -1.063  17.464  0.00  0.00     0.159 HD
ATOM     32  O7  ZIN A   1      18.134  -1.208  15.777  0.00  0.00    -0.268 OA
ENDBRANCH   2  28
BRANCH   1  33
ATOM     33  O2  ZIN A   1      19.148   1.639  17.703  0.00  0.00    -0.355 OA
ATOM     34  C1  ZIN A   1      18.872   2.591  18.731  0.00  0.00     0.210 C 
ENDBRANCH   1  33
TORSDOF 6
ENDMDL
MODEL 9
REMARK VINA RESULT:      -7.7      3.661      9.990
REMARK  6 active torsions:
REMARK  status: ('A' for Active; 'I' for Inactive)
REMARK    1  A    between atoms: O2_2  and  C3_3 
REMARK    2  A    between atoms: C4_4  and  C5_5 
REMARK       I    between atoms: C5_5  and  N6_6 
REMARK    3  A    between atoms: C15_15  and  O16_16 
REMARK    4  A    between atoms: O16_16  and  C17_17 
REMARK    5  A    between atoms: C20_20  and  N21_21 
REMARK       I    between atoms: N21_21  and  C22_22 
REMARK       I    between atoms: C22_22  and  N24_24 
REMARK    6  A    between atoms: N24_24  and  C25_25 
ROOT
ATOM      1  C3  ZIN A   1      18.439   3.000  17.412  0.00  0.00     0.086 A 
ATOM      2  C4  ZIN A   1      19.047   3.269  16.166  0.00  0.00     0.066 A 
ATOM      3  C8  ZIN A   1      19.275   2.240  15.263  0.00  0.00     0.036 A 
ATOM      4  C9  ZIN A   1      18.897   0.936  15.597  0.00  0.00     0.028 A 
ATOM      5  C10 ZIN A   1      18.287   0.673  16.849  0.00  0.00     0.072 A 
ATOM      6  C11 ZIN A   1      18.073   1.731  17.749  0.00  0.00     0.070 A 
ATOM      7  N12 ZIN A   1      17.927  -0.576  17.166  0.00  0.00    -0.260 NA
ATOM      8  C13 ZIN A   1      18.124  -1.580  16.344  0.00  0.00     0.120 A 
ATOM      9  C14 ZIN A   1      18.714  -1.404  15.100  0.00  0.00     0.057 A 
ATOM     10  C15 ZIN A   1      19.113  -0.139  14.702  0.00  0.00     0.090 A 
ENDROOT
BRANCH  10  11
ATOM     11  O16 ZIN A   1      19.692   0.063  13.494  0.00  0.00    -0.310 OA
BRANCH  11  12
ATOM     12  C17 ZIN A   1      19.206  -0.630  12.430  0.00  0.00     0.077 A 
ATOM     13  C30 ZIN A   1      19.621  -1.934  12.204  0.00  0.00     0.063 A 
ATOM     14  C28 ZIN A   1      19.125  -2.641  11.124  0.00  0.00     0.063 A 
ATOM     15  C20 ZIN A   1      18.218  -2.039  10.260  0.00  0.00     0.058 A 
ATOM     16 Cl29 ZIN A   1      19.639  -4.275  10.845  0.00  0.00    -0.082 Cl
ATOM     17  C19 ZIN A   1      17.807  -0.733  10.485  0.00  0.00     0.034 A 
ATOM     18  C18 ZIN A   1      18.301  -0.029  11.566  0.00  0.00     0.039 A 
BRANCH  15  19
ATOM     19  N21 ZIN A   1      17.717  -2.752   9.163  0.00  0.00    -0.307 N 
ATOM     20  C22 ZIN A   1      18.385  -2.745   7.993  0.00  0.00     0.321 C 
ATOM     21  O23 ZIN A   1      19.381  -2.058   7.865  0.00  0.00    -0.247 OA
ATOM     22  N24 ZIN A   1      17.951  -3.498   6.963  0.00  0.00    -0.338 N 
ATOM     23  H43 ZIN A   1      17.156  -4.047   7.065  0.00  0.00     0.164 HD
ATOM     24  H42 ZIN A   1      16.889  -3.251   9.245  0.00  0.00     0.170 HD
BRANCH  22  25
ATOM     25  C25 ZIN A   1      18.677  -3.491   5.690  0.00  0.00     0.086 A 
ATOM     26  C27 ZIN A   1      18.151  -2.577   4.582  0.00  0.00     0.027 A 
ATOM     27  C26 ZIN A   1      17.974  -4.093   4.472  0.00  0.00     0.027 A 
ENDBRANCH  22  25
ENDBRANCH  15  19
ENDBRANCH  11  12
ENDBRANCH  10  11
BRANCH   2  28
ATOM     28  C5  ZIN A   1      19.443   4.648  15.824  0.00  0.00     0.252 C 
ATOM     29  N6  ZIN A   1      20.553   5.184  16.368  0.00  0.00    -0.366 N 
ATOM     30  H34 ZIN A   1      21.091   4.664  16.984  0.00  0.00     0.159 HD
ATOM     31  H35 ZIN A   1      20.813   6.091  16.143  0.00  0.00     0.159 HD
ATOM     32  O7  ZIN A   1      18.767   5.300  15.052  0.00  0.00    -0.268 OA
ENDBRANCH   2  28
BRANCH   1  33
ATOM     33  O2  ZIN A   1      18.223   4.016  18.285  0.00  0.00    -0.355 OA
ATOM     34  C1  ZIN A   1      17.203   3.822  19.266  0.00  0.00     0.210 C 
ENDBRANCH   1  33
TORSDOF 6
ENDMDL
