MODEL 1
REMARK VINA RESULT:      -7.1      0.000      0.000
REMARK  12 active torsions:
REMARK  status: ('A' for Active; 'I' for Inactive)
REMARK    1  A    between atoms: C2_2  and  C4_4 
REMARK    2  A    between atoms: C4_4  and  N6_5 
REMARK    3  A    between atoms: C4_4  and  C10_9 
REMARK    4  A    between atoms: C10_9  and  O12_11 
REMARK    5  A    between atoms: O12_11  and  C13_12 
REMARK    6  A    between atoms: C13_12  and  C14_13 
REMARK    7  A    between atoms: C14_13  and  C16_14 
REMARK    8  A    between atoms: C14_13  and  O18_16 
REMARK    9  A    between atoms: C16_14  and  O17_15 
REMARK   10  A    between atoms: O18_16  and  C19_17 
REMARK   11  A    between atoms: C19_17  and  N20_18 
REMARK   12  A    between atoms: C26_24  and  N27_25 
ROOT
ATOM      1  C14 <0> d   1      19.198   4.892  15.877  0.00  0.00     0.171 C 
ENDROOT
BRANCH   1   2
ATOM      2  C13 <0> d   1      19.195   4.155  17.218  0.00  0.00     0.213 C 
BRANCH   2   3
ATOM      3  O12 <0> d   1      19.945   2.918  17.092  0.00  0.00    -0.317 OA
BRANCH   3   4
ATOM      4  C10 <0> d   1      19.363   1.803  17.563  0.00  0.00     0.290 C 
ATOM      5  O11 <0> d   1      19.540   1.468  18.709  0.00  0.00    -0.263 OA
BRANCH   4   6
ATOM      6  C4  <0> d   1      18.491   0.970  16.659  0.00  0.00     0.285 C 
BRANCH   6   7
ATOM      7  C2  <0> d   1      18.241  -0.393  17.305  0.00  0.00     0.018 C 
ATOM      8  C1  <0> d   1      16.830  -0.873  16.955  0.00  0.00     0.012 C 
ATOM      9  C3  <0> d   1      19.267  -1.401  16.782  0.00  0.00     0.012 C 
ENDBRANCH   6   7
BRANCH   6  10
ATOM     10  N6  <0> d   1      19.164   0.784  15.366  0.00  0.00    -0.066 N 
ATOM     11  H7  <0> d   1      19.808   0.010  15.431  0.00  0.00     0.275 HD
ATOM     12  H8  <0> d   1      18.475   0.590  14.654  0.00  0.00     0.275 HD
ATOM     13  H9  <0> d   1      19.669   1.622  15.125  0.00  0.00     0.275 HD
ENDBRANCH   6  10
ENDBRANCH   4   6
ENDBRANCH   3   4
ENDBRANCH   2   3
ENDBRANCH   1   2
BRANCH   1  14
ATOM     14  C16 <0> d   1      20.517   5.648  15.714  0.00  0.00     0.198 C 
BRANCH  14  15
ATOM     15  O17 <0> d   1      21.600   4.814  16.128  0.00  0.00    -0.398 OA
ATOM     16  H42 <0> d   1      21.354   3.890  16.267  0.00  0.00     0.209 HD
ENDBRANCH  14  15
ENDBRANCH   1  14
BRANCH   1  17
ATOM     17  O18 <0> d   1      19.056   3.947  14.814  0.00  0.00    -0.362 OA
BRANCH  17  18
ATOM     18  C19 <0> d   1      17.737   3.880  14.268  0.00  0.00     0.301 C 
BRANCH  18  19
ATOM     19  N20 <0> d   1      17.819   3.679  12.820  0.00  0.00    -0.301 N 
ATOM     20  C24 <0> d   1      18.671   2.830  12.166  0.00  0.00     0.186 A 
ATOM     21  C23 <0> d   1      18.388   2.969  10.803  0.00  0.00     0.173 A 
ATOM     22  N25 <0> d   1      19.621   1.975  12.562  0.00  0.00    -0.044 NA
ATOM     23  N22 <0> d   1      17.399   3.888  10.689  0.00  0.00    -0.234 NA
ATOM     24  C29 <0> d   1      19.126   2.196   9.876  0.00  0.00     0.292 A 
ATOM     25  C21 <0> d   1      17.061   4.307  11.873  0.00  0.00     0.214 A 
ATOM     26  N28 <0> d   1      20.068   1.351  10.352  0.00  0.00    -0.152 N 
ATOM     27  O30 <0> d   1      18.913   2.285   8.679  0.00  0.00    -0.265 OA
ATOM     28  C26 <0> d   1      20.297   1.259  11.692  0.00  0.00     0.703 A 
ATOM     29  H48 <0> d   1      20.584   0.809   9.735  0.00  0.00     0.187 HD
BRANCH  28  30
ATOM     30  N27 <0> d   1      21.261   0.395  12.145  0.00  0.00    -0.233 N 
ATOM     31  H46 <0> d   1      21.012  -0.364  12.697  0.00  0.00     0.174 HD
ATOM     32  H47 <0> d   1      22.192   0.542  11.915  0.00  0.00     0.174 HD
ENDBRANCH  28  30
ENDBRANCH  18  19
ENDBRANCH  17  18
ENDBRANCH   1  17
TORSDOF 12
ENDMDL
MODEL 2
REMARK VINA RESULT:      -6.8      3.874      6.415
REMARK  12 active torsions:
REMARK  status: ('A' for Active; 'I' for Inactive)
REMARK    1  A    between atoms: C2_2  and  C4_4 
REMARK    2  A    between atoms: C4_4  and  N6_5 
REMARK    3  A    between atoms: C4_4  and  C10_9 
REMARK    4  A    between atoms: C10_9  and  O12_11 
REMARK    5  A    between atoms: O12_11  and  C13_12 
REMARK    6  A    between atoms: C13_12  and  C14_13 
REMARK    7  A    between atoms: C14_13  and  C16_14 
REMARK    8  A    between atoms: C14_13  and  O18_16 
REMARK    9  A    between atoms: C16_14  and  O17_15 
REMARK   10  A    between atoms: O18_16  and  C19_17 
REMARK   11  A    between atoms: C19_17  and  N20_18 
REMARK   12  A    between atoms: C26_24  and  N27_25 
ROOT
ATOM      1  C14 <0> d   1      19.344  -0.295  11.776  0.00  0.00     0.171 C 
ENDROOT
BRANCH   1   2
ATOM      2  C13 <0> d   1      19.269   0.425  13.124  0.00  0.00     0.213 C 
BRANCH   2   3
ATOM      3  O12 <0> d   1      18.348   1.542  13.025  0.00  0.00    -0.317 OA
BRANCH   3   4
ATOM      4  C10 <0> d   1      18.859   2.771  13.202  0.00  0.00     0.290 C 
ATOM      5  O11 <0> d   1      19.029   3.199  14.318  0.00  0.00    -0.263 OA
BRANCH   4   6
ATOM      6  C4  <0> d   1      19.221   3.615  12.007  0.00  0.00     0.285 C 
BRANCH   6   7
ATOM      7  C2  <0> d   1      18.263   3.307  10.855  0.00  0.00     0.018 C 
ATOM      8  C1  <0> d   1      17.607   4.603  10.376  0.00  0.00     0.012 C 
ATOM      9  C3  <0> d   1      19.042   2.672   9.700  0.00  0.00     0.012 C 
ENDBRANCH   6   7
BRANCH   6  10
ATOM     10  N6  <0> d   1      20.598   3.313  11.593  0.00  0.00    -0.066 N 
ATOM     11  H7  <0> d   1      20.614   2.438  11.091  0.00  0.00     0.275 HD
ATOM     12  H8  <0> d   1      20.939   4.050  10.994  0.00  0.00     0.275 HD
ATOM     13  H9  <0> d   1      21.187   3.243  12.409  0.00  0.00     0.275 HD
ENDBRANCH   6  10
ENDBRANCH   4   6
ENDBRANCH   3   4
ENDBRANCH   2   3
ENDBRANCH   1   2
BRANCH   1  14
ATOM     14  C16 <0> d   1      20.795  -0.327  11.295  0.00  0.00     0.198 C 
BRANCH  14  15
ATOM     15  O17 <0> d   1      21.589   0.534  12.115  0.00  0.00    -0.398 OA
ATOM     16  H42 <0> d   1      21.147   0.825  12.923  0.00  0.00     0.209 HD
ENDBRANCH  14  15
ENDBRANCH   1  14
BRANCH   1  17
ATOM     17  O18 <0> d   1      18.862  -1.632  11.922  0.00  0.00    -0.362 OA
BRANCH  17  18
ATOM     18  C19 <0> d   1      17.782  -1.961  11.045  0.00  0.00     0.301 C 
BRANCH  18  19
ATOM     19  N20 <0> d   1      18.313  -2.581   9.830  0.00  0.00    -0.301 N 
ATOM     20  C24 <0> d   1      18.563  -1.950   8.641  0.00  0.00     0.186 A 
ATOM     21  C23 <0> d   1      19.061  -2.932   7.777  0.00  0.00     0.173 A 
ATOM     22  N25 <0> d   1      18.434  -0.690   8.209  0.00  0.00    -0.044 NA
ATOM     23  N22 <0> d   1      19.083  -4.100   8.465  0.00  0.00    -0.234 NA
ATOM     24  C29 <0> d   1      19.414  -2.559   6.459  0.00  0.00     0.292 A 
ATOM     25  C21 <0> d   1      18.645  -3.897   9.673  0.00  0.00     0.214 A 
ATOM     26  N28 <0> d   1      19.260  -1.266   6.096  0.00  0.00    -0.152 N 
ATOM     27  O30 <0> d   1      19.852  -3.381   5.673  0.00  0.00    -0.265 OA
ATOM     28  C26 <0> d   1      18.769  -0.355   6.983  0.00  0.00     0.703 A 
ATOM     29  H48 <0> d   1      19.498  -0.986   5.198  0.00  0.00     0.187 HD
BRANCH  28  30
ATOM     30  N27 <0> d   1      18.621   0.950   6.585  0.00  0.00    -0.233 N 
ATOM     31  H46 <0> d   1      17.897   1.486   6.942  0.00  0.00     0.174 HD
ATOM     32  H47 <0> d   1      19.242   1.335   5.946  0.00  0.00     0.174 HD
ENDBRANCH  28  30
ENDBRANCH  18  19
ENDBRANCH  17  18
ENDBRANCH   1  17
TORSDOF 12
ENDMDL
MODEL 3
REMARK VINA RESULT:      -6.6      2.405      6.783
REMARK  12 active torsions:
REMARK  status: ('A' for Active; 'I' for Inactive)
REMARK    1  A    between atoms: C2_2  and  C4_4 
REMARK    2  A    between atoms: C4_4  and  N6_5 
REMARK    3  A    between atoms: C4_4  and  C10_9 
REMARK    4  A    between atoms: C10_9  and  O12_11 
REMARK    5  A    between atoms: O12_11  and  C13_12 
REMARK    6  A    between atoms: C13_12  and  C14_13 
REMARK    7  A    between atoms: C14_13  and  C16_14 
REMARK    8  A    between atoms: C14_13  and  O18_16 
REMARK    9  A    between atoms: C16_14  and  O17_15 
REMARK   10  A    between atoms: O18_16  and  C19_17 
REMARK   11  A    between atoms: C19_17  and  N20_18 
REMARK   12  A    between atoms: C26_24  and  N27_25 
ROOT
ATOM      1  C14 <0> d   1      19.760  -1.387  11.606  0.00  0.00     0.171 C 
ENDROOT
BRANCH   1   2
ATOM      2  C13 <0> d   1      18.405  -0.880  11.108  0.00  0.00     0.213 C 
BRANCH   2   3
ATOM      3  O12 <0> d   1      18.546   0.483  10.628  0.00  0.00    -0.317 OA
BRANCH   3   4
ATOM      4  C10 <0> d   1      17.795   1.421  11.228  0.00  0.00     0.290 C 
ATOM      5  O11 <0> d   1      16.661   1.167  11.558  0.00  0.00    -0.263 OA
BRANCH   4   6
ATOM      6  C4  <0> d   1      18.369   2.790  11.490  0.00  0.00     0.285 C 
BRANCH   6   7
ATOM      7  C2  <0> d   1      17.417   3.855  10.944  0.00  0.00     0.018 C 
ATOM      8  C1  <0> d   1      17.232   4.958  11.989  0.00  0.00     0.012 C 
ATOM      9  C3  <0> d   1      18.005   4.457   9.665  0.00  0.00     0.012 C 
ENDBRANCH   6   7
BRANCH   6  10
ATOM     10  N6  <0> d   1      19.673   2.910  10.824  0.00  0.00    -0.066 N 
ATOM     11  H7  <0> d   1      20.119   3.767  11.112  0.00  0.00     0.275 HD
ATOM     12  H8  <0> d   1      20.254   2.125  11.079  0.00  0.00     0.275 HD
ATOM     13  H9  <0> d   1      19.540   2.919   9.825  0.00  0.00     0.275 HD
ENDBRANCH   6  10
ENDBRANCH   4   6
ENDBRANCH   3   4
ENDBRANCH   2   3
ENDBRANCH   1   2
BRANCH   1  14
ATOM     14  C16 <0> d   1      20.880  -0.598  10.927  0.00  0.00     0.198 C 
BRANCH  14  15
ATOM     15  O17 <0> d   1      21.428   0.345  11.850  0.00  0.00    -0.398 OA
ATOM     16  H42 <0> d   1      21.578  -0.012  12.735  0.00  0.00     0.209 HD
ENDBRANCH  14  15
ENDBRANCH   1  14
BRANCH   1  17
ATOM     17  O18 <0> d   1      19.844  -1.210  13.022  0.00  0.00    -0.362 OA
BRANCH  17  18
ATOM     18  C19 <0> d   1      18.574  -1.131  13.674  0.00  0.00     0.301 C 
BRANCH  18  19
ATOM     19  N20 <0> d   1      18.762  -0.682  15.054  0.00  0.00    -0.301 N 
ATOM     20  C24 <0> d   1      18.984   0.605  15.465  0.00  0.00     0.186 A 
ATOM     21  C23 <0> d   1      19.096   0.554  16.859  0.00  0.00     0.173 A 
ATOM     22  N25 <0> d   1      19.092   1.780  14.834  0.00  0.00    -0.044 NA
ATOM     23  N22 <0> d   1      18.950  -0.742  17.228  0.00  0.00    -0.234 NA
ATOM     24  C29 <0> d   1      19.328   1.758  17.565  0.00  0.00     0.292 A 
ATOM     25  C21 <0> d   1      18.752  -1.472  16.169  0.00  0.00     0.214 A 
ATOM     26  N28 <0> d   1      19.422   2.907  16.858  0.00  0.00    -0.152 N 
ATOM     27  O30 <0> d   1      19.432   1.761  18.779  0.00  0.00    -0.265 OA
ATOM     28  C26 <0> d   1      19.303   2.892  15.501  0.00  0.00     0.703 A 
ATOM     29  H48 <0> d   1      19.577   3.745  17.321  0.00  0.00     0.187 HD
BRANCH  28  30
ATOM     30  N27 <0> d   1      19.405   4.074  14.810  0.00  0.00    -0.233 N 
ATOM     31  H46 <0> d   1      18.623   4.454  14.381  0.00  0.00     0.174 HD
ATOM     32  H47 <0> d   1      20.261   4.528  14.750  0.00  0.00     0.174 HD
ENDBRANCH  28  30
ENDBRANCH  18  19
ENDBRANCH  17  18
ENDBRANCH   1  17
TORSDOF 12
ENDMDL
MODEL 4
REMARK VINA RESULT:      -6.6      5.341      8.445
REMARK  12 active torsions:
REMARK  status: ('A' for Active; 'I' for Inactive)
REMARK    1  A    between atoms: C2_2  and  C4_4 
REMARK    2  A    between atoms: C4_4  and  N6_5 
REMARK    3  A    between atoms: C4_4  and  C10_9 
REMARK    4  A    between atoms: C10_9  and  O12_11 
REMARK    5  A    between atoms: O12_11  and  C13_12 
REMARK    6  A    between atoms: C13_12  and  C14_13 
REMARK    7  A    between atoms: C14_13  and  C16_14 
REMARK    8  A    between atoms: C14_13  and  O18_16 
REMARK    9  A    between atoms: C16_14  and  O17_15 
REMARK   10  A    between atoms: O18_16  and  C19_17 
REMARK   11  A    between atoms: C19_17  and  N20_18 
REMARK   12  A    between atoms: C26_24  and  N27_25 
ROOT
ATOM      1  C14 <0> d   1      19.243  -0.150  11.079  0.00  0.00     0.171 C 
ENDROOT
BRANCH   1   2
ATOM      2  C13 <0> d   1      18.513   1.167  10.806  0.00  0.00     0.213 C 
BRANCH   2   3
ATOM      3  O12 <0> d   1      17.869   1.103   9.506  0.00  0.00    -0.317 OA
BRANCH   3   4
ATOM      4  C10 <0> d   1      18.671   1.037   8.431  0.00  0.00     0.290 C 
ATOM      5  O11 <0> d   1      19.517   1.882   8.256  0.00  0.00    -0.263 OA
BRANCH   4   6
ATOM      6  C4  <0> d   1      18.516  -0.090   7.444  0.00  0.00     0.285 C 
BRANCH   6   7
ATOM      7  C2  <0> d   1      18.176   0.480   6.066  0.00  0.00     0.018 C 
ATOM      8  C1  <0> d   1      19.259   0.074   5.064  0.00  0.00     0.012 C 
ATOM      9  C3  <0> d   1      16.823  -0.068   5.606  0.00  0.00     0.012 C 
ENDBRANCH   6   7
BRANCH   6  10
ATOM     10  N6  <0> d   1      17.434  -0.982   7.885  0.00  0.00    -0.066 N 
ATOM     11  H7  <0> d   1      17.147  -1.567   7.116  0.00  0.00     0.275 HD
ATOM     12  H8  <0> d   1      17.763  -1.560   8.644  0.00  0.00     0.275 HD
ATOM     13  H9  <0> d   1      16.651  -0.430   8.199  0.00  0.00     0.275 HD
ENDBRANCH   6  10
ENDBRANCH   4   6
ENDBRANCH   3   4
ENDBRANCH   2   3
ENDBRANCH   1   2
BRANCH   1  14
ATOM     14  C16 <0> d   1      20.605   0.143  11.707  0.00  0.00     0.198 C 
BRANCH  14  15
ATOM     15  O17 <0> d   1      21.621  -0.573  11.002  0.00  0.00    -0.398 OA
ATOM     16  H42 <0> d   1      22.309  -0.010  10.624  0.00  0.00     0.209 HD
ENDBRANCH  14  15
ENDBRANCH   1  14
BRANCH   1  17
ATOM     17  O18 <0> d   1      18.466  -0.947  11.975  0.00  0.00    -0.362 OA
BRANCH  17  18
ATOM     18  C19 <0> d   1      17.708  -1.974  11.332  0.00  0.00     0.301 C 
BRANCH  18  19
ATOM     19  N20 <0> d   1      18.590  -3.091  10.990  0.00  0.00    -0.301 N 
ATOM     20  C24 <0> d   1      18.535  -3.847   9.849  0.00  0.00     0.186 A 
ATOM     21  C23 <0> d   1      19.566  -4.786   9.956  0.00  0.00     0.173 A 
ATOM     22  N25 <0> d   1      17.755  -3.839   8.762  0.00  0.00    -0.044 NA
ATOM     23  N22 <0> d   1      20.187  -4.571  11.141  0.00  0.00    -0.234 NA
ATOM     24  C29 <0> d   1      19.751  -5.711   8.901  0.00  0.00     0.292 A 
ATOM     25  C21 <0> d   1      19.616  -3.573  11.751  0.00  0.00     0.214 A 
ATOM     26  N28 <0> d   1      18.926  -5.640   7.833  0.00  0.00    -0.152 N 
ATOM     27  O30 <0> d   1      20.637  -6.547   8.952  0.00  0.00    -0.265 OA
ATOM     28  C26 <0> d   1      17.939  -4.701   7.787  0.00  0.00     0.703 A 
ATOM     29  H48 <0> d   1      19.036  -6.261   7.097  0.00  0.00     0.187 HD
BRANCH  28  30
ATOM     30  N27 <0> d   1      17.115  -4.654   6.691  0.00  0.00    -0.233 N 
ATOM     31  H46 <0> d   1      17.492  -4.693   5.799  0.00  0.00     0.174 HD
ATOM     32  H47 <0> d   1      16.154  -4.581   6.810  0.00  0.00     0.174 HD
ENDBRANCH  28  30
ENDBRANCH  18  19
ENDBRANCH  17  18
ENDBRANCH   1  17
TORSDOF 12
ENDMDL
MODEL 5
REMARK VINA RESULT:      -6.6      4.687      6.793
REMARK  12 active torsions:
REMARK  status: ('A' for Active; 'I' for Inactive)
REMARK    1  A    between atoms: C2_2  and  C4_4 
REMARK    2  A    between atoms: C4_4  and  N6_5 
REMARK    3  A    between atoms: C4_4  and  C10_9 
REMARK    4  A    between atoms: C10_9  and  O12_11 
REMARK    5  A    between atoms: O12_11  and  C13_12 
REMARK    6  A    between atoms: C13_12  and  C14_13 
REMARK    7  A    between atoms: C14_13  and  C16_14 
REMARK    8  A    between atoms: C14_13  and  O18_16 
REMARK    9  A    between atoms: C16_14  and  O17_15 
REMARK   10  A    between atoms: O18_16  and  C19_17 
REMARK   11  A    between atoms: C19_17  and  N20_18 
REMARK   12  A    between atoms: C26_24  and  N27_25 
ROOT
ATOM      1  C14 <0> d   1      18.907  -3.345  11.838  0.00  0.00     0.171 C 
ENDROOT
BRANCH   1   2
ATOM      2  C13 <0> d   1      19.328  -1.993  12.418  0.00  0.00     0.213 C 
BRANCH   2   3
ATOM      3  O12 <0> d   1      18.737  -1.826  13.733  0.00  0.00    -0.317 OA
BRANCH   3   4
ATOM      4  C10 <0> d   1      18.224  -0.619  14.021  0.00  0.00     0.290 C 
ATOM      5  O11 <0> d   1      17.478  -0.078  13.241  0.00  0.00    -0.263 OA
BRANCH   4   6
ATOM      6  C4  <0> d   1      18.581   0.060  15.319  0.00  0.00     0.285 C 
BRANCH   6   7
ATOM      7  C2  <0> d   1      18.356  -0.909  16.481  0.00  0.00     0.018 C 
ATOM      8  C1  <0> d   1      19.227  -0.493  17.668  0.00  0.00     0.012 C 
ATOM      9  C3  <0> d   1      16.882  -0.876  16.894  0.00  0.00     0.012 C 
ENDBRANCH   6   7
BRANCH   6  10
ATOM     10  N6  <0> d   1      17.733   1.247  15.499  0.00  0.00    -0.066 N 
ATOM     11  H7  <0> d   1      18.302   2.023  15.801  0.00  0.00     0.275 HD
ATOM     12  H8  <0> d   1      17.286   1.477  14.624  0.00  0.00     0.275 HD
ATOM     13  H9  <0> d   1      17.030   1.055  16.196  0.00  0.00     0.275 HD
ENDBRANCH   6  10
ENDBRANCH   4   6
ENDBRANCH   3   4
ENDBRANCH   2   3
ENDBRANCH   1   2
BRANCH   1  14
ATOM     14  C16 <0> d   1      17.432  -3.291  11.437  0.00  0.00     0.198 C 
BRANCH  14  15
ATOM     15  O17 <0> d   1      17.064  -1.940  11.153  0.00  0.00    -0.398 OA
ATOM     16  H42 <0> d   1      17.749  -1.433  10.698  0.00  0.00     0.209 HD
ENDBRANCH  14  15
ENDBRANCH   1  14
BRANCH   1  17
ATOM     17  O18 <0> d   1      19.702  -3.638  10.688  0.00  0.00    -0.362 OA
BRANCH  17  18
ATOM     18  C19 <0> d   1      19.037  -4.439   9.709  0.00  0.00     0.301 C 
BRANCH  18  19
ATOM     19  N20 <0> d   1      19.330  -3.920   8.372  0.00  0.00    -0.301 N 
ATOM     20  C24 <0> d   1      19.026  -2.671   7.903  0.00  0.00     0.186 A 
ATOM     21  C23 <0> d   1      19.497  -2.624   6.586  0.00  0.00     0.173 A 
ATOM     22  N25 <0> d   1      18.427  -1.597   8.431  0.00  0.00    -0.044 NA
ATOM     23  N22 <0> d   1      20.049  -3.831   6.313  0.00  0.00    -0.234 NA
ATOM     24  C29 <0> d   1      19.319  -1.432   5.845  0.00  0.00     0.292 A 
ATOM     25  C21 <0> d   1      19.955  -4.595   7.362  0.00  0.00     0.214 A 
ATOM     26  N28 <0> d   1      18.708  -0.388   6.447  0.00  0.00    -0.152 N 
ATOM     27  O30 <0> d   1      19.714  -1.347   4.695  0.00  0.00    -0.265 OA
ATOM     28  C26 <0> d   1      18.271  -0.494   7.734  0.00  0.00     0.703 A 
ATOM     29  H48 <0> d   1      18.578   0.440   5.960  0.00  0.00     0.187 HD
BRANCH  28  30
ATOM     30  N27 <0> d   1      17.652   0.582   8.318  0.00  0.00    -0.233 N 
ATOM     31  H46 <0> d   1      17.711   1.458   7.906  0.00  0.00     0.174 HD
ATOM     32  H47 <0> d   1      17.156   0.466   9.144  0.00  0.00     0.174 HD
ENDBRANCH  28  30
ENDBRANCH  18  19
ENDBRANCH  17  18
ENDBRANCH   1  17
TORSDOF 12
ENDMDL
MODEL 6
REMARK VINA RESULT:      -6.5      3.761      5.367
REMARK  12 active torsions:
REMARK  status: ('A' for Active; 'I' for Inactive)
REMARK    1  A    between atoms: C2_2  and  C4_4 
REMARK    2  A    between atoms: C4_4  and  N6_5 
REMARK    3  A    between atoms: C4_4  and  C10_9 
REMARK    4  A    between atoms: C10_9  and  O12_11 
REMARK    5  A    between atoms: O12_11  and  C13_12 
REMARK    6  A    between atoms: C13_12  and  C14_13 
REMARK    7  A    between atoms: C14_13  and  C16_14 
REMARK    8  A    between atoms: C14_13  and  O18_16 
REMARK    9  A    between atoms: C16_14  and  O17_15 
REMARK   10  A    between atoms: O18_16  and  C19_17 
REMARK   11  A    between atoms: C19_17  and  N20_18 
REMARK   12  A    between atoms: C26_24  and  N27_25 
ROOT
ATOM      1  C14 <0> d   1      19.818   0.643  11.129  0.00  0.00     0.171 C 
ENDROOT
BRANCH   1   2
ATOM      2  C13 <0> d   1      19.704   1.157  12.566  0.00  0.00     0.213 C 
BRANCH   2   3
ATOM      3  O12 <0> d   1      20.152   0.126  13.485  0.00  0.00    -0.317 OA
BRANCH   3   4
ATOM      4  C10 <0> d   1      19.213  -0.466  14.240  0.00  0.00     0.290 C 
ATOM      5  O11 <0> d   1      18.789  -1.555  13.932  0.00  0.00    -0.263 OA
BRANCH   4   6
ATOM      6  C4  <0> d   1      18.688   0.227  15.471  0.00  0.00     0.285 C 
BRANCH   6   7
ATOM      7  C2  <0> d   1      18.552  -0.786  16.609  0.00  0.00     0.018 C 
ATOM      8  C1  <0> d   1      19.257  -0.249  17.857  0.00  0.00     0.012 C 
ATOM      9  C3  <0> d   1      17.070  -1.011  16.917  0.00  0.00     0.012 C 
ENDBRANCH   6   7
BRANCH   6  10
ATOM     10  N6  <0> d   1      17.373   0.815  15.178  0.00  0.00    -0.066 N 
ATOM     11  H7  <0> d   1      16.985   0.377  14.357  0.00  0.00     0.275 HD
ATOM     12  H8  <0> d   1      16.756   0.665  15.963  0.00  0.00     0.275 HD
ATOM     13  H9  <0> d   1      17.476   1.805  15.016  0.00  0.00     0.275 HD
ENDBRANCH   6  10
ENDBRANCH   4   6
ENDBRANCH   3   4
ENDBRANCH   2   3
ENDBRANCH   1   2
BRANCH   1  14
ATOM     14  C16 <0> d   1      20.938  -0.395  11.046  0.00  0.00     0.198 C 
BRANCH  14  15
ATOM     15  O17 <0> d   1      20.388  -1.705  11.195  0.00  0.00    -0.398 OA
ATOM     16  H42 <0> d   1      19.541  -1.725  11.659  0.00  0.00     0.209 HD
ENDBRANCH  14  15
ENDBRANCH   1  14
BRANCH   1  17
ATOM     17  O18 <0> d   1      18.581   0.041  10.740  0.00  0.00    -0.362 OA
BRANCH  17  18
ATOM     18  C19 <0> d   1      17.831   0.811   9.798  0.00  0.00     0.301 C 
BRANCH  18  19
ATOM     19  N20 <0> d   1      18.385   0.617   8.457  0.00  0.00    -0.301 N 
ATOM     20  C24 <0> d   1      18.468  -0.569   7.778  0.00  0.00     0.186 A 
ATOM     21  C23 <0> d   1      19.059  -0.271   6.545  0.00  0.00     0.173 A 
ATOM     22  N25 <0> d   1      18.114  -1.830   8.056  0.00  0.00    -0.044 NA
ATOM     23  N22 <0> d   1      19.313   1.060   6.532  0.00  0.00    -0.234 NA
ATOM     24  C29 <0> d   1      19.269  -1.323   5.623  0.00  0.00     0.292 A 
ATOM     25  C21 <0> d   1      18.916   1.586   7.655  0.00  0.00     0.214 A 
ATOM     26  N28 <0> d   1      18.881  -2.569   5.973  0.00  0.00    -0.152 N 
ATOM     27  O30 <0> d   1      19.779  -1.108   4.537  0.00  0.00    -0.265 OA
ATOM     28  C26 <0> d   1      18.310  -2.797   7.189  0.00  0.00     0.703 A 
ATOM     29  H48 <0> d   1      19.012  -3.306   5.355  0.00  0.00     0.187 HD
BRANCH  28  30
ATOM     30  N27 <0> d   1      17.930  -4.074   7.518  0.00  0.00    -0.233 N 
ATOM     31  H46 <0> d   1      17.045  -4.392   7.280  0.00  0.00     0.174 HD
ATOM     32  H47 <0> d   1      18.546  -4.658   7.988  0.00  0.00     0.174 HD
ENDBRANCH  28  30
ENDBRANCH  18  19
ENDBRANCH  17  18
ENDBRANCH   1  17
TORSDOF 12
ENDMDL
MODEL 7
REMARK VINA RESULT:      -6.5      4.352      6.648
REMARK  12 active torsions:
REMARK  status: ('A' for Active; 'I' for Inactive)
REMARK    1  A    between atoms: C2_2  and  C4_4 
REMARK    2  A    between atoms: C4_4  and  N6_5 
REMARK    3  A    between atoms: C4_4  and  C10_9 
REMARK    4  A    between atoms: C10_9  and  O12_11 
REMARK    5  A    between atoms: O12_11  and  C13_12 
REMARK    6  A    between atoms: C13_12  and  C14_13 
REMARK    7  A    between atoms: C14_13  and  C16_14 
REMARK    8  A    between atoms: C14_13  and  O18_16 
REMARK    9  A    between atoms: C16_14  and  O17_15 
REMARK   10  A    between atoms: O18_16  and  C19_17 
REMARK   11  A    between atoms: C19_17  and  N20_18 
REMARK   12  A    between atoms: C26_24  and  N27_25 
ROOT
ATOM      1  C14 <0> d   1      19.498  -0.675  11.353  0.00  0.00     0.171 C 
ENDROOT
BRANCH   1   2
ATOM      2  C13 <0> d   1      19.344  -0.668  12.876  0.00  0.00     0.213 C 
BRANCH   2   3
ATOM      3  O12 <0> d   1      19.215   0.701  13.342  0.00  0.00    -0.317 OA
BRANCH   3   4
ATOM      4  C10 <0> d   1      18.242   1.443  12.790  0.00  0.00     0.290 C 
ATOM      5  O11 <0> d   1      17.117   1.011  12.724  0.00  0.00    -0.263 OA
BRANCH   4   6
ATOM      6  C4  <0> d   1      18.556   2.816  12.252  0.00  0.00     0.285 C 
BRANCH   6   7
ATOM      7  C2  <0> d   1      17.791   3.040  10.946  0.00  0.00     0.018 C 
ATOM      8  C1  <0> d   1      17.140   4.424  10.968  0.00  0.00     0.012 C 
ATOM      9  C3  <0> d   1      18.761   2.950   9.766  0.00  0.00     0.012 C 
ENDBRANCH   6   7
BRANCH   6  10
ATOM     10  N6  <0> d   1      20.000   2.923  11.999  0.00  0.00    -0.066 N 
ATOM     11  H7  <0> d   1      20.405   2.000  11.963  0.00  0.00     0.275 HD
ATOM     12  H8  <0> d   1      20.153   3.392  11.118  0.00  0.00     0.275 HD
ATOM     13  H9  <0> d   1      20.433   3.452  12.740  0.00  0.00     0.275 HD
ENDBRANCH   6  10
ENDBRANCH   4   6
ENDBRANCH   3   4
ENDBRANCH   2   3
ENDBRANCH   1   2
BRANCH   1  14
ATOM     14  C16 <0> d   1      20.971  -0.482  10.989  0.00  0.00     0.198 C 
BRANCH  14  15
ATOM     15  O17 <0> d   1      21.590   0.382  11.944  0.00  0.00    -0.398 OA
ATOM     16  H42 <0> d   1      21.600   0.030  12.844  0.00  0.00     0.209 HD
ENDBRANCH  14  15
ENDBRANCH   1  14
BRANCH   1  17
ATOM     17  O18 <0> d   1      19.039  -1.925  10.835  0.00  0.00    -0.362 OA
BRANCH  17  18
ATOM     18  C19 <0> d   1      17.855  -1.825  10.040  0.00  0.00     0.301 C 
BRANCH  18  19
ATOM     19  N20 <0> d   1      18.218  -1.476   8.665  0.00  0.00    -0.301 N 
ATOM     20  C24 <0> d   1      18.674  -2.338   7.704  0.00  0.00     0.186 A 
ATOM     21  C23 <0> d   1      18.884  -1.565   6.557  0.00  0.00     0.173 A 
ATOM     22  N25 <0> d   1      18.921  -3.653   7.672  0.00  0.00    -0.044 NA
ATOM     23  N22 <0> d   1      18.561  -0.287   6.868  0.00  0.00    -0.234 NA
ATOM     24  C29 <0> d   1      19.359  -2.204   5.387  0.00  0.00     0.292 A 
ATOM     25  C21 <0> d   1      18.167  -0.231   8.107  0.00  0.00     0.214 A 
ATOM     26  N28 <0> d   1      19.582  -3.537   5.430  0.00  0.00    -0.152 N 
ATOM     27  O30 <0> d   1      19.556  -1.570   4.365  0.00  0.00    -0.265 OA
ATOM     28  C26 <0> d   1      19.358  -4.236   6.578  0.00  0.00     0.703 A 
ATOM     29  H48 <0> d   1      19.905  -3.996   4.640  0.00  0.00     0.187 HD
BRANCH  28  30
ATOM     30  N27 <0> d   1      19.596  -5.587   6.593  0.00  0.00    -0.233 N 
ATOM     31  H46 <0> d   1      18.926  -6.194   6.944  0.00  0.00     0.174 HD
ATOM     32  H47 <0> d   1      20.435  -5.936   6.252  0.00  0.00     0.174 HD
ENDBRANCH  28  30
ENDBRANCH  18  19
ENDBRANCH  17  18
ENDBRANCH   1  17
TORSDOF 12
ENDMDL
MODEL 8
REMARK VINA RESULT:      -6.5      2.881      7.179
REMARK  12 active torsions:
REMARK  status: ('A' for Active; 'I' for Inactive)
REMARK    1  A    between atoms: C2_2  and  C4_4 
REMARK    2  A    between atoms: C4_4  and  N6_5 
REMARK    3  A    between atoms: C4_4  and  C10_9 
REMARK    4  A    between atoms: C10_9  and  O12_11 
REMARK    5  A    between atoms: O12_11  and  C13_12 
REMARK    6  A    between atoms: C13_12  and  C14_13 
REMARK    7  A    between atoms: C14_13  and  C16_14 
REMARK    8  A    between atoms: C14_13  and  O18_16 
REMARK    9  A    between atoms: C16_14  and  O17_15 
REMARK   10  A    between atoms: O18_16  and  C19_17 
REMARK   11  A    between atoms: C19_17  and  N20_18 
REMARK   12  A    between atoms: C26_24  and  N27_25 
ROOT
ATOM      1  C14 <0> d   1      19.566  -0.770  11.976  0.00  0.00     0.171 C 
ENDROOT
BRANCH   1   2
ATOM      2  C13 <0> d   1      19.518  -1.929  10.979  0.00  0.00     0.213 C 
BRANCH   2   3
ATOM      3  O12 <0> d   1      19.491  -1.403   9.626  0.00  0.00    -0.317 OA
BRANCH   3   4
ATOM      4  C10 <0> d   1      18.345  -1.544   8.941  0.00  0.00     0.290 C 
ATOM      5  O11 <0> d   1      17.815  -2.627   8.866  0.00  0.00    -0.263 OA
BRANCH   4   6
ATOM      6  C4  <0> d   1      17.720  -0.350   8.265  0.00  0.00     0.285 C 
BRANCH   6   7
ATOM      7  C2  <0> d   1      18.760   0.337   7.379  0.00  0.00     0.018 C 
ATOM      8  C1  <0> d   1      18.177   0.552   5.980  0.00  0.00     0.012 C 
ATOM      9  C3  <0> d   1      19.135   1.690   7.989  0.00  0.00     0.012 C 
ENDBRANCH   6   7
BRANCH   6  10
ATOM     10  N6  <0> d   1      17.243   0.595   9.284  0.00  0.00    -0.066 N 
ATOM     11  H7  <0> d   1      18.032   0.979   9.782  0.00  0.00     0.275 HD
ATOM     12  H8  <0> d   1      16.731   1.341   8.837  0.00  0.00     0.275 HD
ATOM     13  H9  <0> d   1      16.638   0.114   9.932  0.00  0.00     0.275 HD
ENDBRANCH   6  10
ENDBRANCH   4   6
ENDBRANCH   3   4
ENDBRANCH   2   3
ENDBRANCH   1   2
BRANCH   1  14
ATOM     14  C16 <0> d   1      20.777   0.113  11.674  0.00  0.00     0.198 C 
BRANCH  14  15
ATOM     15  O17 <0> d   1      21.735  -0.632  10.921  0.00  0.00    -0.398 OA
ATOM     16  H42 <0> d   1      21.947  -0.245  10.061  0.00  0.00     0.209 HD
ENDBRANCH  14  15
ENDBRANCH   1  14
BRANCH   1  17
ATOM     17  O18 <0> d   1      18.371   0.005  11.863  0.00  0.00    -0.362 OA
BRANCH  17  18
ATOM     18  C19 <0> d   1      17.456  -0.174  12.946  0.00  0.00     0.301 C 
BRANCH  18  19
ATOM     19  N20 <0> d   1      18.038   0.373  14.172  0.00  0.00    -0.301 N 
ATOM     20  C24 <0> d   1      18.464   1.660  14.363  0.00  0.00     0.186 A 
ATOM     21  C23 <0> d   1      18.937   1.722  15.678  0.00  0.00     0.173 A 
ATOM     22  N25 <0> d   1      18.497   2.755  13.594  0.00  0.00    -0.044 NA
ATOM     23  N22 <0> d   1      18.788   0.489  16.218  0.00  0.00    -0.234 NA
ATOM     24  C29 <0> d   1      19.444   2.953  16.158  0.00  0.00     0.292 A 
ATOM     25  C21 <0> d   1      18.258  -0.307  15.335  0.00  0.00     0.214 A 
ATOM     26  N28 <0> d   1      19.442   4.016  15.324  0.00  0.00    -0.152 N 
ATOM     27  O30 <0> d   1      19.866   3.053  17.297  0.00  0.00    -0.265 OA
ATOM     28  C26 <0> d   1      18.967   3.893  14.053  0.00  0.00     0.703 A 
ATOM     29  H48 <0> d   1      19.782   4.871  15.632  0.00  0.00     0.187 HD
BRANCH  28  30
ATOM     30  N27 <0> d   1      18.980   4.990  13.228  0.00  0.00    -0.233 N 
ATOM     31  H46 <0> d   1      18.686   5.851  13.562  0.00  0.00     0.174 HD
ATOM     32  H47 <0> d   1      19.283   4.903  12.310  0.00  0.00     0.174 HD
ENDBRANCH  28  30
ENDBRANCH  18  19
ENDBRANCH  17  18
ENDBRANCH   1  17
TORSDOF 12
ENDMDL
MODEL 9
REMARK VINA RESULT:      -6.3      4.551      6.992
REMARK  12 active torsions:
REMARK  status: ('A' for Active; 'I' for Inactive)
REMARK    1  A    between atoms: C2_2  and  C4_4 
REMARK    2  A    between atoms: C4_4  and  N6_5 
REMARK    3  A    between atoms: C4_4  and  C10_9 
REMARK    4  A    between atoms: C10_9  and  O12_11 
REMARK    5  A    between atoms: O12_11  and  C13_12 
REMARK    6  A    between atoms: C13_12  and  C14_13 
REMARK    7  A    between atoms: C14_13  and  C16_14 
REMARK    8  A    between atoms: C14_13  and  O18_16 
REMARK    9  A    between atoms: C16_14  and  O17_15 
REMARK   10  A    between atoms: O18_16  and  C19_17 
REMARK   11  A    between atoms: C19_17  and  N20_18 
REMARK   12  A    between atoms: C26_24  and  N27_25 
ROOT
ATOM      1  C14 <0> d   1      19.741   0.469  10.120  0.00  0.00     0.171 C 
ENDROOT
BRANCH   1   2
ATOM      2  C13 <0> d   1      18.323   0.138  10.590  0.00  0.00     0.213 C 
BRANCH   2   3
ATOM      3  O12 <0> d   1      18.139   0.616  11.948  0.00  0.00    -0.317 OA
BRANCH   3   4
ATOM      4  C10 <0> d   1      17.846   1.917  12.101  0.00  0.00     0.290 C 
ATOM      5  O11 <0> d   1      17.029   2.441  11.382  0.00  0.00    -0.263 OA
BRANCH   4   6
ATOM      6  C4  <0> d   1      18.536   2.723  13.171  0.00  0.00     0.285 C 
BRANCH   6   7
ATOM      7  C2  <0> d   1      19.081   4.017  12.564  0.00  0.00     0.018 C 
ATOM      8  C1  <0> d   1      19.445   4.993  13.685  0.00  0.00     0.012 C 
ATOM      9  C3  <0> d   1      20.329   3.705  11.734  0.00  0.00     0.012 C 
ENDBRANCH   6   7
BRANCH   6  10
ATOM     10  N6  <0> d   1      19.645   1.941  13.735  0.00  0.00    -0.066 N 
ATOM     11  H7  <0> d   1      20.279   1.677  12.996  0.00  0.00     0.275 HD
ATOM     12  H8  <0> d   1      20.137   2.499  14.417  0.00  0.00     0.275 HD
ATOM     13  H9  <0> d   1      19.280   1.112  14.178  0.00  0.00     0.275 HD
ENDBRANCH   6  10
ENDBRANCH   4   6
ENDBRANCH   3   4
ENDBRANCH   2   3
ENDBRANCH   1   2
BRANCH   1  14
ATOM     14  C16 <0> d   1      20.740  -0.440  10.835  0.00  0.00     0.198 C 
BRANCH  14  15
ATOM     15  O17 <0> d   1      21.444   0.311  11.827  0.00  0.00    -0.398 OA
ATOM     16  H42 <0> d   1      21.413  -0.079  12.710  0.00  0.00     0.209 HD
ENDBRANCH  14  15
ENDBRANCH   1  14
BRANCH   1  17
ATOM     17  O18 <0> d   1      19.835   0.264   8.709  0.00  0.00    -0.362 OA
BRANCH  17  18
ATOM     18  C19 <0> d   1      18.673  -0.333   8.129  0.00  0.00     0.301 C 
BRANCH  18  19
ATOM     19  N20 <0> d   1      19.037  -1.608   7.508  0.00  0.00    -0.301 N 
ATOM     20  C24 <0> d   1      19.142  -2.817   8.142  0.00  0.00     0.186 A 
ATOM     21  C23 <0> d   1      19.507  -3.742   7.156  0.00  0.00     0.173 A 
ATOM     22  N25 <0> d   1      18.968  -3.227   9.403  0.00  0.00    -0.044 NA
ATOM     23  N22 <0> d   1      19.615  -3.064   5.988  0.00  0.00    -0.234 NA
ATOM     24  C29 <0> d   1      19.686  -5.094   7.530  0.00  0.00     0.292 A 
ATOM     25  C21 <0> d   1      19.338  -1.809   6.191  0.00  0.00     0.214 A 
ATOM     26  N28 <0> d   1      19.488  -5.434   8.823  0.00  0.00    -0.152 N 
ATOM     27  O30 <0> d   1      20.003  -5.934   6.705  0.00  0.00    -0.265 OA
ATOM     28  C26 <0> d   1      19.133  -4.487   9.737  0.00  0.00     0.703 A 
ATOM     29  H48 <0> d   1      19.602  -6.356   9.102  0.00  0.00     0.187 HD
BRANCH  28  30
ATOM     30  N27 <0> d   1      18.941  -4.861  11.044  0.00  0.00    -0.233 N 
ATOM     31  H46 <0> d   1      18.654  -5.763  11.253  0.00  0.00     0.174 HD
ATOM     32  H47 <0> d   1      19.093  -4.222  11.758  0.00  0.00     0.174 HD
ENDBRANCH  28  30
ENDBRANCH  18  19
ENDBRANCH  17  18
ENDBRANCH   1  17
TORSDOF 12
ENDMDL
