MODEL 1
REMARK VINA RESULT:      -9.7      0.000      0.000
REMARK  7 active torsions:
REMARK  status: ('A' for Active; 'I' for Inactive)
REMARK    1  A    between atoms: C2_2  and  N3_3 
REMARK    2  A    between atoms: N6_6  and  C7_7 
REMARK    3  A    between atoms: C7_7  and  C8_8 
REMARK    4  A    between atoms: C11_11  and  N12_12 
REMARK    5  A    between atoms: N12_12  and  C13_13 
REMARK    6  A    between atoms: C18_18  and  C19_19 
REMARK    7  A    between atoms: N27_27  and  C28_28 
ROOT
ATOM      1  C13 ZIN A   1      18.247   3.548  10.037  0.00  0.00     0.728 A 
ATOM      2  N14 ZIN A   1      17.555   4.640   9.747  0.00  0.00    -0.072 NA
ATOM      3  C15 ZIN A   1      17.171   5.476  10.699  0.00  0.00     0.181 A 
ATOM      4  C16 ZIN A   1      17.496   5.200  12.017  0.00  0.00     0.164 A 
ATOM      5  F17 ZIN A   1      17.119   6.031  13.013  0.00  0.00    -0.202 F 
ATOM      6  C18 ZIN A   1      18.228   4.038  12.291  0.00  0.00     0.126 A 
ATOM      7  N33 ZIN A   1      18.575   3.242  11.282  0.00  0.00    -0.059 NA
ENDROOT
BRANCH   1   8
ATOM      8  N12 ZIN A   1      18.631   2.700   9.009  0.00  0.00    -0.171 N 
ATOM      9  H51 ZIN A   1      18.828   3.061   8.130  0.00  0.00     0.186 HD
BRANCH   8  10
ATOM     10  C11 ZIN A   1      18.732   1.331   9.238  0.00  0.00     0.142 A 
ATOM     11  C10 ZIN A   1      17.581   0.580   9.448  0.00  0.00     0.051 A 
ATOM     12  C9  ZIN A   1      17.696  -0.781   9.674  0.00  0.00     0.014 A 
ATOM     13  C8  ZIN A   1      18.964  -1.346   9.682  0.00  0.00    -0.012 A 
ATOM     14  C35 ZIN A   1      20.065  -0.539   9.471  0.00  0.00     0.128 A 
ATOM     15  N34 ZIN A   1      19.925   0.754   9.252  0.00  0.00    -0.242 NA
BRANCH  13  16
ATOM     16  C7  ZIN A   1      19.139  -2.823   9.924  0.00  0.00     0.312 C 
BRANCH  16  17
ATOM     17  N6  ZIN A   1      18.085  -3.562   9.217  0.00  0.00     0.096 N 
ATOM     18  C5  ZIN A   1      17.378  -4.472  10.129  0.00  0.00     0.303 C 
ATOM     19  C4  ZIN A   1      16.239  -5.163   9.375  0.00  0.00     0.302 C 
ATOM     20  N3  ZIN A   1      16.789  -5.896   8.227  0.00  0.00     0.091 N 
ATOM     21  C37 ZIN A   1      17.495  -4.986   7.315  0.00  0.00     0.302 C 
ATOM     22  C36 ZIN A   1      18.634  -4.295   8.068  0.00  0.00     0.303 C 
BRANCH  20  23
ATOM     23  C2  ZIN A   1      15.734  -6.636   7.520  0.00  0.00     0.268 C 
ATOM     24  C1  ZIN A   1      14.364  -6.171   8.018  0.00  0.00     0.037 C 
ENDBRANCH  20  23
ENDBRANCH  16  17
ENDBRANCH  13  16
ENDBRANCH   8  10
ENDBRANCH   1   8
BRANCH   6  25
ATOM     25  C19 ZIN A   1      18.602   3.696  13.683  0.00  0.00     0.002 A 
ATOM     26  C32 ZIN A   1      18.319   2.429  14.187  0.00  0.00     0.046 A 
ATOM     27  C31 ZIN A   1      18.677   2.114  15.487  0.00  0.00     0.069 A 
ATOM     28  C23 ZIN A   1      19.311   3.075  16.295  0.00  0.00     0.124 A 
ATOM     29  N27 ZIN A   1      18.549   0.983  16.270  0.00  0.00    -0.329 N 
ATOM     30  C21 ZIN A   1      19.583   4.346  15.775  0.00  0.00     0.148 A 
ATOM     31  N24 ZIN A   1      19.532   2.493  17.501  0.00  0.00    -0.230 NA
ATOM     32  C20 ZIN A   1      19.233   4.648  14.490  0.00  0.00     0.058 A 
ATOM     33  F22 ZIN A   1      20.192   5.275  16.545  0.00  0.00    -0.203 F 
ATOM     34  C25 ZIN A   1      19.087   1.270  17.486  0.00  0.00     0.104 A 
ATOM     35  C26 ZIN A   1      19.156   0.312  18.647  0.00  0.00     0.091 C 
BRANCH  29  36
ATOM     36  C28 ZIN A   1      17.946  -0.290  15.866  0.00  0.00     0.083 C 
ATOM     37  C29 ZIN A   1      19.019  -1.381  15.854  0.00  0.00     0.032 C 
ATOM     38  C30 ZIN A   1      16.844  -0.669  16.856  0.00  0.00     0.032 C 
ENDBRANCH  29  36
ENDBRANCH   6  25
TORSDOF 7
ENDMDL
MODEL 2
REMARK VINA RESULT:      -9.4      1.058      1.486
REMARK  7 active torsions:
REMARK  status: ('A' for Active; 'I' for Inactive)
REMARK    1  A    between atoms: C2_2  and  N3_3 
REMARK    2  A    between atoms: N6_6  and  C7_7 
REMARK    3  A    between atoms: C7_7  and  C8_8 
REMARK    4  A    between atoms: C11_11  and  N12_12 
REMARK    5  A    between atoms: N12_12  and  C13_13 
REMARK    6  A    between atoms: C18_18  and  C19_19 
REMARK    7  A    between atoms: N27_27  and  C28_28 
ROOT
ATOM      1  C13 ZIN A   1      18.205   3.671  10.044  0.00  0.00     0.728 A 
ATOM      2  N14 ZIN A   1      17.421   4.711   9.802  0.00  0.00    -0.072 NA
ATOM      3  C15 ZIN A   1      16.963   5.464  10.790  0.00  0.00     0.181 A 
ATOM      4  C16 ZIN A   1      17.311   5.156  12.095  0.00  0.00     0.164 A 
ATOM      5  F17 ZIN A   1      16.861   5.903  13.127  0.00  0.00    -0.202 F 
ATOM      6  C18 ZIN A   1      18.141   4.051  12.318  0.00  0.00     0.126 A 
ATOM      7  N33 ZIN A   1      18.558   3.337  11.275  0.00  0.00    -0.059 NA
ENDROOT
BRANCH   1   8
ATOM      8  N12 ZIN A   1      18.663   2.909   8.980  0.00  0.00    -0.171 N 
ATOM      9  H51 ZIN A   1      18.932   3.341   8.154  0.00  0.00     0.186 HD
BRANCH   8  10
ATOM     10  C11 ZIN A   1      18.737   1.524   9.096  0.00  0.00     0.142 A 
ATOM     11  C10 ZIN A   1      19.979   0.903   9.162  0.00  0.00     0.051 A 
ATOM     12  C9  ZIN A   1      20.039  -0.474   9.278  0.00  0.00     0.014 A 
ATOM     13  C8  ZIN A   1      18.848  -1.187   9.323  0.00  0.00    -0.012 A 
ATOM     14  C35 ZIN A   1      17.650  -0.506   9.247  0.00  0.00     0.128 A 
ATOM     15  N34 ZIN A   1      17.623   0.809   9.143  0.00  0.00    -0.242 NA
BRANCH  13  16
ATOM     16  C7  ZIN A   1      18.864  -2.689   9.449  0.00  0.00     0.312 C 
BRANCH  16  17
ATOM     17  N6  ZIN A   1      18.319  -3.288   8.224  0.00  0.00     0.096 N 
ATOM     18  C5  ZIN A   1      17.912  -4.680   8.455  0.00  0.00     0.303 C 
ATOM     19  C4  ZIN A   1      17.277  -5.242   7.180  0.00  0.00     0.302 C 
ATOM     20  N3  ZIN A   1      18.243  -5.155   6.076  0.00  0.00     0.091 N 
ATOM     21  C37 ZIN A   1      18.650  -3.763   5.845  0.00  0.00     0.302 C 
ATOM     22  C36 ZIN A   1      19.285  -3.200   7.119  0.00  0.00     0.303 C 
BRANCH  20  23
ATOM     23  C2  ZIN A   1      17.698  -5.755   4.850  0.00  0.00     0.268 C 
ATOM     24  C1  ZIN A   1      16.627  -4.833   4.264  0.00  0.00     0.037 C 
ENDBRANCH  20  23
ENDBRANCH  16  17
ENDBRANCH  13  16
ENDBRANCH   8  10
ENDBRANCH   1   8
BRANCH   6  25
ATOM     25  C19 ZIN A   1      18.542   3.677  13.695  0.00  0.00     0.002 A 
ATOM     26  C32 ZIN A   1      18.279   2.397  14.172  0.00  0.00     0.046 A 
ATOM     27  C31 ZIN A   1      18.662   2.052  15.458  0.00  0.00     0.069 A 
ATOM     28  C23 ZIN A   1      19.302   2.998  16.278  0.00  0.00     0.124 A 
ATOM     29  N27 ZIN A   1      18.557   0.901  16.214  0.00  0.00    -0.329 N 
ATOM     30  C21 ZIN A   1      19.555   4.284  15.785  0.00  0.00     0.148 A 
ATOM     31  N24 ZIN A   1      19.549   2.389  17.465  0.00  0.00    -0.230 NA
ATOM     32  C20 ZIN A   1      19.180   4.615  14.514  0.00  0.00     0.058 A 
ATOM     33  F22 ZIN A   1      20.170   5.199  16.567  0.00  0.00    -0.203 F 
ATOM     34  C25 ZIN A   1      19.114   1.163  17.427  0.00  0.00     0.104 A 
ATOM     35  C26 ZIN A   1      19.212   0.177  18.563  0.00  0.00     0.091 C 
BRANCH  29  36
ATOM     36  C28 ZIN A   1      17.957  -0.366  15.789  0.00  0.00     0.083 C 
ATOM     37  C29 ZIN A   1      19.057  -1.413  15.601  0.00  0.00     0.032 C 
ATOM     38  C30 ZIN A   1      16.972  -0.847  16.856  0.00  0.00     0.032 C 
ENDBRANCH  29  36
ENDBRANCH   6  25
TORSDOF 7
ENDMDL
MODEL 3
REMARK VINA RESULT:      -9.2      3.526     10.003
REMARK  7 active torsions:
REMARK  status: ('A' for Active; 'I' for Inactive)
REMARK    1  A    between atoms: C2_2  and  N3_3 
REMARK    2  A    between atoms: N6_6  and  C7_7 
REMARK    3  A    between atoms: C7_7  and  C8_8 
REMARK    4  A    between atoms: C11_11  and  N12_12 
REMARK    5  A    between atoms: N12_12  and  C13_13 
REMARK    6  A    between atoms: C18_18  and  C19_19 
REMARK    7  A    between atoms: N27_27  and  C28_28 
ROOT
ATOM      1  C13 ZIN A   1      19.994  -0.226   8.950  0.00  0.00     0.728 A 
ATOM      2  N14 ZIN A   1      19.485   0.935   8.563  0.00  0.00    -0.072 NA
ATOM      3  C15 ZIN A   1      18.663   1.007   7.528  0.00  0.00     0.181 A 
ATOM      4  C16 ZIN A   1      18.333  -0.150   6.842  0.00  0.00     0.164 A 
ATOM      5  F17 ZIN A   1      17.496  -0.112   5.781  0.00  0.00    -0.202 F 
ATOM      6  C18 ZIN A   1      18.887  -1.361   7.275  0.00  0.00     0.126 A 
ATOM      7  N33 ZIN A   1      19.711  -1.354   8.321  0.00  0.00    -0.059 NA
ENDROOT
BRANCH   1   8
ATOM      8  N12 ZIN A   1      20.852  -0.256  10.039  0.00  0.00    -0.171 N 
ATOM      9  H51 ZIN A   1      21.801  -0.100   9.914  0.00  0.00     0.186 HD
BRANCH   8  10
ATOM     10  C11 ZIN A   1      20.351  -0.511  11.313  0.00  0.00     0.142 A 
ATOM     11  C10 ZIN A   1      19.558  -1.632  11.530  0.00  0.00     0.051 A 
ATOM     12  C9  ZIN A   1      19.067  -1.874  12.800  0.00  0.00     0.014 A 
ATOM     13  C8  ZIN A   1      19.385  -0.982  13.815  0.00  0.00    -0.012 A 
ATOM     14  C35 ZIN A   1      20.174   0.115  13.527  0.00  0.00     0.128 A 
ATOM     15  N34 ZIN A   1      20.634   0.317  12.307  0.00  0.00    -0.242 NA
BRANCH  13  16
ATOM     16  C7  ZIN A   1      18.873  -1.204  15.214  0.00  0.00     0.312 C 
BRANCH  16  17
ATOM     17  N6  ZIN A   1      19.077   0.013  16.009  0.00  0.00     0.096 N 
ATOM     18  C5  ZIN A   1      18.992  -0.277  17.447  0.00  0.00     0.303 C 
ATOM     19  C4  ZIN A   1      19.288   0.999  18.241  0.00  0.00     0.302 C 
ATOM     20  N3  ZIN A   1      18.328   2.044  17.860  0.00  0.00     0.091 N 
ATOM     21  C37 ZIN A   1      18.413   2.334  16.422  0.00  0.00     0.302 C 
ATOM     22  C36 ZIN A   1      18.117   1.060  15.628  0.00  0.00     0.303 C 
BRANCH  20  23
ATOM     23  C2  ZIN A   1      18.533   3.262  18.656  0.00  0.00     0.268 C 
ATOM     24  C1  ZIN A   1      17.213   3.667  19.316  0.00  0.00     0.037 C 
ENDBRANCH  20  23
ENDBRANCH  16  17
ENDBRANCH  13  16
ENDBRANCH   8  10
ENDBRANCH   1   8
BRANCH   6  25
ATOM     25  C19 ZIN A   1      18.567  -2.627   6.576  0.00  0.00     0.002 A 
ATOM     26  C32 ZIN A   1      18.087  -3.716   7.297  0.00  0.00     0.046 A 
ATOM     27  C31 ZIN A   1      17.783  -4.896   6.637  0.00  0.00     0.069 A 
ATOM     28  C23 ZIN A   1      17.973  -4.991   5.247  0.00  0.00     0.124 A 
ATOM     29  N27 ZIN A   1      17.300  -6.125   7.041  0.00  0.00    -0.329 N 
ATOM     30  C21 ZIN A   1      18.462  -3.888   4.537  0.00  0.00     0.148 A 
ATOM     31  N24 ZIN A   1      17.603  -6.246   4.883  0.00  0.00    -0.230 NA
ATOM     32  C20 ZIN A   1      18.753  -2.727   5.193  0.00  0.00     0.058 A 
ATOM     33  F22 ZIN A   1      18.646  -3.973   3.200  0.00  0.00    -0.203 F 
ATOM     34  C25 ZIN A   1      17.210  -6.908   5.932  0.00  0.00     0.104 A 
ATOM     35  C26 ZIN A   1      16.726  -8.335   5.921  0.00  0.00     0.091 C 
BRANCH  29  36
ATOM     36  C28 ZIN A   1      16.951  -6.514   8.410  0.00  0.00     0.083 C 
ATOM     37  C29 ZIN A   1      18.135  -6.236   9.337  0.00  0.00     0.032 C 
ATOM     38  C30 ZIN A   1      15.738  -5.706   8.875  0.00  0.00     0.032 C 
ENDBRANCH  29  36
ENDBRANCH   6  25
TORSDOF 7
ENDMDL
MODEL 4
REMARK VINA RESULT:      -9.1      3.982     10.004
REMARK  7 active torsions:
REMARK  status: ('A' for Active; 'I' for Inactive)
REMARK    1  A    between atoms: C2_2  and  N3_3 
REMARK    2  A    between atoms: N6_6  and  C7_7 
REMARK    3  A    between atoms: C7_7  and  C8_8 
REMARK    4  A    between atoms: C11_11  and  N12_12 
REMARK    5  A    between atoms: N12_12  and  C13_13 
REMARK    6  A    between atoms: C18_18  and  C19_19 
REMARK    7  A    between atoms: N27_27  and  C28_28 
ROOT
ATOM      1  C13 ZIN A   1      18.875   0.539   7.553  0.00  0.00     0.728 A 
ATOM      2  N14 ZIN A   1      19.113   1.235   6.451  0.00  0.00    -0.072 NA
ATOM      3  C15 ZIN A   1      19.312   0.628   5.292  0.00  0.00     0.181 A 
ATOM      4  C16 ZIN A   1      19.272  -0.756   5.234  0.00  0.00     0.164 A 
ATOM      5  F17 ZIN A   1      19.471  -1.407   4.068  0.00  0.00    -0.202 F 
ATOM      6  C18 ZIN A   1      19.018  -1.463   6.416  0.00  0.00     0.126 A 
ATOM      7  N33 ZIN A   1      18.833  -0.783   7.546  0.00  0.00    -0.059 NA
ENDROOT
BRANCH   1   8
ATOM      8  N12 ZIN A   1      18.672   1.215   8.747  0.00  0.00    -0.171 N 
ATOM      9  H51 ZIN A   1      18.560   2.179   8.746  0.00  0.00     0.186 HD
BRANCH   8  10
ATOM     10  C11 ZIN A   1      18.627   0.511   9.947  0.00  0.00     0.142 A 
ATOM     11  C10 ZIN A   1      17.412   0.340  10.601  0.00  0.00     0.051 A 
ATOM     12  C9  ZIN A   1      17.382  -0.363  11.793  0.00  0.00     0.014 A 
ATOM     13  C8  ZIN A   1      18.573  -0.872  12.292  0.00  0.00    -0.012 A 
ATOM     14  C35 ZIN A   1      19.744  -0.660  11.593  0.00  0.00     0.128 A 
ATOM     15  N34 ZIN A   1      19.742   0.009  10.456  0.00  0.00    -0.242 NA
BRANCH  13  16
ATOM     16  C7  ZIN A   1      18.588  -1.643  13.587  0.00  0.00     0.312 C 
BRANCH  16  17
ATOM     17  N6  ZIN A   1      18.373  -0.720  14.708  0.00  0.00     0.096 N 
ATOM     18  C5  ZIN A   1      19.341   0.385  14.673  0.00  0.00     0.303 C 
ATOM     19  C4  ZIN A   1      19.034   1.364  15.810  0.00  0.00     0.302 C 
ATOM     20  N3  ZIN A   1      19.096   0.655  17.095  0.00  0.00     0.091 N 
ATOM     21  C37 ZIN A   1      18.129  -0.450  17.130  0.00  0.00     0.302 C 
ATOM     22  C36 ZIN A   1      18.435  -1.430  15.995  0.00  0.00     0.303 C 
BRANCH  20  23
ATOM     23  C2  ZIN A   1      18.882   1.579  18.217  0.00  0.00     0.268 C 
ATOM     24  C1  ZIN A   1      17.445   1.441  18.724  0.00  0.00     0.037 C 
ENDBRANCH  20  23
ENDBRANCH  16  17
ENDBRANCH  13  16
ENDBRANCH   8  10
ENDBRANCH   1   8
BRANCH   6  25
ATOM     25  C19 ZIN A   1      18.965  -2.943   6.410  0.00  0.00     0.002 A 
ATOM     26  C32 ZIN A   1      17.844  -3.596   5.906  0.00  0.00     0.046 A 
ATOM     27  C31 ZIN A   1      17.803  -4.981   5.897  0.00  0.00     0.069 A 
ATOM     28  C23 ZIN A   1      18.885  -5.719   6.406  0.00  0.00     0.124 A 
ATOM     29  N27 ZIN A   1      16.871  -5.910   5.478  0.00  0.00    -0.329 N 
ATOM     30  C21 ZIN A   1      20.004  -5.047   6.915  0.00  0.00     0.148 A 
ATOM     31  N24 ZIN A   1      18.566  -7.031   6.275  0.00  0.00    -0.230 NA
ATOM     32  C20 ZIN A   1      20.040  -3.682   6.915  0.00  0.00     0.058 A 
ATOM     33  F22 ZIN A   1      21.048  -5.751   7.407  0.00  0.00    -0.203 F 
ATOM     34  C25 ZIN A   1      17.388  -7.142   5.731  0.00  0.00     0.104 A 
ATOM     35  C26 ZIN A   1      16.697  -8.447   5.428  0.00  0.00     0.091 C 
BRANCH  29  36
ATOM     36  C28 ZIN A   1      15.568  -5.622   4.873  0.00  0.00     0.083 C 
ATOM     37  C29 ZIN A   1      15.500  -6.258   3.483  0.00  0.00     0.032 C 
ATOM     38  C30 ZIN A   1      14.459  -6.200   5.753  0.00  0.00     0.032 C 
ENDBRANCH  29  36
ENDBRANCH   6  25
TORSDOF 7
ENDMDL
MODEL 5
REMARK VINA RESULT:      -9.0      3.185      5.421
REMARK  7 active torsions:
REMARK  status: ('A' for Active; 'I' for Inactive)
REMARK    1  A    between atoms: C2_2  and  N3_3 
REMARK    2  A    between atoms: N6_6  and  C7_7 
REMARK    3  A    between atoms: C7_7  and  C8_8 
REMARK    4  A    between atoms: C11_11  and  N12_12 
REMARK    5  A    between atoms: N12_12  and  C13_13 
REMARK    6  A    between atoms: C18_18  and  C19_19 
REMARK    7  A    between atoms: N27_27  and  C28_28 
ROOT
ATOM      1  C13 ZIN A   1      18.117   0.277  15.057  0.00  0.00     0.728 A 
ATOM      2  N14 ZIN A   1      18.410  -0.394  16.161  0.00  0.00    -0.072 NA
ATOM      3  C15 ZIN A   1      18.805   0.235  17.257  0.00  0.00     0.181 A 
ATOM      4  C16 ZIN A   1      18.914   1.616  17.244  0.00  0.00     0.164 A 
ATOM      5  F17 ZIN A   1      19.314   2.290  18.344  0.00  0.00    -0.202 F 
ATOM      6  C18 ZIN A   1      18.597   2.297  16.062  0.00  0.00     0.126 A 
ATOM      7  N33 ZIN A   1      18.212   1.595  14.998  0.00  0.00    -0.059 NA
ENDROOT
BRANCH   1   8
ATOM      8  N12 ZIN A   1      17.707  -0.422  13.931  0.00  0.00    -0.171 N 
ATOM      9  H51 ZIN A   1      17.187  -1.236  14.028  0.00  0.00     0.186 HD
BRANCH   8  10
ATOM     10  C11 ZIN A   1      18.040   0.043  12.663  0.00  0.00     0.142 A 
ATOM     11  C10 ZIN A   1      17.033   0.380  11.766  0.00  0.00     0.051 A 
ATOM     12  C9  ZIN A   1      17.378   0.842  10.508  0.00  0.00     0.014 A 
ATOM     13  C8  ZIN A   1      18.724   0.951  10.189  0.00  0.00    -0.012 A 
ATOM     14  C35 ZIN A   1      19.672   0.594  11.127  0.00  0.00     0.128 A 
ATOM     15  N34 ZIN A   1      19.314   0.163  12.321  0.00  0.00    -0.242 NA
BRANCH  13  16
ATOM     16  C7  ZIN A   1      19.148   1.449   8.831  0.00  0.00     0.312 C 
BRANCH  16  17
ATOM     17  N6  ZIN A   1      18.754   0.473   7.807  0.00  0.00     0.096 N 
ATOM     18  C5  ZIN A   1      19.462  -0.801   7.996  0.00  0.00     0.303 C 
ATOM     19  C4  ZIN A   1      18.967  -1.815   6.961  0.00  0.00     0.302 C 
ATOM     20  N3  ZIN A   1      19.197  -1.284   5.610  0.00  0.00     0.091 N 
ATOM     21  C37 ZIN A   1      18.490  -0.010   5.421  0.00  0.00     0.302 C 
ATOM     22  C36 ZIN A   1      18.983   1.004   6.455  0.00  0.00     0.303 C 
BRANCH  20  23
ATOM     23  C2  ZIN A   1      18.804  -2.262   4.586  0.00  0.00     0.268 C 
ATOM     24  C1  ZIN A   1      17.336  -2.048   4.213  0.00  0.00     0.037 C 
ENDBRANCH  20  23
ENDBRANCH  16  17
ENDBRANCH  13  16
ENDBRANCH   8  10
ENDBRANCH   1   8
BRANCH   6  25
ATOM     25  C19 ZIN A   1      18.697   3.773  15.994  0.00  0.00     0.002 A 
ATOM     26  C32 ZIN A   1      17.540   4.547  15.978  0.00  0.00     0.046 A 
ATOM     27  C31 ZIN A   1      17.640   5.928  15.921  0.00  0.00     0.069 A 
ATOM     28  C23 ZIN A   1      18.905   6.539  15.869  0.00  0.00     0.124 A 
ATOM     29  N27 ZIN A   1      16.718   6.956  15.894  0.00  0.00    -0.329 N 
ATOM     30  C21 ZIN A   1      20.059   5.746  15.881  0.00  0.00     0.148 A 
ATOM     31  N24 ZIN A   1      18.695   7.879  15.813  0.00  0.00    -0.230 NA
ATOM     32  C20 ZIN A   1      19.953   4.386  15.943  0.00  0.00     0.058 A 
ATOM     33  F22 ZIN A   1      21.279   6.327  15.831  0.00  0.00    -0.203 F 
ATOM     34  C25 ZIN A   1      17.416   8.122  15.829  0.00  0.00     0.104 A 
ATOM     35  C26 ZIN A   1      16.799   9.496  15.780  0.00  0.00     0.091 C 
BRANCH  29  36
ATOM     36  C28 ZIN A   1      15.260   6.817  15.928  0.00  0.00     0.083 C 
ATOM     37  C29 ZIN A   1      14.798   5.995  14.724  0.00  0.00     0.032 C 
ATOM     38  C30 ZIN A   1      14.846   6.110  17.220  0.00  0.00     0.032 C 
ENDBRANCH  29  36
ENDBRANCH   6  25
TORSDOF 7
ENDMDL
MODEL 6
REMARK VINA RESULT:      -9.0      1.970      2.950
REMARK  7 active torsions:
REMARK  status: ('A' for Active; 'I' for Inactive)
REMARK    1  A    between atoms: C2_2  and  N3_3 
REMARK    2  A    between atoms: N6_6  and  C7_7 
REMARK    3  A    between atoms: C7_7  and  C8_8 
REMARK    4  A    between atoms: C11_11  and  N12_12 
REMARK    5  A    between atoms: N12_12  and  C13_13 
REMARK    6  A    between atoms: C18_18  and  C19_19 
REMARK    7  A    between atoms: N27_27  and  C28_28 
ROOT
ATOM      1  C13 ZIN A   1      18.480   3.181   9.724  0.00  0.00     0.728 A 
ATOM      2  N14 ZIN A   1      17.836   4.335   9.820  0.00  0.00    -0.072 NA
ATOM      3  C15 ZIN A   1      17.274   4.709  10.958  0.00  0.00     0.181 A 
ATOM      4  C16 ZIN A   1      17.361   3.879  12.063  0.00  0.00     0.164 A 
ATOM      5  F17 ZIN A   1      16.799   4.230  13.241  0.00  0.00    -0.202 F 
ATOM      6  C18 ZIN A   1      18.049   2.666  11.930  0.00  0.00     0.126 A 
ATOM      7  N33 ZIN A   1      18.583   2.355  10.752  0.00  0.00    -0.059 NA
ENDROOT
BRANCH   1   8
ATOM      8  N12 ZIN A   1      19.054   2.828   8.512  0.00  0.00    -0.171 N 
ATOM      9  H51 ZIN A   1      19.410   3.514   7.925  0.00  0.00     0.186 HD
BRANCH   8  10
ATOM     10  C11 ZIN A   1      19.121   1.489   8.137  0.00  0.00     0.142 A 
ATOM     11  C10 ZIN A   1      18.607   1.091   6.908  0.00  0.00     0.051 A 
ATOM     12  C9  ZIN A   1      18.680  -0.243   6.547  0.00  0.00     0.014 A 
ATOM     13  C8  ZIN A   1      19.266  -1.137   7.433  0.00  0.00    -0.012 A 
ATOM     14  C35 ZIN A   1      19.751  -0.674   8.640  0.00  0.00     0.128 A 
ATOM     15  N34 ZIN A   1      19.674   0.605   8.954  0.00  0.00    -0.242 NA
BRANCH  13  16
ATOM     16  C7  ZIN A   1      19.367  -2.600   7.083  0.00  0.00     0.312 C 
BRANCH  16  17
ATOM     17  N6  ZIN A   1      19.066  -3.408   8.271  0.00  0.00     0.096 N 
ATOM     18  C5  ZIN A   1      19.326  -4.832   8.018  0.00  0.00     0.303 C 
ATOM     19  C4  ZIN A   1      19.076  -5.630   9.301  0.00  0.00     0.302 C 
ATOM     20  N3  ZIN A   1      17.690  -5.421   9.742  0.00  0.00     0.091 N 
ATOM     21  C37 ZIN A   1      17.429  -3.998   9.994  0.00  0.00     0.302 C 
ATOM     22  C36 ZIN A   1      17.679  -3.200   8.713  0.00  0.00     0.303 C 
BRANCH  20  23
ATOM     23  C2  ZIN A   1      17.388  -6.231  10.930  0.00  0.00     0.268 C 
ATOM     24  C1  ZIN A   1      17.181  -5.312  12.135  0.00  0.00     0.037 C 
ENDBRANCH  20  23
ENDBRANCH  16  17
ENDBRANCH  13  16
ENDBRANCH   8  10
ENDBRANCH   1   8
BRANCH   6  25
ATOM     25  C19 ZIN A   1      18.171   1.741  13.081  0.00  0.00     0.002 A 
ATOM     26  C32 ZIN A   1      18.497   2.238  14.340  0.00  0.00     0.046 A 
ATOM     27  C31 ZIN A   1      18.604   1.369  15.413  0.00  0.00     0.069 A 
ATOM     28  C23 ZIN A   1      18.395  -0.009  15.225  0.00  0.00     0.124 A 
ATOM     29  N27 ZIN A   1      18.900   1.531  16.752  0.00  0.00    -0.329 N 
ATOM     30  C21 ZIN A   1      18.073  -0.493  13.951  0.00  0.00     0.148 A 
ATOM     31  N24 ZIN A   1      18.570  -0.603  16.433  0.00  0.00    -0.230 NA
ATOM     32  C20 ZIN A   1      17.964   0.370  12.899  0.00  0.00     0.058 A 
ATOM     33  F22 ZIN A   1      17.871  -1.817  13.764  0.00  0.00    -0.203 F 
ATOM     34  C25 ZIN A   1      18.864   0.297  17.325  0.00  0.00     0.104 A 
ATOM     35  C26 ZIN A   1      19.129   0.014  18.782  0.00  0.00     0.091 C 
BRANCH  29  36
ATOM     36  C28 ZIN A   1      19.196   2.795  17.431  0.00  0.00     0.083 C 
ATOM     37  C29 ZIN A   1      19.924   3.733  16.466  0.00  0.00     0.032 C 
ATOM     38  C30 ZIN A   1      17.890   3.447  17.888  0.00  0.00     0.032 C 
ENDBRANCH  29  36
ENDBRANCH   6  25
TORSDOF 7
ENDMDL
MODEL 7
REMARK VINA RESULT:      -8.9      1.671      3.026
REMARK  7 active torsions:
REMARK  status: ('A' for Active; 'I' for Inactive)
REMARK    1  A    between atoms: C2_2  and  N3_3 
REMARK    2  A    between atoms: N6_6  and  C7_7 
REMARK    3  A    between atoms: C7_7  and  C8_8 
REMARK    4  A    between atoms: C11_11  and  N12_12 
REMARK    5  A    between atoms: N12_12  and  C13_13 
REMARK    6  A    between atoms: C18_18  and  C19_19 
REMARK    7  A    between atoms: N27_27  and  C28_28 
ROOT
ATOM      1  C13 ZIN A   1      19.652   0.157   9.649  0.00  0.00     0.728 A 
ATOM      2  N14 ZIN A   1      19.322   0.874   8.585  0.00  0.00    -0.072 NA
ATOM      3  C15 ZIN A   1      18.917   2.128   8.707  0.00  0.00     0.181 A 
ATOM      4  C16 ZIN A   1      18.837   2.695   9.969  0.00  0.00     0.164 A 
ATOM      5  F17 ZIN A   1      18.427   3.973  10.129  0.00  0.00    -0.202 F 
ATOM      6  C18 ZIN A   1      19.193   1.912  11.073  0.00  0.00     0.126 A 
ATOM      7  N33 ZIN A   1      19.586   0.656  10.872  0.00  0.00    -0.059 NA
ENDROOT
BRANCH   1   8
ATOM      8  N12 ZIN A   1      20.072  -1.154   9.476  0.00  0.00    -0.171 N 
ATOM      9  H51 ZIN A   1      21.007  -1.344   9.300  0.00  0.00     0.186 HD
BRANCH   8  10
ATOM     10  C11 ZIN A   1      19.152  -2.195   9.554  0.00  0.00     0.142 A 
ATOM     11  C10 ZIN A   1      18.661  -2.770   8.387  0.00  0.00     0.051 A 
ATOM     12  C9  ZIN A   1      17.748  -3.805   8.479  0.00  0.00     0.014 A 
ATOM     13  C8  ZIN A   1      17.354  -4.232   9.740  0.00  0.00    -0.012 A 
ATOM     14  C35 ZIN A   1      17.879  -3.612  10.857  0.00  0.00     0.128 A 
ATOM     15  N34 ZIN A   1      18.753  -2.631  10.739  0.00  0.00    -0.242 NA
BRANCH  13  16
ATOM     16  C7  ZIN A   1      16.361  -5.356   9.888  0.00  0.00     0.312 C 
BRANCH  16  17
ATOM     17  N6  ZIN A   1      16.045  -5.907   8.565  0.00  0.00     0.096 N 
ATOM     18  C5  ZIN A   1      14.593  -5.941   8.343  0.00  0.00     0.303 C 
ATOM     19  C4  ZIN A   1      14.307  -6.447   6.926  0.00  0.00     0.302 C 
ATOM     20  N3  ZIN A   1      14.895  -7.783   6.758  0.00  0.00     0.091 N 
ATOM     21  C37 ZIN A   1      16.347  -7.749   6.980  0.00  0.00     0.302 C 
ATOM     22  C36 ZIN A   1      16.633  -7.244   8.396  0.00  0.00     0.303 C 
BRANCH  20  23
ATOM     23  C2  ZIN A   1      14.577  -8.335   5.433  0.00  0.00     0.268 C 
ATOM     24  C1  ZIN A   1      14.709  -7.235   4.378  0.00  0.00     0.037 C 
ENDBRANCH  20  23
ENDBRANCH  16  17
ENDBRANCH  13  16
ENDBRANCH   8  10
ENDBRANCH   1   8
BRANCH   6  25
ATOM     25  C19 ZIN A   1      19.124   2.470  12.444  0.00  0.00     0.002 A 
ATOM     26  C32 ZIN A   1      18.956   1.619  13.532  0.00  0.00     0.046 A 
ATOM     27  C31 ZIN A   1      18.899   2.147  14.812  0.00  0.00     0.069 A 
ATOM     28  C23 ZIN A   1      19.000   3.536  15.005  0.00  0.00     0.124 A 
ATOM     29  N27 ZIN A   1      18.747   1.597  16.070  0.00  0.00    -0.329 N 
ATOM     30  C21 ZIN A   1      19.163   4.379  13.898  0.00  0.00     0.148 A 
ATOM     31  N24 ZIN A   1      18.906   3.757  16.340  0.00  0.00    -0.230 NA
ATOM     32  C20 ZIN A   1      19.225   3.851  12.641  0.00  0.00     0.058 A 
ATOM     33  F22 ZIN A   1      19.261   5.715  14.076  0.00  0.00    -0.203 F 
ATOM     34  C25 ZIN A   1      18.759   2.624  16.963  0.00  0.00     0.104 A 
ATOM     35  C26 ZIN A   1      18.620   2.471  18.456  0.00  0.00     0.091 C 
BRANCH  29  36
ATOM     36  C28 ZIN A   1      18.600   0.174  16.385  0.00  0.00     0.083 C 
ATOM     37  C29 ZIN A   1      17.114  -0.186  16.436  0.00  0.00     0.032 C 
ATOM     38  C30 ZIN A   1      19.291  -0.661  15.306  0.00  0.00     0.032 C 
ENDBRANCH  29  36
ENDBRANCH   6  25
TORSDOF 7
ENDMDL
MODEL 8
REMARK VINA RESULT:      -8.7      3.134      5.550
REMARK  7 active torsions:
REMARK  status: ('A' for Active; 'I' for Inactive)
REMARK    1  A    between atoms: C2_2  and  N3_3 
REMARK    2  A    between atoms: N6_6  and  C7_7 
REMARK    3  A    between atoms: C7_7  and  C8_8 
REMARK    4  A    between atoms: C11_11  and  N12_12 
REMARK    5  A    between atoms: N12_12  and  C13_13 
REMARK    6  A    between atoms: C18_18  and  C19_19 
REMARK    7  A    between atoms: N27_27  and  C28_28 
ROOT
ATOM      1  C13 ZIN A   1      18.508  -0.730  15.512  0.00  0.00     0.728 A 
ATOM      2  N14 ZIN A   1      19.061  -1.456  16.471  0.00  0.00    -0.072 NA
ATOM      3  C15 ZIN A   1      19.429  -0.905  17.618  0.00  0.00     0.181 A 
ATOM      4  C16 ZIN A   1      19.232   0.452  17.811  0.00  0.00     0.164 A 
ATOM      5  F17 ZIN A   1      19.596   1.047  18.969  0.00  0.00    -0.202 F 
ATOM      6  C18 ZIN A   1      18.645   1.193  16.778  0.00  0.00     0.126 A 
ATOM      7  N33 ZIN A   1      18.306   0.570  15.652  0.00  0.00    -0.059 NA
ENDROOT
BRANCH   1   8
ATOM      8  N12 ZIN A   1      18.137  -1.348  14.327  0.00  0.00    -0.171 N 
ATOM      9  H51 ZIN A   1      17.714  -2.221  14.347  0.00  0.00     0.186 HD
BRANCH   8  10
ATOM     10  C11 ZIN A   1      18.371  -0.715  13.109  0.00  0.00     0.142 A 
ATOM     11  C10 ZIN A   1      17.351  -0.635  12.167  0.00  0.00     0.051 A 
ATOM     12  C9  ZIN A   1      17.597  -0.004  10.961  0.00  0.00     0.014 A 
ATOM     13  C8  ZIN A   1      18.859   0.528  10.737  0.00  0.00    -0.012 A 
ATOM     14  C35 ZIN A   1      19.827   0.408  11.715  0.00  0.00     0.128 A 
ATOM     15  N34 ZIN A   1      19.562  -0.194  12.858  0.00  0.00    -0.242 NA
BRANCH  13  16
ATOM     16  C7  ZIN A   1      19.173   1.225   9.437  0.00  0.00     0.312 C 
BRANCH  16  17
ATOM     17  N6  ZIN A   1      18.794   0.358   8.314  0.00  0.00     0.096 N 
ATOM     18  C5  ZIN A   1      19.623  -0.854   8.282  0.00  0.00     0.303 C 
ATOM     19  C4  ZIN A   1      19.146  -1.766   7.148  0.00  0.00     0.302 C 
ATOM     20  N3  ZIN A   1      19.229  -1.041   5.873  0.00  0.00     0.091 N 
ATOM     21  C37 ZIN A   1      18.400   0.172   5.905  0.00  0.00     0.302 C 
ATOM     22  C36 ZIN A   1      18.877   1.083   7.037  0.00  0.00     0.303 C 
BRANCH  20  23
ATOM     23  C2  ZIN A   1      18.850  -1.909   4.748  0.00  0.00     0.268 C 
ATOM     24  C1  ZIN A   1      17.396  -1.636   4.361  0.00  0.00     0.037 C 
ENDBRANCH  20  23
ENDBRANCH  16  17
ENDBRANCH  13  16
ENDBRANCH   8  10
ENDBRANCH   1   8
BRANCH   6  25
ATOM     25  C19 ZIN A   1      18.412   2.648  16.934  0.00  0.00     0.002 A 
ATOM     26  C32 ZIN A   1      18.425   3.477  15.817  0.00  0.00     0.046 A 
ATOM     27  C31 ZIN A   1      18.201   4.836  15.968  0.00  0.00     0.069 A 
ATOM     28  C23 ZIN A   1      17.974   5.371  17.248  0.00  0.00     0.124 A 
ATOM     29  N27 ZIN A   1      18.145   5.902  15.093  0.00  0.00    -0.329 N 
ATOM     30  C21 ZIN A   1      17.969   4.524  18.363  0.00  0.00     0.148 A 
ATOM     31  N24 ZIN A   1      17.795   6.708  17.091  0.00  0.00    -0.230 NA
ATOM     32  C20 ZIN A   1      18.185   3.185  18.206  0.00  0.00     0.058 A 
ATOM     33  F22 ZIN A   1      17.751   5.033  19.597  0.00  0.00    -0.203 F 
ATOM     34  C25 ZIN A   1      17.895   7.017  15.831  0.00  0.00     0.104 A 
ATOM     35  C26 ZIN A   1      17.755   8.409  15.271  0.00  0.00     0.091 C 
BRANCH  29  36
ATOM     36  C28 ZIN A   1      18.323   5.844  13.640  0.00  0.00     0.083 C 
ATOM     37  C29 ZIN A   1      19.630   5.119  13.315  0.00  0.00     0.032 C 
ATOM     38  C30 ZIN A   1      17.150   5.089  13.013  0.00  0.00     0.032 C 
ENDBRANCH  29  36
ENDBRANCH   6  25
TORSDOF 7
ENDMDL
MODEL 9
REMARK VINA RESULT:      -8.7      4.046     10.543
REMARK  7 active torsions:
REMARK  status: ('A' for Active; 'I' for Inactive)
REMARK    1  A    between atoms: C2_2  and  N3_3 
REMARK    2  A    between atoms: N6_6  and  C7_7 
REMARK    3  A    between atoms: C7_7  and  C8_8 
REMARK    4  A    between atoms: C11_11  and  N12_12 
REMARK    5  A    between atoms: N12_12  and  C13_13 
REMARK    6  A    between atoms: C18_18  and  C19_19 
REMARK    7  A    between atoms: N27_27  and  C28_28 
ROOT
ATOM      1  C13 ZIN A   1      19.869   0.342  11.830  0.00  0.00     0.728 A 
ATOM      2  N14 ZIN A   1      19.645  -0.146  13.041  0.00  0.00    -0.072 NA
ATOM      3  C15 ZIN A   1      19.252  -1.399  13.208  0.00  0.00     0.181 A 
ATOM      4  C16 ZIN A   1      19.071  -2.207  12.098  0.00  0.00     0.164 A 
ATOM      5  F17 ZIN A   1      18.670  -3.490  12.232  0.00  0.00    -0.202 F 
ATOM      6  C18 ZIN A   1      19.316  -1.662  10.831  0.00  0.00     0.126 A 
ATOM      7  N33 ZIN A   1      19.704  -0.391  10.742  0.00  0.00    -0.059 NA
ENDROOT
BRANCH   1   8
ATOM      8  N12 ZIN A   1      20.281   1.661  11.700  0.00  0.00    -0.171 N 
ATOM      9  H51 ZIN A   1      21.204   1.861  11.477  0.00  0.00     0.186 HD
BRANCH   8  10
ATOM     10  C11 ZIN A   1      19.370   2.696  11.888  0.00  0.00     0.142 A 
ATOM     11  C10 ZIN A   1      18.635   3.172  10.809  0.00  0.00     0.051 A 
ATOM     12  C9  ZIN A   1      17.732   4.201  11.010  0.00  0.00     0.014 A 
ATOM     13  C8  ZIN A   1      17.597   4.723  12.289  0.00  0.00    -0.012 A 
ATOM     14  C35 ZIN A   1      18.364   4.206  13.315  0.00  0.00     0.128 A 
ATOM     15  N34 ZIN A   1      19.212   3.220  13.094  0.00  0.00    -0.242 NA
BRANCH  13  16
ATOM     16  C7  ZIN A   1      16.627   5.845  12.556  0.00  0.00     0.312 C 
BRANCH  16  17
ATOM     17  N6  ZIN A   1      16.562   6.103  14.000  0.00  0.00     0.096 N 
ATOM     18  C5  ZIN A   1      15.176   6.046  14.483  0.00  0.00     0.303 C 
ATOM     19  C4  ZIN A   1      15.159   6.240  16.002  0.00  0.00     0.302 C 
ATOM     20  N3  ZIN A   1      15.777   7.531  16.335  0.00  0.00     0.091 N 
ATOM     21  C37 ZIN A   1      17.163   7.589  15.852  0.00  0.00     0.302 C 
ATOM     22  C36 ZIN A   1      17.181   7.395  14.334  0.00  0.00     0.303 C 
BRANCH  20  23
ATOM     23  C2  ZIN A   1      15.711   7.789  17.780  0.00  0.00     0.268 C 
ATOM     24  C1  ZIN A   1      16.128   9.235  18.059  0.00  0.00     0.037 C 
ENDBRANCH  20  23
ENDBRANCH  16  17
ENDBRANCH  13  16
ENDBRANCH   8  10
ENDBRANCH   1   8
BRANCH   6  25
ATOM     25  C19 ZIN A   1      19.137  -2.483   9.611  0.00  0.00     0.002 A 
ATOM     26  C32 ZIN A   1      18.850  -1.868   8.396  0.00  0.00     0.046 A 
ATOM     27  C31 ZIN A   1      18.690  -2.641   7.258  0.00  0.00     0.069 A 
ATOM     28  C23 ZIN A   1      18.806  -4.040   7.337  0.00  0.00     0.124 A 
ATOM     29  N27 ZIN A   1      18.411  -2.355   5.936  0.00  0.00    -0.329 N 
ATOM     30  C21 ZIN A   1      19.089  -4.644   8.568  0.00  0.00     0.148 A 
ATOM     31  N24 ZIN A   1      18.597  -4.525   6.086  0.00  0.00    -0.230 NA
ATOM     32  C20 ZIN A   1      19.252  -3.875   9.685  0.00  0.00     0.058 A 
ATOM     33  F22 ZIN A   1      19.202  -5.988   8.651  0.00  0.00    -0.203 F 
ATOM     34  C25 ZIN A   1      18.367  -3.540   5.268  0.00  0.00     0.104 A 
ATOM     35  C26 ZIN A   1      18.090  -3.689   3.794  0.00  0.00     0.091 C 
BRANCH  29  36
ATOM     36  C28 ZIN A   1      18.202  -1.025   5.360  0.00  0.00     0.083 C 
ATOM     37  C29 ZIN A   1      17.377  -0.174   6.327  0.00  0.00     0.032 C 
ATOM     38  C30 ZIN A   1      19.556  -0.355   5.119  0.00  0.00     0.032 C 
ENDBRANCH  29  36
ENDBRANCH   6  25
TORSDOF 7
ENDMDL
