MODEL 1
REMARK VINA RESULT:      -8.0      0.000      0.000
REMARK  5 active torsions:
REMARK  status: ('A' for Active; 'I' for Inactive)
REMARK    1  A    between atoms: O2_2  and  C3_3 
REMARK    2  A    between atoms: C4_4  and  O5_5 
REMARK    3  A    between atoms: C9_9  and  N10_10 
REMARK    4  A    between atoms: C12_12  and  N13_13 
REMARK       I    between atoms: N16_16  and  C17_17 
REMARK    5  A    between atoms: C17_17  and  C19_19 
ROOT
ATOM      1  C3  ZIN A   1      17.791   2.885  11.527  0.00  0.00     0.103 A 
ATOM      2  C4  ZIN A   1      18.816   2.440  12.373  0.00  0.00     0.102 A 
ATOM      3  C7  ZIN A   1      19.674   1.456  11.971  0.00  0.00     0.057 A 
ATOM      4  C8  ZIN A   1      19.530   0.885  10.701  0.00  0.00     0.039 A 
ATOM      5  C9  ZIN A   1      20.393  -0.138  10.239  0.00  0.00     0.137 A 
ATOM      6  N11 ZIN A   1      20.193  -0.630   9.025  0.00  0.00    -0.202 NA
ATOM      7  C12 ZIN A   1      19.210  -0.183   8.249  0.00  0.00     0.184 A 
ATOM      8  N27 ZIN A   1      18.377   0.767   8.628  0.00  0.00    -0.330 N 
ATOM      9  H28 ZIN A   1      17.674   1.059   8.026  0.00  0.00     0.168 HD
ATOM     10  C29 ZIN A   1      18.496   1.330   9.841  0.00  0.00     0.051 A 
ATOM     11  C30 ZIN A   1      17.624   2.335  10.275  0.00  0.00     0.070 A 
ENDROOT
BRANCH   7  12
ATOM     12  N13 ZIN A   1      19.053  -0.738   6.990  0.00  0.00    -0.250 NA
ATOM     13  C26 ZIN A   1      19.346  -2.178   7.011  0.00  0.00     0.118 C 
ATOM     14  C25 ZIN A   1      19.339  -2.717   5.576  0.00  0.00     0.140 C 
ATOM     15  N16 ZIN A   1      18.062  -2.351   4.946  0.00  0.00    -0.348 N 
ATOM     16  C15 ZIN A   1      17.634  -0.946   5.006  0.00  0.00     0.140 C 
ATOM     17  C17 ZIN A   1      17.303  -3.280   4.330  0.00  0.00     0.248 C 
ATOM     18  C14 ZIN A   1      17.707  -0.476   6.463  0.00  0.00     0.118 C 
ATOM     19  O18 ZIN A   1      16.216  -2.977   3.887  0.00  0.00    -0.270 OA
BRANCH  17  20
ATOM     20  C19 ZIN A   1      17.807  -4.694   4.191  0.00  0.00     0.213 C 
ATOM     21  O24 ZIN A   1      17.848  -5.074   2.807  0.00  0.00    -0.376 OA
ATOM     22  C23 ZIN A   1      17.479  -6.453   2.670  0.00  0.00     0.168 C 
ATOM     23  C22 ZIN A   1      17.138  -6.988   4.077  0.00  0.00     0.029 C 
ATOM     24  C21 ZIN A   1      16.819  -5.684   4.857  0.00  0.00     0.043 C 
ENDBRANCH  17  20
ENDBRANCH   7  12
BRANCH   5  25
ATOM     25  N10 ZIN A   1      21.417  -0.610  11.033  0.00  0.00    -0.383 N 
ATOM     26  H38 ZIN A   1      22.037   0.010  11.444  0.00  0.00     0.157 HD
ATOM     27  H39 ZIN A   1      21.515  -1.565  11.180  0.00  0.00     0.157 HD
ENDBRANCH   5  25
BRANCH   1  28
ATOM     28  O2  ZIN A   1      16.949   3.864  11.949  0.00  0.00    -0.353 OA
ATOM     29  C1  ZIN A   1      16.754   4.975  11.073  0.00  0.00     0.210 C 
ENDBRANCH   1  28
BRANCH   2  30
ATOM     30  O5  ZIN A   1      18.958   2.994  13.607  0.00  0.00    -0.353 OA
ATOM     31  C6  ZIN A   1      18.503   2.223  14.720  0.00  0.00     0.210 C 
ENDBRANCH   2  30
TORSDOF 5
ENDMDL
MODEL 2
REMARK VINA RESULT:      -7.9      2.958      9.720
REMARK  5 active torsions:
REMARK  status: ('A' for Active; 'I' for Inactive)
REMARK    1  A    between atoms: O2_2  and  C3_3 
REMARK    2  A    between atoms: C4_4  and  O5_5 
REMARK    3  A    between atoms: C9_9  and  N10_10 
REMARK    4  A    between atoms: C12_12  and  N13_13 
REMARK       I    between atoms: N16_16  and  C17_17 
REMARK    5  A    between atoms: C17_17  and  C19_19 
ROOT
ATOM      1  C3  ZIN A   1      19.038  -2.908   6.605  0.00  0.00     0.103 A 
ATOM      2  C4  ZIN A   1      18.886  -1.690   5.929  0.00  0.00     0.102 A 
ATOM      3  C7  ZIN A   1      18.956  -0.504   6.603  0.00  0.00     0.057 A 
ATOM      4  C8  ZIN A   1      19.181  -0.503   7.985  0.00  0.00     0.039 A 
ATOM      5  C9  ZIN A   1      19.261   0.699   8.729  0.00  0.00     0.137 A 
ATOM      6  N11 ZIN A   1      19.476   0.619  10.034  0.00  0.00    -0.202 NA
ATOM      7  C12 ZIN A   1      19.616  -0.555  10.643  0.00  0.00     0.184 A 
ATOM      8  N27 ZIN A   1      19.551  -1.704  10.000  0.00  0.00    -0.330 N 
ATOM      9  H28 ZIN A   1      19.658  -2.536  10.488  0.00  0.00     0.168 HD
ATOM     10  C29 ZIN A   1      19.336  -1.731   8.675  0.00  0.00     0.051 A 
ATOM     11  C30 ZIN A   1      19.255  -2.934   7.965  0.00  0.00     0.070 A 
ENDROOT
BRANCH   7  12
ATOM     12  N13 ZIN A   1      19.838  -0.571  12.009  0.00  0.00    -0.250 NA
ATOM     13  C26 ZIN A   1      19.275   0.627  12.648  0.00  0.00     0.118 C 
ATOM     14  C25 ZIN A   1      19.696   0.662  14.121  0.00  0.00     0.140 C 
ATOM     15  N16 ZIN A   1      19.316  -0.614  14.746  0.00  0.00    -0.348 N 
ATOM     16  C15 ZIN A   1      19.728  -1.862  14.087  0.00  0.00     0.140 C 
ATOM     17  C17 ZIN A   1      18.608  -0.639  15.893  0.00  0.00     0.248 C 
ATOM     18  C14 ZIN A   1      19.305  -1.799  12.615  0.00  0.00     0.118 C 
ATOM     19  O18 ZIN A   1      18.233  -1.697  16.351  0.00  0.00    -0.270 OA
BRANCH  17  20
ATOM     20  C19 ZIN A   1      18.283   0.649  16.605  0.00  0.00     0.213 C 
ATOM     21  O24 ZIN A   1      19.421   1.106  17.352  0.00  0.00    -0.376 OA
ATOM     22  C23 ZIN A   1      18.989   1.699  18.584  0.00  0.00     0.168 C 
ATOM     23  C22 ZIN A   1      17.453   1.578  18.648  0.00  0.00     0.029 C 
ATOM     24  C21 ZIN A   1      17.172   0.414  17.660  0.00  0.00     0.043 C 
ENDBRANCH  17  20
ENDBRANCH   7  12
BRANCH   5  25
ATOM     25  N10 ZIN A   1      19.118   1.923   8.109  0.00  0.00    -0.383 N 
ATOM     26  H38 ZIN A   1      19.549   2.708   8.480  0.00  0.00     0.157 HD
ATOM     27  H39 ZIN A   1      18.585   1.998   7.302  0.00  0.00     0.157 HD
ENDBRANCH   5  25
BRANCH   1  28
ATOM     28  O2  ZIN A   1      18.964  -4.075   5.914  0.00  0.00    -0.353 OA
ATOM     29  C1  ZIN A   1      19.406  -5.256   6.584  0.00  0.00     0.210 C 
ENDBRANCH   1  28
BRANCH   2  30
ATOM     30  O5  ZIN A   1      18.668  -1.689   4.586  0.00  0.00    -0.353 OA
ATOM     31  C6  ZIN A   1      17.310  -1.606   4.150  0.00  0.00     0.210 C 
ENDBRANCH   2  30
TORSDOF 5
ENDMDL
MODEL 3
REMARK VINA RESULT:      -7.7      3.226      4.639
REMARK  5 active torsions:
REMARK  status: ('A' for Active; 'I' for Inactive)
REMARK    1  A    between atoms: O2_2  and  C3_3 
REMARK    2  A    between atoms: C4_4  and  O5_5 
REMARK    3  A    between atoms: C9_9  and  N10_10 
REMARK    4  A    between atoms: C12_12  and  N13_13 
REMARK       I    between atoms: N16_16  and  C17_17 
REMARK    5  A    between atoms: C17_17  and  C19_19 
ROOT
ATOM      1  C3  ZIN A   1      18.296   0.411  16.291  0.00  0.00     0.103 A 
ATOM      2  C4  ZIN A   1      19.079   1.464  15.800  0.00  0.00     0.102 A 
ATOM      3  C7  ZIN A   1      19.635   1.398  14.554  0.00  0.00     0.057 A 
ATOM      4  C8  ZIN A   1      19.422   0.267  13.757  0.00  0.00     0.039 A 
ATOM      5  C9  ZIN A   1      19.977   0.150  12.460  0.00  0.00     0.137 A 
ATOM      6  N11 ZIN A   1      19.731  -0.951  11.766  0.00  0.00    -0.202 NA
ATOM      7  C12 ZIN A   1      18.983  -1.932  12.264  0.00  0.00     0.184 A 
ATOM      8  N27 ZIN A   1      18.442  -1.877  13.465  0.00  0.00    -0.330 N 
ATOM      9  H28 ZIN A   1      17.904  -2.618  13.786  0.00  0.00     0.168 HD
ATOM     10  C29 ZIN A   1      18.631  -0.802  14.248  0.00  0.00     0.051 A 
ATOM     11  C30 ZIN A   1      18.077  -0.716  15.530  0.00  0.00     0.070 A 
ENDROOT
BRANCH   7  12
ATOM     12  N13 ZIN A   1      18.764  -3.057  11.489  0.00  0.00    -0.250 NA
ATOM     13  C26 ZIN A   1      17.986  -2.726  10.287  0.00  0.00     0.118 C 
ATOM     14  C25 ZIN A   1      17.611  -4.017   9.553  0.00  0.00     0.140 C 
ATOM     15  N16 ZIN A   1      18.838  -4.789   9.307  0.00  0.00    -0.348 N 
ATOM     16  C15 ZIN A   1      19.739  -5.044  10.441  0.00  0.00     0.140 C 
ATOM     17  C17 ZIN A   1      19.131  -5.249   8.074  0.00  0.00     0.248 C 
ATOM     18  C14 ZIN A   1      20.032  -3.712  11.140  0.00  0.00     0.118 C 
ATOM     19  O18 ZIN A   1      20.185  -5.813   7.872  0.00  0.00    -0.270 OA
BRANCH  17  20
ATOM     20  C19 ZIN A   1      18.146  -5.065   6.948  0.00  0.00     0.213 C 
ATOM     21  O24 ZIN A   1      17.900  -6.318   6.291  0.00  0.00    -0.376 OA
ATOM     22  C23 ZIN A   1      17.742  -6.106   4.882  0.00  0.00     0.168 C 
ATOM     23  C22 ZIN A   1      17.940  -4.600   4.610  0.00  0.00     0.029 C 
ATOM     24  C21 ZIN A   1      18.746  -4.143   5.855  0.00  0.00     0.043 C 
ENDBRANCH  17  20
ENDBRANCH   7  12
BRANCH   5  25
ATOM     25  N10 ZIN A   1      20.754   1.160  11.932  0.00  0.00    -0.383 N 
ATOM     26  H38 ZIN A   1      20.415   1.704  11.205  0.00  0.00     0.157 HD
ATOM     27  H39 ZIN A   1      21.642   1.325  12.288  0.00  0.00     0.157 HD
ENDBRANCH   5  25
BRANCH   1  28
ATOM     28  O2  ZIN A   1      17.755   0.498  17.534  0.00  0.00    -0.353 OA
ATOM     29  C1  ZIN A   1      18.541   0.007  18.620  0.00  0.00     0.210 C 
ENDBRANCH   1  28
BRANCH   2  30
ATOM     30  O5  ZIN A   1      19.287   2.564  16.572  0.00  0.00    -0.353 OA
ATOM     31  C6  ZIN A   1      18.576   3.752  16.215  0.00  0.00     0.210 C 
ENDBRANCH   2  30
TORSDOF 5
ENDMDL
MODEL 4
REMARK VINA RESULT:      -7.7      2.506      9.488
REMARK  5 active torsions:
REMARK  status: ('A' for Active; 'I' for Inactive)
REMARK    1  A    between atoms: O2_2  and  C3_3 
REMARK    2  A    between atoms: C4_4  and  O5_5 
REMARK    3  A    between atoms: C9_9  and  N10_10 
REMARK    4  A    between atoms: C12_12  and  N13_13 
REMARK       I    between atoms: N16_16  and  C17_17 
REMARK    5  A    between atoms: C17_17  and  C19_19 
ROOT
ATOM      1  C3  ZIN A   1      19.270  -2.113   5.796  0.00  0.00     0.103 A 
ATOM      2  C4  ZIN A   1      18.731  -3.406   5.757  0.00  0.00     0.102 A 
ATOM      3  C7  ZIN A   1      18.478  -4.091   6.912  0.00  0.00     0.057 A 
ATOM      4  C8  ZIN A   1      18.761  -3.497   8.148  0.00  0.00     0.039 A 
ATOM      5  C9  ZIN A   1      18.518  -4.167   9.372  0.00  0.00     0.137 A 
ATOM      6  N11 ZIN A   1      18.812  -3.540  10.502  0.00  0.00    -0.202 NA
ATOM      7  C12 ZIN A   1      19.322  -2.312  10.501  0.00  0.00     0.184 A 
ATOM      8  N27 ZIN A   1      19.569  -1.642   9.392  0.00  0.00    -0.330 N 
ATOM      9  H28 ZIN A   1      19.943  -0.748   9.441  0.00  0.00     0.168 HD
ATOM     10  C29 ZIN A   1      19.306  -2.190   8.194  0.00  0.00     0.051 A 
ATOM     11  C30 ZIN A   1      19.562  -1.509   6.999  0.00  0.00     0.070 A 
ENDROOT
BRANCH   7  12
ATOM     12  N13 ZIN A   1      19.608  -1.711  11.715  0.00  0.00    -0.250 NA
ATOM     13  C26 ZIN A   1      19.721  -0.254  11.567  0.00  0.00     0.118 C 
ATOM     14  C25 ZIN A   1      20.213   0.354  12.885  0.00  0.00     0.140 C 
ATOM     15  N16 ZIN A   1      19.324  -0.095  13.967  0.00  0.00    -0.348 N 
ATOM     16  C15 ZIN A   1      19.052  -1.535  14.093  0.00  0.00     0.140 C 
ATOM     17  C17 ZIN A   1      18.771   0.791  14.820  0.00  0.00     0.248 C 
ATOM     18  C14 ZIN A   1      18.605  -2.068  12.728  0.00  0.00     0.118 C 
ATOM     19  O18 ZIN A   1      17.977   0.413  15.655  0.00  0.00    -0.270 OA
BRANCH  17  20
ATOM     20  C19 ZIN A   1      19.141   2.249  14.737  0.00  0.00     0.213 C 
ATOM     21  O24 ZIN A   1      19.448   2.761  16.043  0.00  0.00    -0.376 OA
ATOM     22  C23 ZIN A   1      18.975   4.109  16.161  0.00  0.00     0.168 C 
ATOM     23  C22 ZIN A   1      18.277   4.478  14.836  0.00  0.00     0.029 C 
ATOM     24  C21 ZIN A   1      17.931   3.084  14.246  0.00  0.00     0.043 C 
ENDBRANCH  17  20
ENDBRANCH   7  12
BRANCH   5  25
ATOM     25  N10 ZIN A   1      17.989  -5.440   9.387  0.00  0.00    -0.383 N 
ATOM     26  H38 ZIN A   1      17.038  -5.569   9.526  0.00  0.00     0.157 HD
ATOM     27  H39 ZIN A   1      18.568  -6.208   9.259  0.00  0.00     0.157 HD
ENDBRANCH   5  25
BRANCH   1  28
ATOM     28  O2  ZIN A   1      19.514  -1.452   4.635  0.00  0.00    -0.353 OA
ATOM     29  C1  ZIN A   1      19.009  -0.120   4.529  0.00  0.00     0.210 C 
ENDBRANCH   1  28
BRANCH   2  30
ATOM     30  O5  ZIN A   1      18.455  -3.984   4.558  0.00  0.00    -0.353 OA
ATOM     31  C6  ZIN A   1      17.124  -3.839   4.058  0.00  0.00     0.210 C 
ENDBRANCH   2  30
TORSDOF 5
ENDMDL
MODEL 5
REMARK VINA RESULT:      -7.6      3.148      5.487
REMARK  5 active torsions:
REMARK  status: ('A' for Active; 'I' for Inactive)
REMARK    1  A    between atoms: O2_2  and  C3_3 
REMARK    2  A    between atoms: C4_4  and  O5_5 
REMARK    3  A    between atoms: C9_9  and  N10_10 
REMARK    4  A    between atoms: C12_12  and  N13_13 
REMARK       I    between atoms: N16_16  and  C17_17 
REMARK    5  A    between atoms: C17_17  and  C19_19 
ROOT
ATOM      1  C3  ZIN A   1      19.244   1.990  17.167  0.00  0.00     0.103 A 
ATOM      2  C4  ZIN A   1      18.694   3.274  17.276  0.00  0.00     0.102 A 
ATOM      3  C7  ZIN A   1      18.405   4.007  16.159  0.00  0.00     0.057 A 
ATOM      4  C8  ZIN A   1      18.662   3.471  14.892  0.00  0.00     0.039 A 
ATOM      5  C9  ZIN A   1      18.381   4.191  13.705  0.00  0.00     0.137 A 
ATOM      6  N11 ZIN A   1      18.652   3.617  12.542  0.00  0.00    -0.202 NA
ATOM      7  C12 ZIN A   1      19.174   2.396  12.476  0.00  0.00     0.184 A 
ATOM      8  N27 ZIN A   1      19.455   1.681  13.547  0.00  0.00    -0.330 N 
ATOM      9  H28 ZIN A   1      19.836   0.794  13.449  0.00  0.00     0.168 HD
ATOM     10  C29 ZIN A   1      19.217   2.173  14.774  0.00  0.00     0.051 A 
ATOM     11  C30 ZIN A   1      19.511   1.442  15.931  0.00  0.00     0.070 A 
ENDROOT
BRANCH   7  12
ATOM     12  N13 ZIN A   1      19.434   1.852  11.230  0.00  0.00    -0.250 NA
ATOM     13  C26 ZIN A   1      19.695   0.410  11.329  0.00  0.00     0.118 C 
ATOM     14  C25 ZIN A   1      20.154  -0.118   9.966  0.00  0.00     0.140 C 
ATOM     15  N16 ZIN A   1      19.156   0.266   8.956  0.00  0.00    -0.348 N 
ATOM     16  C15 ZIN A   1      18.740   1.674   8.888  0.00  0.00     0.140 C 
ATOM     17  C17 ZIN A   1      18.635  -0.651   8.116  0.00  0.00     0.248 C 
ATOM     18  C14 ZIN A   1      18.336   2.132  10.293  0.00  0.00     0.118 C 
ATOM     19  O18 ZIN A   1      17.754  -0.334   7.345  0.00  0.00    -0.270 OA
BRANCH  17  20
ATOM     20  C19 ZIN A   1      19.148  -2.068   8.134  0.00  0.00     0.213 C 
ATOM     21  O24 ZIN A   1      19.565  -2.464   6.818  0.00  0.00    -0.376 OA
ATOM     22  C23 ZIN A   1      19.238  -3.843   6.598  0.00  0.00     0.168 C 
ATOM     23  C22 ZIN A   1      18.520  -4.361   7.862  0.00  0.00     0.029 C 
ATOM     24  C21 ZIN A   1      18.007  -3.047   8.512  0.00  0.00     0.043 C 
ENDBRANCH  17  20
ENDBRANCH   7  12
BRANCH   5  25
ATOM     25  N10 ZIN A   1      17.840   5.458  13.760  0.00  0.00    -0.383 N 
ATOM     26  H38 ZIN A   1      17.215   5.689  14.464  0.00  0.00     0.157 HD
ATOM     27  H39 ZIN A   1      18.085   6.119  13.092  0.00  0.00     0.157 HD
ENDBRANCH   5  25
BRANCH   1  28
ATOM     28  O2  ZIN A   1      19.523   1.281  18.291  0.00  0.00    -0.353 OA
ATOM     29  C1  ZIN A   1      19.277  -0.126  18.248  0.00  0.00     0.210 C 
ENDBRANCH   1  28
BRANCH   2  30
ATOM     30  O5  ZIN A   1      18.443   3.796  18.507  0.00  0.00    -0.353 OA
ATOM     31  C6  ZIN A   1      17.222   4.520  18.668  0.00  0.00     0.210 C 
ENDBRANCH   2  30
TORSDOF 5
ENDMDL
MODEL 6
REMARK VINA RESULT:      -7.6      3.156      5.312
REMARK  5 active torsions:
REMARK  status: ('A' for Active; 'I' for Inactive)
REMARK    1  A    between atoms: O2_2  and  C3_3 
REMARK    2  A    between atoms: C4_4  and  O5_5 
REMARK    3  A    between atoms: C9_9  and  N10_10 
REMARK    4  A    between atoms: C12_12  and  N13_13 
REMARK       I    between atoms: N16_16  and  C17_17 
REMARK    5  A    between atoms: C17_17  and  C19_19 
ROOT
ATOM      1  C3  ZIN A   1      19.151   1.618  16.802  0.00  0.00     0.103 A 
ATOM      2  C4  ZIN A   1      18.943   2.995  16.643  0.00  0.00     0.102 A 
ATOM      3  C7  ZIN A   1      18.484   3.500  15.459  0.00  0.00     0.057 A 
ATOM      4  C8  ZIN A   1      18.218   2.634  14.392  0.00  0.00     0.039 A 
ATOM      5  C9  ZIN A   1      17.742   3.108  13.145  0.00  0.00     0.137 A 
ATOM      6  N11 ZIN A   1      17.514   2.227  12.182  0.00  0.00    -0.202 NA
ATOM      7  C12 ZIN A   1      17.721   0.927  12.369  0.00  0.00     0.184 A 
ATOM      8  N27 ZIN A   1      18.163   0.430  13.507  0.00  0.00    -0.330 N 
ATOM      9  H28 ZIN A   1      18.300  -0.526  13.595  0.00  0.00     0.168 HD
ATOM     10  C29 ZIN A   1      18.425   1.241  14.546  0.00  0.00     0.051 A 
ATOM     11  C30 ZIN A   1      18.902   0.746  15.765  0.00  0.00     0.070 A 
ENDROOT
BRANCH   7  12
ATOM     12  N13 ZIN A   1      17.464   0.057  11.322  0.00  0.00    -0.250 NA
ATOM     13  C26 ZIN A   1      17.481   0.764  10.034  0.00  0.00     0.118 C 
ATOM     14  C25 ZIN A   1      17.016  -0.187   8.927  0.00  0.00     0.140 C 
ATOM     15  N16 ZIN A   1      17.840  -1.404   8.980  0.00  0.00    -0.348 N 
ATOM     16  C15 ZIN A   1      17.983  -2.092  10.271  0.00  0.00     0.140 C 
ATOM     17  C17 ZIN A   1      18.450  -1.875   7.873  0.00  0.00     0.248 C 
ATOM     18  C14 ZIN A   1      18.410  -1.067  11.326  0.00  0.00     0.118 C 
ATOM     19  O18 ZIN A   1      19.191  -2.832   7.951  0.00  0.00    -0.270 OA
BRANCH  17  20
ATOM     20  C19 ZIN A   1      18.209  -1.213   6.541  0.00  0.00     0.213 C 
ATOM     21  O24 ZIN A   1      18.422  -2.150   5.474  0.00  0.00    -0.376 OA
ATOM     22  C23 ZIN A   1      19.028  -1.487   4.356  0.00  0.00     0.168 C 
ATOM     23  C22 ZIN A   1      19.256  -0.014   4.755  0.00  0.00     0.029 C 
ATOM     24  C21 ZIN A   1      19.246  -0.086   6.306  0.00  0.00     0.043 C 
ENDBRANCH  17  20
ENDBRANCH   7  12
BRANCH   5  25
ATOM     25  N10 ZIN A   1      17.522   4.454  12.939  0.00  0.00    -0.383 N 
ATOM     26  H38 ZIN A   1      16.621   4.782  12.800  0.00  0.00     0.157 HD
ATOM     27  H39 ZIN A   1      18.270   5.072  12.934  0.00  0.00     0.157 HD
ENDBRANCH   5  25
BRANCH   1  28
ATOM     28  O2  ZIN A   1      19.608   1.140  17.988  0.00  0.00    -0.353 OA
ATOM     29  C1  ZIN A   1      19.231  -0.192  18.339  0.00  0.00     0.210 C 
ENDBRANCH   1  28
BRANCH   2  30
ATOM     30  O5  ZIN A   1      19.201   3.838  17.679  0.00  0.00    -0.353 OA
ATOM     31  C6  ZIN A   1      18.125   4.106  18.581  0.00  0.00     0.210 C 
ENDBRANCH   2  30
TORSDOF 5
ENDMDL
MODEL 7
REMARK VINA RESULT:      -7.6      2.623      3.043
REMARK  5 active torsions:
REMARK  status: ('A' for Active; 'I' for Inactive)
REMARK    1  A    between atoms: O2_2  and  C3_3 
REMARK    2  A    between atoms: C4_4  and  O5_5 
REMARK    3  A    between atoms: C9_9  and  N10_10 
REMARK    4  A    between atoms: C12_12  and  N13_13 
REMARK       I    between atoms: N16_16  and  C17_17 
REMARK    5  A    between atoms: C17_17  and  C19_19 
ROOT
ATOM      1  C3  ZIN A   1      17.617   2.608  11.715  0.00  0.00     0.103 A 
ATOM      2  C4  ZIN A   1      18.100   2.427  13.018  0.00  0.00     0.102 A 
ATOM      3  C7  ZIN A   1      18.720   1.263  13.377  0.00  0.00     0.057 A 
ATOM      4  C8  ZIN A   1      18.875   0.240  12.434  0.00  0.00     0.039 A 
ATOM      5  C9  ZIN A   1      19.509  -0.985  12.758  0.00  0.00     0.137 A 
ATOM      6  N11 ZIN A   1      19.618  -1.906  11.812  0.00  0.00    -0.202 NA
ATOM      7  C12 ZIN A   1      19.148  -1.699  10.585  0.00  0.00     0.184 A 
ATOM      8  N27 ZIN A   1      18.549  -0.580  10.229  0.00  0.00    -0.330 N 
ATOM      9  H28 ZIN A   1      18.222  -0.475   9.322  0.00  0.00     0.168 HD
ATOM     10  C29 ZIN A   1      18.389   0.416  11.115  0.00  0.00     0.051 A 
ATOM     11  C30 ZIN A   1      17.752   1.614  10.771  0.00  0.00     0.070 A 
ENDROOT
BRANCH   7  12
ATOM     12  N13 ZIN A   1      19.293  -2.702   9.642  0.00  0.00    -0.250 NA
ATOM     13  C26 ZIN A   1      18.839  -3.994  10.173  0.00  0.00     0.118 C 
ATOM     14  C25 ZIN A   1      19.182  -5.103   9.173  0.00  0.00     0.140 C 
ATOM     15  N16 ZIN A   1      18.623  -4.739   7.862  0.00  0.00    -0.348 N 
ATOM     16  C15 ZIN A   1      18.922  -3.403   7.325  0.00  0.00     0.140 C 
ATOM     17  C17 ZIN A   1      17.855  -5.607   7.172  0.00  0.00     0.248 C 
ATOM     18  C14 ZIN A   1      18.589  -2.361   8.397  0.00  0.00     0.118 C 
ATOM     19  O18 ZIN A   1      17.336  -5.261   6.132  0.00  0.00    -0.270 OA
BRANCH  17  20
ATOM     20  C19 ZIN A   1      17.645  -7.005   7.693  0.00  0.00     0.213 C 
ATOM     21  O24 ZIN A   1      18.127  -7.968   6.743  0.00  0.00    -0.376 OA
ATOM     22  C23 ZIN A   1      17.268  -9.116   6.734  0.00  0.00     0.168 C 
ATOM     23  C22 ZIN A   1      16.121  -8.850   7.732  0.00  0.00     0.029 C 
ATOM     24  C21 ZIN A   1      16.130  -7.301   7.839  0.00  0.00     0.043 C 
ENDBRANCH  17  20
ENDBRANCH   7  12
BRANCH   5  25
ATOM     25  N10 ZIN A   1      20.001  -1.211  14.026  0.00  0.00    -0.383 N 
ATOM     26  H38 ZIN A   1      19.471  -0.973  14.802  0.00  0.00     0.157 HD
ATOM     27  H39 ZIN A   1      20.878  -1.610  14.141  0.00  0.00     0.157 HD
ENDBRANCH   5  25
BRANCH   1  28
ATOM     28  O2  ZIN A   1      17.003   3.773  11.382  0.00  0.00    -0.353 OA
ATOM     29  C1  ZIN A   1      17.633   4.575  10.382  0.00  0.00     0.210 C 
ENDBRANCH   1  28
BRANCH   2  30
ATOM     30  O5  ZIN A   1      17.951   3.420  13.935  0.00  0.00    -0.353 OA
ATOM     31  C6  ZIN A   1      19.081   4.262  14.169  0.00  0.00     0.210 C 
ENDBRANCH   2  30
TORSDOF 5
ENDMDL
MODEL 8
REMARK VINA RESULT:      -7.5      3.035      4.030
REMARK  5 active torsions:
REMARK  status: ('A' for Active; 'I' for Inactive)
REMARK    1  A    between atoms: O2_2  and  C3_3 
REMARK    2  A    between atoms: C4_4  and  O5_5 
REMARK    3  A    between atoms: C9_9  and  N10_10 
REMARK    4  A    between atoms: C12_12  and  N13_13 
REMARK       I    between atoms: N16_16  and  C17_17 
REMARK    5  A    between atoms: C17_17  and  C19_19 
ROOT
ATOM      1  C3  ZIN A   1      19.053  -0.593  14.959  0.00  0.00     0.103 A 
ATOM      2  C4  ZIN A   1      19.250   0.742  14.582  0.00  0.00     0.102 A 
ATOM      3  C7  ZIN A   1      19.429   1.078  13.269  0.00  0.00     0.057 A 
ATOM      4  C8  ZIN A   1      19.415   0.079  12.289  0.00  0.00     0.039 A 
ATOM      5  C9  ZIN A   1      19.596   0.375  10.916  0.00  0.00     0.137 A 
ATOM      6  N11 ZIN A   1      19.571  -0.625  10.047  0.00  0.00    -0.202 NA
ATOM      7  C12 ZIN A   1      19.381  -1.881  10.441  0.00  0.00     0.184 A 
ATOM      8  N27 ZIN A   1      19.208  -2.214  11.705  0.00  0.00    -0.330 N 
ATOM      9  H28 ZIN A   1      19.073  -3.145  11.944  0.00  0.00     0.168 HD
ATOM     10  C29 ZIN A   1      19.216  -1.274  12.663  0.00  0.00     0.051 A 
ATOM     11  C30 ZIN A   1      19.041  -1.595  14.014  0.00  0.00     0.070 A 
ENDROOT
BRANCH   7  12
ATOM     12  N13 ZIN A   1      19.366  -2.881   9.484  0.00  0.00    -0.250 NA
ATOM     13  C26 ZIN A   1      19.009  -4.175  10.080  0.00  0.00     0.118 C 
ATOM     14  C25 ZIN A   1      19.178  -5.281   9.033  0.00  0.00     0.140 C 
ATOM     15  N16 ZIN A   1      18.407  -4.913   7.836  0.00  0.00    -0.348 N 
ATOM     16  C15 ZIN A   1      18.610  -3.576   7.261  0.00  0.00     0.140 C 
ATOM     17  C17 ZIN A   1      17.535  -5.780   7.283  0.00  0.00     0.248 C 
ATOM     18  C14 ZIN A   1      18.462  -2.537   8.377  0.00  0.00     0.118 C 
ATOM     19  O18 ZIN A   1      16.848  -5.432   6.346  0.00  0.00    -0.270 OA
BRANCH  17  20
ATOM     20  C19 ZIN A   1      17.415  -7.180   7.827  0.00  0.00     0.213 C 
ATOM     21  O24 ZIN A   1      18.094  -8.109   6.967  0.00  0.00    -0.376 OA
ATOM     22  C23 ZIN A   1      17.364  -9.342   6.909  0.00  0.00     0.168 C 
ATOM     23  C22 ZIN A   1      16.096  -9.176   7.772  0.00  0.00     0.029 C 
ATOM     24  C21 ZIN A   1      15.933  -7.632   7.825  0.00  0.00     0.043 C 
ENDBRANCH  17  20
ENDBRANCH   7  12
BRANCH   5  25
ATOM     25  N10 ZIN A   1      19.794   1.673  10.495  0.00  0.00    -0.383 N 
ATOM     26  H38 ZIN A   1      19.527   1.939   9.602  0.00  0.00     0.157 HD
ATOM     27  H39 ZIN A   1      20.200   2.320  11.093  0.00  0.00     0.157 HD
ENDBRANCH   5  25
BRANCH   1  28
ATOM     28  O2  ZIN A   1      18.879  -0.902  16.269  0.00  0.00    -0.353 OA
ATOM     29  C1  ZIN A   1      17.534  -0.991  16.742  0.00  0.00     0.210 C 
ENDBRANCH   1  28
BRANCH   2  30
ATOM     30  O5  ZIN A   1      19.263   1.715  15.532  0.00  0.00    -0.353 OA
ATOM     31  C6  ZIN A   1      18.562   2.924  15.233  0.00  0.00     0.210 C 
ENDBRANCH   2  30
TORSDOF 5
ENDMDL
MODEL 9
REMARK VINA RESULT:      -7.5      3.454      5.216
REMARK  5 active torsions:
REMARK  status: ('A' for Active; 'I' for Inactive)
REMARK    1  A    between atoms: O2_2  and  C3_3 
REMARK    2  A    between atoms: C4_4  and  O5_5 
REMARK    3  A    between atoms: C9_9  and  N10_10 
REMARK    4  A    between atoms: C12_12  and  N13_13 
REMARK       I    between atoms: N16_16  and  C17_17 
REMARK    5  A    between atoms: C17_17  and  C19_19 
ROOT
ATOM      1  C3  ZIN A   1      18.987   3.399  15.805  0.00  0.00     0.103 A 
ATOM      2  C4  ZIN A   1      19.239   2.553  16.893  0.00  0.00     0.102 A 
ATOM      3  C7  ZIN A   1      19.154   1.195  16.756  0.00  0.00     0.057 A 
ATOM      4  C8  ZIN A   1      18.810   0.643  15.516  0.00  0.00     0.039 A 
ATOM      5  C9  ZIN A   1      18.708  -0.756  15.324  0.00  0.00     0.137 A 
ATOM      6  N11 ZIN A   1      18.377  -1.204  14.122  0.00  0.00    -0.202 NA
ATOM      7  C12 ZIN A   1      18.145  -0.371  13.111  0.00  0.00     0.184 A 
ATOM      8  N27 ZIN A   1      18.226   0.940  13.233  0.00  0.00    -0.330 N 
ATOM      9  H28 ZIN A   1      18.047   1.507  12.467  0.00  0.00     0.168 HD
ATOM     10  C29 ZIN A   1      18.554   1.493  14.412  0.00  0.00     0.051 A 
ATOM     11  C30 ZIN A   1      18.642   2.880  14.576  0.00  0.00     0.070 A 
ENDROOT
BRANCH   7  12
ATOM     12  N13 ZIN A   1      17.804  -0.902  11.879  0.00  0.00    -0.250 NA
ATOM     13  C26 ZIN A   1      17.769   0.144  10.847  0.00  0.00     0.118 C 
ATOM     14  C25 ZIN A   1      17.215  -0.446   9.546  0.00  0.00     0.140 C 
ATOM     15  N16 ZIN A   1      18.005  -1.637   9.199  0.00  0.00    -0.348 N 
ATOM     16  C15 ZIN A   1      18.200  -2.668  10.229  0.00  0.00     0.140 C 
ATOM     17  C17 ZIN A   1      18.537  -1.780   7.969  0.00  0.00     0.248 C 
ATOM     18  C14 ZIN A   1      18.716  -1.991  11.504  0.00  0.00     0.118 C 
ATOM     19  O18 ZIN A   1      19.253  -2.728   7.724  0.00  0.00    -0.270 OA
BRANCH  17  20
ATOM     20  C19 ZIN A   1      18.242  -0.762   6.897  0.00  0.00     0.213 C 
ATOM     21  O24 ZIN A   1      18.435  -1.338   5.596  0.00  0.00    -0.376 OA
ATOM     22  C23 ZIN A   1      18.993  -0.360   4.708  0.00  0.00     0.168 C 
ATOM     23  C22 ZIN A   1      19.209   0.936   5.517  0.00  0.00     0.029 C 
ATOM     24  C21 ZIN A   1      19.252   0.411   6.977  0.00  0.00     0.043 C 
ENDBRANCH  17  20
ENDBRANCH   7  12
BRANCH   5  25
ATOM     25  N10 ZIN A   1      18.946  -1.631  16.363  0.00  0.00    -0.383 N 
ATOM     26  H38 ZIN A   1      18.660  -1.406  17.262  0.00  0.00     0.157 HD
ATOM     27  H39 ZIN A   1      19.401  -2.472  16.195  0.00  0.00     0.157 HD
ENDBRANCH   5  25
BRANCH   1  28
ATOM     28  O2  ZIN A   1      19.077   4.744  15.965  0.00  0.00    -0.353 OA
ATOM     29  C1  ZIN A   1      20.323   5.356  15.628  0.00  0.00     0.210 C 
ENDBRANCH   1  28
BRANCH   2  30
ATOM     30  O5  ZIN A   1      19.573   3.087  18.098  0.00  0.00    -0.353 OA
ATOM     31  C6  ZIN A   1      18.513   3.293  19.033  0.00  0.00     0.210 C 
ENDBRANCH   2  30
TORSDOF 5
ENDMDL
