MODEL 1
REMARK VINA RESULT:      -7.3      0.000      0.000
REMARK  4 active torsions:
REMARK  status: ('A' for Active; 'I' for Inactive)
REMARK    1  A    between atoms: C2_2  and  C3_3 
REMARK    2  A    between atoms: C3_3  and  N4_4 
REMARK    3  A    between atoms: C9_9  and  C11_10 
REMARK       I    between atoms: C11_10  and  N13_12 
REMARK    4  A    between atoms: N13_12  and  C14_13 
ROOT
ATOM      1  C11 ZIN A   1      17.658   0.864  11.697  0.00  0.00     0.255 C 
ATOM      2  O12 ZIN A   1      16.578   0.748  12.236  0.00  0.00    -0.271 OA
ATOM      3  N13 ZIN A   1      18.789   0.693  12.410  0.00  0.00    -0.324 N 
ATOM      4  H37 ZIN A   1      19.651   0.864  12.000  0.00  0.00     0.169 HD
ENDROOT
BRANCH   1   5
ATOM      5  C9  ZIN A   1      17.736   1.203  10.231  0.00  0.00     0.314 C 
ATOM      6  N4  ZIN A   1      18.831   2.155  10.006  0.00  0.00     0.102 N 
ATOM      7  C5  ZIN A   1      18.916   2.545   8.593  0.00  0.00     0.273 C 
ATOM      8  C6  ZIN A   1      19.209   1.310   7.739  0.00  0.00     0.030 C 
ATOM      9  C7  ZIN A   1      18.093   0.280   7.939  0.00  0.00     0.004 C 
ATOM     10  C8  ZIN A   1      17.995  -0.072   9.425  0.00  0.00     0.046 C 
BRANCH   6  11
ATOM     11  C3  ZIN A   1      18.689   3.334  10.870  0.00  0.00     0.273 C 
BRANCH  11  12
ATOM     12  C2  ZIN A   1      17.767   4.353  10.196  0.00  0.00     0.026 C 
ATOM     13  C1  ZIN A   1      16.741   4.864  11.210  0.00  0.00     0.007 C 
ENDBRANCH  11  12
ENDBRANCH   6  11
ENDBRANCH   1   5
BRANCH   3  14
ATOM     14  C14 ZIN A   1      18.719   0.267  13.741  0.00  0.00     0.046 A 
ATOM     15  C20 ZIN A   1      18.679   1.199  14.769  0.00  0.00    -0.035 A 
ATOM     16  C19 ZIN A   1      18.603   0.775  16.081  0.00  0.00     0.009 A 
ATOM     17  C21 ZIN A   1      18.701   2.672  14.453  0.00  0.00     0.050 C 
ATOM     18  C18 ZIN A   1      18.581  -0.577  16.373  0.00  0.00     0.001 A 
ATOM     19  C17 ZIN A   1      18.629  -1.508  15.351  0.00  0.00     0.009 A 
ATOM     20  C15 ZIN A   1      18.696  -1.090  14.037  0.00  0.00    -0.035 A 
ATOM     21  C16 ZIN A   1      18.748  -2.106  12.924  0.00  0.00     0.050 C 
ENDBRANCH   3  14
TORSDOF 4
ENDMDL
MODEL 2
REMARK VINA RESULT:      -7.3      0.036      1.916
REMARK  4 active torsions:
REMARK  status: ('A' for Active; 'I' for Inactive)
REMARK    1  A    between atoms: C2_2  and  C3_3 
REMARK    2  A    between atoms: C3_3  and  N4_4 
REMARK    3  A    between atoms: C9_9  and  C11_10 
REMARK       I    between atoms: C11_10  and  N13_12 
REMARK    4  A    between atoms: N13_12  and  C14_13 
ROOT
ATOM      1  C11 ZIN A   1      17.662   0.858  11.685  0.00  0.00     0.255 C 
ATOM      2  O12 ZIN A   1      16.585   0.752  12.230  0.00  0.00    -0.271 OA
ATOM      3  N13 ZIN A   1      18.796   0.683  12.392  0.00  0.00    -0.324 N 
ATOM      4  H37 ZIN A   1      19.657   0.847  11.977  0.00  0.00     0.169 HD
ENDROOT
BRANCH   1   5
ATOM      5  C9  ZIN A   1      17.735   1.189  10.216  0.00  0.00     0.314 C 
ATOM      6  N4  ZIN A   1      18.839   2.127   9.980  0.00  0.00     0.102 N 
ATOM      7  C5  ZIN A   1      18.919   2.509   8.564  0.00  0.00     0.273 C 
ATOM      8  C6  ZIN A   1      19.192   1.266   7.715  0.00  0.00     0.030 C 
ATOM      9  C7  ZIN A   1      18.066   0.250   7.927  0.00  0.00     0.004 C 
ATOM     10  C8  ZIN A   1      17.974  -0.093   9.415  0.00  0.00     0.046 C 
BRANCH   6  11
ATOM     11  C3  ZIN A   1      18.715   3.312  10.838  0.00  0.00     0.273 C 
BRANCH  11  12
ATOM     12  C2  ZIN A   1      17.804   4.339  10.163  0.00  0.00     0.026 C 
ATOM     13  C1  ZIN A   1      16.792   4.873  11.180  0.00  0.00     0.007 C 
ENDBRANCH  11  12
ENDBRANCH   6  11
ENDBRANCH   1   5
BRANCH   3  14
ATOM     14  C14 ZIN A   1      18.730   0.265  13.726  0.00  0.00     0.046 A 
ATOM     15  C20 ZIN A   1      18.689  -1.089  14.030  0.00  0.00    -0.035 A 
ATOM     16  C19 ZIN A   1      18.631  -1.499  15.347  0.00  0.00     0.009 A 
ATOM     17  C21 ZIN A   1      18.721  -2.112  12.922  0.00  0.00     0.050 C 
ATOM     18  C18 ZIN A   1      18.602  -0.562  16.364  0.00  0.00     0.001 A 
ATOM     19  C17 ZIN A   1      18.636   0.788  16.064  0.00  0.00     0.009 A 
ATOM     20  C15 ZIN A   1      18.702   1.204  14.749  0.00  0.00    -0.035 A 
ATOM     21  C16 ZIN A   1      18.740   2.675  14.424  0.00  0.00     0.050 C 
ENDBRANCH   3  14
TORSDOF 4
ENDMDL
MODEL 3
REMARK VINA RESULT:      -7.2      1.682      5.719
REMARK  4 active torsions:
REMARK  status: ('A' for Active; 'I' for Inactive)
REMARK    1  A    between atoms: C2_2  and  C3_3 
REMARK    2  A    between atoms: C3_3  and  N4_4 
REMARK    3  A    between atoms: C9_9  and  C11_10 
REMARK       I    between atoms: C11_10  and  N13_12 
REMARK    4  A    between atoms: N13_12  and  C14_13 
ROOT
ATOM      1  C11 ZIN A   1      19.548   0.531  13.132  0.00  0.00     0.255 C 
ATOM      2  O12 ZIN A   1      20.679   0.793  12.782  0.00  0.00    -0.271 OA
ATOM      3  N13 ZIN A   1      18.536   0.599  12.245  0.00  0.00    -0.324 N 
ATOM      4  H37 ZIN A   1      17.622   0.469  12.542  0.00  0.00     0.169 HD
ENDROOT
BRANCH   1   5
ATOM      5  C9  ZIN A   1      19.274   0.131  14.559  0.00  0.00     0.314 C 
ATOM      6  N4  ZIN A   1      18.373   1.113  15.177  0.00  0.00     0.102 N 
ATOM      7  C5  ZIN A   1      18.112   0.783  16.584  0.00  0.00     0.273 C 
ATOM      8  C6  ZIN A   1      17.423  -0.580  16.670  0.00  0.00     0.030 C 
ATOM      9  C7  ZIN A   1      18.324  -1.644  16.036  0.00  0.00     0.004 C 
ATOM     10  C8  ZIN A   1      18.619  -1.251  14.586  0.00  0.00     0.046 C 
BRANCH   6  11
ATOM     11  C3  ZIN A   1      18.907   2.474  15.045  0.00  0.00     0.273 C 
BRANCH  11  12
ATOM     12  C2  ZIN A   1      19.477   2.931  16.390  0.00  0.00     0.026 C 
ATOM     13  C1  ZIN A   1      19.841   4.415  16.313  0.00  0.00     0.007 C 
ENDBRANCH  11  12
ENDBRANCH   6  11
ENDBRANCH   1   5
BRANCH   3  14
ATOM     14  C14 ZIN A   1      18.804   0.858  10.896  0.00  0.00     0.046 A 
ATOM     15  C20 ZIN A   1      18.695   2.149  10.400  0.00  0.00    -0.035 A 
ATOM     16  C19 ZIN A   1      18.966   2.402   9.070  0.00  0.00     0.009 A 
ATOM     17  C21 ZIN A   1      18.295   3.278  11.316  0.00  0.00     0.050 C 
ATOM     18  C18 ZIN A   1      19.334   1.367   8.228  0.00  0.00     0.001 A 
ATOM     19  C17 ZIN A   1      19.436   0.078   8.718  0.00  0.00     0.009 A 
ATOM     20  C15 ZIN A   1      19.174  -0.179  10.049  0.00  0.00    -0.035 A 
ATOM     21  C16 ZIN A   1      19.286  -1.585  10.582  0.00  0.00     0.050 C 
ENDBRANCH   3  14
TORSDOF 4
ENDMDL
MODEL 4
REMARK VINA RESULT:      -7.2      1.690      6.024
REMARK  4 active torsions:
REMARK  status: ('A' for Active; 'I' for Inactive)
REMARK    1  A    between atoms: C2_2  and  C3_3 
REMARK    2  A    between atoms: C3_3  and  N4_4 
REMARK    3  A    between atoms: C9_9  and  C11_10 
REMARK       I    between atoms: C11_10  and  N13_12 
REMARK    4  A    between atoms: N13_12  and  C14_13 
ROOT
ATOM      1  C11 ZIN A   1      19.563   0.540  13.159  0.00  0.00     0.255 C 
ATOM      2  O12 ZIN A   1      20.699   0.783  12.809  0.00  0.00    -0.271 OA
ATOM      3  N13 ZIN A   1      18.553   0.626  12.272  0.00  0.00    -0.324 N 
ATOM      4  H37 ZIN A   1      17.636   0.511  12.568  0.00  0.00     0.169 HD
ENDROOT
BRANCH   1   5
ATOM      5  C9  ZIN A   1      19.282   0.146  14.586  0.00  0.00     0.314 C 
ATOM      6  N4  ZIN A   1      18.373   1.126  15.194  0.00  0.00     0.102 N 
ATOM      7  C5  ZIN A   1      18.105   0.802  16.600  0.00  0.00     0.273 C 
ATOM      8  C6  ZIN A   1      17.422  -0.564  16.689  0.00  0.00     0.030 C 
ATOM      9  C7  ZIN A   1      18.331  -1.626  16.065  0.00  0.00     0.004 C 
ATOM     10  C8  ZIN A   1      18.633  -1.239  14.615  0.00  0.00     0.046 C 
BRANCH   6  11
ATOM     11  C3  ZIN A   1      18.903   2.489  15.059  0.00  0.00     0.273 C 
BRANCH  11  12
ATOM     12  C2  ZIN A   1      19.485   2.946  16.398  0.00  0.00     0.026 C 
ATOM     13  C1  ZIN A   1      19.771   4.448  16.347  0.00  0.00     0.007 C 
ENDBRANCH  11  12
ENDBRANCH   6  11
ENDBRANCH   1   5
BRANCH   3  14
ATOM     14  C14 ZIN A   1      18.825   0.879  10.922  0.00  0.00     0.046 A 
ATOM     15  C20 ZIN A   1      19.172  -0.164  10.075  0.00  0.00    -0.035 A 
ATOM     16  C19 ZIN A   1      19.433   0.088   8.742  0.00  0.00     0.009 A 
ATOM     17  C21 ZIN A   1      19.248  -1.573  10.604  0.00  0.00     0.050 C 
ATOM     18  C18 ZIN A   1      19.362   1.381   8.255  0.00  0.00     0.001 A 
ATOM     19  C17 ZIN A   1      19.024   2.423   9.099  0.00  0.00     0.009 A 
ATOM     20  C15 ZIN A   1      18.754   2.176  10.430  0.00  0.00    -0.035 A 
ATOM     21  C16 ZIN A   1      18.385   3.312  11.349  0.00  0.00     0.050 C 
ENDBRANCH   3  14
TORSDOF 4
ENDMDL
MODEL 5
REMARK VINA RESULT:      -7.1      1.560      5.986
REMARK  4 active torsions:
REMARK  status: ('A' for Active; 'I' for Inactive)
REMARK    1  A    between atoms: C2_2  and  C3_3 
REMARK    2  A    between atoms: C3_3  and  N4_4 
REMARK    3  A    between atoms: C9_9  and  C11_10 
REMARK       I    between atoms: C11_10  and  N13_12 
REMARK    4  A    between atoms: N13_12  and  C14_13 
ROOT
ATOM      1  C11 ZIN A   1      18.133   1.862  12.726  0.00  0.00     0.255 C 
ATOM      2  O12 ZIN A   1      17.171   1.295  12.255  0.00  0.00    -0.271 OA
ATOM      3  N13 ZIN A   1      19.237   2.051  11.977  0.00  0.00    -0.324 N 
ATOM      4  H37 ZIN A   1      20.035   2.432  12.377  0.00  0.00     0.169 HD
ENDROOT
BRANCH   1   5
ATOM      5  C9  ZIN A   1      18.096   2.353  14.151  0.00  0.00     0.314 C 
ATOM      6  N4  ZIN A   1      19.126   1.659  14.934  0.00  0.00     0.102 N 
ATOM      7  C5  ZIN A   1      19.096   2.079  16.341  0.00  0.00     0.273 C 
ATOM      8  C6  ZIN A   1      19.391   3.577  16.434  0.00  0.00     0.030 C 
ATOM      9  C7  ZIN A   1      18.342   4.350  15.629  0.00  0.00     0.004 C 
ATOM     10  C8  ZIN A   1      18.361   3.860  14.179  0.00  0.00     0.046 C 
BRANCH   6  11
ATOM     11  C3  ZIN A   1      18.984   0.202  14.816  0.00  0.00     0.273 C 
BRANCH  11  12
ATOM     12  C2  ZIN A   1      17.821  -0.271  15.690  0.00  0.00     0.026 C 
ATOM     13  C1  ZIN A   1      18.182  -1.605  16.346  0.00  0.00     0.007 C 
ENDBRANCH  11  12
ENDBRANCH   6  11
ENDBRANCH   1   5
BRANCH   3  14
ATOM     14  C14 ZIN A   1      19.233   1.700  10.622  0.00  0.00     0.046 A 
ATOM     15  C20 ZIN A   1      18.744   2.589   9.674  0.00  0.00    -0.035 A 
ATOM     16  C19 ZIN A   1      18.748   2.241   8.338  0.00  0.00     0.009 A 
ATOM     17  C21 ZIN A   1      18.225   3.938  10.102  0.00  0.00     0.050 C 
ATOM     18  C18 ZIN A   1      19.225   1.004   7.944  0.00  0.00     0.001 A 
ATOM     19  C17 ZIN A   1      19.705   0.114   8.888  0.00  0.00     0.009 A 
ATOM     20  C15 ZIN A   1      19.711   0.458  10.225  0.00  0.00    -0.035 A 
ATOM     21  C16 ZIN A   1      20.235  -0.513  11.252  0.00  0.00     0.050 C 
ENDBRANCH   3  14
TORSDOF 4
ENDMDL
MODEL 6
REMARK VINA RESULT:      -7.0      2.477      6.728
REMARK  4 active torsions:
REMARK  status: ('A' for Active; 'I' for Inactive)
REMARK    1  A    between atoms: C2_2  and  C3_3 
REMARK    2  A    between atoms: C3_3  and  N4_4 
REMARK    3  A    between atoms: C9_9  and  C11_10 
REMARK       I    between atoms: C11_10  and  N13_12 
REMARK    4  A    between atoms: N13_12  and  C14_13 
ROOT
ATOM      1  C11 ZIN A   1      18.816  -1.236   9.306  0.00  0.00     0.255 C 
ATOM      2  O12 ZIN A   1      17.645  -1.405   9.040  0.00  0.00    -0.271 OA
ATOM      3  N13 ZIN A   1      19.725  -1.143   8.316  0.00  0.00    -0.324 N 
ATOM      4  H37 ZIN A   1      20.670  -1.089   8.528  0.00  0.00     0.169 HD
ENDROOT
BRANCH   1   5
ATOM      5  C9  ZIN A   1      19.256  -1.131  10.744  0.00  0.00     0.314 C 
ATOM      6  N4  ZIN A   1      18.650   0.059  11.355  0.00  0.00     0.102 N 
ATOM      7  C5  ZIN A   1      19.086   0.222  12.747  0.00  0.00     0.273 C 
ATOM      8  C6  ZIN A   1      18.635  -0.987  13.569  0.00  0.00     0.030 C 
ATOM      9  C7  ZIN A   1      19.241  -2.259  12.971  0.00  0.00     0.004 C 
ATOM     10  C8  ZIN A   1      18.810  -2.380  11.507  0.00  0.00     0.046 C 
BRANCH   6  11
ATOM     11  C3  ZIN A   1      18.944   1.263  10.567  0.00  0.00     0.273 C 
BRANCH  11  12
ATOM     12  C2  ZIN A   1      17.739   2.205  10.605  0.00  0.00     0.026 C 
ATOM     13  C1  ZIN A   1      18.169   3.604  10.158  0.00  0.00     0.007 C 
ENDBRANCH  11  12
ENDBRANCH   6  11
ENDBRANCH   1   5
BRANCH   3  14
ATOM     14  C14 ZIN A   1      19.306  -1.125   6.980  0.00  0.00     0.046 A 
ATOM     15  C20 ZIN A   1      19.254  -2.305   6.251  0.00  0.00    -0.035 A 
ATOM     16  C19 ZIN A   1      18.833  -2.285   4.936  0.00  0.00     0.009 A 
ATOM     17  C21 ZIN A   1      19.640  -3.610   6.900  0.00  0.00     0.050 C 
ATOM     18  C18 ZIN A   1      18.477  -1.088   4.341  0.00  0.00     0.001 A 
ATOM     19  C17 ZIN A   1      18.536   0.090   5.062  0.00  0.00     0.009 A 
ATOM     20  C15 ZIN A   1      18.948   0.075   6.380  0.00  0.00    -0.035 A 
ATOM     21  C16 ZIN A   1      19.011   1.360   7.166  0.00  0.00     0.050 C 
ENDBRANCH   3  14
TORSDOF 4
ENDMDL
MODEL 7
REMARK VINA RESULT:      -7.0      3.112      5.901
REMARK  4 active torsions:
REMARK  status: ('A' for Active; 'I' for Inactive)
REMARK    1  A    between atoms: C2_2  and  C3_3 
REMARK    2  A    between atoms: C3_3  and  N4_4 
REMARK    3  A    between atoms: C9_9  and  C11_10 
REMARK       I    between atoms: C11_10  and  N13_12 
REMARK    4  A    between atoms: N13_12  and  C14_13 
ROOT
ATOM      1  C11 ZIN A   1      19.177  -1.263   8.948  0.00  0.00     0.255 C 
ATOM      2  O12 ZIN A   1      20.092  -0.963   9.685  0.00  0.00    -0.271 OA
ATOM      3  N13 ZIN A   1      18.089  -0.472   8.869  0.00  0.00    -0.324 N 
ATOM      4  H37 ZIN A   1      17.324  -0.751   8.342  0.00  0.00     0.169 HD
ENDROOT
BRANCH   1   5
ATOM      5  C9  ZIN A   1      19.255  -2.521   8.122  0.00  0.00     0.314 C 
ATOM      6  N4  ZIN A   1      18.130  -3.401   8.464  0.00  0.00     0.102 N 
ATOM      7  C5  ZIN A   1      18.191  -4.659   7.711  0.00  0.00     0.273 C 
ATOM      8  C6  ZIN A   1      18.095  -4.364   6.213  0.00  0.00     0.030 C 
ATOM      9  C7  ZIN A   1      19.250  -3.445   5.803  0.00  0.00     0.004 C 
ATOM     10  C8  ZIN A   1      19.190  -2.162   6.637  0.00  0.00     0.046 C 
BRANCH   6  11
ATOM     11  C3  ZIN A   1      18.080  -3.654   9.910  0.00  0.00     0.273 C 
BRANCH  11  12
ATOM     12  C2  ZIN A   1      19.178  -4.649  10.292  0.00  0.00     0.026 C 
ATOM     13  C1  ZIN A   1      20.009  -4.076  11.442  0.00  0.00     0.007 C 
ENDBRANCH  11  12
ENDBRANCH   6  11
ENDBRANCH   1   5
BRANCH   3  14
ATOM     14  C14 ZIN A   1      18.063   0.753   9.546  0.00  0.00     0.046 A 
ATOM     15  C20 ZIN A   1      18.575   1.893   8.941  0.00  0.00    -0.035 A 
ATOM     16  C19 ZIN A   1      18.542   3.101   9.609  0.00  0.00     0.009 A 
ATOM     17  C21 ZIN A   1      19.153   1.815   7.551  0.00  0.00     0.050 C 
ATOM     18  C18 ZIN A   1      18.012   3.174  10.884  0.00  0.00     0.001 A 
ATOM     19  C17 ZIN A   1      17.508   2.039  11.492  0.00  0.00     0.009 A 
ATOM     20  C15 ZIN A   1      17.531   0.829  10.826  0.00  0.00    -0.035 A 
ATOM     21  C16 ZIN A   1      16.981  -0.407  11.489  0.00  0.00     0.050 C 
ENDBRANCH   3  14
TORSDOF 4
ENDMDL
MODEL 8
REMARK VINA RESULT:      -7.0      1.613      5.983
REMARK  4 active torsions:
REMARK  status: ('A' for Active; 'I' for Inactive)
REMARK    1  A    between atoms: C2_2  and  C3_3 
REMARK    2  A    between atoms: C3_3  and  N4_4 
REMARK    3  A    between atoms: C9_9  and  C11_10 
REMARK       I    between atoms: C11_10  and  N13_12 
REMARK    4  A    between atoms: N13_12  and  C14_13 
ROOT
ATOM      1  C11 ZIN A   1      18.294  -0.148  10.905  0.00  0.00     0.255 C 
ATOM      2  O12 ZIN A   1      17.153  -0.237  10.506  0.00  0.00    -0.271 OA
ATOM      3  N13 ZIN A   1      19.316  -0.145  10.028  0.00  0.00    -0.324 N 
ATOM      4  H37 ZIN A   1      20.232  -0.156  10.349  0.00  0.00     0.169 HD
ENDROOT
BRANCH   1   5
ATOM      5  C9  ZIN A   1      18.570  -0.044  12.383  0.00  0.00     0.314 C 
ATOM      6  N4  ZIN A   1      17.699   0.981  12.972  0.00  0.00     0.102 N 
ATOM      7  C5  ZIN A   1      17.965   1.144  14.407  0.00  0.00     0.273 C 
ATOM      8  C6  ZIN A   1      17.672  -0.170  15.134  0.00  0.00     0.030 C 
ATOM      9  C7  ZIN A   1      18.556  -1.277  14.554  0.00  0.00     0.004 C 
ATOM     10  C8  ZIN A   1      18.294  -1.393  13.050  0.00  0.00     0.046 C 
BRANCH   6  11
ATOM     11  C3  ZIN A   1      17.837   2.259  12.262  0.00  0.00     0.273 C 
BRANCH  11  12
ATOM     12  C2  ZIN A   1      19.179   2.900  12.619  0.00  0.00     0.026 C 
ATOM     13  C1  ZIN A   1      19.204   4.347  12.123  0.00  0.00     0.007 C 
ENDBRANCH  11  12
ENDBRANCH   6  11
ENDBRANCH   1   5
BRANCH   3  14
ATOM     14  C14 ZIN A   1      19.058  -0.126   8.652  0.00  0.00     0.046 A 
ATOM     15  C20 ZIN A   1      18.912  -1.317   7.954  0.00  0.00    -0.035 A 
ATOM     16  C19 ZIN A   1      18.651  -1.294   6.599  0.00  0.00     0.009 A 
ATOM     17  C21 ZIN A   1      19.023  -2.634   8.679  0.00  0.00     0.050 C 
ATOM     18  C18 ZIN A   1      18.548  -0.086   5.933  0.00  0.00     0.001 A 
ATOM     19  C17 ZIN A   1      18.701   1.102   6.624  0.00  0.00     0.009 A 
ATOM     20  C15 ZIN A   1      18.954   1.086   7.981  0.00  0.00    -0.035 A 
ATOM     21  C16 ZIN A   1      19.120   2.382   8.733  0.00  0.00     0.050 C 
ENDBRANCH   3  14
TORSDOF 4
ENDMDL
MODEL 9
REMARK VINA RESULT:      -7.0      3.725      6.629
REMARK  4 active torsions:
REMARK  status: ('A' for Active; 'I' for Inactive)
REMARK    1  A    between atoms: C2_2  and  C3_3 
REMARK    2  A    between atoms: C3_3  and  N4_4 
REMARK    3  A    between atoms: C9_9  and  C11_10 
REMARK       I    between atoms: C11_10  and  N13_12 
REMARK    4  A    between atoms: N13_12  and  C14_13 
ROOT
ATOM      1  C11 ZIN A   1      18.327  -2.134   9.029  0.00  0.00     0.255 C 
ATOM      2  O12 ZIN A   1      19.316  -1.944   9.704  0.00  0.00    -0.271 OA
ATOM      3  N13 ZIN A   1      17.538  -1.098   8.684  0.00  0.00    -0.324 N 
ATOM      4  H37 ZIN A   1      16.705  -1.258   8.213  0.00  0.00     0.169 HD
ENDROOT
BRANCH   1   5
ATOM      5  C9  ZIN A   1      17.979  -3.529   8.577  0.00  0.00     0.314 C 
ATOM      6  N4  ZIN A   1      19.154  -4.146   7.948  0.00  0.00     0.102 N 
ATOM      7  C5  ZIN A   1      18.846  -5.495   7.456  0.00  0.00     0.273 C 
ATOM      8  C6  ZIN A   1      18.440  -6.388   8.629  0.00  0.00     0.030 C 
ATOM      9  C7  ZIN A   1      17.215  -5.785   9.323  0.00  0.00     0.004 C 
ATOM     10  C8  ZIN A   1      17.548  -4.364   9.785  0.00  0.00     0.046 C 
BRANCH   6  11
ATOM     11  C3  ZIN A   1      19.680  -3.299   6.871  0.00  0.00     0.273 C 
BRANCH  11  12
ATOM     12  C2  ZIN A   1      19.056  -3.719   5.539  0.00  0.00     0.026 C 
ATOM     13  C1  ZIN A   1      18.947  -2.502   4.618  0.00  0.00     0.007 C 
ENDBRANCH  11  12
ENDBRANCH   6  11
ENDBRANCH   1   5
BRANCH   3  14
ATOM     14  C14 ZIN A   1      17.920   0.210   9.004  0.00  0.00     0.046 A 
ATOM     15  C20 ZIN A   1      18.647   0.965   8.094  0.00  0.00    -0.035 A 
ATOM     16  C19 ZIN A   1      19.016   2.258   8.411  0.00  0.00     0.009 A 
ATOM     17  C21 ZIN A   1      19.020   0.380   6.756  0.00  0.00     0.050 C 
ATOM     18  C18 ZIN A   1      18.673   2.796   9.638  0.00  0.00     0.001 A 
ATOM     19  C17 ZIN A   1      17.955   2.043  10.549  0.00  0.00     0.009 A 
ATOM     20  C15 ZIN A   1      17.576   0.753  10.236  0.00  0.00    -0.035 A 
ATOM     21  C16 ZIN A   1      16.793  -0.066  11.229  0.00  0.00     0.050 C 
ENDBRANCH   3  14
TORSDOF 4
ENDMDL
