MODEL 1
REMARK VINA RESULT:      -7.3      0.000      0.000
REMARK  6 active torsions:
REMARK  status: ('A' for Active; 'I' for Inactive)
REMARK    1  A    between atoms: N2_2  and  C5_5 
REMARK    2  A    between atoms: C5_5  and  C6_6 
REMARK    3  A    between atoms: C6_6  and  C7_7 
REMARK    4  A    between atoms: C7_7  and  O8_8 
REMARK    5  A    between atoms: C7_7  and  C9_9 
REMARK    6  A    between atoms: C7_7  and  C15_15 
ROOT
ATOM      1  C7  ZIN A   1      20.039  -0.462  10.811  0.00  0.00     0.115 C 
ENDROOT
BRANCH   1   2
ATOM      2  C6  ZIN A   1      19.622   0.563  11.867  0.00  0.00     0.076 C 
BRANCH   2   3
ATOM      3  C5  ZIN A   1      20.453   0.357  13.135  0.00  0.00     0.237 C 
BRANCH   3   4
ATOM      4  N2  ZIN A   1      19.571   0.377  14.308  0.00  0.00    -0.079 N 
ATOM      5  C1  ZIN A   1      18.343   1.118  13.985  0.00  0.00     0.269 C 
ATOM      6  H3  ZIN A   1      20.043   0.829  15.077  0.00  0.00     0.278 HD
ATOM      7  C4  ZIN A   1      19.227  -1.000  14.686  0.00  0.00     0.269 C 
ENDBRANCH   3   4
ENDBRANCH   2   3
ENDBRANCH   1   2
BRANCH   1   8
ATOM      8  O8  ZIN A   1      21.460  -0.622  10.838  0.00  0.00    -0.380 OA
ATOM      9  H32 ZIN A   1      21.939   0.043  10.324  0.00  0.00     0.211 HD
ENDBRANCH   1   8
BRANCH   1  10
ATOM     10  C9  ZIN A   1      19.614   0.019   9.447  0.00  0.00    -0.019 A 
ATOM     11  C14 ZIN A   1      19.461  -0.885   8.412  0.00  0.00     0.010 A 
ATOM     12  C13 ZIN A   1      19.067  -0.444   7.163  0.00  0.00     0.001 A 
ATOM     13  C12 ZIN A   1      18.835   0.901   6.946  0.00  0.00     0.000 A 
ATOM     14  C11 ZIN A   1      18.994   1.805   7.979  0.00  0.00     0.001 A 
ATOM     15  C10 ZIN A   1      19.383   1.364   9.230  0.00  0.00     0.010 A 
ENDBRANCH   1  10
BRANCH   1  16
ATOM     16  C15 ZIN A   1      19.380  -1.785  11.105  0.00  0.00     0.002 A 
ATOM     17  C20 ZIN A   1      18.006  -1.859  11.236  0.00  0.00     0.043 A 
ATOM     18  C19 ZIN A   1      17.401  -3.076  11.499  0.00  0.00     0.024 A 
ATOM     19 Cl21 ZIN A   1      17.037  -0.430  11.055  0.00  0.00    -0.084 Cl
ATOM     20  C18 ZIN A   1      18.173  -4.214  11.643  0.00  0.00     0.002 A 
ATOM     21  C17 ZIN A   1      19.548  -4.138  11.518  0.00  0.00     0.001 A 
ATOM     22  C16 ZIN A   1      20.151  -2.924  11.249  0.00  0.00     0.012 A 
ENDBRANCH   1  16
TORSDOF 6
ENDMDL
MODEL 2
REMARK VINA RESULT:      -7.2      2.426      3.389
REMARK  6 active torsions:
REMARK  status: ('A' for Active; 'I' for Inactive)
REMARK    1  A    between atoms: N2_2  and  C5_5 
REMARK    2  A    between atoms: C5_5  and  C6_6 
REMARK    3  A    between atoms: C6_6  and  C7_7 
REMARK    4  A    between atoms: C7_7  and  O8_8 
REMARK    5  A    between atoms: C7_7  and  C9_9 
REMARK    6  A    between atoms: C7_7  and  C15_15 
ROOT
ATOM      1  C7  ZIN A   1      18.747   1.768  10.598  0.00  0.00     0.115 C 
ENDROOT
BRANCH   1   2
ATOM      2  C6  ZIN A   1      17.733   2.866  10.927  0.00  0.00     0.076 C 
BRANCH   2   3
ATOM      3  C5  ZIN A   1      18.475   4.137  11.348  0.00  0.00     0.237 C 
BRANCH   3   4
ATOM      4  N2  ZIN A   1      18.802   4.062  12.777  0.00  0.00    -0.079 N 
ATOM      5  C1  ZIN A   1      19.818   5.073  13.101  0.00  0.00     0.269 C 
ATOM      6  H3  ZIN A   1      19.162   3.143  12.993  0.00  0.00     0.278 HD
ATOM      7  C4  ZIN A   1      17.592   4.312  13.571  0.00  0.00     0.269 C 
ENDBRANCH   3   4
ENDBRANCH   2   3
ENDBRANCH   1   2
BRANCH   1   8
ATOM      8  O8  ZIN A   1      20.069   2.310  10.651  0.00  0.00    -0.380 OA
ATOM      9  H32 ZIN A   1      20.748   1.666  10.897  0.00  0.00     0.211 HD
ENDBRANCH   1   8
BRANCH   1  10
ATOM     10  C9  ZIN A   1      18.478   1.234   9.215  0.00  0.00    -0.019 A 
ATOM     11  C14 ZIN A   1      19.202   1.710   8.137  0.00  0.00     0.010 A 
ATOM     12  C13 ZIN A   1      18.957   1.216   6.869  0.00  0.00     0.001 A 
ATOM     13  C12 ZIN A   1      17.983   0.254   6.677  0.00  0.00     0.000 A 
ATOM     14  C11 ZIN A   1      17.256  -0.217   7.754  0.00  0.00     0.001 A 
ATOM     15  C10 ZIN A   1      17.503   0.273   9.022  0.00  0.00     0.010 A 
ENDBRANCH   1  10
BRANCH   1  16
ATOM     16  C15 ZIN A   1      18.622   0.651  11.601  0.00  0.00     0.002 A 
ATOM     17  C20 ZIN A   1      19.526  -0.396  11.586  0.00  0.00     0.043 A 
ATOM     18  C19 ZIN A   1      19.414  -1.419  12.512  0.00  0.00     0.024 A 
ATOM     19 Cl21 ZIN A   1      20.809  -0.420  10.417  0.00  0.00    -0.084 Cl
ATOM     20  C18 ZIN A   1      18.392  -1.399  13.443  0.00  0.00     0.002 A 
ATOM     21  C17 ZIN A   1      17.486  -0.355  13.453  0.00  0.00     0.001 A 
ATOM     22  C16 ZIN A   1      17.601   0.669  12.532  0.00  0.00     0.012 A 
ENDBRANCH   1  16
TORSDOF 6
ENDMDL
MODEL 3
REMARK VINA RESULT:      -7.0      2.512      4.416
REMARK  6 active torsions:
REMARK  status: ('A' for Active; 'I' for Inactive)
REMARK    1  A    between atoms: N2_2  and  C5_5 
REMARK    2  A    between atoms: C5_5  and  C6_6 
REMARK    3  A    between atoms: C6_6  and  C7_7 
REMARK    4  A    between atoms: C7_7  and  O8_8 
REMARK    5  A    between atoms: C7_7  and  C9_9 
REMARK    6  A    between atoms: C7_7  and  C15_15 
ROOT
ATOM      1  C7  ZIN A   1      19.117   2.114  11.174  0.00  0.00     0.115 C 
ENDROOT
BRANCH   1   2
ATOM      2  C6  ZIN A   1      18.981   1.092  12.304  0.00  0.00     0.076 C 
BRANCH   2   3
ATOM      3  C5  ZIN A   1      20.318   0.376  12.507  0.00  0.00     0.237 C 
BRANCH   3   4
ATOM      4  N2  ZIN A   1      20.104  -0.844  13.296  0.00  0.00    -0.079 N 
ATOM      5  C1  ZIN A   1      19.292  -0.526  14.479  0.00  0.00     0.269 C 
ATOM      6  H3  ZIN A   1      20.996  -1.215  13.590  0.00  0.00     0.278 HD
ATOM      7  C4  ZIN A   1      19.405  -1.842  12.476  0.00  0.00     0.269 C 
ENDBRANCH   3   4
ENDBRANCH   2   3
ENDBRANCH   1   2
BRANCH   1   8
ATOM      8  O8  ZIN A   1      20.472   2.563  11.097  0.00  0.00    -0.380 OA
ATOM      9  H32 ZIN A   1      20.986   2.400  11.901  0.00  0.00     0.211 HD
ENDBRANCH   1   8
BRANCH   1  10
ATOM     10  C9  ZIN A   1      18.214   3.290  11.448  0.00  0.00    -0.019 A 
ATOM     11  C14 ZIN A   1      17.857   3.600  12.747  0.00  0.00     0.010 A 
ATOM     12  C13 ZIN A   1      17.032   4.680  12.998  0.00  0.00     0.001 A 
ATOM     13  C12 ZIN A   1      16.556   5.445  11.949  0.00  0.00     0.000 A 
ATOM     14  C11 ZIN A   1      16.907   5.131  10.650  0.00  0.00     0.001 A 
ATOM     15  C10 ZIN A   1      17.736   4.054  10.399  0.00  0.00     0.010 A 
ENDBRANCH   1  10
BRANCH   1  16
ATOM     16  C15 ZIN A   1      18.725   1.475   9.867  0.00  0.00     0.002 A 
ATOM     17  C20 ZIN A   1      17.652   0.605   9.816  0.00  0.00     0.043 A 
ATOM     18  C19 ZIN A   1      17.290   0.023   8.614  0.00  0.00     0.024 A 
ATOM     19 Cl21 ZIN A   1      16.750   0.253  11.257  0.00  0.00    -0.084 Cl
ATOM     20  C18 ZIN A   1      18.008   0.304   7.466  0.00  0.00     0.002 A 
ATOM     21  C17 ZIN A   1      19.085   1.169   7.519  0.00  0.00     0.001 A 
ATOM     22  C16 ZIN A   1      19.443   1.754   8.719  0.00  0.00     0.012 A 
ENDBRANCH   1  16
TORSDOF 6
ENDMDL
MODEL 4
REMARK VINA RESULT:      -6.9      2.165      5.832
REMARK  6 active torsions:
REMARK  status: ('A' for Active; 'I' for Inactive)
REMARK    1  A    between atoms: N2_2  and  C5_5 
REMARK    2  A    between atoms: C5_5  and  C6_6 
REMARK    3  A    between atoms: C6_6  and  C7_7 
REMARK    4  A    between atoms: C7_7  and  O8_8 
REMARK    5  A    between atoms: C7_7  and  C9_9 
REMARK    6  A    between atoms: C7_7  and  C15_15 
ROOT
ATOM      1  C7  ZIN A   1      19.996   0.323  12.680  0.00  0.00     0.115 C 
ENDROOT
BRANCH   1   2
ATOM      2  C6  ZIN A   1      19.713  -0.897  11.802  0.00  0.00     0.076 C 
BRANCH   2   3
ATOM      3  C5  ZIN A   1      20.670  -0.899  10.608  0.00  0.00     0.237 C 
BRANCH   3   4
ATOM      4  N2  ZIN A   1      19.926  -1.225   9.385  0.00  0.00    -0.079 N 
ATOM      5  C1  ZIN A   1      18.762  -2.054   9.726  0.00  0.00     0.269 C 
ATOM      6  H3  ZIN A   1      20.526  -1.731   8.750  0.00  0.00     0.278 HD
ATOM      7  C4  ZIN A   1      19.471   0.016   8.743  0.00  0.00     0.269 C 
ENDBRANCH   3   4
ENDBRANCH   2   3
ENDBRANCH   1   2
BRANCH   1   8
ATOM      8  O8  ZIN A   1      21.405   0.562  12.724  0.00  0.00    -0.380 OA
ATOM      9  H32 ZIN A   1      21.931  -0.103  12.259  0.00  0.00     0.211 HD
ENDBRANCH   1   8
BRANCH   1  10
ATOM     10  C9  ZIN A   1      19.487   0.068  14.076  0.00  0.00    -0.019 A 
ATOM     11  C14 ZIN A   1      19.272   1.127  14.939  0.00  0.00     0.010 A 
ATOM     12  C13 ZIN A   1      18.802   0.892  16.217  0.00  0.00     0.001 A 
ATOM     13  C12 ZIN A   1      18.555  -0.402  16.636  0.00  0.00     0.000 A 
ATOM     14  C11 ZIN A   1      18.775  -1.461  15.775  0.00  0.00     0.001 A 
ATOM     15  C10 ZIN A   1      19.241  -1.226  14.495  0.00  0.00     0.010 A 
ENDBRANCH   1  10
BRANCH   1  16
ATOM     16  C15 ZIN A   1      19.300   1.530  12.106  0.00  0.00     0.002 A 
ATOM     17  C20 ZIN A   1      17.947   1.480  11.825  0.00  0.00     0.043 A 
ATOM     18  C19 ZIN A   1      17.308   2.591  11.303  0.00  0.00     0.024 A 
ATOM     19 Cl21 ZIN A   1      17.047   0.029  12.140  0.00  0.00    -0.084 Cl
ATOM     20  C18 ZIN A   1      18.024   3.746  11.052  0.00  0.00     0.002 A 
ATOM     21  C17 ZIN A   1      19.378   3.793  11.327  0.00  0.00     0.001 A 
ATOM     22  C16 ZIN A   1      20.016   2.686  11.854  0.00  0.00     0.012 A 
ENDBRANCH   1  16
TORSDOF 6
ENDMDL
MODEL 5
REMARK VINA RESULT:      -6.8      2.374      5.716
REMARK  6 active torsions:
REMARK  status: ('A' for Active; 'I' for Inactive)
REMARK    1  A    between atoms: N2_2  and  C5_5 
REMARK    2  A    between atoms: C5_5  and  C6_6 
REMARK    3  A    between atoms: C6_6  and  C7_7 
REMARK    4  A    between atoms: C7_7  and  O8_8 
REMARK    5  A    between atoms: C7_7  and  C9_9 
REMARK    6  A    between atoms: C7_7  and  C15_15 
ROOT
ATOM      1  C7  ZIN A   1      18.801  -1.377  12.212  0.00  0.00     0.115 C 
ENDROOT
BRANCH   1   2
ATOM      2  C6  ZIN A   1      17.762  -2.426  11.812  0.00  0.00     0.076 C 
BRANCH   2   3
ATOM      3  C5  ZIN A   1      18.465  -3.749  11.501  0.00  0.00     0.237 C 
BRANCH   3   4
ATOM      4  N2  ZIN A   1      18.964  -3.725  10.120  0.00  0.00    -0.079 N 
ATOM      5  C1  ZIN A   1      19.648  -4.992   9.825  0.00  0.00     0.269 C 
ATOM      6  H3  ZIN A   1      19.611  -2.959  10.008  0.00  0.00     0.278 HD
ATOM      7  C4  ZIN A   1      17.836  -3.552   9.195  0.00  0.00     0.269 C 
ENDBRANCH   3   4
ENDBRANCH   2   3
ENDBRANCH   1   2
BRANCH   1   8
ATOM      8  O8  ZIN A   1      20.112  -1.930  12.077  0.00  0.00    -0.380 OA
ATOM      9  H32 ZIN A   1      20.122  -2.884  11.915  0.00  0.00     0.211 HD
ENDBRANCH   1   8
BRANCH   1  10
ATOM     10  C9  ZIN A   1      18.575  -0.966  13.645  0.00  0.00    -0.019 A 
ATOM     11  C14 ZIN A   1      17.682   0.047  13.941  0.00  0.00     0.010 A 
ATOM     12  C13 ZIN A   1      17.472   0.420  15.255  0.00  0.00     0.001 A 
ATOM     13  C12 ZIN A   1      18.162  -0.212  16.273  0.00  0.00     0.000 A 
ATOM     14  C11 ZIN A   1      19.059  -1.221  15.976  0.00  0.00     0.001 A 
ATOM     15  C10 ZIN A   1      19.265  -1.598  14.662  0.00  0.00     0.010 A 
ENDBRANCH   1  10
BRANCH   1  16
ATOM     16  C15 ZIN A   1      18.670  -0.171  11.318  0.00  0.00     0.002 A 
ATOM     17  C20 ZIN A   1      19.630   0.823  11.352  0.00  0.00     0.043 A 
ATOM     18  C19 ZIN A   1      19.512   1.927  10.526  0.00  0.00     0.024 A 
ATOM     19 Cl21 ZIN A   1      20.992   0.680  12.421  0.00  0.00    -0.084 Cl
ATOM     20  C18 ZIN A   1      18.428   2.040   9.676  0.00  0.00     0.002 A 
ATOM     21  C17 ZIN A   1      17.465   1.049   9.647  0.00  0.00     0.001 A 
ATOM     22  C16 ZIN A   1      17.586  -0.057  10.468  0.00  0.00     0.012 A 
ENDBRANCH   1  16
TORSDOF 6
ENDMDL
MODEL 6
REMARK VINA RESULT:      -6.6      2.053      5.295
REMARK  6 active torsions:
REMARK  status: ('A' for Active; 'I' for Inactive)
REMARK    1  A    between atoms: N2_2  and  C5_5 
REMARK    2  A    between atoms: C5_5  and  C6_6 
REMARK    3  A    between atoms: C6_6  and  C7_7 
REMARK    4  A    between atoms: C7_7  and  O8_8 
REMARK    5  A    between atoms: C7_7  and  C9_9 
REMARK    6  A    between atoms: C7_7  and  C15_15 
ROOT
ATOM      1  C7  ZIN A   1      19.521  -1.683  11.511  0.00  0.00     0.115 C 
ENDROOT
BRANCH   1   2
ATOM      2  C6  ZIN A   1      18.613  -2.908  11.390  0.00  0.00     0.076 C 
BRANCH   2   3
ATOM      3  C5  ZIN A   1      19.450  -4.126  10.994  0.00  0.00     0.237 C 
BRANCH   3   4
ATOM      4  N2  ZIN A   1      19.565  -4.187   9.531  0.00  0.00    -0.079 N 
ATOM      5  C1  ZIN A   1      20.065  -5.510   9.134  0.00  0.00     0.269 C 
ATOM      6  H3  ZIN A   1      20.207  -3.475   9.215  0.00  0.00     0.278 HD
ATOM      7  C4  ZIN A   1      18.246  -3.960   8.927  0.00  0.00     0.269 C 
ENDBRANCH   3   4
ENDBRANCH   2   3
ENDBRANCH   1   2
BRANCH   1   8
ATOM      8  O8  ZIN A   1      20.883  -2.080  11.338  0.00  0.00    -0.380 OA
ATOM      9  H32 ZIN A   1      21.137  -2.851  11.865  0.00  0.00     0.211 HD
ENDBRANCH   1   8
BRANCH   1  10
ATOM     10  C9  ZIN A   1      19.348  -1.061  12.874  0.00  0.00    -0.019 A 
ATOM     11  C14 ZIN A   1      19.792   0.227  13.107  0.00  0.00     0.010 A 
ATOM     12  C13 ZIN A   1      19.631   0.797  14.356  0.00  0.00     0.001 A 
ATOM     13  C12 ZIN A   1      19.033   0.077  15.373  0.00  0.00     0.000 A 
ATOM     14  C11 ZIN A   1      18.594  -1.213  15.141  0.00  0.00     0.001 A 
ATOM     15  C10 ZIN A   1      18.752  -1.782  13.891  0.00  0.00     0.010 A 
ENDBRANCH   1  10
BRANCH   1  16
ATOM     16  C15 ZIN A   1      19.153  -0.677  10.451  0.00  0.00     0.002 A 
ATOM     17  C20 ZIN A   1      17.883  -0.131  10.426  0.00  0.00     0.043 A 
ATOM     18  C19 ZIN A   1      17.548   0.797   9.455  0.00  0.00     0.024 A 
ATOM     19 Cl21 ZIN A   1      16.713  -0.598  11.621  0.00  0.00    -0.084 Cl
ATOM     20  C18 ZIN A   1      18.481   1.169   8.505  0.00  0.00     0.002 A 
ATOM     21  C17 ZIN A   1      19.748   0.618   8.526  0.00  0.00     0.001 A 
ATOM     22  C16 ZIN A   1      20.084  -0.305   9.499  0.00  0.00     0.012 A 
ENDBRANCH   1  16
TORSDOF 6
ENDMDL
MODEL 7
REMARK VINA RESULT:      -6.6      2.710      5.070
REMARK  6 active torsions:
REMARK  status: ('A' for Active; 'I' for Inactive)
REMARK    1  A    between atoms: N2_2  and  C5_5 
REMARK    2  A    between atoms: C5_5  and  C6_6 
REMARK    3  A    between atoms: C6_6  and  C7_7 
REMARK    4  A    between atoms: C7_7  and  O8_8 
REMARK    5  A    between atoms: C7_7  and  C9_9 
REMARK    6  A    between atoms: C7_7  and  C15_15 
ROOT
ATOM      1  C7  ZIN A   1      18.389   2.286  11.713  0.00  0.00     0.115 C 
ENDROOT
BRANCH   1   2
ATOM      2  C6  ZIN A   1      19.490   3.339  11.856  0.00  0.00     0.076 C 
BRANCH   2   3
ATOM      3  C5  ZIN A   1      18.979   4.499  12.712  0.00  0.00     0.237 C 
BRANCH   3   4
ATOM      4  N2  ZIN A   1      19.709   4.526  13.986  0.00  0.00    -0.079 N 
ATOM      5  C1  ZIN A   1      20.231   5.879  14.223  0.00  0.00     0.269 C 
ATOM      6  H3  ZIN A   1      20.477   3.871  13.948  0.00  0.00     0.278 HD
ATOM      7  C4  ZIN A   1      18.801   4.153  15.078  0.00  0.00     0.269 C 
ENDBRANCH   3   4
ENDBRANCH   2   3
ENDBRANCH   1   2
BRANCH   1   8
ATOM      8  O8  ZIN A   1      17.116   2.895  11.943  0.00  0.00    -0.380 OA
ATOM      9  H32 ZIN A   1      16.841   2.892  12.870  0.00  0.00     0.211 HD
ENDBRANCH   1   8
BRANCH   1  10
ATOM     10  C9  ZIN A   1      18.609   1.188  12.722  0.00  0.00    -0.019 A 
ATOM     11  C14 ZIN A   1      17.699   0.996  13.745  0.00  0.00     0.010 A 
ATOM     12  C13 ZIN A   1      17.900  -0.014  14.667  0.00  0.00     0.001 A 
ATOM     13  C12 ZIN A   1      19.015  -0.826  14.572  0.00  0.00     0.000 A 
ATOM     14  C11 ZIN A   1      19.927  -0.630  13.553  0.00  0.00     0.001 A 
ATOM     15  C10 ZIN A   1      19.724   0.377  12.628  0.00  0.00     0.010 A 
ENDBRANCH   1  10
BRANCH   1  16
ATOM     16  C15 ZIN A   1      18.424   1.706  10.323  0.00  0.00     0.002 A 
ATOM     17  C20 ZIN A   1      17.561   0.681   9.979  0.00  0.00     0.043 A 
ATOM     18  C19 ZIN A   1      17.590   0.152   8.701  0.00  0.00     0.024 A 
ATOM     19 Cl21 ZIN A   1      16.433   0.067  11.147  0.00  0.00    -0.084 Cl
ATOM     20  C18 ZIN A   1      18.489   0.642   7.771  0.00  0.00     0.002 A 
ATOM     21  C17 ZIN A   1      19.355   1.662   8.117  0.00  0.00     0.001 A 
ATOM     22  C16 ZIN A   1      19.322   2.194   9.393  0.00  0.00     0.012 A 
ENDBRANCH   1  16
TORSDOF 6
ENDMDL
MODEL 8
REMARK VINA RESULT:      -6.6      2.812      4.769
REMARK  6 active torsions:
REMARK  status: ('A' for Active; 'I' for Inactive)
REMARK    1  A    between atoms: N2_2  and  C5_5 
REMARK    2  A    between atoms: C5_5  and  C6_6 
REMARK    3  A    between atoms: C6_6  and  C7_7 
REMARK    4  A    between atoms: C7_7  and  O8_8 
REMARK    5  A    between atoms: C7_7  and  C9_9 
REMARK    6  A    between atoms: C7_7  and  C15_15 
ROOT
ATOM      1  C7  ZIN A   1      18.001   1.537  11.403  0.00  0.00     0.115 C 
ENDROOT
BRANCH   1   2
ATOM      2  C6  ZIN A   1      19.287   1.211  12.164  0.00  0.00     0.076 C 
BRANCH   2   3
ATOM      3  C5  ZIN A   1      19.579  -0.287  12.055  0.00  0.00     0.237 C 
BRANCH   3   4
ATOM      4  N2  ZIN A   1      18.799  -1.012  13.067  0.00  0.00    -0.079 N 
ATOM      5  C1  ZIN A   1      18.549  -2.384  12.602  0.00  0.00     0.269 C 
ATOM      6  H3  ZIN A   1      17.918  -0.541  13.213  0.00  0.00     0.278 HD
ATOM      7  C4  ZIN A   1      19.549  -1.051  14.329  0.00  0.00     0.269 C 
ENDBRANCH   3   4
ENDBRANCH   2   3
ENDBRANCH   1   2
BRANCH   1   8
ATOM      8  O8  ZIN A   1      16.937   0.717  11.891  0.00  0.00    -0.380 OA
ATOM      9  H32 ZIN A   1      16.509   0.182  11.209  0.00  0.00     0.211 HD
ENDBRANCH   1   8
BRANCH   1  10
ATOM     10  C9  ZIN A   1      18.205   1.272   9.933  0.00  0.00    -0.019 A 
ATOM     11  C14 ZIN A   1      17.396   0.364   9.275  0.00  0.00     0.010 A 
ATOM     12  C13 ZIN A   1      17.582   0.124   7.927  0.00  0.00     0.001 A 
ATOM     13  C12 ZIN A   1      18.582   0.784   7.238  0.00  0.00     0.000 A 
ATOM     14  C11 ZIN A   1      19.394   1.687   7.897  0.00  0.00     0.001 A 
ATOM     15  C10 ZIN A   1      19.206   1.931   9.244  0.00  0.00     0.010 A 
ENDBRANCH   1  10
BRANCH   1  16
ATOM     16  C15 ZIN A   1      17.650   2.988  11.606  0.00  0.00     0.002 A 
ATOM     17  C20 ZIN A   1      17.584   3.511  12.885  0.00  0.00     0.043 A 
ATOM     18  C19 ZIN A   1      17.267   4.846  13.070  0.00  0.00     0.024 A 
ATOM     19 Cl21 ZIN A   1      17.913   2.499  14.256  0.00  0.00    -0.084 Cl
ATOM     20  C18 ZIN A   1      17.006   5.652  11.978  0.00  0.00     0.002 A 
ATOM     21  C17 ZIN A   1      17.065   5.127  10.700  0.00  0.00     0.001 A 
ATOM     22  C16 ZIN A   1      17.387   3.795  10.515  0.00  0.00     0.012 A 
ENDBRANCH   1  16
TORSDOF 6
ENDMDL
MODEL 9
REMARK VINA RESULT:      -6.5      1.910      4.823
REMARK  6 active torsions:
REMARK  status: ('A' for Active; 'I' for Inactive)
REMARK    1  A    between atoms: N2_2  and  C5_5 
REMARK    2  A    between atoms: C5_5  and  C6_6 
REMARK    3  A    between atoms: C6_6  and  C7_7 
REMARK    4  A    between atoms: C7_7  and  O8_8 
REMARK    5  A    between atoms: C7_7  and  C9_9 
REMARK    6  A    between atoms: C7_7  and  C15_15 
ROOT
ATOM      1  C7  ZIN A   1      19.123  -0.692  12.357  0.00  0.00     0.115 C 
ENDROOT
BRANCH   1   2
ATOM      2  C6  ZIN A   1      18.109   0.187  11.621  0.00  0.00     0.076 C 
BRANCH   2   3
ATOM      3  C5  ZIN A   1      18.500   0.288  10.145  0.00  0.00     0.237 C 
BRANCH   3   4
ATOM      4  N2  ZIN A   1      19.035   1.628   9.871  0.00  0.00    -0.079 N 
ATOM      5  C1  ZIN A   1      19.434   1.717   8.460  0.00  0.00     0.269 C 
ATOM      6  H3  ZIN A   1      19.838   1.796  10.459  0.00  0.00     0.278 HD
ATOM      7  C4  ZIN A   1      18.003   2.635  10.152  0.00  0.00     0.269 C 
ENDBRANCH   3   4
ENDBRANCH   2   3
ENDBRANCH   1   2
BRANCH   1   8
ATOM      8  O8  ZIN A   1      20.448  -0.305  11.984  0.00  0.00    -0.380 OA
ATOM      9  H32 ZIN A   1      20.977  -1.025  11.614  0.00  0.00     0.211 HD
ENDBRANCH   1   8
BRANCH   1  10
ATOM     10  C9  ZIN A   1      18.898  -2.136  11.988  0.00  0.00    -0.019 A 
ATOM     11  C14 ZIN A   1      17.611  -2.627  11.866  0.00  0.00     0.010 A 
ATOM     12  C13 ZIN A   1      17.406  -3.950  11.525  0.00  0.00     0.001 A 
ATOM     13  C12 ZIN A   1      18.487  -4.786  11.314  0.00  0.00     0.000 A 
ATOM     14  C11 ZIN A   1      19.773  -4.296  11.441  0.00  0.00     0.001 A 
ATOM     15  C10 ZIN A   1      19.979  -2.972  11.779  0.00  0.00     0.010 A 
ENDBRANCH   1  10
BRANCH   1  16
ATOM     16  C15 ZIN A   1      18.950  -0.521  13.845  0.00  0.00     0.002 A 
ATOM     17  C20 ZIN A   1      19.013   0.740  14.408  0.00  0.00     0.043 A 
ATOM     18  C19 ZIN A   1      18.849   0.896  15.774  0.00  0.00     0.024 A 
ATOM     19 Cl21 ZIN A   1      19.284   2.129  13.403  0.00  0.00    -0.084 Cl
ATOM     20  C18 ZIN A   1      18.632  -0.211  16.574  0.00  0.00     0.002 A 
ATOM     21  C17 ZIN A   1      18.576  -1.472  16.010  0.00  0.00     0.001 A 
ATOM     22  C16 ZIN A   1      18.735  -1.627  14.646  0.00  0.00     0.012 A 
ENDBRANCH   1  16
TORSDOF 6
ENDMDL
