MODEL 1
REMARK VINA RESULT:      -9.7      0.000      0.000
REMARK  7 active torsions:
REMARK  status: ('A' for Active; 'I' for Inactive)
REMARK    1  A    between atoms: C5_5  and  C6_6 
REMARK       I    between atoms: C6_6  and  N8_8 
REMARK    2  A    between atoms: N8_8  and  C9_9 
REMARK    3  A    between atoms: C12_12  and  C13_13 
REMARK    4  A    between atoms: C13_13  and  N14_14 
REMARK    5  A    between atoms: C22_22  and  C23_23 
REMARK    6  A    between atoms: C29_29  and  C30_30 
REMARK    7  A    between atoms: C31_31  and  C32_32 
ROOT
ATOM      1  C6  ZIN A   1      19.451   0.758  11.039  0.00  0.00     0.256 C 
ATOM      2  O7  ZIN A   1      20.568   0.717  11.516  0.00  0.00    -0.267 OA
ATOM      3  N8  ZIN A   1      18.383   0.947  11.840  0.00  0.00    -0.323 N 
ATOM      4  H46 ZIN A   1      17.499   1.048  11.454  0.00  0.00     0.169 HD
ENDROOT
BRANCH   3   5
ATOM      5  C9  ZIN A   1      18.550   0.993  13.227  0.00  0.00     0.035 A 
ATOM      6  C27 ZIN A   1      18.367  -0.154  13.989  0.00  0.00     0.046 A 
ATOM      7  C22 ZIN A   1      18.538  -0.105  15.359  0.00  0.00     0.058 A 
ATOM      8  C12 ZIN A   1      18.880   1.086  15.973  0.00  0.00    -0.015 A 
ATOM      9  C11 ZIN A   1      19.057   2.231  15.217  0.00  0.00     0.012 A 
ATOM     10  C10 ZIN A   1      18.893   2.187  13.847  0.00  0.00     0.030 A 
BRANCH   7  11
ATOM     11  C23 ZIN A   1      18.346  -1.350  16.186  0.00  0.00     0.418 C 
ATOM     12  F24 ZIN A   1      17.272  -1.166  17.064  0.00  0.00    -0.166 F 
ATOM     13  F25 ZIN A   1      18.081  -2.434  15.344  0.00  0.00    -0.166 F 
ATOM     14  F26 ZIN A   1      19.510  -1.604  16.922  0.00  0.00    -0.166 F 
ENDBRANCH   7  11
BRANCH   8  15
ATOM     15  C13 ZIN A   1      19.058   1.137  17.469  0.00  0.00     0.311 C 
BRANCH  15  16
ATOM     16  N14 ZIN A   1      18.208   2.196  18.028  0.00  0.00     0.096 N 
ATOM     17  C21 ZIN A   1      17.273   1.652  19.022  0.00  0.00     0.300 C 
ATOM     18  C20 ZIN A   1      16.367   2.773  19.535  0.00  0.00     0.264 C 
ATOM     19  N17 ZIN A   1      17.190   3.829  20.139  0.00  0.00    -0.072 N 
ATOM     20  C16 ZIN A   1      18.102   4.381  19.128  0.00  0.00     0.264 C 
ATOM     21  H18 ZIN A   1      17.727   3.442  20.901  0.00  0.00     0.279 HD
ATOM     22  C19 ZIN A   1      16.320   4.897  20.647  0.00  0.00     0.269 C 
ATOM     23  C15 ZIN A   1      19.022   3.272  18.611  0.00  0.00     0.300 C 
ENDBRANCH  15  16
ENDBRANCH   8  15
ENDBRANCH   3   5
BRANCH   1  24
ATOM     24  C5  ZIN A   1      19.263   0.603   9.580  0.00  0.00     0.033 A 
ATOM     25  C4  ZIN A   1      19.273   1.727   8.750  0.00  0.00     0.017 A 
ATOM     26  C3  ZIN A   1      19.098   1.585   7.387  0.00  0.00     0.009 A 
ATOM     27  C2  ZIN A   1      18.911   0.334   6.835  0.00  0.00    -0.043 A 
ATOM     28  C1  ZIN A   1      18.722   0.190   5.347  0.00  0.00     0.049 C 
ATOM     29  C29 ZIN A   1      18.893  -0.800   7.655  0.00  0.00     0.025 A 
ATOM     30  C28 ZIN A   1      19.075  -0.663   9.032  0.00  0.00     0.038 A 
BRANCH  29  31
ATOM     31  C30 ZIN A   1      18.698  -2.098   7.081  0.00  0.00    -0.059 C 
ATOM     32  C31 ZIN A   1      18.538  -3.161   6.611  0.00  0.00    -0.040 C 
BRANCH  32  33
ATOM     33  C32 ZIN A   1      18.345  -4.459   6.038  0.00  0.00     0.131 A 
ATOM     34  N40 ZIN A   1      17.525  -4.776   4.981  0.00  0.00    -0.206 N 
ATOM     35  C35 ZIN A   1      17.649  -6.125   4.767  0.00  0.00     0.151 A 
ATOM     36  N39 ZIN A   1      16.688  -4.011   4.164  0.00  0.00    -0.177 NA
ATOM     37  N34 ZIN A   1      18.500  -6.619   5.660  0.00  0.00    -0.238 NA
ATOM     38  C36 ZIN A   1      16.914  -6.723   3.728  0.00  0.00     0.054 A 
ATOM     39  C33 ZIN A   1      18.940  -5.641   6.444  0.00  0.00     0.160 A 
ATOM     40  C37 ZIN A   1      16.103  -5.946   2.956  0.00  0.00     0.025 A 
ATOM     41  C38 ZIN A   1      16.006  -4.571   3.199  0.00  0.00     0.139 A 
ENDBRANCH  32  33
ENDBRANCH  29  31
ENDBRANCH   1  24
TORSDOF 7
ENDMDL
MODEL 2
REMARK VINA RESULT:      -9.5      3.139      3.704
REMARK  7 active torsions:
REMARK  status: ('A' for Active; 'I' for Inactive)
REMARK    1  A    between atoms: C5_5  and  C6_6 
REMARK       I    between atoms: C6_6  and  N8_8 
REMARK    2  A    between atoms: N8_8  and  C9_9 
REMARK    3  A    between atoms: C12_12  and  C13_13 
REMARK    4  A    between atoms: C13_13  and  N14_14 
REMARK    5  A    between atoms: C22_22  and  C23_23 
REMARK    6  A    between atoms: C29_29  and  C30_30 
REMARK    7  A    between atoms: C31_31  and  C32_32 
ROOT
ATOM      1  C6  ZIN A   1      19.411   2.029  11.183  0.00  0.00     0.256 C 
ATOM      2  O7  ZIN A   1      20.382   1.666  11.819  0.00  0.00    -0.267 OA
ATOM      3  N8  ZIN A   1      18.518   2.870  11.740  0.00  0.00    -0.323 N 
ATOM      4  H46 ZIN A   1      17.781   3.214  11.211  0.00  0.00     0.169 HD
ENDROOT
BRANCH   3   5
ATOM      5  C9  ZIN A   1      18.652   3.247  13.079  0.00  0.00     0.035 A 
ATOM      6  C27 ZIN A   1      19.259   4.452  13.407  0.00  0.00     0.046 A 
ATOM      7  C22 ZIN A   1      19.384   4.823  14.731  0.00  0.00     0.058 A 
ATOM      8  C12 ZIN A   1      18.916   3.990  15.731  0.00  0.00    -0.015 A 
ATOM      9  C11 ZIN A   1      18.317   2.787  15.409  0.00  0.00     0.012 A 
ATOM     10  C10 ZIN A   1      18.183   2.413  14.086  0.00  0.00     0.030 A 
BRANCH   7  11
ATOM     11  C23 ZIN A   1      20.036   6.135  15.087  0.00  0.00     0.418 C 
ATOM     12  F24 ZIN A   1      20.570   6.718  13.933  0.00  0.00    -0.166 F 
ATOM     13  F25 ZIN A   1      19.084   6.992  15.647  0.00  0.00    -0.166 F 
ATOM     14  F26 ZIN A   1      21.062   5.908  16.012  0.00  0.00    -0.166 F 
ENDBRANCH   7  11
BRANCH   8  15
ATOM     15  C13 ZIN A   1      19.062   4.395  17.176  0.00  0.00     0.311 C 
BRANCH  15  16
ATOM     16  N14 ZIN A   1      17.743   4.390  17.822  0.00  0.00     0.096 N 
ATOM     17  C21 ZIN A   1      17.833   3.889  19.200  0.00  0.00     0.300 C 
ATOM     18  C20 ZIN A   1      16.433   3.842  19.816  0.00  0.00     0.264 C 
ATOM     19  N17 ZIN A   1      15.849   5.190  19.805  0.00  0.00    -0.072 N 
ATOM     20  C16 ZIN A   1      15.742   5.667  18.420  0.00  0.00     0.264 C 
ATOM     21  H18 ZIN A   1      16.439   5.817  20.332  0.00  0.00     0.279 HD
ATOM     22  C19 ZIN A   1      14.512   5.148  20.412  0.00  0.00     0.269 C 
ATOM     23  C15 ZIN A   1      17.137   5.729  17.792  0.00  0.00     0.300 C 
ENDBRANCH  15  16
ENDBRANCH   8  15
ENDBRANCH   3   5
BRANCH   1  24
ATOM     24  C5  ZIN A   1      19.212   1.547   9.800  0.00  0.00     0.033 A 
ATOM     25  C4  ZIN A   1      19.058   2.463   8.756  0.00  0.00     0.017 A 
ATOM     26  C3  ZIN A   1      18.872   2.017   7.462  0.00  0.00     0.009 A 
ATOM     27  C2  ZIN A   1      18.836   0.664   7.189  0.00  0.00    -0.043 A 
ATOM     28  C1  ZIN A   1      18.633   0.187   5.775  0.00  0.00     0.049 C 
ATOM     29  C29 ZIN A   1      18.983  -0.265   8.226  0.00  0.00     0.025 A 
ATOM     30  C28 ZIN A   1      19.177   0.180   9.534  0.00  0.00     0.038 A 
BRANCH  29  31
ATOM     31  C30 ZIN A   1      18.945  -1.668   7.943  0.00  0.00    -0.059 C 
ATOM     32  C31 ZIN A   1      18.914  -2.819   7.710  0.00  0.00    -0.040 C 
BRANCH  32  33
ATOM     33  C32 ZIN A   1      18.874  -4.221   7.428  0.00  0.00     0.131 A 
ATOM     34  N40 ZIN A   1      17.899  -5.110   7.812  0.00  0.00    -0.206 N 
ATOM     35  C35 ZIN A   1      18.261  -6.340   7.326  0.00  0.00     0.151 A 
ATOM     36  N39 ZIN A   1      16.709  -4.963   8.531  0.00  0.00    -0.177 NA
ATOM     37  N34 ZIN A   1      19.415  -6.216   6.679  0.00  0.00    -0.238 NA
ATOM     38  C36 ZIN A   1      17.427  -7.445   7.573  0.00  0.00     0.054 A 
ATOM     39  C33 ZIN A   1      19.815  -4.951   6.720  0.00  0.00     0.160 A 
ATOM     40  C37 ZIN A   1      16.278  -7.265   8.283  0.00  0.00     0.025 A 
ATOM     41  C38 ZIN A   1      15.936  -5.993   8.758  0.00  0.00     0.139 A 
ENDBRANCH  32  33
ENDBRANCH  29  31
ENDBRANCH   1  24
TORSDOF 7
ENDMDL
MODEL 3
REMARK VINA RESULT:      -9.5      3.386      4.172
REMARK  7 active torsions:
REMARK  status: ('A' for Active; 'I' for Inactive)
REMARK    1  A    between atoms: C5_5  and  C6_6 
REMARK       I    between atoms: C6_6  and  N8_8 
REMARK    2  A    between atoms: N8_8  and  C9_9 
REMARK    3  A    between atoms: C12_12  and  C13_13 
REMARK    4  A    between atoms: C13_13  and  N14_14 
REMARK    5  A    between atoms: C22_22  and  C23_23 
REMARK    6  A    between atoms: C29_29  and  C30_30 
REMARK    7  A    between atoms: C31_31  and  C32_32 
ROOT
ATOM      1  C6  ZIN A   1      18.478  -1.760  12.871  0.00  0.00     0.256 C 
ATOM      2  O7  ZIN A   1      17.390  -1.221  12.921  0.00  0.00    -0.267 OA
ATOM      3  N8  ZIN A   1      19.474  -1.342  13.676  0.00  0.00    -0.323 N 
ATOM      4  H46 ZIN A   1      20.321  -1.815  13.686  0.00  0.00     0.169 HD
ENDROOT
BRANCH   3   5
ATOM      5  C9  ZIN A   1      19.289  -0.225  14.496  0.00  0.00     0.035 A 
ATOM      6  C27 ZIN A   1      19.128  -0.386  15.866  0.00  0.00     0.046 A 
ATOM      7  C22 ZIN A   1      18.950   0.720  16.673  0.00  0.00     0.058 A 
ATOM      8  C12 ZIN A   1      18.922   1.987  16.118  0.00  0.00    -0.015 A 
ATOM      9  C11 ZIN A   1      19.076   2.150  14.753  0.00  0.00     0.012 A 
ATOM     10  C10 ZIN A   1      19.260   1.048  13.942  0.00  0.00     0.030 A 
BRANCH   7  11
ATOM     11  C23 ZIN A   1      18.782   0.547  18.161  0.00  0.00     0.418 C 
ATOM     12  F24 ZIN A   1      17.434   0.713  18.500  0.00  0.00    -0.166 F 
ATOM     13  F25 ZIN A   1      19.202  -0.733  18.534  0.00  0.00    -0.166 F 
ATOM     14  F26 ZIN A   1      19.552   1.505  18.831  0.00  0.00    -0.166 F 
ENDBRANCH   7  11
BRANCH   8  15
ATOM     15  C13 ZIN A   1      18.720   3.191  17.002  0.00  0.00     0.311 C 
BRANCH  15  16
ATOM     16  N14 ZIN A   1      18.453   4.371  16.169  0.00  0.00     0.096 N 
ATOM     17  C21 ZIN A   1      17.298   5.124  16.677  0.00  0.00     0.300 C 
ATOM     18  C20 ZIN A   1      17.017   6.308  15.749  0.00  0.00     0.264 C 
ATOM     19  N17 ZIN A   1      18.200   7.175  15.691  0.00  0.00    -0.072 N 
ATOM     20  C16 ZIN A   1      19.340   6.416  15.159  0.00  0.00     0.264 C 
ATOM     21  H18 ZIN A   1      18.421   7.506  16.619  0.00  0.00     0.279 HD
ATOM     22  C19 ZIN A   1      17.924   8.321  14.815  0.00  0.00     0.269 C 
ATOM     23  C15 ZIN A   1      19.640   5.232  16.081  0.00  0.00     0.300 C 
ENDBRANCH  15  16
ENDBRANCH   8  15
ENDBRANCH   3   5
BRANCH   1  24
ATOM     24  C5  ZIN A   1      18.708  -2.875  11.927  0.00  0.00     0.033 A 
ATOM     25  C4  ZIN A   1      19.984  -3.431  11.798  0.00  0.00     0.017 A 
ATOM     26  C3  ZIN A   1      20.202  -4.472  10.917  0.00  0.00     0.009 A 
ATOM     27  C2  ZIN A   1      19.164  -4.972  10.158  0.00  0.00    -0.043 A 
ATOM     28  C1  ZIN A   1      19.411  -6.109   9.201  0.00  0.00     0.049 C 
ATOM     29  C29 ZIN A   1      17.882  -4.422  10.273  0.00  0.00     0.025 A 
ATOM     30  C28 ZIN A   1      17.654  -3.373  11.165  0.00  0.00     0.038 A 
BRANCH  29  31
ATOM     31  C30 ZIN A   1      16.805  -4.941   9.484  0.00  0.00    -0.059 C 
ATOM     32  C31 ZIN A   1      15.922  -5.366   8.837  0.00  0.00    -0.040 C 
BRANCH  32  33
ATOM     33  C32 ZIN A   1      14.845  -5.885   8.050  0.00  0.00     0.131 A 
ATOM     34  N40 ZIN A   1      14.883  -6.202   6.713  0.00  0.00    -0.206 N 
ATOM     35  C35 ZIN A   1      13.638  -6.665   6.373  0.00  0.00     0.151 A 
ATOM     36  N39 ZIN A   1      15.897  -6.149   5.752  0.00  0.00    -0.177 NA
ATOM     37  N34 ZIN A   1      12.863  -6.625   7.452  0.00  0.00    -0.238 NA
ATOM     38  C36 ZIN A   1      13.397  -7.069   5.048  0.00  0.00     0.054 A 
ATOM     39  C33 ZIN A   1      13.558  -6.159   8.483  0.00  0.00     0.160 A 
ATOM     40  C37 ZIN A   1      14.407  -6.997   4.137  0.00  0.00     0.025 A 
ATOM     41  C38 ZIN A   1      15.668  -6.526   4.521  0.00  0.00     0.139 A 
ENDBRANCH  32  33
ENDBRANCH  29  31
ENDBRANCH   1  24
TORSDOF 7
ENDMDL
MODEL 4
REMARK VINA RESULT:      -9.5      2.002      2.411
REMARK  7 active torsions:
REMARK  status: ('A' for Active; 'I' for Inactive)
REMARK    1  A    between atoms: C5_5  and  C6_6 
REMARK       I    between atoms: C6_6  and  N8_8 
REMARK    2  A    between atoms: N8_8  and  C9_9 
REMARK    3  A    between atoms: C12_12  and  C13_13 
REMARK    4  A    between atoms: C13_13  and  N14_14 
REMARK    5  A    between atoms: C22_22  and  C23_23 
REMARK    6  A    between atoms: C29_29  and  C30_30 
REMARK    7  A    between atoms: C31_31  and  C32_32 
ROOT
ATOM      1  C6  ZIN A   1      19.329   1.936  11.415  0.00  0.00     0.256 C 
ATOM      2  O7  ZIN A   1      20.440   2.128  11.871  0.00  0.00    -0.267 OA
ATOM      3  N8  ZIN A   1      18.241   2.133  12.186  0.00  0.00    -0.323 N 
ATOM      4  H46 ZIN A   1      17.354   2.047  11.803  0.00  0.00     0.169 HD
ENDROOT
BRANCH   3   5
ATOM      5  C9  ZIN A   1      18.391   2.460  13.536  0.00  0.00     0.035 A 
ATOM      6  C27 ZIN A   1      18.422   1.456  14.497  0.00  0.00     0.046 A 
ATOM      7  C22 ZIN A   1      18.576   1.783  15.829  0.00  0.00     0.058 A 
ATOM      8  C12 ZIN A   1      18.688   3.108  16.210  0.00  0.00    -0.015 A 
ATOM      9  C11 ZIN A   1      18.652   4.110  15.257  0.00  0.00     0.012 A 
ATOM     10  C10 ZIN A   1      18.505   3.789  13.922  0.00  0.00     0.030 A 
BRANCH   7  11
ATOM     11  C23 ZIN A   1      18.616   0.695  16.872  0.00  0.00     0.418 C 
ATOM     12  F24 ZIN A   1      18.732  -0.550  16.242  0.00  0.00    -0.166 F 
ATOM     13  F25 ZIN A   1      19.713   0.896  17.715  0.00  0.00    -0.166 F 
ATOM     14  F26 ZIN A   1      17.436   0.727  17.624  0.00  0.00    -0.166 F 
ENDBRANCH   7  11
BRANCH   8  15
ATOM     15  C13 ZIN A   1      18.848   3.460  17.667  0.00  0.00     0.311 C 
BRANCH  15  16
ATOM     16  N14 ZIN A   1      17.610   4.077  18.161  0.00  0.00     0.096 N 
ATOM     17  C21 ZIN A   1      17.216   3.504  19.455  0.00  0.00     0.300 C 
ATOM     18  C20 ZIN A   1      15.894   4.128  19.905  0.00  0.00     0.264 C 
ATOM     19  N17 ZIN A   1      16.055   5.583  20.024  0.00  0.00    -0.072 N 
ATOM     20  C16 ZIN A   1      16.424   6.145  18.717  0.00  0.00     0.264 C 
ATOM     21  H18 ZIN A   1      16.780   5.788  20.695  0.00  0.00     0.279 HD
ATOM     22  C19 ZIN A   1      14.790   6.181  20.472  0.00  0.00     0.269 C 
ATOM     23  C15 ZIN A   1      17.751   5.537  18.257  0.00  0.00     0.300 C 
ENDBRANCH  15  16
ENDBRANCH   8  15
ENDBRANCH   3   5
BRANCH   1  24
ATOM     24  C5  ZIN A   1      19.173   1.487  10.015  0.00  0.00     0.033 A 
ATOM     25  C4  ZIN A   1      19.052   2.427   8.988  0.00  0.00     0.017 A 
ATOM     26  C3  ZIN A   1      18.906   2.011   7.679  0.00  0.00     0.009 A 
ATOM     27  C2  ZIN A   1      18.877   0.665   7.374  0.00  0.00    -0.043 A 
ATOM     28  C1  ZIN A   1      18.718   0.222   5.944  0.00  0.00     0.049 C 
ATOM     29  C29 ZIN A   1      18.991  -0.288   8.393  0.00  0.00     0.025 A 
ATOM     30  C28 ZIN A   1      19.145   0.127   9.717  0.00  0.00     0.038 A 
BRANCH  29  31
ATOM     31  C30 ZIN A   1      18.961  -1.684   8.076  0.00  0.00    -0.059 C 
ATOM     32  C31 ZIN A   1      18.936  -2.829   7.817  0.00  0.00    -0.040 C 
BRANCH  32  33
ATOM     33  C32 ZIN A   1      18.906  -4.225   7.500  0.00  0.00     0.131 A 
ATOM     34  N40 ZIN A   1      17.929  -5.126   7.850  0.00  0.00    -0.206 N 
ATOM     35  C35 ZIN A   1      18.303  -6.342   7.339  0.00  0.00     0.151 A 
ATOM     36  N39 ZIN A   1      16.730  -5.002   8.557  0.00  0.00    -0.177 NA
ATOM     37  N34 ZIN A   1      19.465  -6.198   6.710  0.00  0.00    -0.238 NA
ATOM     38  C36 ZIN A   1      17.471  -7.457   7.549  0.00  0.00     0.054 A 
ATOM     39  C33 ZIN A   1      19.859  -4.933   6.787  0.00  0.00     0.160 A 
ATOM     40  C37 ZIN A   1      16.313  -7.299   8.248  0.00  0.00     0.025 A 
ATOM     41  C38 ZIN A   1      15.960  -6.040   8.750  0.00  0.00     0.139 A 
ENDBRANCH  32  33
ENDBRANCH  29  31
ENDBRANCH   1  24
TORSDOF 7
ENDMDL
MODEL 5
REMARK VINA RESULT:      -9.4      3.857     12.575
REMARK  7 active torsions:
REMARK  status: ('A' for Active; 'I' for Inactive)
REMARK    1  A    between atoms: C5_5  and  C6_6 
REMARK       I    between atoms: C6_6  and  N8_8 
REMARK    2  A    between atoms: N8_8  and  C9_9 
REMARK    3  A    between atoms: C12_12  and  C13_13 
REMARK    4  A    between atoms: C13_13  and  N14_14 
REMARK    5  A    between atoms: C22_22  and  C23_23 
REMARK    6  A    between atoms: C29_29  and  C30_30 
REMARK    7  A    between atoms: C31_31  and  C32_32 
ROOT
ATOM      1  C6  ZIN A   1      18.619   1.796   9.578  0.00  0.00     0.256 C 
ATOM      2  O7  ZIN A   1      19.653   1.887   8.946  0.00  0.00    -0.267 OA
ATOM      3  N8  ZIN A   1      17.860   0.687   9.472  0.00  0.00    -0.323 N 
ATOM      4  H46 ZIN A   1      17.072   0.584  10.027  0.00  0.00     0.169 HD
ENDROOT
BRANCH   3   5
ATOM      5  C9  ZIN A   1      18.208  -0.314   8.560  0.00  0.00     0.035 A 
ATOM      6  C27 ZIN A   1      18.022  -0.111   7.199  0.00  0.00     0.046 A 
ATOM      7  C22 ZIN A   1      18.372  -1.099   6.301  0.00  0.00     0.058 A 
ATOM      8  C12 ZIN A   1      18.898  -2.295   6.756  0.00  0.00    -0.015 A 
ATOM      9  C11 ZIN A   1      19.080  -2.502   8.111  0.00  0.00     0.012 A 
ATOM     10  C10 ZIN A   1      18.737  -1.515   9.014  0.00  0.00     0.030 A 
BRANCH   7  11
ATOM     11  C23 ZIN A   1      18.176  -0.878   4.823  0.00  0.00     0.418 C 
ATOM     12  F24 ZIN A   1      16.996  -1.506   4.410  0.00  0.00    -0.166 F 
ATOM     13  F25 ZIN A   1      18.091   0.493   4.563  0.00  0.00    -0.166 F 
ATOM     14  F26 ZIN A   1      19.261  -1.419   4.123  0.00  0.00    -0.166 F 
ENDBRANCH   7  11
BRANCH   8  15
ATOM     15  C13 ZIN A   1      19.272  -3.375   5.773  0.00  0.00     0.311 C 
BRANCH  15  16
ATOM     16  N14 ZIN A   1      18.326  -4.493   5.889  0.00  0.00     0.096 N 
ATOM     17  C21 ZIN A   1      17.628  -4.726   4.618  0.00  0.00     0.300 C 
ATOM     18  C20 ZIN A   1      16.611  -5.856   4.798  0.00  0.00     0.264 C 
ATOM     19  N17 ZIN A   1      17.307  -7.077   5.225  0.00  0.00    -0.072 N 
ATOM     20  C16 ZIN A   1      17.979  -6.835   6.509  0.00  0.00     0.264 C 
ATOM     21  H18 ZIN A   1      17.992  -7.335   4.530  0.00  0.00     0.279 HD
ATOM     22  C19 ZIN A   1      16.333  -8.166   5.381  0.00  0.00     0.269 C 
ATOM     23  C15 ZIN A   1      19.007  -5.713   6.343  0.00  0.00     0.300 C 
ENDBRANCH  15  16
ENDBRANCH   8  15
ENDBRANCH   3   5
BRANCH   1  24
ATOM     24  C5  ZIN A   1      18.195   2.901  10.464  0.00  0.00     0.033 A 
ATOM     25  C4  ZIN A   1      17.620   4.053   9.920  0.00  0.00     0.017 A 
ATOM     26  C3  ZIN A   1      17.223   5.087  10.745  0.00  0.00     0.009 A 
ATOM     27  C2  ZIN A   1      17.389   4.992  12.112  0.00  0.00    -0.043 A 
ATOM     28  C1  ZIN A   1      16.952   6.124  13.004  0.00  0.00     0.049 C 
ATOM     29  C29 ZIN A   1      17.968   3.846  12.671  0.00  0.00     0.025 A 
ATOM     30  C28 ZIN A   1      18.367   2.796  11.842  0.00  0.00     0.038 A 
BRANCH  29  31
ATOM     31  C30 ZIN A   1      18.142   3.749  14.089  0.00  0.00    -0.059 C 
ATOM     32  C31 ZIN A   1      18.284   3.669  15.252  0.00  0.00    -0.040 C 
BRANCH  32  33
ATOM     33  C32 ZIN A   1      18.458   3.570  16.669  0.00  0.00     0.131 A 
ATOM     34  N40 ZIN A   1      17.828   4.326  17.629  0.00  0.00    -0.206 N 
ATOM     35  C35 ZIN A   1      18.289   3.895  18.846  0.00  0.00     0.151 A 
ATOM     36  N39 ZIN A   1      16.876   5.346  17.561  0.00  0.00    -0.177 NA
ATOM     37  N34 ZIN A   1      19.172   2.922  18.645  0.00  0.00    -0.238 NA
ATOM     38  C36 ZIN A   1      17.800   4.502  20.016  0.00  0.00     0.054 A 
ATOM     39  C33 ZIN A   1      19.300   2.700  17.342  0.00  0.00     0.160 A 
ATOM     40  C37 ZIN A   1      16.876   5.498  19.911  0.00  0.00     0.025 A 
ATOM     41  C38 ZIN A   1      16.423   5.908  18.652  0.00  0.00     0.139 A 
ENDBRANCH  32  33
ENDBRANCH  29  31
ENDBRANCH   1  24
TORSDOF 7
ENDMDL
MODEL 6
REMARK VINA RESULT:      -9.3      4.144     12.191
REMARK  7 active torsions:
REMARK  status: ('A' for Active; 'I' for Inactive)
REMARK    1  A    between atoms: C5_5  and  C6_6 
REMARK       I    between atoms: C6_6  and  N8_8 
REMARK    2  A    between atoms: N8_8  and  C9_9 
REMARK    3  A    between atoms: C12_12  and  C13_13 
REMARK    4  A    between atoms: C13_13  and  N14_14 
REMARK    5  A    between atoms: C22_22  and  C23_23 
REMARK    6  A    between atoms: C29_29  and  C30_30 
REMARK    7  A    between atoms: C31_31  and  C32_32 
ROOT
ATOM      1  C6  ZIN A   1      18.257  -1.776  12.806  0.00  0.00     0.256 C 
ATOM      2  O7  ZIN A   1      17.193  -1.738  12.220  0.00  0.00    -0.267 OA
ATOM      3  N8  ZIN A   1      19.263  -2.533  12.326  0.00  0.00    -0.323 N 
ATOM      4  H46 ZIN A   1      20.134  -2.510  12.753  0.00  0.00     0.169 HD
ENDROOT
BRANCH   3   5
ATOM      5  C9  ZIN A   1      19.052  -3.353  11.214  0.00  0.00     0.035 A 
ATOM      6  C27 ZIN A   1      19.244  -2.851   9.932  0.00  0.00     0.046 A 
ATOM      7  C22 ZIN A   1      19.040  -3.666   8.836  0.00  0.00     0.058 A 
ATOM      8  C12 ZIN A   1      18.634  -4.977   9.012  0.00  0.00    -0.015 A 
ATOM      9  C11 ZIN A   1      18.436  -5.477  10.286  0.00  0.00     0.012 A 
ATOM     10  C10 ZIN A   1      18.644  -4.669  11.386  0.00  0.00     0.030 A 
BRANCH   7  11
ATOM     11  C23 ZIN A   1      19.255  -3.126   7.446  0.00  0.00     0.418 C 
ATOM     12  F24 ZIN A   1      19.597  -1.771   7.520  0.00  0.00    -0.166 F 
ATOM     13  F25 ZIN A   1      20.287  -3.835   6.823  0.00  0.00    -0.166 F 
ATOM     14  F26 ZIN A   1      18.077  -3.268   6.703  0.00  0.00    -0.166 F 
ENDBRANCH   7  11
BRANCH   8  15
ATOM     15  C13 ZIN A   1      18.404  -5.860   7.813  0.00  0.00     0.311 C 
BRANCH  15  16
ATOM     16  N14 ZIN A   1      17.208  -6.683   8.032  0.00  0.00     0.096 N 
ATOM     17  C21 ZIN A   1      15.998  -5.986   7.574  0.00  0.00     0.300 C 
ATOM     18  C20 ZIN A   1      14.771  -6.849   7.875  0.00  0.00     0.264 C 
ATOM     19  N17 ZIN A   1      14.901  -8.141   7.188  0.00  0.00    -0.072 N 
ATOM     20  C16 ZIN A   1      16.101  -8.837   7.674  0.00  0.00     0.264 C 
ATOM     21  H18 ZIN A   1      14.982  -7.987   6.194  0.00  0.00     0.279 HD
ATOM     22  C19 ZIN A   1      13.715  -8.963   7.462  0.00  0.00     0.269 C 
ATOM     23  C15 ZIN A   1      17.340  -7.990   7.372  0.00  0.00     0.300 C 
ENDBRANCH  15  16
ENDBRANCH   8  15
ENDBRANCH   3   5
BRANCH   1  24
ATOM     24  C5  ZIN A   1      18.448  -0.990  14.044  0.00  0.00     0.033 A 
ATOM     25  C4  ZIN A   1      18.618  -1.642  15.268  0.00  0.00     0.017 A 
ATOM     26  C3  ZIN A   1      18.796  -0.911  16.426  0.00  0.00     0.009 A 
ATOM     27  C2  ZIN A   1      18.809   0.469  16.384  0.00  0.00    -0.043 A 
ATOM     28  C1  ZIN A   1      19.006   1.257  17.653  0.00  0.00     0.049 C 
ATOM     29  C29 ZIN A   1      18.636   1.136  15.166  0.00  0.00     0.025 A 
ATOM     30  C28 ZIN A   1      18.460   0.402  13.992  0.00  0.00     0.038 A 
BRANCH  29  31
ATOM     31  C30 ZIN A   1      18.648   2.567  15.124  0.00  0.00    -0.059 C 
ATOM     32  C31 ZIN A   1      18.658   3.741  15.089  0.00  0.00    -0.040 C 
BRANCH  32  33
ATOM     33  C32 ZIN A   1      18.671   5.172  15.047  0.00  0.00     0.131 A 
ATOM     34  N40 ZIN A   1      17.580   6.006  15.105  0.00  0.00    -0.206 N 
ATOM     35  C35 ZIN A   1      18.052   7.291  15.035  0.00  0.00     0.151 A 
ATOM     36  N39 ZIN A   1      16.208   5.769  15.230  0.00  0.00    -0.177 NA
ATOM     37  N34 ZIN A   1      19.376   7.250  14.929  0.00  0.00    -0.238 NA
ATOM     38  C36 ZIN A   1      17.138   8.359  15.078  0.00  0.00     0.054 A 
ATOM     39  C33 ZIN A   1      19.785   5.987  14.932  0.00  0.00     0.160 A 
ATOM     40  C37 ZIN A   1      15.807   8.089  15.194  0.00  0.00     0.025 A 
ATOM     41  C38 ZIN A   1      15.361   6.764  15.269  0.00  0.00     0.139 A 
ENDBRANCH  32  33
ENDBRANCH  29  31
ENDBRANCH   1  24
TORSDOF 7
ENDMDL
MODEL 7
REMARK VINA RESULT:      -9.3      3.759     12.552
REMARK  7 active torsions:
REMARK  status: ('A' for Active; 'I' for Inactive)
REMARK    1  A    between atoms: C5_5  and  C6_6 
REMARK       I    between atoms: C6_6  and  N8_8 
REMARK    2  A    between atoms: N8_8  and  C9_9 
REMARK    3  A    between atoms: C12_12  and  C13_13 
REMARK    4  A    between atoms: C13_13  and  N14_14 
REMARK    5  A    between atoms: C22_22  and  C23_23 
REMARK    6  A    between atoms: C29_29  and  C30_30 
REMARK    7  A    between atoms: C31_31  and  C32_32 
ROOT
ATOM      1  C6  ZIN A   1      19.345  -1.116  11.661  0.00  0.00     0.256 C 
ATOM      2  O7  ZIN A   1      20.457  -1.126  11.170  0.00  0.00    -0.267 OA
ATOM      3  N8  ZIN A   1      18.283  -1.510  10.932  0.00  0.00    -0.323 N 
ATOM      4  H46 ZIN A   1      17.406  -1.568  11.343  0.00  0.00     0.169 HD
ENDROOT
BRANCH   3   5
ATOM      5  C9  ZIN A   1      18.443  -1.834   9.582  0.00  0.00     0.035 A 
ATOM      6  C27 ZIN A   1      18.373  -0.840   8.614  0.00  0.00     0.046 A 
ATOM      7  C22 ZIN A   1      18.538  -1.163   7.282  0.00  0.00     0.058 A 
ATOM      8  C12 ZIN A   1      18.761  -2.476   6.909  0.00  0.00    -0.015 A 
ATOM      9  C11 ZIN A   1      18.825  -3.469   7.869  0.00  0.00     0.012 A 
ATOM     10  C10 ZIN A   1      18.667  -3.151   9.204  0.00  0.00     0.030 A 
BRANCH   7  11
ATOM     11  C23 ZIN A   1      18.470  -0.084   6.231  0.00  0.00     0.418 C 
ATOM     12  F24 ZIN A   1      18.440   1.170   6.852  0.00  0.00    -0.166 F 
ATOM     13  F25 ZIN A   1      19.592  -0.168   5.402  0.00  0.00    -0.166 F 
ATOM     14  F26 ZIN A   1      17.310  -0.252   5.466  0.00  0.00    -0.166 F 
ENDBRANCH   7  11
BRANCH   8  15
ATOM     15  C13 ZIN A   1      18.932  -2.826   5.453  0.00  0.00     0.311 C 
BRANCH  15  16
ATOM     16  N14 ZIN A   1      17.808  -3.662   5.013  0.00  0.00     0.096 N 
ATOM     17  C21 ZIN A   1      17.209  -3.134   3.780  0.00  0.00     0.300 C 
ATOM     18  C20 ZIN A   1      16.006  -3.995   3.390  0.00  0.00     0.264 C 
ATOM     19  N17 ZIN A   1      16.444  -5.383   3.187  0.00  0.00    -0.072 N 
ATOM     20  C16 ZIN A   1      17.017  -5.905   4.435  0.00  0.00     0.264 C 
ATOM     21  H18 ZIN A   1      17.142  -5.412   2.459  0.00  0.00     0.279 HD
ATOM     22  C19 ZIN A   1      15.292  -6.206   2.795  0.00  0.00     0.269 C 
ATOM     23  C15 ZIN A   1      18.228  -5.058   4.834  0.00  0.00     0.300 C 
ENDBRANCH  15  16
ENDBRANCH   8  15
ENDBRANCH   3   5
BRANCH   1  24
ATOM     24  C5  ZIN A   1      19.159  -0.672  13.059  0.00  0.00     0.033 A 
ATOM     25  C4  ZIN A   1      19.111  -1.613  14.092  0.00  0.00     0.017 A 
ATOM     26  C3  ZIN A   1      18.937  -1.201  15.399  0.00  0.00     0.009 A 
ATOM     27  C2  ZIN A   1      18.809   0.140  15.696  0.00  0.00    -0.043 A 
ATOM     28  C1  ZIN A   1      18.621   0.579  17.125  0.00  0.00     0.049 C 
ATOM     29  C29 ZIN A   1      18.850   1.094  14.672  0.00  0.00     0.025 A 
ATOM     30  C28 ZIN A   1      19.030   0.684  13.350  0.00  0.00     0.038 A 
BRANCH  29  31
ATOM     31  C30 ZIN A   1      18.716   2.486  14.981  0.00  0.00    -0.059 C 
ATOM     32  C31 ZIN A   1      18.606   3.627  15.235  0.00  0.00    -0.040 C 
BRANCH  32  33
ATOM     33  C32 ZIN A   1      18.471   5.018  15.544  0.00  0.00     0.131 A 
ATOM     34  N40 ZIN A   1      17.358   5.800  15.345  0.00  0.00    -0.206 N 
ATOM     35  C35 ZIN A   1      17.669   7.061  15.784  0.00  0.00     0.151 A 
ATOM     36  N39 ZIN A   1      16.085   5.529  14.836  0.00  0.00    -0.177 NA
ATOM     37  N34 ZIN A   1      18.923   7.059  16.225  0.00  0.00    -0.238 NA
ATOM     38  C36 ZIN A   1      16.696   8.073  15.701  0.00  0.00     0.054 A 
ATOM     39  C33 ZIN A   1      19.438   5.842  16.095  0.00  0.00     0.160 A 
ATOM     40  C37 ZIN A   1      15.468   7.773  15.192  0.00  0.00     0.025 A 
ATOM     41  C38 ZIN A   1      15.183   6.472  14.760  0.00  0.00     0.139 A 
ENDBRANCH  32  33
ENDBRANCH  29  31
ENDBRANCH   1  24
TORSDOF 7
ENDMDL
MODEL 8
REMARK VINA RESULT:      -8.9      3.393      4.235
REMARK  7 active torsions:
REMARK  status: ('A' for Active; 'I' for Inactive)
REMARK    1  A    between atoms: C5_5  and  C6_6 
REMARK       I    between atoms: C6_6  and  N8_8 
REMARK    2  A    between atoms: N8_8  and  C9_9 
REMARK    3  A    between atoms: C12_12  and  C13_13 
REMARK    4  A    between atoms: C13_13  and  N14_14 
REMARK    5  A    between atoms: C22_22  and  C23_23 
REMARK    6  A    between atoms: C29_29  and  C30_30 
REMARK    7  A    between atoms: C31_31  and  C32_32 
ROOT
ATOM      1  C6  ZIN A   1      18.873   1.979   8.454  0.00  0.00     0.256 C 
ATOM      2  O7  ZIN A   1      18.877   3.153   8.139  0.00  0.00    -0.267 OA
ATOM      3  N8  ZIN A   1      18.812   1.630   9.755  0.00  0.00    -0.323 N 
ATOM      4  H46 ZIN A   1      18.740   0.696  10.003  0.00  0.00     0.169 HD
ENDROOT
BRANCH   3   5
ATOM      5  C9  ZIN A   1      18.855   2.616  10.745  0.00  0.00     0.035 A 
ATOM      6  C27 ZIN A   1      17.751   3.430  10.965  0.00  0.00     0.046 A 
ATOM      7  C22 ZIN A   1      17.795   4.399  11.948  0.00  0.00     0.058 A 
ATOM      8  C12 ZIN A   1      18.941   4.567  12.706  0.00  0.00    -0.015 A 
ATOM      9  C11 ZIN A   1      20.043   3.762  12.485  0.00  0.00     0.012 A 
ATOM     10  C10 ZIN A   1      20.003   2.787  11.507  0.00  0.00     0.030 A 
BRANCH   7  11
ATOM     11  C23 ZIN A   1      16.596   5.279  12.193  0.00  0.00     0.418 C 
ATOM     12  F24 ZIN A   1      15.995   4.920  13.404  0.00  0.00    -0.166 F 
ATOM     13  F25 ZIN A   1      17.002   6.616  12.252  0.00  0.00    -0.166 F 
ATOM     14  F26 ZIN A   1      15.678   5.115  11.150  0.00  0.00    -0.166 F 
ENDBRANCH   7  11
BRANCH   8  15
ATOM     15  C13 ZIN A   1      18.988   5.631  13.772  0.00  0.00     0.311 C 
BRANCH  15  16
ATOM     16  N14 ZIN A   1      18.476   5.082  15.035  0.00  0.00     0.096 N 
ATOM     17  C21 ZIN A   1      19.561   4.489  15.829  0.00  0.00     0.300 C 
ATOM     18  C20 ZIN A   1      18.979   3.876  17.105  0.00  0.00     0.264 C 
ATOM     19  N17 ZIN A   1      18.295   4.919  17.881  0.00  0.00    -0.072 N 
ATOM     20  C16 ZIN A   1      17.198   5.485  17.083  0.00  0.00     0.264 C 
ATOM     21  H18 ZIN A   1      18.952   5.649  18.115  0.00  0.00     0.279 HD
ATOM     22  C19 ZIN A   1      17.752   4.335  19.114  0.00  0.00     0.269 C 
ATOM     23  C15 ZIN A   1      17.766   6.111  15.807  0.00  0.00     0.300 C 
ENDBRANCH  15  16
ENDBRANCH   8  15
ENDBRANCH   3   5
BRANCH   1  24
ATOM     24  C5  ZIN A   1      18.935   0.933   7.410  0.00  0.00     0.033 A 
ATOM     25  C4  ZIN A   1      19.193   1.284   6.083  0.00  0.00     0.017 A 
ATOM     26  C3  ZIN A   1      19.251   0.310   5.105  0.00  0.00     0.009 A 
ATOM     27  C2  ZIN A   1      19.055  -1.017   5.431  0.00  0.00    -0.043 A 
ATOM     28  C1  ZIN A   1      19.121  -2.072   4.358  0.00  0.00     0.049 C 
ATOM     29  C29 ZIN A   1      18.790  -1.383   6.755  0.00  0.00     0.025 A 
ATOM     30  C28 ZIN A   1      18.735  -0.403   7.748  0.00  0.00     0.038 A 
BRANCH  29  31
ATOM     31  C30 ZIN A   1      18.585  -2.760   7.093  0.00  0.00    -0.059 C 
ATOM     32  C31 ZIN A   1      18.417  -3.888   7.369  0.00  0.00    -0.040 C 
BRANCH  32  33
ATOM     33  C32 ZIN A   1      18.212  -5.264   7.705  0.00  0.00     0.131 A 
ATOM     34  N40 ZIN A   1      17.112  -6.030   7.399  0.00  0.00    -0.206 N 
ATOM     35  C35 ZIN A   1      17.339  -7.282   7.909  0.00  0.00     0.151 A 
ATOM     36  N39 ZIN A   1      15.929  -5.760   6.705  0.00  0.00    -0.177 NA
ATOM     37  N34 ZIN A   1      18.524  -7.286   8.511  0.00  0.00    -0.238 NA
ATOM     38  C36 ZIN A   1      16.363  -8.280   7.733  0.00  0.00     0.054 A 
ATOM     39  C33 ZIN A   1      19.079  -6.084   8.408  0.00  0.00     0.160 A 
ATOM     40  C37 ZIN A   1      15.220  -7.978   7.056  0.00  0.00     0.025 A 
ATOM     41  C38 ZIN A   1      15.024  -6.690   6.544  0.00  0.00     0.139 A 
ENDBRANCH  32  33
ENDBRANCH  29  31
ENDBRANCH   1  24
TORSDOF 7
ENDMDL
MODEL 9
REMARK VINA RESULT:      -8.8      2.660      3.712
REMARK  7 active torsions:
REMARK  status: ('A' for Active; 'I' for Inactive)
REMARK    1  A    between atoms: C5_5  and  C6_6 
REMARK       I    between atoms: C6_6  and  N8_8 
REMARK    2  A    between atoms: N8_8  and  C9_9 
REMARK    3  A    between atoms: C12_12  and  C13_13 
REMARK    4  A    between atoms: C13_13  and  N14_14 
REMARK    5  A    between atoms: C22_22  and  C23_23 
REMARK    6  A    between atoms: C29_29  and  C30_30 
REMARK    7  A    between atoms: C31_31  and  C32_32 
ROOT
ATOM      1  C6  ZIN A   1      18.669  -2.025  12.735  0.00  0.00     0.256 C 
ATOM      2  O7  ZIN A   1      19.847  -1.862  12.989  0.00  0.00    -0.267 OA
ATOM      3  N8  ZIN A   1      17.752  -1.161  13.213  0.00  0.00    -0.323 N 
ATOM      4  H46 ZIN A   1      16.821  -1.251  12.955  0.00  0.00     0.169 HD
ENDROOT
BRANCH   3   5
ATOM      5  C9  ZIN A   1      18.141  -0.138  14.082  0.00  0.00     0.035 A 
ATOM      6  C27 ZIN A   1      18.183  -0.366  15.451  0.00  0.00     0.046 A 
ATOM      7  C22 ZIN A   1      18.573   0.646  16.306  0.00  0.00     0.058 A 
ATOM      8  C12 ZIN A   1      18.911   1.889  15.801  0.00  0.00    -0.015 A 
ATOM      9  C11 ZIN A   1      18.864   2.121  14.438  0.00  0.00     0.012 A 
ATOM     10  C10 ZIN A   1      18.480   1.111  13.578  0.00  0.00     0.030 A 
BRANCH   7  11
ATOM     11  C23 ZIN A   1      18.627   0.399  17.792  0.00  0.00     0.418 C 
ATOM     12  F24 ZIN A   1      19.951   0.495  18.233  0.00  0.00    -0.166 F 
ATOM     13  F25 ZIN A   1      17.844   1.351  18.452  0.00  0.00    -0.166 F 
ATOM     14  F26 ZIN A   1      18.136  -0.882  18.069  0.00  0.00    -0.166 F 
ENDBRANCH   7  11
BRANCH   8  15
ATOM     15  C13 ZIN A   1      19.329   2.993  16.738  0.00  0.00     0.311 C 
BRANCH  15  16
ATOM     16  N14 ZIN A   1      18.670   4.246  16.345  0.00  0.00     0.096 N 
ATOM     17  C21 ZIN A   1      17.774   4.724  17.407  0.00  0.00     0.300 C 
ATOM     18  C20 ZIN A   1      17.062   5.994  16.935  0.00  0.00     0.264 C 
ATOM     19  N17 ZIN A   1      18.060   7.023  16.613  0.00  0.00    -0.072 N 
ATOM     20  C16 ZIN A   1      18.933   6.540  15.533  0.00  0.00     0.264 C 
ATOM     21  H18 ZIN A   1      18.617   7.221  17.431  0.00  0.00     0.279 HD
ATOM     22  C19 ZIN A   1      17.377   8.248  16.177  0.00  0.00     0.269 C 
ATOM     23  C15 ZIN A   1      19.659   5.273  15.993  0.00  0.00     0.300 C 
ENDBRANCH  15  16
ENDBRANCH   8  15
ENDBRANCH   3   5
BRANCH   1  24
ATOM     24  C5  ZIN A   1      18.244  -3.170  11.902  0.00  0.00     0.033 A 
ATOM     25  C4  ZIN A   1      17.775  -4.339  12.507  0.00  0.00     0.017 A 
ATOM     26  C3  ZIN A   1      17.377  -5.411  11.731  0.00  0.00     0.009 A 
ATOM     27  C2  ZIN A   1      17.439  -5.337  10.354  0.00  0.00    -0.043 A 
ATOM     28  C1  ZIN A   1      17.002  -6.510   9.517  0.00  0.00     0.049 C 
ATOM     29  C29 ZIN A   1      17.912  -4.174   9.735  0.00  0.00     0.025 A 
ATOM     30  C28 ZIN A   1      18.311  -3.086  10.513  0.00  0.00     0.038 A 
BRANCH  29  31
ATOM     31  C30 ZIN A   1      17.977  -4.098   8.306  0.00  0.00    -0.059 C 
ATOM     32  C31 ZIN A   1      18.031  -4.035   7.135  0.00  0.00    -0.040 C 
BRANCH  32  33
ATOM     33  C32 ZIN A   1      18.098  -3.959   5.707  0.00  0.00     0.131 A 
ATOM     34  N40 ZIN A   1      17.405  -4.736   4.809  0.00  0.00    -0.206 N 
ATOM     35  C35 ZIN A   1      17.769  -4.321   3.554  0.00  0.00     0.151 A 
ATOM     36  N39 ZIN A   1      16.471  -5.763   4.964  0.00  0.00    -0.177 NA
ATOM     37  N34 ZIN A   1      18.655  -3.338   3.674  0.00  0.00    -0.238 NA
ATOM     38  C36 ZIN A   1      17.200  -4.952   2.434  0.00  0.00     0.054 A 
ATOM     39  C33 ZIN A   1      18.877  -3.092   4.959  0.00  0.00     0.160 A 
ATOM     40  C37 ZIN A   1      16.297  -5.954   2.624  0.00  0.00     0.025 A 
ATOM     41  C38 ZIN A   1      15.944  -6.347   3.920  0.00  0.00     0.139 A 
ENDBRANCH  32  33
ENDBRANCH  29  31
ENDBRANCH   1  24
TORSDOF 7
ENDMDL
