MODEL 1
REMARK VINA RESULT:      -9.7      0.000      0.000
REMARK  8 active torsions:
REMARK  status: ('A' for Active; 'I' for Inactive)
REMARK    1  A    between atoms: O2_2  and  C3_3 
REMARK    2  A    between atoms: C4_4  and  O5_5 
REMARK    3  A    between atoms: C14_14  and  O15_15 
REMARK    4  A    between atoms: O15_15  and  C16_16 
REMARK    5  A    between atoms: C19_19  and  N20_20 
REMARK       I    between atoms: N20_20  and  C21_21 
REMARK    6  A    between atoms: C21_21  and  C23_23 
REMARK    7  A    between atoms: C23_23  and  C24_24 
REMARK       I    between atoms: C24_24  and  N26_26 
REMARK    8  A    between atoms: N26_26  and  C27_27 
ROOT
ATOM      1  C16 ZIN A   1      19.184  -0.483   6.864  0.00  0.00     0.076 A 
ATOM      2  C17 ZIN A   1      18.689  -1.021   8.042  0.00  0.00     0.039 A 
ATOM      3  C18 ZIN A   1      18.282  -0.188   9.065  0.00  0.00     0.032 A 
ATOM      4  C19 ZIN A   1      18.367   1.190   8.914  0.00  0.00     0.034 A 
ATOM      5  C36 ZIN A   1      18.863   1.728   7.734  0.00  0.00     0.032 A 
ATOM      6  C37 ZIN A   1      19.275   0.894   6.714  0.00  0.00     0.039 A 
ENDROOT
BRANCH   4   7
ATOM      7  N20 ZIN A   1      17.954   2.036   9.951  0.00  0.00    -0.326 N 
ATOM      8  C21 ZIN A   1      18.787   2.302  10.976  0.00  0.00     0.240 C 
ATOM      9  O22 ZIN A   1      19.876   1.770  11.026  0.00  0.00    -0.272 OA
ATOM     10  H50 ZIN A   1      17.068   2.430   9.932  0.00  0.00     0.169 HD
BRANCH   8  11
ATOM     11  C23 ZIN A   1      18.366   3.260  12.060  0.00  0.00     0.122 A 
ATOM     12  C35 ZIN A   1      17.342   4.336  11.693  0.00  0.00     0.031 A 
ATOM     13  C34 ZIN A   1      18.805   4.719  11.923  0.00  0.00     0.031 A 
BRANCH  11  14
ATOM     14  C24 ZIN A   1      18.299   2.680  13.449  0.00  0.00     0.240 C 
ATOM     15  O25 ZIN A   1      17.340   2.907  14.155  0.00  0.00    -0.272 OA
ATOM     16  N26 ZIN A   1      19.306   1.910  13.907  0.00  0.00    -0.326 N 
ATOM     17  H51 ZIN A   1      20.099   1.775  13.364  0.00  0.00     0.169 HD
BRANCH  16  18
ATOM     18  C27 ZIN A   1      19.208   1.304  15.166  0.00  0.00     0.034 A 
ATOM     19  C33 ZIN A   1      18.955  -0.057  15.263  0.00  0.00     0.032 A 
ATOM     20  C32 ZIN A   1      18.864  -0.654  16.506  0.00  0.00     0.044 A 
ATOM     21  C30 ZIN A   1      19.013   0.106  17.653  0.00  0.00     0.116 A 
ATOM     22  C29 ZIN A   1      19.260   1.466  17.557  0.00  0.00     0.044 A 
ATOM     23  F31 ZIN A   1      18.918  -0.478  18.867  0.00  0.00    -0.206 F 
ATOM     24  C28 ZIN A   1      19.357   2.066  16.317  0.00  0.00     0.032 A 
ENDBRANCH  16  18
ENDBRANCH  11  14
ENDBRANCH   8  11
ENDBRANCH   4   7
BRANCH   1  25
ATOM     25  O15 ZIN A   1      19.585  -1.304   5.857  0.00  0.00    -0.310 OA
BRANCH  25  26
ATOM     26  C14 ZIN A   1      18.656  -2.108   5.283  0.00  0.00     0.090 A 
ATOM     27  C8  ZIN A   1      18.608  -3.489   5.576  0.00  0.00     0.029 A 
ATOM     28  C7  ZIN A   1      19.519  -4.076   6.468  0.00  0.00     0.056 A 
ATOM     29  C9  ZIN A   1      17.619  -4.288   4.953  0.00  0.00     0.072 A 
ATOM     30  C4  ZIN A   1      19.444  -5.415   6.727  0.00  0.00     0.102 A 
ATOM     31  C3  ZIN A   1      18.466  -6.207   6.111  0.00  0.00     0.103 A 
ATOM     32  C10 ZIN A   1      17.572  -5.664   5.235  0.00  0.00     0.072 A 
ATOM     33  N11 ZIN A   1      16.750  -3.731   4.101  0.00  0.00    -0.260 NA
ATOM     34  C12 ZIN A   1      16.785  -2.449   3.822  0.00  0.00     0.120 A 
ATOM     35  C13 ZIN A   1      17.725  -1.600   4.394  0.00  0.00     0.057 A 
BRANCH  30  36
ATOM     36  O5  ZIN A   1      20.326  -5.983   7.591  0.00  0.00    -0.353 OA
ATOM     37  C6  ZIN A   1      20.034  -5.871   8.985  0.00  0.00     0.210 C 
ENDBRANCH  30  36
BRANCH  31  38
ATOM     38  O2  ZIN A   1      18.412  -7.537   6.385  0.00  0.00    -0.353 OA
ATOM     39  C1  ZIN A   1      17.259  -8.009   7.087  0.00  0.00     0.210 C 
ENDBRANCH  31  38
ENDBRANCH  25  26
ENDBRANCH   1  25
TORSDOF 8
ENDMDL
MODEL 2
REMARK VINA RESULT:      -9.5      4.011     11.802
REMARK  8 active torsions:
REMARK  status: ('A' for Active; 'I' for Inactive)
REMARK    1  A    between atoms: O2_2  and  C3_3 
REMARK    2  A    between atoms: C4_4  and  O5_5 
REMARK    3  A    between atoms: C14_14  and  O15_15 
REMARK    4  A    between atoms: O15_15  and  C16_16 
REMARK    5  A    between atoms: C19_19  and  N20_20 
REMARK       I    between atoms: N20_20  and  C21_21 
REMARK    6  A    between atoms: C21_21  and  C23_23 
REMARK    7  A    between atoms: C23_23  and  C24_24 
REMARK       I    between atoms: C24_24  and  N26_26 
REMARK    8  A    between atoms: N26_26  and  C27_27 
ROOT
ATOM      1  C16 ZIN A   1      19.158   0.765  16.375  0.00  0.00     0.076 A 
ATOM      2  C17 ZIN A   1      18.926   1.244  15.094  0.00  0.00     0.039 A 
ATOM      3  C18 ZIN A   1      18.546   0.377  14.090  0.00  0.00     0.032 A 
ATOM      4  C19 ZIN A   1      18.395  -0.977  14.362  0.00  0.00     0.034 A 
ATOM      5  C36 ZIN A   1      18.627  -1.456  15.644  0.00  0.00     0.032 A 
ATOM      6  C37 ZIN A   1      19.012  -0.588  16.647  0.00  0.00     0.039 A 
ENDROOT
BRANCH   4   7
ATOM      7  N20 ZIN A   1      18.010  -1.858  13.344  0.00  0.00    -0.326 N 
ATOM      8  C21 ZIN A   1      18.849  -2.116  12.322  0.00  0.00     0.240 C 
ATOM      9  O22 ZIN A   1      19.918  -1.546  12.257  0.00  0.00    -0.272 OA
ATOM     10  H50 ZIN A   1      17.138  -2.283  13.374  0.00  0.00     0.169 HD
BRANCH   8  11
ATOM     11  C23 ZIN A   1      18.460  -3.110  11.258  0.00  0.00     0.122 A 
ATOM     12  C35 ZIN A   1      17.466  -4.207  11.647  0.00  0.00     0.031 A 
ATOM     13  C34 ZIN A   1      18.941  -4.553  11.430  0.00  0.00     0.031 A 
BRANCH  11  14
ATOM     14  C24 ZIN A   1      18.380  -2.564   9.857  0.00  0.00     0.240 C 
ATOM     15  O25 ZIN A   1      17.391  -2.763   9.184  0.00  0.00    -0.272 OA
ATOM     16  N26 ZIN A   1      19.409  -1.855   9.350  0.00  0.00    -0.326 N 
ATOM     17  H51 ZIN A   1      20.223  -1.745   9.867  0.00  0.00     0.169 HD
BRANCH  16  18
ATOM     18  C27 ZIN A   1      19.303  -1.279   8.078  0.00  0.00     0.034 A 
ATOM     19  C33 ZIN A   1      19.429  -2.070   6.945  0.00  0.00     0.032 A 
ATOM     20  C32 ZIN A   1      19.318  -1.500   5.691  0.00  0.00     0.044 A 
ATOM     21  C30 ZIN A   1      19.093  -0.140   5.565  0.00  0.00     0.116 A 
ATOM     22  C29 ZIN A   1      18.974   0.651   6.695  0.00  0.00     0.044 A 
ATOM     23  F31 ZIN A   1      18.992   0.417   4.338  0.00  0.00    -0.206 F 
ATOM     24  C28 ZIN A   1      19.078   0.086   7.951  0.00  0.00     0.032 A 
ENDBRANCH  16  18
ENDBRANCH  11  14
ENDBRANCH   8  11
ENDBRANCH   4   7
BRANCH   1  25
ATOM     25  O15 ZIN A   1      19.532   1.620  17.363  0.00  0.00    -0.310 OA
BRANCH  25  26
ATOM     26  C14 ZIN A   1      18.585   2.435  17.892  0.00  0.00     0.090 A 
ATOM     27  C8  ZIN A   1      18.547   3.810  17.571  0.00  0.00     0.029 A 
ATOM     28  C7  ZIN A   1      19.485   4.380  16.697  0.00  0.00     0.056 A 
ATOM     29  C9  ZIN A   1      17.539   4.621  18.148  0.00  0.00     0.072 A 
ATOM     30  C4  ZIN A   1      19.418   5.713  16.410  0.00  0.00     0.102 A 
ATOM     31  C3  ZIN A   1      18.422   6.518  16.980  0.00  0.00     0.103 A 
ATOM     32  C10 ZIN A   1      17.501   5.990  17.837  0.00  0.00     0.072 A 
ATOM     33  N11 ZIN A   1      16.643   4.079  18.982  0.00  0.00    -0.260 NA
ATOM     34  C12 ZIN A   1      16.670   2.804  19.287  0.00  0.00     0.120 A 
ATOM     35  C13 ZIN A   1      17.627   1.944  18.762  0.00  0.00     0.057 A 
BRANCH  30  36
ATOM     36  O5  ZIN A   1      20.328   6.265  15.563  0.00  0.00    -0.353 OA
ATOM     37  C6  ZIN A   1      20.157   6.006  14.168  0.00  0.00     0.210 C 
ENDBRANCH  30  36
BRANCH  31  38
ATOM     38  O2  ZIN A   1      18.377   7.842  16.679  0.00  0.00    -0.353 OA
ATOM     39  C1  ZIN A   1      17.160   8.338  16.116  0.00  0.00     0.210 C 
ENDBRANCH  31  38
ENDBRANCH  25  26
ENDBRANCH   1  25
TORSDOF 8
ENDMDL
MODEL 3
REMARK VINA RESULT:      -9.1      1.971      2.542
REMARK  8 active torsions:
REMARK  status: ('A' for Active; 'I' for Inactive)
REMARK    1  A    between atoms: O2_2  and  C3_3 
REMARK    2  A    between atoms: C4_4  and  O5_5 
REMARK    3  A    between atoms: C14_14  and  O15_15 
REMARK    4  A    between atoms: O15_15  and  C16_16 
REMARK    5  A    between atoms: C19_19  and  N20_20 
REMARK       I    between atoms: N20_20  and  C21_21 
REMARK    6  A    between atoms: C21_21  and  C23_23 
REMARK    7  A    between atoms: C23_23  and  C24_24 
REMARK       I    between atoms: C24_24  and  N26_26 
REMARK    8  A    between atoms: N26_26  and  C27_27 
ROOT
ATOM      1  C16 ZIN A   1      17.492   0.488   8.602  0.00  0.00     0.076 A 
ATOM      2  C17 ZIN A   1      17.026   0.202   9.876  0.00  0.00     0.039 A 
ATOM      3  C18 ZIN A   1      17.505   0.907  10.962  0.00  0.00     0.032 A 
ATOM      4  C19 ZIN A   1      18.454   1.905  10.778  0.00  0.00     0.034 A 
ATOM      5  C36 ZIN A   1      18.921   2.190   9.502  0.00  0.00     0.032 A 
ATOM      6  C37 ZIN A   1      18.445   1.480   8.418  0.00  0.00     0.039 A 
ENDROOT
BRANCH   4   7
ATOM      7  N20 ZIN A   1      18.940   2.621  11.879  0.00  0.00    -0.326 N 
ATOM      8  C21 ZIN A   1      18.211   3.623  12.406  0.00  0.00     0.240 C 
ATOM      9  O22 ZIN A   1      17.157   3.939  11.896  0.00  0.00    -0.272 OA
ATOM     10  H50 ZIN A   1      19.803   2.395  12.263  0.00  0.00     0.169 HD
BRANCH   8  11
ATOM     11  C23 ZIN A   1      18.706   4.353  13.629  0.00  0.00     0.122 A 
ATOM     12  C35 ZIN A   1      18.521   5.872  13.667  0.00  0.00     0.031 A 
ATOM     13  C34 ZIN A   1      19.915   5.275  13.460  0.00  0.00     0.031 A 
BRANCH  11  14
ATOM     14  C24 ZIN A   1      18.577   3.604  14.929  0.00  0.00     0.240 C 
ATOM     15  O25 ZIN A   1      18.029   4.125  15.878  0.00  0.00    -0.272 OA
ATOM     16  N26 ZIN A   1      19.070   2.354  15.039  0.00  0.00    -0.326 N 
ATOM     17  H51 ZIN A   1      19.558   1.958  14.299  0.00  0.00     0.169 HD
BRANCH  16  18
ATOM     18  C27 ZIN A   1      18.879   1.626  16.220  0.00  0.00     0.034 A 
ATOM     19  C33 ZIN A   1      19.363   2.118  17.424  0.00  0.00     0.032 A 
ATOM     20  C32 ZIN A   1      19.168   1.402  18.589  0.00  0.00     0.044 A 
ATOM     21  C30 ZIN A   1      18.501   0.190  18.554  0.00  0.00     0.116 A 
ATOM     22  C29 ZIN A   1      18.023  -0.305  17.352  0.00  0.00     0.044 A 
ATOM     23  F31 ZIN A   1      18.317  -0.513  19.693  0.00  0.00    -0.206 F 
ATOM     24  C28 ZIN A   1      18.210   0.410  16.186  0.00  0.00     0.032 A 
ENDBRANCH  16  18
ENDBRANCH  11  14
ENDBRANCH   8  11
ENDBRANCH   4   7
BRANCH   1  25
ATOM     25  O15 ZIN A   1      17.020  -0.207   7.533  0.00  0.00    -0.310 OA
BRANCH  25  26
ATOM     26  C14 ZIN A   1      17.921  -0.726   6.662  0.00  0.00     0.090 A 
ATOM     27  C8  ZIN A   1      18.505  -1.993   6.888  0.00  0.00     0.029 A 
ATOM     28  C7  ZIN A   1      18.174  -2.756   8.019  0.00  0.00     0.056 A 
ATOM     29  C9  ZIN A   1      19.440  -2.493   5.950  0.00  0.00     0.072 A 
ATOM     30  C4  ZIN A   1      18.759  -3.975   8.205  0.00  0.00     0.102 A 
ATOM     31  C3  ZIN A   1      19.685  -4.472   7.279  0.00  0.00     0.103 A 
ATOM     32  C10 ZIN A   1      20.029  -3.749   6.174  0.00  0.00     0.072 A 
ATOM     33  N11 ZIN A   1      19.757  -1.767   4.871  0.00  0.00    -0.260 NA
ATOM     34  C12 ZIN A   1      19.222  -0.590   4.652  0.00  0.00     0.120 A 
ATOM     35  C13 ZIN A   1      18.296  -0.032   5.525  0.00  0.00     0.057 A 
BRANCH  30  36
ATOM     36  O5  ZIN A   1      18.439  -4.714   9.301  0.00  0.00    -0.353 OA
ATOM     37  C6  ZIN A   1      18.517  -4.061  10.569  0.00  0.00     0.210 C 
ENDBRANCH  30  36
BRANCH  31  38
ATOM     38  O2  ZIN A   1      20.254  -5.689   7.487  0.00  0.00    -0.353 OA
ATOM     39  C1  ZIN A   1      21.646  -5.709   7.809  0.00  0.00     0.210 C 
ENDBRANCH  31  38
ENDBRANCH  25  26
ENDBRANCH   1  25
TORSDOF 8
ENDMDL
MODEL 4
REMARK VINA RESULT:      -9.1      1.654      2.770
REMARK  8 active torsions:
REMARK  status: ('A' for Active; 'I' for Inactive)
REMARK    1  A    between atoms: O2_2  and  C3_3 
REMARK    2  A    between atoms: C4_4  and  O5_5 
REMARK    3  A    between atoms: C14_14  and  O15_15 
REMARK    4  A    between atoms: O15_15  and  C16_16 
REMARK    5  A    between atoms: C19_19  and  N20_20 
REMARK       I    between atoms: N20_20  and  C21_21 
REMARK    6  A    between atoms: C21_21  and  C23_23 
REMARK    7  A    between atoms: C23_23  and  C24_24 
REMARK       I    between atoms: C24_24  and  N26_26 
REMARK    8  A    between atoms: N26_26  and  C27_27 
ROOT
ATOM      1  C16 ZIN A   1      18.277  -0.466   6.726  0.00  0.00     0.076 A 
ATOM      2  C17 ZIN A   1      17.445  -0.695   7.812  0.00  0.00     0.039 A 
ATOM      3  C18 ZIN A   1      17.416   0.201   8.861  0.00  0.00     0.032 A 
ATOM      4  C19 ZIN A   1      18.221   1.333   8.830  0.00  0.00     0.034 A 
ATOM      5  C36 ZIN A   1      19.054   1.561   7.743  0.00  0.00     0.032 A 
ATOM      6  C37 ZIN A   1      19.085   0.661   6.696  0.00  0.00     0.039 A 
ENDROOT
BRANCH   4   7
ATOM      7  N20 ZIN A   1      18.192   2.243   9.894  0.00  0.00    -0.326 N 
ATOM      8  C21 ZIN A   1      18.989   2.054  10.964  0.00  0.00     0.240 C 
ATOM      9  O22 ZIN A   1      19.695   1.069  11.028  0.00  0.00    -0.272 OA
ATOM     10  H50 ZIN A   1      17.599   3.010   9.862  0.00  0.00     0.169 HD
BRANCH   8  11
ATOM     11  C23 ZIN A   1      19.004   3.065  12.081  0.00  0.00     0.122 A 
ATOM     12  C35 ZIN A   1      18.506   4.476  11.763  0.00  0.00     0.031 A 
ATOM     13  C34 ZIN A   1      20.000   4.222  11.974  0.00  0.00     0.031 A 
BRANCH  11  14
ATOM     14  C24 ZIN A   1      18.716   2.519  13.455  0.00  0.00     0.240 C 
ATOM     15  O25 ZIN A   1      17.685   2.814  14.022  0.00  0.00    -0.272 OA
ATOM     16  N26 ZIN A   1      19.605   1.702  14.057  0.00  0.00    -0.326 N 
ATOM     17  H51 ZIN A   1      20.454   1.511  13.628  0.00  0.00     0.169 HD
BRANCH  16  18
ATOM     18  C27 ZIN A   1      19.302   1.129  15.297  0.00  0.00     0.034 A 
ATOM     19  C33 ZIN A   1      19.413   1.885  16.456  0.00  0.00     0.032 A 
ATOM     20  C32 ZIN A   1      19.107   1.319  17.680  0.00  0.00     0.044 A 
ATOM     21  C30 ZIN A   1      18.702  -0.003  17.750  0.00  0.00     0.116 A 
ATOM     22  C29 ZIN A   1      18.597  -0.759  16.595  0.00  0.00     0.044 A 
ATOM     23  F31 ZIN A   1      18.410  -0.556  18.948  0.00  0.00    -0.206 F 
ATOM     24  C28 ZIN A   1      18.896  -0.197  15.370  0.00  0.00     0.032 A 
ENDBRANCH  16  18
ENDBRANCH  11  14
ENDBRANCH   8  11
ENDBRANCH   4   7
BRANCH   1  25
ATOM     25  O15 ZIN A   1      18.305  -1.349   5.693  0.00  0.00    -0.310 OA
BRANCH  25  26
ATOM     26  C14 ZIN A   1      18.665  -2.629   5.959  0.00  0.00     0.090 A 
ATOM     27  C8  ZIN A   1      18.002  -3.715   5.345  0.00  0.00     0.029 A 
ATOM     28  C7  ZIN A   1      16.948  -3.508   4.442  0.00  0.00     0.056 A 
ATOM     29  C9  ZIN A   1      18.415  -5.034   5.654  0.00  0.00     0.072 A 
ATOM     30  C4  ZIN A   1      16.328  -4.581   3.868  0.00  0.00     0.102 A 
ATOM     31  C3  ZIN A   1      16.735  -5.887   4.173  0.00  0.00     0.103 A 
ATOM     32  C10 ZIN A   1      17.753  -6.117   5.051  0.00  0.00     0.072 A 
ATOM     33  N11 ZIN A   1      19.419  -5.234   6.515  0.00  0.00    -0.260 NA
ATOM     34  C12 ZIN A   1      20.042  -4.234   7.091  0.00  0.00     0.120 A 
ATOM     35  C13 ZIN A   1      19.696  -2.912   6.838  0.00  0.00     0.057 A 
BRANCH  30  36
ATOM     36  O5  ZIN A   1      15.307  -4.380   2.993  0.00  0.00    -0.353 OA
ATOM     37  C6  ZIN A   1      15.656  -4.186   1.621  0.00  0.00     0.210 C 
ENDBRANCH  30  36
BRANCH  31  38
ATOM     38  O2  ZIN A   1      16.103  -6.939   3.589  0.00  0.00    -0.353 OA
ATOM     39  C1  ZIN A   1      16.827  -7.657   2.587  0.00  0.00     0.210 C 
ENDBRANCH  31  38
ENDBRANCH  25  26
ENDBRANCH   1  25
TORSDOF 8
ENDMDL
MODEL 5
REMARK VINA RESULT:      -9.0      3.670     11.153
REMARK  8 active torsions:
REMARK  status: ('A' for Active; 'I' for Inactive)
REMARK    1  A    between atoms: O2_2  and  C3_3 
REMARK    2  A    between atoms: C4_4  and  O5_5 
REMARK    3  A    between atoms: C14_14  and  O15_15 
REMARK    4  A    between atoms: O15_15  and  C16_16 
REMARK    5  A    between atoms: C19_19  and  N20_20 
REMARK       I    between atoms: N20_20  and  C21_21 
REMARK    6  A    between atoms: C21_21  and  C23_23 
REMARK    7  A    between atoms: C23_23  and  C24_24 
REMARK       I    between atoms: C24_24  and  N26_26 
REMARK    8  A    between atoms: N26_26  and  C27_27 
ROOT
ATOM      1  C16 ZIN A   1      17.556  -0.355  14.591  0.00  0.00     0.076 A 
ATOM      2  C17 ZIN A   1      18.545  -1.312  14.768  0.00  0.00     0.039 A 
ATOM      3  C18 ZIN A   1      19.033  -2.010  13.682  0.00  0.00     0.032 A 
ATOM      4  C19 ZIN A   1      18.533  -1.755  12.411  0.00  0.00     0.034 A 
ATOM      5  C36 ZIN A   1      17.543  -0.798  12.234  0.00  0.00     0.032 A 
ATOM      6  C37 ZIN A   1      17.053  -0.104  13.322  0.00  0.00     0.039 A 
ENDROOT
BRANCH   4   7
ATOM      7  N20 ZIN A   1      19.028  -2.464  11.309  0.00  0.00    -0.326 N 
ATOM      8  C21 ZIN A   1      18.371  -3.550  10.856  0.00  0.00     0.240 C 
ATOM      9  O22 ZIN A   1      17.380  -3.943  11.433  0.00  0.00    -0.272 OA
ATOM     10  H50 ZIN A   1      19.844  -2.173  10.871  0.00  0.00     0.169 HD
BRANCH   8  11
ATOM     11  C23 ZIN A   1      18.869  -4.276   9.632  0.00  0.00     0.122 A 
ATOM     12  C35 ZIN A   1      18.785  -5.804   9.636  0.00  0.00     0.031 A 
ATOM     13  C34 ZIN A   1      20.142  -5.112   9.776  0.00  0.00     0.031 A 
BRANCH  11  14
ATOM     14  C24 ZIN A   1      18.643  -3.570   8.321  0.00  0.00     0.240 C 
ATOM     15  O25 ZIN A   1      17.801  -3.977   7.550  0.00  0.00    -0.272 OA
ATOM     16  N26 ZIN A   1      19.378  -2.484   8.005  0.00  0.00    -0.326 N 
ATOM     17  H51 ZIN A   1      20.091  -2.192   8.595  0.00  0.00     0.169 HD
BRANCH  16  18
ATOM     18  C27 ZIN A   1      19.114  -1.779   6.824  0.00  0.00     0.034 A 
ATOM     19  C33 ZIN A   1      18.542  -0.516   6.884  0.00  0.00     0.032 A 
ATOM     20  C32 ZIN A   1      18.287   0.181   5.718  0.00  0.00     0.044 A 
ATOM     21  C30 ZIN A   1      18.592  -0.385   4.492  0.00  0.00     0.116 A 
ATOM     22  C29 ZIN A   1      19.157  -1.648   4.431  0.00  0.00     0.044 A 
ATOM     23  F31 ZIN A   1      18.336   0.295   3.353  0.00  0.00    -0.206 F 
ATOM     24  C28 ZIN A   1      19.418  -2.346   5.594  0.00  0.00     0.032 A 
ENDBRANCH  16  18
ENDBRANCH  11  14
ENDBRANCH   8  11
ENDBRANCH   4   7
BRANCH   1  25
ATOM     25  O15 ZIN A   1      17.076   0.333  15.661  0.00  0.00    -0.310 OA
BRANCH  25  26
ATOM     26  C14 ZIN A   1      17.967   0.977  16.455  0.00  0.00     0.090 A 
ATOM     27  C8  ZIN A   1      18.509   2.226  16.077  0.00  0.00     0.029 A 
ATOM     28  C7  ZIN A   1      18.145   2.842  14.870  0.00  0.00     0.056 A 
ATOM     29  C9  ZIN A   1      19.435   2.861  16.940  0.00  0.00     0.072 A 
ATOM     30  C4  ZIN A   1      18.690   4.049  14.536  0.00  0.00     0.102 A 
ATOM     31  C3  ZIN A   1      19.607   4.678  15.388  0.00  0.00     0.103 A 
ATOM     32  C10 ZIN A   1      19.982   4.099  16.566  0.00  0.00     0.072 A 
ATOM     33  N11 ZIN A   1      19.783   2.275  18.092  0.00  0.00    -0.260 NA
ATOM     34  C12 ZIN A   1      19.286   1.116  18.453  0.00  0.00     0.120 A 
ATOM     35  C13 ZIN A   1      18.372   0.431  17.661  0.00  0.00     0.057 A 
BRANCH  30  36
ATOM     36  O5  ZIN A   1      18.338   4.645  13.366  0.00  0.00    -0.353 OA
ATOM     37  C6  ZIN A   1      17.135   5.416  13.366  0.00  0.00     0.210 C 
ENDBRANCH  30  36
BRANCH  31  38
ATOM     38  O2  ZIN A   1      20.135   5.880  15.035  0.00  0.00    -0.353 OA
ATOM     39  C1  ZIN A   1      21.533   6.068  15.265  0.00  0.00     0.210 C 
ENDBRANCH  31  38
ENDBRANCH  25  26
ENDBRANCH   1  25
TORSDOF 8
ENDMDL
MODEL 6
REMARK VINA RESULT:      -8.8      3.029     10.163
REMARK  8 active torsions:
REMARK  status: ('A' for Active; 'I' for Inactive)
REMARK    1  A    between atoms: O2_2  and  C3_3 
REMARK    2  A    between atoms: C4_4  and  O5_5 
REMARK    3  A    between atoms: C14_14  and  O15_15 
REMARK    4  A    between atoms: O15_15  and  C16_16 
REMARK    5  A    between atoms: C19_19  and  N20_20 
REMARK       I    between atoms: N20_20  and  C21_21 
REMARK    6  A    between atoms: C21_21  and  C23_23 
REMARK    7  A    between atoms: C23_23  and  C24_24 
REMARK       I    between atoms: C24_24  and  N26_26 
REMARK    8  A    between atoms: N26_26  and  C27_27 
ROOT
ATOM      1  C16 ZIN A   1      17.609   2.561  10.996  0.00  0.00     0.076 A 
ATOM      2  C17 ZIN A   1      18.285   3.207   9.971  0.00  0.00     0.039 A 
ATOM      3  C18 ZIN A   1      18.775   2.482   8.903  0.00  0.00     0.032 A 
ATOM      4  C19 ZIN A   1      18.592   1.106   8.855  0.00  0.00     0.034 A 
ATOM      5  C36 ZIN A   1      17.916   0.460   9.882  0.00  0.00     0.032 A 
ATOM      6  C37 ZIN A   1      17.430   1.186  10.952  0.00  0.00     0.039 A 
ENDROOT
BRANCH   4   7
ATOM      7  N20 ZIN A   1      19.089   0.370   7.772  0.00  0.00    -0.326 N 
ATOM      8  C21 ZIN A   1      18.238  -0.205   6.900  0.00  0.00     0.240 C 
ATOM      9  O22 ZIN A   1      17.041  -0.128   7.081  0.00  0.00    -0.272 OA
ATOM     10  H50 ZIN A   1      20.047   0.275   7.649  0.00  0.00     0.169 HD
BRANCH   8  11
ATOM     11  C23 ZIN A   1      18.772  -0.945   5.700  0.00  0.00     0.122 A 
ATOM     12  C35 ZIN A   1      19.882  -0.270   4.892  0.00  0.00     0.031 A 
ATOM     13  C34 ZIN A   1      18.467  -0.363   4.318  0.00  0.00     0.031 A 
BRANCH  11  14
ATOM     14  C24 ZIN A   1      18.819  -2.444   5.830  0.00  0.00     0.240 C 
ATOM     15  O25 ZIN A   1      19.866  -3.035   5.665  0.00  0.00    -0.272 OA
ATOM     16  N26 ZIN A   1      17.698  -3.131   6.130  0.00  0.00    -0.326 N 
ATOM     17  H51 ZIN A   1      16.850  -2.665   6.207  0.00  0.00     0.169 HD
BRANCH  16  18
ATOM     18  C27 ZIN A   1      17.758  -4.516   6.332  0.00  0.00     0.034 A 
ATOM     19  C33 ZIN A   1      17.917  -5.024   7.613  0.00  0.00     0.032 A 
ATOM     20  C32 ZIN A   1      17.969  -6.391   7.810  0.00  0.00     0.044 A 
ATOM     21  C30 ZIN A   1      17.875  -7.251   6.730  0.00  0.00     0.116 A 
ATOM     22  C29 ZIN A   1      17.722  -6.744   5.450  0.00  0.00     0.044 A 
ATOM     23  F31 ZIN A   1      17.932  -8.587   6.924  0.00  0.00    -0.206 F 
ATOM     24  C28 ZIN A   1      17.664  -5.380   5.249  0.00  0.00     0.032 A 
ENDBRANCH  16  18
ENDBRANCH  11  14
ENDBRANCH   8  11
ENDBRANCH   4   7
BRANCH   1  25
ATOM     25  O15 ZIN A   1      17.126   3.275  12.048  0.00  0.00    -0.310 OA
BRANCH  25  26
ATOM     26  C14 ZIN A   1      18.015   3.754  12.953  0.00  0.00     0.090 A 
ATOM     27  C8  ZIN A   1      18.350   3.011  14.108  0.00  0.00     0.029 A 
ATOM     28  C7  ZIN A   1      17.776   1.755  14.357  0.00  0.00     0.056 A 
ATOM     29  C9  ZIN A   1      19.284   3.552  15.024  0.00  0.00     0.072 A 
ATOM     30  C4  ZIN A   1      18.122   1.065  15.483  0.00  0.00     0.102 A 
ATOM     31  C3  ZIN A   1      19.045   1.599  16.392  0.00  0.00     0.103 A 
ATOM     32  C10 ZIN A   1      19.614   2.821  16.177  0.00  0.00     0.072 A 
ATOM     33  N11 ZIN A   1      19.832   4.750  14.789  0.00  0.00    -0.260 NA
ATOM     34  C12 ZIN A   1      19.528   5.448  13.721  0.00  0.00     0.120 A 
ATOM     35  C13 ZIN A   1      18.622   4.985  12.775  0.00  0.00     0.057 A 
BRANCH  30  36
ATOM     36  O5  ZIN A   1      17.565  -0.152  15.725  0.00  0.00    -0.353 OA
ATOM     37  C6  ZIN A   1      18.101  -1.265  15.007  0.00  0.00     0.210 C 
ENDBRANCH  30  36
BRANCH  31  38
ATOM     38  O2  ZIN A   1      19.374   0.894  17.506  0.00  0.00    -0.353 OA
ATOM     39  C1  ZIN A   1      18.576   1.112  18.672  0.00  0.00     0.210 C 
ENDBRANCH  31  38
ENDBRANCH  25  26
ENDBRANCH   1  25
TORSDOF 8
ENDMDL
MODEL 7
REMARK VINA RESULT:      -8.6      3.091      5.001
REMARK  8 active torsions:
REMARK  status: ('A' for Active; 'I' for Inactive)
REMARK    1  A    between atoms: O2_2  and  C3_3 
REMARK    2  A    between atoms: C4_4  and  O5_5 
REMARK    3  A    between atoms: C14_14  and  O15_15 
REMARK    4  A    between atoms: O15_15  and  C16_16 
REMARK    5  A    between atoms: C19_19  and  N20_20 
REMARK       I    between atoms: N20_20  and  C21_21 
REMARK    6  A    between atoms: C21_21  and  C23_23 
REMARK    7  A    between atoms: C23_23  and  C24_24 
REMARK       I    between atoms: C24_24  and  N26_26 
REMARK    8  A    between atoms: N26_26  and  C27_27 
ROOT
ATOM      1  C16 ZIN A   1      19.552  -0.695  10.823  0.00  0.00     0.076 A 
ATOM      2  C17 ZIN A   1      18.282  -0.659  11.381  0.00  0.00     0.039 A 
ATOM      3  C18 ZIN A   1      18.073  -0.010  12.581  0.00  0.00     0.032 A 
ATOM      4  C19 ZIN A   1      19.134   0.610  13.229  0.00  0.00     0.034 A 
ATOM      5  C36 ZIN A   1      20.404   0.574  12.670  0.00  0.00     0.032 A 
ATOM      6  C37 ZIN A   1      20.613  -0.081  11.473  0.00  0.00     0.039 A 
ENDROOT
BRANCH   4   7
ATOM      7  N20 ZIN A   1      18.922   1.269  14.447  0.00  0.00    -0.326 N 
ATOM      8  C21 ZIN A   1      19.050   0.598  15.608  0.00  0.00     0.240 C 
ATOM      9  O22 ZIN A   1      19.299  -0.589  15.598  0.00  0.00    -0.272 OA
ATOM     10  H50 ZIN A   1      18.683   2.210  14.454  0.00  0.00     0.169 HD
BRANCH   8  11
ATOM     11  C23 ZIN A   1      18.883   1.321  16.919  0.00  0.00     0.122 A 
ATOM     12  C35 ZIN A   1      19.470   0.662  18.169  0.00  0.00     0.031 A 
ATOM     13  C34 ZIN A   1      17.955   0.692  17.960  0.00  0.00     0.031 A 
BRANCH  11  14
ATOM     14  C24 ZIN A   1      18.924   2.825  16.841  0.00  0.00     0.240 C 
ATOM     15  O25 ZIN A   1      19.964   3.415  17.047  0.00  0.00    -0.272 OA
ATOM     16  N26 ZIN A   1      17.805   3.516  16.543  0.00  0.00    -0.326 N 
ATOM     17  H51 ZIN A   1      16.962   3.049  16.434  0.00  0.00     0.169 HD
BRANCH  16  18
ATOM     18  C27 ZIN A   1      17.860   4.907  16.390  0.00  0.00     0.034 A 
ATOM     19  C33 ZIN A   1      18.181   5.457  15.156  0.00  0.00     0.032 A 
ATOM     20  C32 ZIN A   1      18.229   6.829  15.006  0.00  0.00     0.044 A 
ATOM     21  C30 ZIN A   1      17.969   7.655  16.086  0.00  0.00     0.116 A 
ATOM     22  C29 ZIN A   1      17.655   7.107  17.319  0.00  0.00     0.044 A 
ATOM     23  F31 ZIN A   1      18.023   8.997  15.939  0.00  0.00    -0.206 F 
ATOM     24  C28 ZIN A   1      17.601   5.736  17.473  0.00  0.00     0.032 A 
ENDBRANCH  16  18
ENDBRANCH  11  14
ENDBRANCH   8  11
ENDBRANCH   4   7
BRANCH   1  25
ATOM     25  O15 ZIN A   1      19.757  -1.335   9.641  0.00  0.00    -0.310 OA
BRANCH  25  26
ATOM     26  C14 ZIN A   1      19.430  -0.682   8.498  0.00  0.00     0.090 A 
ATOM     27  C8  ZIN A   1      19.120  -1.392   7.317  0.00  0.00     0.029 A 
ATOM     28  C7  ZIN A   1      19.141  -2.795   7.285  0.00  0.00     0.056 A 
ATOM     29  C9  ZIN A   1      18.784  -0.666   6.149  0.00  0.00     0.072 A 
ATOM     30  C4  ZIN A   1      18.837  -3.449   6.125  0.00  0.00     0.102 A 
ATOM     31  C3  ZIN A   1      18.505  -2.732   4.967  0.00  0.00     0.103 A 
ATOM     32  C10 ZIN A   1      18.482  -1.368   4.970  0.00  0.00     0.072 A 
ATOM     33  N11 ZIN A   1      18.764   0.672   6.177  0.00  0.00    -0.260 NA
ATOM     34  C12 ZIN A   1      19.050   1.342   7.268  0.00  0.00     0.120 A 
ATOM     35  C13 ZIN A   1      19.389   0.701   8.454  0.00  0.00     0.057 A 
BRANCH  30  36
ATOM     36  O5  ZIN A   1      18.857  -4.808   6.094  0.00  0.00    -0.353 OA
ATOM     37  C6  ZIN A   1      19.868  -5.459   6.865  0.00  0.00     0.210 C 
ENDBRANCH  30  36
BRANCH  31  38
ATOM     38  O2  ZIN A   1      18.206  -3.405   3.825  0.00  0.00    -0.353 OA
ATOM     39  C1  ZIN A   1      16.822  -3.535   3.491  0.00  0.00     0.210 C 
ENDBRANCH  31  38
ENDBRANCH  25  26
ENDBRANCH   1  25
TORSDOF 8
ENDMDL
MODEL 8
REMARK VINA RESULT:      -8.4      3.220     10.842
REMARK  8 active torsions:
REMARK  status: ('A' for Active; 'I' for Inactive)
REMARK    1  A    between atoms: O2_2  and  C3_3 
REMARK    2  A    between atoms: C4_4  and  O5_5 
REMARK    3  A    between atoms: C14_14  and  O15_15 
REMARK    4  A    between atoms: O15_15  and  C16_16 
REMARK    5  A    between atoms: C19_19  and  N20_20 
REMARK       I    between atoms: N20_20  and  C21_21 
REMARK    6  A    between atoms: C21_21  and  C23_23 
REMARK    7  A    between atoms: C23_23  and  C24_24 
REMARK       I    between atoms: C24_24  and  N26_26 
REMARK    8  A    between atoms: N26_26  and  C27_27 
ROOT
ATOM      1  C16 ZIN A   1      19.366   0.846  12.080  0.00  0.00     0.076 A 
ATOM      2  C17 ZIN A   1      20.470   0.250  11.487  0.00  0.00     0.039 A 
ATOM      3  C18 ZIN A   1      20.328  -0.438  10.299  0.00  0.00     0.032 A 
ATOM      4  C19 ZIN A   1      19.080  -0.533   9.696  0.00  0.00     0.034 A 
ATOM      5  C36 ZIN A   1      17.976   0.063  10.290  0.00  0.00     0.032 A 
ATOM      6  C37 ZIN A   1      18.118   0.746  11.482  0.00  0.00     0.039 A 
ENDROOT
BRANCH   4   7
ATOM      7  N20 ZIN A   1      18.936  -1.231   8.490  0.00  0.00    -0.326 N 
ATOM      8  C21 ZIN A   1      19.011  -0.573   7.317  0.00  0.00     0.240 C 
ATOM      9  O22 ZIN A   1      19.154   0.632   7.306  0.00  0.00    -0.272 OA
ATOM     10  H50 ZIN A   1      18.781  -2.189   8.500  0.00  0.00     0.169 HD
BRANCH   8  11
ATOM     11  C23 ZIN A   1      18.918  -1.333   6.019  0.00  0.00     0.122 A 
ATOM     12  C35 ZIN A   1      19.606  -0.725   4.795  0.00  0.00     0.031 A 
ATOM     13  C34 ZIN A   1      18.079  -0.715   4.898  0.00  0.00     0.031 A 
BRANCH  11  14
ATOM     14  C24 ZIN A   1      18.917  -2.834   6.144  0.00  0.00     0.240 C 
ATOM     15  O25 ZIN A   1      19.967  -3.440   6.177  0.00  0.00    -0.272 OA
ATOM     16  N26 ZIN A   1      17.750  -3.504   6.217  0.00  0.00    -0.326 N 
ATOM     17  H51 ZIN A   1      16.910  -3.025   6.134  0.00  0.00     0.169 HD
BRANCH  16  18
ATOM     18  C27 ZIN A   1      17.749  -4.890   6.415  0.00  0.00     0.034 A 
ATOM     19  C33 ZIN A   1      17.612  -5.746   5.331  0.00  0.00     0.032 A 
ATOM     20  C32 ZIN A   1      17.618  -7.114   5.528  0.00  0.00     0.044 A 
ATOM     21  C30 ZIN A   1      17.749  -7.629   6.806  0.00  0.00     0.116 A 
ATOM     22  C29 ZIN A   1      17.879  -6.776   7.889  0.00  0.00     0.044 A 
ATOM     23  F31 ZIN A   1      17.747  -8.967   6.997  0.00  0.00    -0.206 F 
ATOM     24  C28 ZIN A   1      17.879  -5.409   7.697  0.00  0.00     0.032 A 
ENDBRANCH  16  18
ENDBRANCH  11  14
ENDBRANCH   8  11
ENDBRANCH   4   7
BRANCH   1  25
ATOM     25  O15 ZIN A   1      19.506   1.524  13.250  0.00  0.00    -0.310 OA
BRANCH  25  26
ATOM     26  C14 ZIN A   1      19.255   0.859  14.405  0.00  0.00     0.090 A 
ATOM     27  C8  ZIN A   1      19.045   1.556  15.616  0.00  0.00     0.029 A 
ATOM     28  C7  ZIN A   1      19.090   2.957  15.666  0.00  0.00     0.056 A 
ATOM     29  C9  ZIN A   1      18.786   0.817  16.796  0.00  0.00     0.072 A 
ATOM     30  C4  ZIN A   1      18.883   3.598  16.854  0.00  0.00     0.102 A 
ATOM     31  C3  ZIN A   1      18.627   2.869  18.023  0.00  0.00     0.103 A 
ATOM     32  C10 ZIN A   1      18.583   1.505  18.004  0.00  0.00     0.072 A 
ATOM     33  N11 ZIN A   1      18.743  -0.520  16.751  0.00  0.00    -0.260 NA
ATOM     34  C12 ZIN A   1      18.937  -1.177  15.632  0.00  0.00     0.120 A 
ATOM     35  C13 ZIN A   1      19.196  -0.524  14.433  0.00  0.00     0.057 A 
BRANCH  30  36
ATOM     36  O5  ZIN A   1      18.927   4.956  16.902  0.00  0.00    -0.353 OA
ATOM     37  C6  ZIN A   1      19.919   5.602  16.103  0.00  0.00     0.210 C 
ENDBRANCH  30  36
BRANCH  31  38
ATOM     38  O2  ZIN A   1      18.425   3.530  19.194  0.00  0.00    -0.353 OA
ATOM     39  C1  ZIN A   1      17.072   3.841  19.538  0.00  0.00     0.210 C 
ENDBRANCH  31  38
ENDBRANCH  25  26
ENDBRANCH   1  25
TORSDOF 8
ENDMDL
MODEL 9
REMARK VINA RESULT:      -8.3      3.357     10.795
REMARK  8 active torsions:
REMARK  status: ('A' for Active; 'I' for Inactive)
REMARK    1  A    between atoms: O2_2  and  C3_3 
REMARK    2  A    between atoms: C4_4  and  O5_5 
REMARK    3  A    between atoms: C14_14  and  O15_15 
REMARK    4  A    between atoms: O15_15  and  C16_16 
REMARK    5  A    between atoms: C19_19  and  N20_20 
REMARK       I    between atoms: N20_20  and  C21_21 
REMARK    6  A    between atoms: C21_21  and  C23_23 
REMARK    7  A    between atoms: C23_23  and  C24_24 
REMARK       I    between atoms: C24_24  and  N26_26 
REMARK    8  A    between atoms: N26_26  and  C27_27 
ROOT
ATOM      1  C16 ZIN A   1      19.099   3.651  12.343  0.00  0.00     0.076 A 
ATOM      2  C17 ZIN A   1      19.459   2.312  12.389  0.00  0.00     0.039 A 
ATOM      3  C18 ZIN A   1      19.114   1.469  11.351  0.00  0.00     0.032 A 
ATOM      4  C19 ZIN A   1      18.408   1.961  10.262  0.00  0.00     0.034 A 
ATOM      5  C36 ZIN A   1      18.048   3.302  10.217  0.00  0.00     0.032 A 
ATOM      6  C37 ZIN A   1      18.389   4.143  11.258  0.00  0.00     0.039 A 
ENDROOT
BRANCH   4   7
ATOM      7  N20 ZIN A   1      18.058   1.107   9.209  0.00  0.00    -0.326 N 
ATOM      8  C21 ZIN A   1      18.899   0.938   8.170  0.00  0.00     0.240 C 
ATOM      9  O22 ZIN A   1      19.936   1.565   8.121  0.00  0.00    -0.272 OA
ATOM     10  H50 ZIN A   1      17.210   0.635   9.228  0.00  0.00     0.169 HD
BRANCH   8  11
ATOM     11  C23 ZIN A   1      18.550  -0.029   7.067  0.00  0.00     0.122 A 
ATOM     12  C35 ZIN A   1      19.137   0.241   5.680  0.00  0.00     0.031 A 
ATOM     13  C34 ZIN A   1      17.649   0.480   5.940  0.00  0.00     0.031 A 
BRANCH  11  14
ATOM     14  C24 ZIN A   1      18.395  -1.466   7.489  0.00  0.00     0.240 C 
ATOM     15  O25 ZIN A   1      17.765  -1.740   8.489  0.00  0.00    -0.272 OA
ATOM     16  N26 ZIN A   1      18.956  -2.449   6.757  0.00  0.00    -0.326 N 
ATOM     17  H51 ZIN A   1      19.507  -2.227   5.989  0.00  0.00     0.169 HD
BRANCH  16  18
ATOM     18  C27 ZIN A   1      18.743  -3.789   7.102  0.00  0.00     0.034 A 
ATOM     19  C33 ZIN A   1      17.871  -4.569   6.355  0.00  0.00     0.032 A 
ATOM     20  C32 ZIN A   1      17.667  -5.893   6.695  0.00  0.00     0.044 A 
ATOM     21  C30 ZIN A   1      18.323  -6.438   7.785  0.00  0.00     0.116 A 
ATOM     22  C29 ZIN A   1      19.189  -5.659   8.535  0.00  0.00     0.044 A 
ATOM     23  F31 ZIN A   1      18.118  -7.730   8.119  0.00  0.00    -0.206 F 
ATOM     24  C28 ZIN A   1      19.400  -4.337   8.196  0.00  0.00     0.032 A 
ENDBRANCH  16  18
ENDBRANCH  11  14
ENDBRANCH   8  11
ENDBRANCH   4   7
BRANCH   1  25
ATOM     25  O15 ZIN A   1      19.439   4.481  13.365  0.00  0.00    -0.310 OA
BRANCH  25  26
ATOM     26  C14 ZIN A   1      18.440   5.093  14.047  0.00  0.00     0.090 A 
ATOM     27  C8  ZIN A   1      18.236   4.841  15.423  0.00  0.00     0.029 A 
ATOM     28  C7  ZIN A   1      19.058   3.950  16.129  0.00  0.00     0.056 A 
ATOM     29  C9  ZIN A   1      17.179   5.505  16.092  0.00  0.00     0.072 A 
ATOM     30  C4  ZIN A   1      18.831   3.729  17.457  0.00  0.00     0.102 A 
ATOM     31  C3  ZIN A   1      17.786   4.384  18.121  0.00  0.00     0.103 A 
ATOM     32  C10 ZIN A   1      16.968   5.253  17.458  0.00  0.00     0.072 A 
ATOM     33  N11 ZIN A   1      16.394   6.356  15.420  0.00  0.00    -0.260 NA
ATOM     34  C12 ZIN A   1      16.574   6.598  14.144  0.00  0.00     0.120 A 
ATOM     35  C13 ZIN A   1      17.589   5.985  13.418  0.00  0.00     0.057 A 
BRANCH  30  36
ATOM     36  O5  ZIN A   1      19.627   2.865  18.141  0.00  0.00    -0.353 OA
ATOM     37  C6  ZIN A   1      19.275   1.481  18.093  0.00  0.00     0.210 C 
ENDBRANCH  30  36
BRANCH  31  38
ATOM     38  O2  ZIN A   1      17.580   4.149  19.444  0.00  0.00    -0.353 OA
ATOM     39  C1  ZIN A   1      16.435   3.368  19.794  0.00  0.00     0.210 C 
ENDBRANCH  31  38
ENDBRANCH  25  26
ENDBRANCH   1  25
TORSDOF 8
ENDMDL
