MODEL 1
REMARK VINA RESULT:      -8.6      0.000      0.000
REMARK  10 active torsions:
REMARK  status: ('A' for Active; 'I' for Inactive)
REMARK    1  A    between atoms: O2_2  and  C3_3 
REMARK    2  A    between atoms: C3_3  and  C5_5 
REMARK    3  A    between atoms: C7_6  and  O9_7 
REMARK    4  A    between atoms: C11_9  and  O13_10 
REMARK    5  A    between atoms: O13_10  and  C14_11 
REMARK    6  A    between atoms: C14_11  and  C16_13 
REMARK    7  A    between atoms: C18_15  and  O19_16 
REMARK    8  A    between atoms: C21_18  and  O22_19 
REMARK    9  A    between atoms: C24_21  and  O25_22 
REMARK   10  A    between atoms: C40_36  and  O41_37 
ROOT
ATOM      1  C5  ZIN A   1      18.449   1.562  12.813  0.00  0.00     0.121 C 
ATOM      2  C7  ZIN A   1      18.312   2.751  13.766  0.00  0.00     0.164 C 
ATOM      3  C11 ZIN A   1      18.574   4.049  12.998  0.00  0.00     0.162 C 
ATOM      4  C28 ZIN A   1      19.993   4.021  12.426  0.00  0.00     0.042 C 
ATOM      5  C29 ZIN A   1      20.142   2.829  11.480  0.00  0.00     0.021 C 
ATOM      6  C31 ZIN A   1      19.161   2.968  10.315  0.00  0.00     0.278 C 
ATOM      7  N32 ZIN A   1      19.314   1.816   9.417  0.00  0.00     0.099 N 
ATOM      8  C33 ZIN A   1      18.530   1.976   8.187  0.00  0.00     0.278 C 
ATOM      9  C34 ZIN A   1      19.017   0.970   7.135  0.00  0.00     0.072 C 
ATOM     10  C35 ZIN A   1      19.101  -0.387   7.787  0.00  0.00    -0.019 A 
ATOM     11  C36 ZIN A   1      19.091  -0.576   9.126  0.00  0.00     0.050 A 
ATOM     12  N37 ZIN A   1      19.181  -1.914   9.406  0.00  0.00    -0.357 N 
ATOM     13  C38 ZIN A   1      19.248  -2.626   8.242  0.00  0.00     0.046 A 
ATOM     14  C39 ZIN A   1      19.343  -3.992   7.989  0.00  0.00     0.067 A 
ATOM     15  C40 ZIN A   1      19.390  -4.383   6.657  0.00  0.00     0.070 A 
ATOM     16  C43 ZIN A   1      19.346  -3.465   5.615  0.00  0.00     0.038 A 
ATOM     17  C44 ZIN A   1      19.252  -2.113   5.839  0.00  0.00     0.017 A 
ATOM     18  C45 ZIN A   1      19.202  -1.693   7.172  0.00  0.00    -0.001 A 
ATOM     19  C46 ZIN A   1      18.989   0.561  10.111  0.00  0.00     0.273 C 
ATOM     20  C48 ZIN A   1      19.973   0.346  11.263  0.00  0.00     0.048 C 
ATOM     21  C49 ZIN A   1      19.865   1.529  12.234  0.00  0.00     0.010 C 
ATOM     22  H76 ZIN A   1      19.196  -2.298  10.296  0.00  0.00     0.166 HD
ENDROOT
BRANCH   3  23
ATOM     23  O13 ZIN A   1      17.616   4.173  11.914  0.00  0.00    -0.309 OA
BRANCH  23  24
ATOM     24  C14 ZIN A   1      16.924   5.327  11.839  0.00  0.00     0.294 C 
ATOM     25  O15 ZIN A   1      16.693   5.828  10.757  0.00  0.00    -0.259 OA
BRANCH  24  26
ATOM     26  C16 ZIN A   1      16.446   5.980  13.072  0.00  0.00     0.045 A 
ATOM     27  C27 ZIN A   1      15.229   5.596  13.641  0.00  0.00     0.057 A 
ATOM     28  C24 ZIN A   1      14.786   6.207  14.800  0.00  0.00     0.105 A 
ATOM     29  C21 ZIN A   1      15.546   7.212  15.392  0.00  0.00     0.135 A 
ATOM     30  C18 ZIN A   1      16.756   7.600  14.825  0.00  0.00     0.105 A 
ATOM     31  C17 ZIN A   1      17.206   6.989  13.670  0.00  0.00     0.057 A 
BRANCH  28  32
ATOM     32  O25 ZIN A   1      13.604   5.831  15.357  0.00  0.00    -0.353 OA
ATOM     33  C26 ZIN A   1      12.411   6.244  14.687  0.00  0.00     0.210 C 
ENDBRANCH  28  32
BRANCH  29  34
ATOM     34  O22 ZIN A   1      15.105   7.814  16.528  0.00  0.00    -0.351 OA
ATOM     35  C23 ZIN A   1      14.334   9.007  16.373  0.00  0.00     0.210 C 
ENDBRANCH  29  34
BRANCH  30  36
ATOM     36  O19 ZIN A   1      17.496   8.582  15.406  0.00  0.00    -0.353 OA
ATOM     37  C20 ZIN A   1      17.991   9.614  14.552  0.00  0.00     0.210 C 
ENDBRANCH  30  36
ENDBRANCH  24  26
ENDBRANCH  23  24
ENDBRANCH   3  23
BRANCH   2  38
ATOM     38  O9  ZIN A   1      19.260   2.623  14.827  0.00  0.00    -0.387 OA
ATOM     39  C10 ZIN A   1      18.778   3.073  16.094  0.00  0.00     0.202 C 
ENDBRANCH   2  38
BRANCH   1  40
ATOM     40  C3  ZIN A   1      17.451   1.700  11.692  0.00  0.00     0.265 C 
ATOM     41  O4  ZIN A   1      17.229   2.786  11.211  0.00  0.00    -0.265 OA
BRANCH  40  42
ATOM     42  O2  ZIN A   1      16.810   0.617  11.226  0.00  0.00    -0.326 OA
ATOM     43  C1  ZIN A   1      16.629  -0.490  12.148  0.00  0.00     0.213 C 
ENDBRANCH  40  42
ENDBRANCH   1  40
BRANCH  15  44
ATOM     44  O41 ZIN A   1      19.483  -5.707   6.363  0.00  0.00    -0.356 OA
ATOM     45  C42 ZIN A   1      18.258  -6.434   6.249  0.00  0.00     0.210 C 
ENDBRANCH  15  44
TORSDOF 10
ENDMDL
MODEL 2
REMARK VINA RESULT:      -8.5      0.407      1.908
REMARK  10 active torsions:
REMARK  status: ('A' for Active; 'I' for Inactive)
REMARK    1  A    between atoms: O2_2  and  C3_3 
REMARK    2  A    between atoms: C3_3  and  C5_5 
REMARK    3  A    between atoms: C7_6  and  O9_7 
REMARK    4  A    between atoms: C11_9  and  O13_10 
REMARK    5  A    between atoms: O13_10  and  C14_11 
REMARK    6  A    between atoms: C14_11  and  C16_13 
REMARK    7  A    between atoms: C18_15  and  O19_16 
REMARK    8  A    between atoms: C21_18  and  O22_19 
REMARK    9  A    between atoms: C24_21  and  O25_22 
REMARK   10  A    between atoms: C40_36  and  O41_37 
ROOT
ATOM      1  C5  ZIN A   1      18.468   1.393  12.826  0.00  0.00     0.121 C 
ATOM      2  C7  ZIN A   1      18.346   2.566  13.800  0.00  0.00     0.164 C 
ATOM      3  C11 ZIN A   1      18.613   3.875  13.053  0.00  0.00     0.162 C 
ATOM      4  C28 ZIN A   1      20.028   3.847  12.470  0.00  0.00     0.042 C 
ATOM      5  C29 ZIN A   1      20.161   2.671  11.503  0.00  0.00     0.021 C 
ATOM      6  C31 ZIN A   1      19.173   2.836  10.347  0.00  0.00     0.278 C 
ATOM      7  N32 ZIN A   1      19.311   1.699   9.429  0.00  0.00     0.099 N 
ATOM      8  C33 ZIN A   1      18.519   1.886   8.208  0.00  0.00     0.278 C 
ATOM      9  C34 ZIN A   1      18.992   0.894   7.135  0.00  0.00     0.072 C 
ATOM     10  C35 ZIN A   1      19.071  -0.475   7.763  0.00  0.00    -0.019 A 
ATOM     11  C36 ZIN A   1      19.068  -0.686   9.099  0.00  0.00     0.050 A 
ATOM     12  N37 ZIN A   1      19.151  -2.029   9.355  0.00  0.00    -0.357 N 
ATOM     13  C38 ZIN A   1      19.204  -2.721   8.179  0.00  0.00     0.046 A 
ATOM     14  C39 ZIN A   1      19.287  -4.084   7.902  0.00  0.00     0.067 A 
ATOM     15  C40 ZIN A   1      19.322  -4.452   6.563  0.00  0.00     0.070 A 
ATOM     16  C43 ZIN A   1      19.277  -3.516   5.538  0.00  0.00     0.038 A 
ATOM     17  C44 ZIN A   1      19.195  -2.168   5.785  0.00  0.00     0.017 A 
ATOM     18  C45 ZIN A   1      19.157  -1.770   7.125  0.00  0.00    -0.001 A 
ATOM     19  C46 ZIN A   1      18.981   0.435  10.104  0.00  0.00     0.273 C 
ATOM     20  C48 ZIN A   1      19.972   0.193  11.245  0.00  0.00     0.048 C 
ATOM     21  C49 ZIN A   1      19.880   1.359  12.237  0.00  0.00     0.010 C 
ATOM     22  H76 ZIN A   1      19.169  -2.428  10.239  0.00  0.00     0.166 HD
ENDROOT
BRANCH   3  23
ATOM     23  O13 ZIN A   1      17.648   4.025  11.978  0.00  0.00    -0.309 OA
BRANCH  23  24
ATOM     24  C14 ZIN A   1      17.000   5.204  11.898  0.00  0.00     0.294 C 
ATOM     25  O15 ZIN A   1      16.800   5.716  10.815  0.00  0.00    -0.259 OA
BRANCH  24  26
ATOM     26  C16 ZIN A   1      16.531   5.871  13.128  0.00  0.00     0.045 A 
ATOM     27  C27 ZIN A   1      17.333   6.830  13.752  0.00  0.00     0.057 A 
ATOM     28  C24 ZIN A   1      16.890   7.457  14.901  0.00  0.00     0.105 A 
ATOM     29  C21 ZIN A   1      15.650   7.126  15.443  0.00  0.00     0.135 A 
ATOM     30  C18 ZIN A   1      14.851   6.167  14.826  0.00  0.00     0.105 A 
ATOM     31  C17 ZIN A   1      15.288   5.540  13.674  0.00  0.00     0.057 A 
BRANCH  28  32
ATOM     32  O25 ZIN A   1      17.667   8.394  15.507  0.00  0.00    -0.353 OA
ATOM     33  C26 ZIN A   1      17.885   9.614  14.796  0.00  0.00     0.210 C 
ENDBRANCH  28  32
BRANCH  29  34
ATOM     34  O22 ZIN A   1      15.219   7.740  16.576  0.00  0.00    -0.351 OA
ATOM     35  C23 ZIN A   1      15.523   7.100  17.817  0.00  0.00     0.210 C 
ENDBRANCH  29  34
BRANCH  30  36
ATOM     36  O19 ZIN A   1      13.642   5.845  15.357  0.00  0.00    -0.353 OA
ATOM     37  C20 ZIN A   1      12.483   6.223  14.612  0.00  0.00     0.210 C 
ENDBRANCH  30  36
ENDBRANCH  24  26
ENDBRANCH  23  24
ENDBRANCH   3  23
BRANCH   2  38
ATOM     38  O9  ZIN A   1      19.301   2.414  14.852  0.00  0.00    -0.387 OA
ATOM     39  C10 ZIN A   1      18.935   3.067  16.069  0.00  0.00     0.202 C 
ENDBRANCH   2  38
BRANCH   1  40
ATOM     40  C3  ZIN A   1      17.464   1.558  11.715  0.00  0.00     0.265 C 
ATOM     41  O4  ZIN A   1      17.343   2.625  11.162  0.00  0.00    -0.265 OA
BRANCH  40  42
ATOM     42  O2  ZIN A   1      16.702   0.518  11.338  0.00  0.00    -0.326 OA
ATOM     43  C1  ZIN A   1      16.642  -0.617  12.241  0.00  0.00     0.213 C 
ENDBRANCH  40  42
ENDBRANCH   1  40
BRANCH  15  44
ATOM     44  O41 ZIN A   1      19.403  -5.772   6.246  0.00  0.00    -0.356 OA
ATOM     45  C42 ZIN A   1      18.186  -6.429   5.887  0.00  0.00     0.210 C 
ENDBRANCH  15  44
TORSDOF 10
ENDMDL
MODEL 3
REMARK VINA RESULT:      -8.1      3.262     11.241
REMARK  10 active torsions:
REMARK  status: ('A' for Active; 'I' for Inactive)
REMARK    1  A    between atoms: O2_2  and  C3_3 
REMARK    2  A    between atoms: C3_3  and  C5_5 
REMARK    3  A    between atoms: C7_6  and  O9_7 
REMARK    4  A    between atoms: C11_9  and  O13_10 
REMARK    5  A    between atoms: O13_10  and  C14_11 
REMARK    6  A    between atoms: C14_11  and  C16_13 
REMARK    7  A    between atoms: C18_15  and  O19_16 
REMARK    8  A    between atoms: C21_18  and  O22_19 
REMARK    9  A    between atoms: C24_21  and  O25_22 
REMARK   10  A    between atoms: C40_36  and  O41_37 
ROOT
ATOM      1  C5  ZIN A   1      18.631  -1.313  10.067  0.00  0.00     0.121 C 
ATOM      2  C7  ZIN A   1      18.575  -2.462   9.059  0.00  0.00     0.164 C 
ATOM      3  C11 ZIN A   1      18.827  -3.786   9.784  0.00  0.00     0.162 C 
ATOM      4  C28 ZIN A   1      20.211  -3.751  10.435  0.00  0.00     0.042 C 
ATOM      5  C29 ZIN A   1      20.280  -2.599  11.437  0.00  0.00     0.021 C 
ATOM      6  C31 ZIN A   1      19.241  -2.809  12.540  0.00  0.00     0.278 C 
ATOM      7  N32 ZIN A   1      19.316  -1.695  13.492  0.00  0.00     0.099 N 
ATOM      8  C33 ZIN A   1      18.471  -1.925  14.668  0.00  0.00     0.278 C 
ATOM      9  C34 ZIN A   1      18.876  -0.955  15.787  0.00  0.00     0.072 C 
ATOM     10  C35 ZIN A   1      18.962   0.431  15.199  0.00  0.00    -0.019 A 
ATOM     11  C36 ZIN A   1      19.020   0.677  13.870  0.00  0.00     0.050 A 
ATOM     12  N37 ZIN A   1      19.093   2.027  13.653  0.00  0.00    -0.357 N 
ATOM     13  C38 ZIN A   1      19.078   2.690  14.847  0.00  0.00     0.046 A 
ATOM     14  C39 ZIN A   1      19.126   4.046  15.162  0.00  0.00     0.067 A 
ATOM     15  C40 ZIN A   1      19.091   4.379  16.510  0.00  0.00     0.070 A 
ATOM     16  C43 ZIN A   1      19.013   3.416  17.508  0.00  0.00     0.038 A 
ATOM     17  C44 ZIN A   1      18.965   2.074  17.223  0.00  0.00     0.017 A 
ATOM     18  C45 ZIN A   1      18.997   1.711  15.873  0.00  0.00    -0.001 A 
ATOM     19  C46 ZIN A   1      18.999  -0.418  12.834  0.00  0.00     0.273 C 
ATOM     20  C48 ZIN A   1      20.038  -0.132  11.748  0.00  0.00     0.048 C 
ATOM     21  C49 ZIN A   1      20.013  -1.273  10.724  0.00  0.00     0.010 C 
ATOM     22  H76 ZIN A   1      19.146   2.450  12.781  0.00  0.00     0.166 HD
ENDROOT
BRANCH   3  23
ATOM     23  O13 ZIN A   1      17.815  -3.978  10.808  0.00  0.00    -0.309 OA
BRANCH  23  24
ATOM     24  C14 ZIN A   1      17.253  -5.200  10.890  0.00  0.00     0.294 C 
ATOM     25  O15 ZIN A   1      17.186  -5.767  11.962  0.00  0.00    -0.259 OA
BRANCH  24  26
ATOM     26  C16 ZIN A   1      16.718  -5.848   9.678  0.00  0.00     0.045 A 
ATOM     27  C27 ZIN A   1      15.441  -5.520   9.214  0.00  0.00     0.057 A 
ATOM     28  C24 ZIN A   1      14.945  -6.126   8.075  0.00  0.00     0.105 A 
ATOM     29  C21 ZIN A   1      15.712  -7.069   7.396  0.00  0.00     0.135 A 
ATOM     30  C18 ZIN A   1      16.983  -7.401   7.858  0.00  0.00     0.105 A 
ATOM     31  C17 ZIN A   1      17.486  -6.795   8.994  0.00  0.00     0.057 A 
BRANCH  28  32
ATOM     32  O25 ZIN A   1      13.704  -5.805   7.621  0.00  0.00    -0.353 OA
ATOM     33  C26 ZIN A   1      12.595  -6.447   8.255  0.00  0.00     0.210 C 
ENDBRANCH  28  32
BRANCH  29  34
ATOM     34  O22 ZIN A   1      15.219  -7.667   6.279  0.00  0.00    -0.351 OA
ATOM     35  C23 ZIN A   1      15.468  -7.015   5.031  0.00  0.00     0.210 C 
ENDBRANCH  29  34
BRANCH  30  36
ATOM     36  O19 ZIN A   1      17.729  -8.323   7.193  0.00  0.00    -0.353 OA
ATOM     37  C20 ZIN A   1      17.349  -9.692   7.337  0.00  0.00     0.210 C 
ENDBRANCH  30  36
ENDBRANCH  24  26
ENDBRANCH  23  24
ENDBRANCH   3  23
BRANCH   2  38
ATOM     38  O9  ZIN A   1      19.576  -2.268   8.058  0.00  0.00    -0.387 OA
ATOM     39  C10 ZIN A   1      19.174  -2.671   6.748  0.00  0.00     0.202 C 
ENDBRANCH   2  38
BRANCH   1  40
ATOM     40  C3  ZIN A   1      17.578  -1.521  11.124  0.00  0.00     0.265 C 
ATOM     41  O4  ZIN A   1      17.368  -2.629  11.559  0.00  0.00    -0.265 OA
BRANCH  40  42
ATOM     42  O2  ZIN A   1      16.872  -0.476  11.585  0.00  0.00    -0.326 OA
ATOM     43  C1  ZIN A   1      16.661   0.632  10.670  0.00  0.00     0.213 C 
ENDBRANCH  40  42
ENDBRANCH   1  40
BRANCH  15  44
ATOM     44  O41 ZIN A   1      19.137   5.692  16.863  0.00  0.00    -0.356 OA
ATOM     45  C42 ZIN A   1      18.667   6.639  15.902  0.00  0.00     0.210 C 
ENDBRANCH  15  44
TORSDOF 10
ENDMDL
MODEL 4
REMARK VINA RESULT:      -8.1      1.613      2.020
REMARK  10 active torsions:
REMARK  status: ('A' for Active; 'I' for Inactive)
REMARK    1  A    between atoms: O2_2  and  C3_3 
REMARK    2  A    between atoms: C3_3  and  C5_5 
REMARK    3  A    between atoms: C7_6  and  O9_7 
REMARK    4  A    between atoms: C11_9  and  O13_10 
REMARK    5  A    between atoms: O13_10  and  C14_11 
REMARK    6  A    between atoms: C14_11  and  C16_13 
REMARK    7  A    between atoms: C18_15  and  O19_16 
REMARK    8  A    between atoms: C21_18  and  O22_19 
REMARK    9  A    between atoms: C24_21  and  O25_22 
REMARK   10  A    between atoms: C40_36  and  O41_37 
ROOT
ATOM      1  C5  ZIN A   1      18.457   1.616  13.181  0.00  0.00     0.121 C 
ATOM      2  C7  ZIN A   1      18.318   2.452  14.454  0.00  0.00     0.164 C 
ATOM      3  C11 ZIN A   1      18.459   3.936  14.105  0.00  0.00     0.162 C 
ATOM      4  C28 ZIN A   1      19.837   4.181  13.486  0.00  0.00     0.042 C 
ATOM      5  C29 ZIN A   1      19.988   3.342  12.218  0.00  0.00     0.021 C 
ATOM      6  C31 ZIN A   1      18.927   3.752  11.196  0.00  0.00     0.278 C 
ATOM      7  N32 ZIN A   1      19.083   2.937   9.986  0.00  0.00     0.099 N 
ATOM      8  C33 ZIN A   1      18.213   3.401   8.900  0.00  0.00     0.278 C 
ATOM      9  C34 ZIN A   1      18.684   2.793   7.571  0.00  0.00     0.072 C 
ATOM     10  C35 ZIN A   1      18.884   1.313   7.776  0.00  0.00    -0.019 A 
ATOM     11  C36 ZIN A   1      18.971   0.732   8.994  0.00  0.00     0.050 A 
ATOM     12  N37 ZIN A   1      19.152  -0.619   8.851  0.00  0.00    -0.357 N 
ATOM     13  C38 ZIN A   1      19.180  -0.943   7.525  0.00  0.00     0.046 A 
ATOM     14  C39 ZIN A   1      19.333  -2.160   6.865  0.00  0.00     0.067 A 
ATOM     15  C40 ZIN A   1      19.314  -2.130   5.477  0.00  0.00     0.070 A 
ATOM     16  C43 ZIN A   1      19.152  -0.948   4.765  0.00  0.00     0.038 A 
ATOM     17  C44 ZIN A   1      19.000   0.264   5.392  0.00  0.00     0.017 A 
ATOM     18  C45 ZIN A   1      19.014   0.262   6.791  0.00  0.00    -0.001 A 
ATOM     19  C46 ZIN A   1      18.872   1.511  10.281  0.00  0.00     0.273 C 
ATOM     20  C48 ZIN A   1      19.939   1.032  11.267  0.00  0.00     0.048 C 
ATOM     21  C49 ZIN A   1      19.832   1.859  12.555  0.00  0.00     0.010 C 
ATOM     22  H76 ZIN A   1      19.245  -1.250   9.581  0.00  0.00     0.166 HD
ENDROOT
BRANCH   3  23
ATOM     23  O13 ZIN A   1      17.427   4.310  13.154  0.00  0.00    -0.309 OA
BRANCH  23  24
ATOM     24  C14 ZIN A   1      16.824   5.501  13.344  0.00  0.00     0.294 C 
ATOM     25  O15 ZIN A   1      16.868   6.349  12.476  0.00  0.00    -0.259 OA
BRANCH  24  26
ATOM     26  C16 ZIN A   1      16.111   5.772  14.606  0.00  0.00     0.045 A 
ATOM     27  C27 ZIN A   1      14.751   6.096  14.585  0.00  0.00     0.057 A 
ATOM     28  C24 ZIN A   1      14.084   6.346  15.770  0.00  0.00     0.105 A 
ATOM     29  C21 ZIN A   1      14.767   6.284  16.982  0.00  0.00     0.135 A 
ATOM     30  C18 ZIN A   1      16.123   5.966  17.005  0.00  0.00     0.105 A 
ATOM     31  C17 ZIN A   1      16.794   5.711  15.824  0.00  0.00     0.057 A 
BRANCH  28  32
ATOM     32  O25 ZIN A   1      12.760   6.658  15.752  0.00  0.00    -0.353 OA
ATOM     33  C26 ZIN A   1      11.920   5.867  14.909  0.00  0.00     0.210 C 
ENDBRANCH  28  32
BRANCH  29  34
ATOM     34  O22 ZIN A   1      14.110   6.535  18.145  0.00  0.00    -0.351 OA
ATOM     35  C23 ZIN A   1      14.096   7.888  18.604  0.00  0.00     0.210 C 
ENDBRANCH  29  34
BRANCH  30  36
ATOM     36  O19 ZIN A   1      16.787   5.907  18.190  0.00  0.00    -0.353 OA
ATOM     37  C20 ZIN A   1      17.098   4.608  18.697  0.00  0.00     0.210 C 
ENDBRANCH  30  36
ENDBRANCH  24  26
ENDBRANCH  23  24
ENDBRANCH   3  23
BRANCH   2  38
ATOM     38  O9  ZIN A   1      19.339   2.081  15.382  0.00  0.00    -0.387 OA
ATOM     39  C10 ZIN A   1      18.848   1.720  16.674  0.00  0.00     0.202 C 
ENDBRANCH   2  38
BRANCH   1  40
ATOM     40  C3  ZIN A   1      17.382   2.012  12.201  0.00  0.00     0.265 C 
ATOM     41  O4  ZIN A   1      17.078   3.175  12.075  0.00  0.00    -0.265 OA
BRANCH  40  42
ATOM     42  O2  ZIN A   1      16.763   1.074  11.468  0.00  0.00    -0.326 OA
ATOM     43  C1  ZIN A   1      16.558  -0.221  12.091  0.00  0.00     0.213 C 
ENDBRANCH  40  42
ENDBRANCH   1  40
BRANCH  15  44
ATOM     44  O41 ZIN A   1      19.459  -3.296   4.792  0.00  0.00    -0.356 OA
ATOM     45  C42 ZIN A   1      18.290  -3.831   4.166  0.00  0.00     0.210 C 
ENDBRANCH  15  44
TORSDOF 10
ENDMDL
MODEL 5
REMARK VINA RESULT:      -7.7      2.067      3.196
REMARK  10 active torsions:
REMARK  status: ('A' for Active; 'I' for Inactive)
REMARK    1  A    between atoms: O2_2  and  C3_3 
REMARK    2  A    between atoms: C3_3  and  C5_5 
REMARK    3  A    between atoms: C7_6  and  O9_7 
REMARK    4  A    between atoms: C11_9  and  O13_10 
REMARK    5  A    between atoms: O13_10  and  C14_11 
REMARK    6  A    between atoms: C14_11  and  C16_13 
REMARK    7  A    between atoms: C18_15  and  O19_16 
REMARK    8  A    between atoms: C21_18  and  O22_19 
REMARK    9  A    between atoms: C24_21  and  O25_22 
REMARK   10  A    between atoms: C40_36  and  O41_37 
ROOT
ATOM      1  C5  ZIN A   1      17.646  -0.443  13.800  0.00  0.00     0.121 C 
ATOM      2  C7  ZIN A   1      17.586   0.679  14.838  0.00  0.00     0.164 C 
ATOM      3  C11 ZIN A   1      18.488   1.832  14.392  0.00  0.00     0.162 C 
ATOM      4  C28 ZIN A   1      19.929   1.330  14.273  0.00  0.00     0.042 C 
ATOM      5  C29 ZIN A   1      19.997   0.201  13.244  0.00  0.00     0.021 C 
ATOM      6  C31 ZIN A   1      19.560   0.722  11.874  0.00  0.00     0.278 C 
ATOM      7  N32 ZIN A   1      19.627  -0.373  10.899  0.00  0.00     0.099 N 
ATOM      8  C33 ZIN A   1      19.393   0.101   9.531  0.00  0.00     0.278 C 
ATOM      9  C34 ZIN A   1      19.856  -0.969   8.532  0.00  0.00     0.072 C 
ATOM     10  C35 ZIN A   1      19.281  -2.295   8.964  0.00  0.00    -0.019 A 
ATOM     11  C36 ZIN A   1      18.765  -2.521  10.193  0.00  0.00     0.050 A 
ATOM     12  N37 ZIN A   1      18.326  -3.816  10.279  0.00  0.00    -0.357 N 
ATOM     13  C38 ZIN A   1      18.546  -4.458   9.095  0.00  0.00     0.046 A 
ATOM     14  C39 ZIN A   1      18.280  -5.760   8.676  0.00  0.00     0.067 A 
ATOM     15  C40 ZIN A   1      18.641  -6.089   7.376  0.00  0.00     0.070 A 
ATOM     16  C43 ZIN A   1      19.241  -5.172   6.522  0.00  0.00     0.038 A 
ATOM     17  C44 ZIN A   1      19.514  -3.884   6.911  0.00  0.00     0.017 A 
ATOM     18  C45 ZIN A   1      19.159  -3.527   8.215  0.00  0.00    -0.001 A 
ATOM     19  C46 ZIN A   1      18.708  -1.461  11.264  0.00  0.00     0.273 C 
ATOM     20  C48 ZIN A   1      19.128  -2.054  12.610  0.00  0.00     0.048 C 
ATOM     21  C49 ZIN A   1      19.086  -0.949  13.674  0.00  0.00     0.010 C 
ATOM     22  H76 ZIN A   1      17.919  -4.216  11.064  0.00  0.00     0.166 HD
ENDROOT
BRANCH   3  23
ATOM     23  O13 ZIN A   1      18.039   2.327  13.102  0.00  0.00    -0.309 OA
BRANCH  23  24
ATOM     24  C14 ZIN A   1      18.219   3.640  12.857  0.00  0.00     0.294 C 
ATOM     25  O15 ZIN A   1      18.410   4.025  11.721  0.00  0.00    -0.259 OA
BRANCH  24  26
ATOM     26  C16 ZIN A   1      18.182   4.609  13.968  0.00  0.00     0.045 A 
ATOM     27  C27 ZIN A   1      19.374   5.064  14.539  0.00  0.00     0.057 A 
ATOM     28  C24 ZIN A   1      19.337   5.976  15.577  0.00  0.00     0.105 A 
ATOM     29  C21 ZIN A   1      18.113   6.433  16.061  0.00  0.00     0.135 A 
ATOM     30  C18 ZIN A   1      16.924   5.978  15.497  0.00  0.00     0.105 A 
ATOM     31  C17 ZIN A   1      16.956   5.070  14.456  0.00  0.00     0.057 A 
BRANCH  28  32
ATOM     32  O25 ZIN A   1      20.496   6.423  16.131  0.00  0.00    -0.353 OA
ATOM     33  C26 ZIN A   1      21.714   5.914  15.585  0.00  0.00     0.210 C 
ENDBRANCH  28  32
BRANCH  29  34
ATOM     34  O22 ZIN A   1      18.079   7.326  17.085  0.00  0.00    -0.351 OA
ATOM     35  C23 ZIN A   1      17.794   6.809  18.387  0.00  0.00     0.210 C 
ENDBRANCH  29  34
BRANCH  30  36
ATOM     36  O19 ZIN A   1      15.731   6.425  15.972  0.00  0.00    -0.353 OA
ATOM     37  C20 ZIN A   1      14.600   6.300  15.109  0.00  0.00     0.210 C 
ENDBRANCH  30  36
ENDBRANCH  24  26
ENDBRANCH  23  24
ENDBRANCH   3  23
BRANCH   2  38
ATOM     38  O9  ZIN A   1      18.033   0.184  16.101  0.00  0.00    -0.387 OA
ATOM     39  C10 ZIN A   1      17.033  -0.526  16.835  0.00  0.00     0.202 C 
ENDBRANCH   2  38
BRANCH   1  40
ATOM     40  C3  ZIN A   1      17.179   0.081  12.467  0.00  0.00     0.265 C 
ATOM     41  O4  ZIN A   1      17.397   1.228  12.158  0.00  0.00    -0.265 OA
BRANCH  40  42
ATOM     42  O2  ZIN A   1      16.522  -0.727  11.620  0.00  0.00    -0.326 OA
ATOM     43  C1  ZIN A   1      16.125  -0.163  10.343  0.00  0.00     0.213 C 
ENDBRANCH  40  42
ENDBRANCH   1  40
BRANCH  15  44
ATOM     44  O41 ZIN A   1      18.400  -7.349   6.925  0.00  0.00    -0.356 OA
ATOM     45  C42 ZIN A   1      17.363  -7.503   5.953  0.00  0.00     0.210 C 
ENDBRANCH  15  44
TORSDOF 10
ENDMDL
MODEL 6
REMARK VINA RESULT:      -7.6      2.502     10.887
REMARK  10 active torsions:
REMARK  status: ('A' for Active; 'I' for Inactive)
REMARK    1  A    between atoms: O2_2  and  C3_3 
REMARK    2  A    between atoms: C3_3  and  C5_5 
REMARK    3  A    between atoms: C7_6  and  O9_7 
REMARK    4  A    between atoms: C11_9  and  O13_10 
REMARK    5  A    between atoms: O13_10  and  C14_11 
REMARK    6  A    between atoms: C14_11  and  C16_13 
REMARK    7  A    between atoms: C18_15  and  O19_16 
REMARK    8  A    between atoms: C21_18  and  O22_19 
REMARK    9  A    between atoms: C24_21  and  O25_22 
REMARK   10  A    between atoms: C40_36  and  O41_37 
ROOT
ATOM      1  C5  ZIN A   1      17.510   0.482   8.900  0.00  0.00     0.121 C 
ATOM      2  C7  ZIN A   1      17.503  -0.511   7.737  0.00  0.00     0.164 C 
ATOM      3  C11 ZIN A   1      18.519  -1.622   8.012  0.00  0.00     0.162 C 
ATOM      4  C28 ZIN A   1      19.916  -1.010   8.147  0.00  0.00     0.042 C 
ATOM      5  C29 ZIN A   1      19.929  -0.009   9.301  0.00  0.00     0.021 C 
ATOM      6  C31 ZIN A   1      19.595  -0.724  10.611  0.00  0.00     0.278 C 
ATOM      7  N32 ZIN A   1      19.608   0.250  11.709  0.00  0.00     0.099 N 
ATOM      8  C33 ZIN A   1      19.472  -0.401  13.017  0.00  0.00     0.278 C 
ATOM      9  C34 ZIN A   1      19.882   0.582  14.122  0.00  0.00     0.072 C 
ATOM     10  C35 ZIN A   1      19.178   1.891  13.872  0.00  0.00    -0.019 A 
ATOM     11  C36 ZIN A   1      18.594   2.213  12.696  0.00  0.00     0.050 A 
ATOM     12  N37 ZIN A   1      18.042   3.464  12.780  0.00  0.00    -0.357 N 
ATOM     13  C38 ZIN A   1      18.255   3.980  14.026  0.00  0.00     0.046 A 
ATOM     14  C39 ZIN A   1      17.895   5.194  14.607  0.00  0.00     0.067 A 
ATOM     15  C40 ZIN A   1      18.280   5.399  15.926  0.00  0.00     0.070 A 
ATOM     16  C43 ZIN A   1      18.992   4.446  16.644  0.00  0.00     0.038 A 
ATOM     17  C44 ZIN A   1      19.359   3.243  16.094  0.00  0.00     0.017 A 
ATOM     18  C45 ZIN A   1      18.982   3.011  14.767  0.00  0.00    -0.001 A 
ATOM     19  C46 ZIN A   1      18.584   1.286  11.507  0.00  0.00     0.273 C 
ATOM     20  C48 ZIN A   1      18.896   2.068  10.230  0.00  0.00     0.048 C 
ATOM     21  C49 ZIN A   1      18.904   1.097   9.042  0.00  0.00     0.010 C 
ATOM     22  H76 ZIN A   1      17.571   3.915  12.063  0.00  0.00     0.166 HD
ENDROOT
BRANCH   3  23
ATOM     23  O13 ZIN A   1      18.169  -2.304   9.245  0.00  0.00    -0.309 OA
BRANCH  23  24
ATOM     24  C14 ZIN A   1      18.350  -3.640   9.277  0.00  0.00     0.294 C 
ATOM     25  O15 ZIN A   1      19.078  -4.134  10.114  0.00  0.00    -0.259 OA
BRANCH  24  26
ATOM     26  C16 ZIN A   1      17.663  -4.500   8.296  0.00  0.00     0.045 A 
ATOM     27  C27 ZIN A   1      18.128  -4.571   6.980  0.00  0.00     0.057 A 
ATOM     28  C24 ZIN A   1      17.485  -5.381   6.064  0.00  0.00     0.105 A 
ATOM     29  C21 ZIN A   1      16.368  -6.119   6.448  0.00  0.00     0.135 A 
ATOM     30  C18 ZIN A   1      15.899  -6.047   7.757  0.00  0.00     0.105 A 
ATOM     31  C17 ZIN A   1      16.541  -5.241   8.679  0.00  0.00     0.057 A 
BRANCH  28  32
ATOM     32  O25 ZIN A   1      17.939  -5.454   4.784  0.00  0.00    -0.353 OA
ATOM     33  C26 ZIN A   1      17.836  -4.270   3.991  0.00  0.00     0.210 C 
ENDBRANCH  28  32
BRANCH  29  34
ATOM     34  O22 ZIN A   1      15.734  -6.911   5.544  0.00  0.00    -0.351 OA
ATOM     35  C23 ZIN A   1      14.720  -6.300   4.744  0.00  0.00     0.210 C 
ENDBRANCH  29  34
BRANCH  30  36
ATOM     36  O19 ZIN A   1      14.807  -6.767   8.129  0.00  0.00    -0.353 OA
ATOM     37  C20 ZIN A   1      13.561  -6.071   8.197  0.00  0.00     0.210 C 
ENDBRANCH  30  36
ENDBRANCH  24  26
ENDBRANCH  23  24
ENDBRANCH   3  23
BRANCH   2  38
ATOM     38  O9  ZIN A   1      17.854   0.167   6.529  0.00  0.00    -0.387 OA
ATOM     39  C10 ZIN A   1      17.582  -0.581   5.342  0.00  0.00     0.202 C 
ENDBRANCH   2  38
BRANCH   1  40
ATOM     40  C3  ZIN A   1      17.146  -0.236  10.174  0.00  0.00     0.265 C 
ATOM     41  O4  ZIN A   1      17.564  -1.350  10.382  0.00  0.00    -0.265 OA
BRANCH  40  42
ATOM     42  O2  ZIN A   1      16.356   0.363  11.080  0.00  0.00    -0.326 OA
ATOM     43  C1  ZIN A   1      16.155  -0.329  12.341  0.00  0.00     0.213 C 
ENDBRANCH  40  42
ENDBRANCH   1  40
BRANCH  15  44
ATOM     44  O41 ZIN A   1      17.951   6.570  16.533  0.00  0.00    -0.356 OA
ATOM     45  C42 ZIN A   1      17.873   7.731  15.703  0.00  0.00     0.210 C 
ENDBRANCH  15  44
TORSDOF 10
ENDMDL
MODEL 7
REMARK VINA RESULT:      -7.6      2.071      2.803
REMARK  10 active torsions:
REMARK  status: ('A' for Active; 'I' for Inactive)
REMARK    1  A    between atoms: O2_2  and  C3_3 
REMARK    2  A    between atoms: C3_3  and  C5_5 
REMARK    3  A    between atoms: C7_6  and  O9_7 
REMARK    4  A    between atoms: C11_9  and  O13_10 
REMARK    5  A    between atoms: O13_10  and  C14_11 
REMARK    6  A    between atoms: C14_11  and  C16_13 
REMARK    7  A    between atoms: C18_15  and  O19_16 
REMARK    8  A    between atoms: C21_18  and  O22_19 
REMARK    9  A    between atoms: C24_21  and  O25_22 
REMARK   10  A    between atoms: C40_36  and  O41_37 
ROOT
ATOM      1  C5  ZIN A   1      17.623  -0.266  13.809  0.00  0.00     0.121 C 
ATOM      2  C7  ZIN A   1      17.618   0.934  14.757  0.00  0.00     0.164 C 
ATOM      3  C11 ZIN A   1      18.604   1.988  14.246  0.00  0.00     0.162 C 
ATOM      4  C28 ZIN A   1      20.010   1.385  14.201  0.00  0.00     0.042 C 
ATOM      5  C29 ZIN A   1      20.023   0.178  13.263  0.00  0.00     0.021 C 
ATOM      6  C31 ZIN A   1      19.647   0.618  11.848  0.00  0.00     0.278 C 
ATOM      7  N32 ZIN A   1      19.660  -0.551  10.960  0.00  0.00     0.099 N 
ATOM      8  C33 ZIN A   1      19.484  -0.170   9.554  0.00  0.00     0.278 C 
ATOM      9  C34 ZIN A   1      19.893  -1.342   8.652  0.00  0.00     0.072 C 
ATOM     10  C35 ZIN A   1      19.223  -2.590   9.169  0.00  0.00    -0.019 A 
ATOM     11  C36 ZIN A   1      18.669  -2.686  10.399  0.00  0.00     0.050 A 
ATOM     12  N37 ZIN A   1      18.143  -3.939  10.573  0.00  0.00    -0.357 N 
ATOM     13  C38 ZIN A   1      18.342  -4.684   9.446  0.00  0.00     0.046 A 
ATOM     14  C39 ZIN A   1      17.997  -5.994   9.122  0.00  0.00     0.067 A 
ATOM     15  C40 ZIN A   1      18.360  -6.446   7.860  0.00  0.00     0.070 A 
ATOM     16  C43 ZIN A   1      19.037  -5.640   6.953  0.00  0.00     0.038 A 
ATOM     17  C44 ZIN A   1      19.389  -4.346   7.249  0.00  0.00     0.017 A 
ATOM     18  C45 ZIN A   1      19.033  -3.866   8.514  0.00  0.00    -0.001 A 
ATOM     19  C46 ZIN A   1      18.662  -1.545  11.385  0.00  0.00     0.273 C 
ATOM     20  C48 ZIN A   1      19.016  -2.057  12.782  0.00  0.00     0.048 C 
ATOM     21  C49 ZIN A   1      19.027  -0.873  13.757  0.00  0.00     0.010 C 
ATOM     22  H76 ZIN A   1      17.695  -4.250  11.376  0.00  0.00     0.166 HD
ENDROOT
BRANCH   3  23
ATOM     23  O13 ZIN A   1      18.215   2.410  12.912  0.00  0.00    -0.309 OA
BRANCH  23  24
ATOM     24  C14 ZIN A   1      18.532   3.670  12.553  0.00  0.00     0.294 C 
ATOM     25  O15 ZIN A   1      18.884   3.907  11.416  0.00  0.00    -0.259 OA
BRANCH  24  26
ATOM     26  C16 ZIN A   1      18.450   4.761  13.543  0.00  0.00     0.045 A 
ATOM     27  C27 ZIN A   1      17.245   5.442  13.735  0.00  0.00     0.057 A 
ATOM     28  C24 ZIN A   1      17.170   6.461  14.667  0.00  0.00     0.105 A 
ATOM     29  C21 ZIN A   1      18.296   6.815  15.405  0.00  0.00     0.135 A 
ATOM     30  C18 ZIN A   1      19.499   6.141  15.212  0.00  0.00     0.105 A 
ATOM     31  C17 ZIN A   1      19.578   5.119  14.286  0.00  0.00     0.057 A 
BRANCH  28  32
ATOM     32  O25 ZIN A   1      15.997   7.122  14.858  0.00  0.00    -0.353 OA
ATOM     33  C26 ZIN A   1      14.892   6.355  15.342  0.00  0.00     0.210 C 
ENDBRANCH  28  32
BRANCH  29  34
ATOM     34  O22 ZIN A   1      18.221   7.820  16.317  0.00  0.00    -0.351 OA
ATOM     35  C23 ZIN A   1      17.709   7.487  17.609  0.00  0.00     0.210 C 
ENDBRANCH  29  34
BRANCH  30  36
ATOM     36  O19 ZIN A   1      20.597   6.490  15.935  0.00  0.00    -0.353 OA
ATOM     37  C20 ZIN A   1      21.829   5.852  15.593  0.00  0.00     0.210 C 
ENDBRANCH  30  36
ENDBRANCH  24  26
ENDBRANCH  23  24
ENDBRANCH   3  23
BRANCH   2  38
ATOM     38  O9  ZIN A   1      18.007   0.511  16.065  0.00  0.00    -0.387 OA
ATOM     39  C10 ZIN A   1      16.985  -0.189  16.777  0.00  0.00     0.202 C 
ENDBRANCH   2  38
BRANCH   1  40
ATOM     40  C3  ZIN A   1      17.218   0.182  12.429  0.00  0.00     0.265 C 
ATOM     41  O4  ZIN A   1      17.534   1.279  12.032  0.00  0.00    -0.265 OA
BRANCH  40  42
ATOM     42  O2  ZIN A   1      16.506  -0.637  11.638  0.00  0.00    -0.326 OA
ATOM     43  C1  ZIN A   1      16.128  -0.129  10.332  0.00  0.00     0.213 C 
ENDBRANCH  40  42
ENDBRANCH   1  40
BRANCH  15  44
ATOM     44  O41 ZIN A   1      18.044  -7.719   7.501  0.00  0.00    -0.356 OA
ATOM     45  C42 ZIN A   1      16.721  -8.168   7.802  0.00  0.00     0.210 C 
ENDBRANCH  15  44
TORSDOF 10
ENDMDL
MODEL 8
REMARK VINA RESULT:      -7.4      2.021      2.718
REMARK  10 active torsions:
REMARK  status: ('A' for Active; 'I' for Inactive)
REMARK    1  A    between atoms: O2_2  and  C3_3 
REMARK    2  A    between atoms: C3_3  and  C5_5 
REMARK    3  A    between atoms: C7_6  and  O9_7 
REMARK    4  A    between atoms: C11_9  and  O13_10 
REMARK    5  A    between atoms: O13_10  and  C14_11 
REMARK    6  A    between atoms: C14_11  and  C16_13 
REMARK    7  A    between atoms: C18_15  and  O19_16 
REMARK    8  A    between atoms: C21_18  and  O22_19 
REMARK    9  A    between atoms: C24_21  and  O25_22 
REMARK   10  A    between atoms: C40_36  and  O41_37 
ROOT
ATOM      1  C5  ZIN A   1      17.653  -0.559  14.031  0.00  0.00     0.121 C 
ATOM      2  C7  ZIN A   1      17.611   0.420  15.205  0.00  0.00     0.164 C 
ATOM      3  C11 ZIN A   1      18.584   1.572  14.941  0.00  0.00     0.162 C 
ATOM      4  C28 ZIN A   1      20.002   1.015  14.796  0.00  0.00     0.042 C 
ATOM      5  C29 ZIN A   1      20.050   0.028  13.631  0.00  0.00     0.021 C 
ATOM      6  C31 ZIN A   1      19.686   0.745  12.330  0.00  0.00     0.278 C 
ATOM      7  N32 ZIN A   1      19.734  -0.215  11.220  0.00  0.00     0.099 N 
ATOM      8  C33 ZIN A   1      19.570   0.445   9.921  0.00  0.00     0.278 C 
ATOM      9  C34 ZIN A   1      20.014  -0.509   8.803  0.00  0.00     0.072 C 
ATOM     10  C35 ZIN A   1      19.361  -1.847   9.039  0.00  0.00    -0.019 A 
ATOM     11  C36 ZIN A   1      18.792  -2.204  10.213  0.00  0.00     0.050 A 
ATOM     12  N37 ZIN A   1      18.288  -3.474  10.116  0.00  0.00    -0.357 N 
ATOM     13  C38 ZIN A   1      18.517  -3.967   8.863  0.00  0.00     0.046 A 
ATOM     14  C39 ZIN A   1      18.202  -5.187   8.269  0.00  0.00     0.067 A 
ATOM     15  C40 ZIN A   1      18.592  -5.362   6.948  0.00  0.00     0.070 A 
ATOM     16  C43 ZIN A   1      19.265  -4.376   6.239  0.00  0.00     0.038 A 
ATOM     17  C44 ZIN A   1      19.587  -3.165   6.802  0.00  0.00     0.017 A 
ATOM     18  C45 ZIN A   1      19.205  -2.963   8.132  0.00  0.00    -0.001 A 
ATOM     19  C46 ZIN A   1      18.750  -1.292  11.413  0.00  0.00     0.273 C 
ATOM     20  C48 ZIN A   1      19.094  -2.076  12.680  0.00  0.00     0.048 C 
ATOM     21  C49 ZIN A   1      19.069  -1.118  13.879  0.00  0.00     0.010 C 
ATOM     22  H76 ZIN A   1      17.836  -3.951  10.829  0.00  0.00     0.166 HD
ENDROOT
BRANCH   3  23
ATOM     23  O13 ZIN A   1      18.204   2.255  13.716  0.00  0.00    -0.309 OA
BRANCH  23  24
ATOM     24  C14 ZIN A   1      18.372   3.592  13.685  0.00  0.00     0.294 C 
ATOM     25  O15 ZIN A   1      19.076   4.096  12.833  0.00  0.00    -0.259 OA
BRANCH  24  26
ATOM     26  C16 ZIN A   1      17.699   4.442  14.685  0.00  0.00     0.045 A 
ATOM     27  C27 ZIN A   1      16.633   5.260  14.304  0.00  0.00     0.057 A 
ATOM     28  C24 ZIN A   1      16.001   6.053  15.245  0.00  0.00     0.105 A 
ATOM     29  C21 ZIN A   1      16.435   6.044  16.568  0.00  0.00     0.135 A 
ATOM     30  C18 ZIN A   1      17.500   5.232  16.950  0.00  0.00     0.105 A 
ATOM     31  C17 ZIN A   1      18.132   4.435  16.014  0.00  0.00     0.057 A 
BRANCH  28  32
ATOM     32  O25 ZIN A   1      14.960   6.847  14.876  0.00  0.00    -0.353 OA
ATOM     33  C26 ZIN A   1      13.673   6.231  14.795  0.00  0.00     0.210 C 
ENDBRANCH  28  32
BRANCH  29  34
ATOM     34  O22 ZIN A   1      15.815   6.827  17.490  0.00  0.00    -0.351 OA
ATOM     35  C23 ZIN A   1      14.767   6.226  18.253  0.00  0.00     0.210 C 
ENDBRANCH  29  34
BRANCH  30  36
ATOM     36  O19 ZIN A   1      17.921   5.226  18.243  0.00  0.00    -0.353 OA
ATOM     37  C20 ZIN A   1      17.735   4.017  18.981  0.00  0.00     0.210 C 
ENDBRANCH  30  36
ENDBRANCH  24  26
ENDBRANCH  23  24
ENDBRANCH   3  23
BRANCH   2  38
ATOM     38  O9  ZIN A   1      17.990  -0.258  16.404  0.00  0.00    -0.387 OA
ATOM     39  C10 ZIN A   1      17.673   0.456  17.601  0.00  0.00     0.202 C 
ENDBRANCH   2  38
BRANCH   1  40
ATOM     40  C3  ZIN A   1      17.258   0.159  12.766  0.00  0.00     0.265 C 
ATOM     41  O4  ZIN A   1      17.649   1.284  12.562  0.00  0.00    -0.265 OA
BRANCH  40  42
ATOM     42  O2  ZIN A   1      16.472  -0.451  11.864  0.00  0.00    -0.326 OA
ATOM     43  C1  ZIN A   1      16.250   0.240  10.607  0.00  0.00     0.213 C 
ENDBRANCH  40  42
ENDBRANCH   1  40
BRANCH  15  44
ATOM     44  O41 ZIN A   1      18.305  -6.539   6.328  0.00  0.00    -0.356 OA
ATOM     45  C42 ZIN A   1      17.748  -7.578   7.136  0.00  0.00     0.210 C 
ENDBRANCH  15  44
TORSDOF 10
ENDMDL
MODEL 9
REMARK VINA RESULT:      -7.4      2.776     10.454
REMARK  10 active torsions:
REMARK  status: ('A' for Active; 'I' for Inactive)
REMARK    1  A    between atoms: O2_2  and  C3_3 
REMARK    2  A    between atoms: C3_3  and  C5_5 
REMARK    3  A    between atoms: C7_6  and  O9_7 
REMARK    4  A    between atoms: C11_9  and  O13_10 
REMARK    5  A    between atoms: O13_10  and  C14_11 
REMARK    6  A    between atoms: C14_11  and  C16_13 
REMARK    7  A    between atoms: C18_15  and  O19_16 
REMARK    8  A    between atoms: C21_18  and  O22_19 
REMARK    9  A    between atoms: C24_21  and  O25_22 
REMARK   10  A    between atoms: C40_36  and  O41_37 
ROOT
ATOM      1  C5  ZIN A   1      18.196  -1.091  12.439  0.00  0.00     0.121 C 
ATOM      2  C7  ZIN A   1      18.197  -2.267  11.460  0.00  0.00     0.164 C 
ATOM      3  C11 ZIN A   1      18.159  -1.733  10.026  0.00  0.00     0.162 C 
ATOM      4  C28 ZIN A   1      16.884  -0.909   9.826  0.00  0.00     0.042 C 
ATOM      5  C29 ZIN A   1      16.870   0.262  10.807  0.00  0.00     0.021 C 
ATOM      6  C31 ZIN A   1      18.071   1.172  10.545  0.00  0.00     0.278 C 
ATOM      7  N32 ZIN A   1      18.046   2.290  11.495  0.00  0.00     0.099 N 
ATOM      8  C33 ZIN A   1      19.069   3.295  11.182  0.00  0.00     0.278 C 
ATOM      9  C34 ZIN A   1      18.754   4.596  11.933  0.00  0.00     0.072 C 
ATOM     10  C35 ZIN A   1      18.474   4.251  13.374  0.00  0.00    -0.019 A 
ATOM     11  C36 ZIN A   1      18.205   2.997  13.804  0.00  0.00     0.050 A 
ATOM     12  N37 ZIN A   1      17.994   3.007  15.158  0.00  0.00    -0.357 N 
ATOM     13  C38 ZIN A   1      18.129   4.279  15.637  0.00  0.00     0.046 A 
ATOM     14  C39 ZIN A   1      18.019   4.808  16.921  0.00  0.00     0.067 A 
ATOM     15  C40 ZIN A   1      18.222   6.175  17.056  0.00  0.00     0.070 A 
ATOM     16  C43 ZIN A   1      18.520   6.990  15.971  0.00  0.00     0.038 A 
ATOM     17  C44 ZIN A   1      18.633   6.492  14.696  0.00  0.00     0.017 A 
ATOM     18  C45 ZIN A   1      18.435   5.117  14.532  0.00  0.00    -0.001 A 
ATOM     19  C46 ZIN A   1      18.163   1.807  12.880  0.00  0.00     0.273 C 
ATOM     20  C48 ZIN A   1      16.958   0.926  13.215  0.00  0.00     0.048 C 
ATOM     21  C49 ZIN A   1      16.925  -0.261  12.243  0.00  0.00     0.010 C 
ATOM     22  H76 ZIN A   1      17.782   2.228  15.695  0.00  0.00     0.166 HD
ENDROOT
BRANCH   3  23
ATOM     23  O13 ZIN A   1      19.320  -0.894   9.790  0.00  0.00    -0.309 OA
BRANCH  23  24
ATOM     24  C14 ZIN A   1      19.632  -0.630   8.506  0.00  0.00     0.294 C 
ATOM     25  O15 ZIN A   1      20.217   0.396   8.221  0.00  0.00    -0.259 OA
BRANCH  24  26
ATOM     26  C16 ZIN A   1      19.263  -1.588   7.446  0.00  0.00     0.045 A 
ATOM     27  C27 ZIN A   1      18.546  -1.153   6.328  0.00  0.00     0.057 A 
ATOM     28  C24 ZIN A   1      18.206  -2.052   5.335  0.00  0.00     0.105 A 
ATOM     29  C21 ZIN A   1      18.567  -3.391   5.453  0.00  0.00     0.135 A 
ATOM     30  C18 ZIN A   1      19.277  -3.828   6.568  0.00  0.00     0.105 A 
ATOM     31  C17 ZIN A   1      19.624  -2.933   7.562  0.00  0.00     0.057 A 
BRANCH  28  32
ATOM     32  O25 ZIN A   1      17.512  -1.629   4.244  0.00  0.00    -0.353 OA
ATOM     33  C26 ZIN A   1      17.812  -0.321   3.752  0.00  0.00     0.210 C 
ENDBRANCH  28  32
BRANCH  29  34
ATOM     34  O22 ZIN A   1      18.227  -4.274   4.477  0.00  0.00    -0.351 OA
ATOM     35  C23 ZIN A   1      16.948  -4.901   4.587  0.00  0.00     0.210 C 
ENDBRANCH  29  34
BRANCH  30  36
ATOM     36  O19 ZIN A   1      19.628  -5.137   6.680  0.00  0.00    -0.353 OA
ATOM     37  C20 ZIN A   1      19.012  -5.887   7.729  0.00  0.00     0.210 C 
ENDBRANCH  30  36
ENDBRANCH  24  26
ENDBRANCH  23  24
ENDBRANCH   3  23
BRANCH   2  38
ATOM     38  O9  ZIN A   1      17.049  -3.084  11.696  0.00  0.00    -0.387 OA
ATOM     39  C10 ZIN A   1      17.193  -4.432  11.245  0.00  0.00     0.202 C 
ENDBRANCH   2  38
BRANCH   1  40
ATOM     40  C3  ZIN A   1      19.404  -0.227  12.186  0.00  0.00     0.265 C 
ATOM     41  O4  ZIN A   1      19.733   0.036  11.053  0.00  0.00    -0.265 OA
BRANCH  40  42
ATOM     42  O2  ZIN A   1      20.116   0.252  13.218  0.00  0.00    -0.326 OA
ATOM     43  C1  ZIN A   1      20.003  -0.455  14.482  0.00  0.00     0.213 C 
ENDBRANCH  40  42
ENDBRANCH   1  40
BRANCH  15  44
ATOM     44  O41 ZIN A   1      18.124   6.735  18.292  0.00  0.00    -0.356 OA
ATOM     45  C42 ZIN A   1      16.950   6.434  19.050  0.00  0.00     0.210 C 
ENDBRANCH  15  44
TORSDOF 10
ENDMDL
