MODEL 1
REMARK VINA RESULT:      -7.8      0.000      0.000
REMARK  9 active torsions:
REMARK  status: ('A' for Active; 'I' for Inactive)
REMARK    1  A    between atoms: O2_2  and  C3_3 
REMARK    2  A    between atoms: C3_3  and  N4_4 
REMARK       I    between atoms: N4_4  and  C5_5 
REMARK    3  A    between atoms: C5_5  and  C7_7 
REMARK    4  A    between atoms: C10_10  and  C11_11 
REMARK    5  A    between atoms: C10_10  and  C14_14 
REMARK       I    between atoms: C11_11  and  N12_12 
REMARK    6  A    between atoms: C21_21  and  C22_22 
REMARK    7  A    between atoms: C25_25  and  C26_26 
REMARK    8  A    between atoms: C26_26  and  S27_27 
REMARK    9  A    between atoms: S27_27  and  C28_28 
ROOT
ATOM      1  C3  ZIN A   1      18.194   1.041  14.429  0.00  0.00     0.250 C 
ATOM      2  C18 ZIN A   1      19.216   0.096  13.820  0.00  0.00     0.285 C 
ATOM      3  O19 ZIN A   1      20.134  -0.560  14.266  0.00  0.00    -0.267 OA
ATOM      4  N20 ZIN A   1      18.698   0.275  12.593  0.00  0.00    -0.288 N 
ATOM      5  C21 ZIN A   1      19.083   0.092  11.254  0.00  0.00     0.119 C 
ATOM      6  C25 ZIN A   1      18.597   0.888  10.311  0.00  0.00    -0.027 C 
ATOM      7  C34 ZIN A   1      17.602   1.992  10.453  0.00  0.00     0.113 C 
ATOM      8  S35 ZIN A   1      17.477   2.590  12.165  0.00  0.00    -0.133 SA
ATOM      9  C36 ZIN A   1      17.488   1.010  13.077  0.00  0.00     0.221 C 
ENDROOT
BRANCH   1  10
ATOM     10  O2  ZIN A   1      17.431   0.457  15.488  0.00  0.00    -0.355 OA
ATOM     11  C1  ZIN A   1      17.734  -0.918  15.733  0.00  0.00     0.205 C 
ENDBRANCH   1  10
BRANCH   1  12
ATOM     12  N4  ZIN A   1      18.739   2.355  14.778  0.00  0.00    -0.317 N 
ATOM     13  C5  ZIN A   1      19.265   2.562  16.002  0.00  0.00     0.244 C 
ATOM     14  O6  ZIN A   1      19.288   1.661  16.813  0.00  0.00    -0.271 OA
ATOM     15  H41 ZIN A   1      18.722   3.076  14.130  0.00  0.00     0.166 HD
BRANCH  13  16
ATOM     16  C7  ZIN A   1      19.826   3.914  16.362  0.00  0.00     0.211 A 
ATOM     17  S17 ZIN A   1      18.776   4.847  17.509  0.00  0.00    -0.096 SA
ATOM     18  C9  ZIN A   1      18.524   6.001  16.262  0.00  0.00     0.062 A 
ATOM     19  S8  ZIN A   1      19.501   5.185  15.109  0.00  0.00    -0.096 SA
ATOM     20  C10 ZIN A   1      17.782   7.190  16.205  0.00  0.00     0.131 C 
BRANCH  20  21
ATOM     21  C11 ZIN A   1      17.032   7.642  17.377  0.00  0.00     0.258 C 
ATOM     22  N12 ZIN A   1      15.713   7.380  17.476  0.00  0.00    -0.366 N 
ATOM     23  H43 ZIN A   1      15.277   6.829  16.807  0.00  0.00     0.159 HD
ATOM     24  H44 ZIN A   1      15.201   7.743  18.215  0.00  0.00     0.159 HD
ATOM     25  O13 ZIN A   1      17.598   8.255  18.263  0.00  0.00    -0.268 OA
ENDBRANCH  20  21
BRANCH  20  26
ATOM     26  C14 ZIN A   1      17.759   7.951  15.017  0.00  0.00     0.216 C 
ATOM     27  O15 ZIN A   1      17.003   7.639  14.103  0.00  0.00    -0.644 OA
ATOM     28  O16 ZIN A   1      18.493   8.925  14.899  0.00  0.00    -0.644 OA
ENDBRANCH  20  26
ENDBRANCH  13  16
ENDBRANCH   1  12
BRANCH   5  29
ATOM     29  C22 ZIN A   1      20.025  -0.982  10.899  0.00  0.00     0.227 C 
ATOM     30  O23 ZIN A   1      19.608  -2.104  10.647  0.00  0.00    -0.643 OA
ATOM     31  O24 ZIN A   1      21.226  -0.752  10.855  0.00  0.00    -0.643 OA
ENDBRANCH   5  29
BRANCH   6  32
ATOM     32  C26 ZIN A   1      19.115   0.646   8.916  0.00  0.00     0.120 C 
BRANCH  32  33
ATOM     33  S27 ZIN A   1      17.763   0.066   7.862  0.00  0.00    -0.084 SA
BRANCH  33  34
ATOM     34  C28 ZIN A   1      18.668  -0.366   6.414  0.00  0.00     0.209 A 
ATOM     35  N32 ZIN A   1      19.251  -1.562   6.157  0.00  0.00    -0.230 N 
ATOM     36  N31 ZIN A   1      19.843  -1.418   4.890  0.00  0.00    -0.044 NA
ATOM     37  C33 ZIN A   1      19.257  -2.751   7.012  0.00  0.00     0.184 C 
ATOM     38  N30 ZIN A   1      19.598  -0.216   4.497  0.00  0.00    -0.022 NA
ATOM     39  N29 ZIN A   1      18.910   0.412   5.381  0.00  0.00    -0.102 NA
ENDBRANCH  33  34
ENDBRANCH  32  33
ENDBRANCH   6  32
TORSDOF 9
ENDMDL
MODEL 2
REMARK VINA RESULT:      -7.8      4.712      8.666
REMARK  9 active torsions:
REMARK  status: ('A' for Active; 'I' for Inactive)
REMARK    1  A    between atoms: O2_2  and  C3_3 
REMARK    2  A    between atoms: C3_3  and  N4_4 
REMARK       I    between atoms: N4_4  and  C5_5 
REMARK    3  A    between atoms: C5_5  and  C7_7 
REMARK    4  A    between atoms: C10_10  and  C11_11 
REMARK    5  A    between atoms: C10_10  and  C14_14 
REMARK       I    between atoms: C11_11  and  N12_12 
REMARK    6  A    between atoms: C21_21  and  C22_22 
REMARK    7  A    between atoms: C25_25  and  C26_26 
REMARK    8  A    between atoms: C26_26  and  S27_27 
REMARK    9  A    between atoms: S27_27  and  C28_28 
ROOT
ATOM      1  C3  ZIN A   1      18.677  -2.183   5.761  0.00  0.00     0.250 C 
ATOM      2  C18 ZIN A   1      17.852  -2.923   4.722  0.00  0.00     0.285 C 
ATOM      3  O19 ZIN A   1      17.133  -2.578   3.809  0.00  0.00    -0.267 OA
ATOM      4  N20 ZIN A   1      18.237  -4.112   5.217  0.00  0.00    -0.288 N 
ATOM      5  C21 ZIN A   1      17.816  -5.453   5.176  0.00  0.00     0.119 C 
ATOM      6  C25 ZIN A   1      18.053  -6.252   6.208  0.00  0.00    -0.027 C 
ATOM      7  C34 ZIN A   1      18.785  -5.942   7.471  0.00  0.00     0.113 C 
ATOM      8  S35 ZIN A   1      18.885  -4.154   7.788  0.00  0.00    -0.133 SA
ATOM      9  C36 ZIN A   1      19.283  -3.537   6.119  0.00  0.00     0.221 C 
ENDROOT
BRANCH   1  10
ATOM     10  O2  ZIN A   1      19.617  -1.264   5.200  0.00  0.00    -0.355 OA
ATOM     11  C1  ZIN A   1      19.018  -0.207   4.447  0.00  0.00     0.205 C 
ENDBRANCH   1  10
BRANCH   1  12
ATOM     12  N4  ZIN A   1      17.878  -1.593   6.839  0.00  0.00    -0.317 N 
ATOM     13  C5  ZIN A   1      18.481  -0.884   7.813  0.00  0.00     0.244 C 
ATOM     14  O6  ZIN A   1      19.684  -0.733   7.798  0.00  0.00    -0.271 OA
ATOM     15  H41 ZIN A   1      16.916  -1.713   6.851  0.00  0.00     0.166 HD
BRANCH  13  16
ATOM     16  C7  ZIN A   1      17.659  -0.276   8.921  0.00  0.00     0.211 A 
ATOM     17  S17 ZIN A   1      18.185   1.401   9.371  0.00  0.00    -0.096 SA
ATOM     18  C9  ZIN A   1      18.635   0.792  10.912  0.00  0.00     0.062 A 
ATOM     19  S8  ZIN A   1      18.164  -0.825  10.575  0.00  0.00    -0.096 SA
ATOM     20  C10 ZIN A   1      19.192   1.401  12.048  0.00  0.00     0.131 C 
BRANCH  20  21
ATOM     21  C11 ZIN A   1      19.492   2.833  12.037  0.00  0.00     0.258 C 
ATOM     22  N12 ZIN A   1      20.743   3.258  11.771  0.00  0.00    -0.366 N 
ATOM     23  H43 ZIN A   1      21.427   2.619  11.513  0.00  0.00     0.159 HD
ATOM     24  H44 ZIN A   1      20.960   4.200  11.836  0.00  0.00     0.159 HD
ATOM     25  O13 ZIN A   1      18.612   3.640  12.270  0.00  0.00    -0.268 OA
ENDBRANCH  20  21
BRANCH  20  26
ATOM     26  C14 ZIN A   1      19.462   0.632  13.200  0.00  0.00     0.216 C 
ATOM     27  O15 ZIN A   1      18.544   0.299  13.943  0.00  0.00    -0.644 OA
ATOM     28  O16 ZIN A   1      20.611   0.297  13.458  0.00  0.00    -0.644 OA
ENDBRANCH  20  26
ENDBRANCH  13  16
ENDBRANCH   1  12
BRANCH   5  29
ATOM     29  C22 ZIN A   1      17.115  -5.969   3.990  0.00  0.00     0.227 C 
ATOM     30  O23 ZIN A   1      15.896  -5.893   3.919  0.00  0.00    -0.643 OA
ATOM     31  O24 ZIN A   1      17.751  -6.473   3.074  0.00  0.00    -0.643 OA
ENDBRANCH   5  29
BRANCH   6  32
ATOM     32  C26 ZIN A   1      17.512  -7.654   6.089  0.00  0.00     0.120 C 
BRANCH  32  33
ATOM     33  S27 ZIN A   1      16.785  -8.156   7.668  0.00  0.00    -0.084 SA
BRANCH  33  34
ATOM     34  C28 ZIN A   1      15.279  -7.241   7.616  0.00  0.00     0.209 A 
ATOM     35  N32 ZIN A   1      14.959  -6.174   8.385  0.00  0.00    -0.230 N 
ATOM     36  N31 ZIN A   1      13.669  -5.796   7.974  0.00  0.00    -0.044 NA
ATOM     37  C33 ZIN A   1      15.784  -5.544   9.420  0.00  0.00     0.184 C 
ATOM     38  N30 ZIN A   1      13.318  -6.617   7.045  0.00  0.00    -0.022 NA
ATOM     39  N29 ZIN A   1      14.252  -7.470   6.826  0.00  0.00    -0.102 NA
ENDBRANCH  33  34
ENDBRANCH  32  33
ENDBRANCH   6  32
TORSDOF 9
ENDMDL
MODEL 3
REMARK VINA RESULT:      -7.7      3.615      5.491
REMARK  9 active torsions:
REMARK  status: ('A' for Active; 'I' for Inactive)
REMARK    1  A    between atoms: O2_2  and  C3_3 
REMARK    2  A    between atoms: C3_3  and  N4_4 
REMARK       I    between atoms: N4_4  and  C5_5 
REMARK    3  A    between atoms: C5_5  and  C7_7 
REMARK    4  A    between atoms: C10_10  and  C11_11 
REMARK    5  A    between atoms: C10_10  and  C14_14 
REMARK       I    between atoms: C11_11  and  N12_12 
REMARK    6  A    between atoms: C21_21  and  C22_22 
REMARK    7  A    between atoms: C25_25  and  C26_26 
REMARK    8  A    between atoms: C26_26  and  S27_27 
REMARK    9  A    between atoms: S27_27  and  C28_28 
ROOT
ATOM      1  C3  ZIN A   1      18.618  -3.364  10.908  0.00  0.00     0.250 C 
ATOM      2  C18 ZIN A   1      19.321  -4.479  10.152  0.00  0.00     0.285 C 
ATOM      3  O19 ZIN A   1      20.031  -5.406  10.478  0.00  0.00    -0.267 OA
ATOM      4  N20 ZIN A   1      18.841  -4.030   8.980  0.00  0.00    -0.288 N 
ATOM      5  C21 ZIN A   1      19.125  -4.161   7.609  0.00  0.00     0.119 C 
ATOM      6  C25 ZIN A   1      18.855  -3.162   6.780  0.00  0.00    -0.027 C 
ATOM      7  C34 ZIN A   1      18.210  -1.851   7.086  0.00  0.00     0.113 C 
ATOM      8  S35 ZIN A   1      18.302  -1.436   8.854  0.00  0.00    -0.133 SA
ATOM      9  C36 ZIN A   1      17.896  -3.050   9.601  0.00  0.00     0.221 C 
ENDROOT
BRANCH   1  10
ATOM     10  O2  ZIN A   1      17.750  -3.831  11.944  0.00  0.00    -0.355 OA
ATOM     11  C1  ZIN A   1      16.710  -4.696  11.486  0.00  0.00     0.205 C 
ENDBRANCH   1  10
BRANCH   1  12
ATOM     12  N4  ZIN A   1      19.516  -2.297  11.356  0.00  0.00    -0.317 N 
ATOM     13  C5  ZIN A   1      19.074  -1.365  12.224  0.00  0.00     0.244 C 
ATOM     14  O6  ZIN A   1      17.934  -1.411  12.635  0.00  0.00    -0.271 OA
ATOM     15  H41 ZIN A   1      20.428  -2.261  11.028  0.00  0.00     0.166 HD
BRANCH  13  16
ATOM     16  C7  ZIN A   1      19.998  -0.267  12.685  0.00  0.00     0.211 A 
ATOM     17  S17 ZIN A   1      19.428   0.568  14.191  0.00  0.00    -0.096 SA
ATOM     18  C9  ZIN A   1      19.237   2.001  13.263  0.00  0.00     0.062 A 
ATOM     19  S8  ZIN A   1      19.765   1.293  11.791  0.00  0.00    -0.096 SA
ATOM     20  C10 ZIN A   1      18.803   3.294  13.593  0.00  0.00     0.131 C 
BRANCH  20  21
ATOM     21  C11 ZIN A   1      18.408   3.606  14.967  0.00  0.00     0.258 C 
ATOM     22  N12 ZIN A   1      17.227   4.207  15.210  0.00  0.00    -0.366 N 
ATOM     23  H43 ZIN A   1      16.605   4.367  14.481  0.00  0.00     0.159 HD
ATOM     24  H44 ZIN A   1      16.997   4.481  16.111  0.00  0.00     0.159 HD
ATOM     25  O13 ZIN A   1      19.147   3.322  15.891  0.00  0.00    -0.268 OA
ENDBRANCH  20  21
BRANCH  20  26
ATOM     26  C14 ZIN A   1      18.747   4.295  12.600  0.00  0.00     0.216 C 
ATOM     27  O15 ZIN A   1      19.770   4.882  12.264  0.00  0.00    -0.644 OA
ATOM     28  O16 ZIN A   1      17.678   4.575  12.072  0.00  0.00    -0.644 OA
ENDBRANCH  20  26
ENDBRANCH  13  16
ENDBRANCH   1  12
BRANCH   5  29
ATOM     29  C22 ZIN A   1      19.721  -5.405   7.097  0.00  0.00     0.227 C 
ATOM     30  O23 ZIN A   1      19.006  -6.277   6.623  0.00  0.00    -0.643 OA
ATOM     31  O24 ZIN A   1      20.933  -5.567   7.145  0.00  0.00    -0.643 OA
ENDBRANCH   5  29
BRANCH   6  32
ATOM     32  C26 ZIN A   1      19.249  -3.380   5.341  0.00  0.00     0.120 C 
BRANCH  32  33
ATOM     33  S27 ZIN A   1      17.845  -2.993   4.266  0.00  0.00    -0.084 SA
BRANCH  33  34
ATOM     34  C28 ZIN A   1      17.150  -4.601   4.080  0.00  0.00     0.209 A 
ATOM     35  N32 ZIN A   1      17.311  -5.430   3.021  0.00  0.00    -0.230 N 
ATOM     36  N31 ZIN A   1      16.572  -6.583   3.339  0.00  0.00    -0.044 NA
ATOM     37  C33 ZIN A   1      18.092  -5.181   1.807  0.00  0.00     0.184 C 
ATOM     38  N30 ZIN A   1      16.042  -6.379   4.496  0.00  0.00    -0.022 NA
ATOM     39  N29 ZIN A   1      16.372  -5.221   4.941  0.00  0.00    -0.102 NA
ENDBRANCH  33  34
ENDBRANCH  32  33
ENDBRANCH   6  32
TORSDOF 9
ENDMDL
MODEL 4
REMARK VINA RESULT:      -7.6      3.082      9.083
REMARK  9 active torsions:
REMARK  status: ('A' for Active; 'I' for Inactive)
REMARK    1  A    between atoms: O2_2  and  C3_3 
REMARK    2  A    between atoms: C3_3  and  N4_4 
REMARK       I    between atoms: N4_4  and  C5_5 
REMARK    3  A    between atoms: C5_5  and  C7_7 
REMARK    4  A    between atoms: C10_10  and  C11_11 
REMARK    5  A    between atoms: C10_10  and  C14_14 
REMARK       I    between atoms: C11_11  and  N12_12 
REMARK    6  A    between atoms: C21_21  and  C22_22 
REMARK    7  A    between atoms: C25_25  and  C26_26 
REMARK    8  A    between atoms: C26_26  and  S27_27 
REMARK    9  A    between atoms: S27_27  and  C28_28 
ROOT
ATOM      1  C3  ZIN A   1      18.541   2.188  17.668  0.00  0.00     0.250 C 
ATOM      2  C18 ZIN A   1      17.622   2.951  18.607  0.00  0.00     0.285 C 
ATOM      3  O19 ZIN A   1      16.797   2.626  19.434  0.00  0.00    -0.267 OA
ATOM      4  N20 ZIN A   1      18.089   4.129  18.158  0.00  0.00    -0.288 N 
ATOM      5  C21 ZIN A   1      17.699   5.480  18.150  0.00  0.00     0.119 C 
ATOM      6  C25 ZIN A   1      18.069   6.269  17.151  0.00  0.00    -0.027 C 
ATOM      7  C34 ZIN A   1      18.931   5.937  15.978  0.00  0.00     0.113 C 
ATOM      8  S35 ZIN A   1      19.023   4.147  15.676  0.00  0.00    -0.133 SA
ATOM      9  C36 ZIN A   1      19.216   3.525  17.380  0.00  0.00     0.221 C 
ENDROOT
BRANCH   1  10
ATOM     10  O2  ZIN A   1      19.389   1.249  18.332  0.00  0.00    -0.355 OA
ATOM     11  C1  ZIN A   1      18.694   0.136  18.899  0.00  0.00     0.205 C 
ENDBRANCH   1  10
BRANCH   1  12
ATOM     12  N4  ZIN A   1      17.854   1.614  16.508  0.00  0.00    -0.317 N 
ATOM     13  C5  ZIN A   1      18.544   0.882  15.611  0.00  0.00     0.244 C 
ATOM     14  O6  ZIN A   1      19.733   0.699  15.764  0.00  0.00    -0.271 OA
ATOM     15  H41 ZIN A   1      16.903   1.759  16.386  0.00  0.00     0.166 HD
BRANCH  13  16
ATOM     16  C7  ZIN A   1      17.838   0.291  14.418  0.00  0.00     0.211 A 
ATOM     17  S17 ZIN A   1      18.911  -0.749  13.389  0.00  0.00    -0.096 SA
ATOM     18  C9  ZIN A   1      18.720   0.395  12.123  0.00  0.00     0.062 A 
ATOM     19  S8  ZIN A   1      17.697   1.440  13.022  0.00  0.00    -0.096 SA
ATOM     20  C10 ZIN A   1      19.224   0.455  10.814  0.00  0.00     0.131 C 
BRANCH  20  21
ATOM     21  C11 ZIN A   1      20.093  -0.610  10.315  0.00  0.00     0.258 C 
ATOM     22  N12 ZIN A   1      21.396  -0.634  10.659  0.00  0.00    -0.366 N 
ATOM     23  H43 ZIN A   1      21.741   0.012  11.296  0.00  0.00     0.159 HD
ATOM     24  H44 ZIN A   1      21.989  -1.296  10.270  0.00  0.00     0.159 HD
ATOM     25  O13 ZIN A   1      19.640  -1.475   9.588  0.00  0.00    -0.268 OA
ENDBRANCH  20  21
BRANCH  20  26
ATOM     26  C14 ZIN A   1      18.890   1.542   9.979  0.00  0.00     0.216 C 
ATOM     27  O15 ZIN A   1      19.443   2.626  10.133  0.00  0.00    -0.644 OA
ATOM     28  O16 ZIN A   1      18.049   1.404   9.099  0.00  0.00    -0.644 OA
ENDBRANCH  20  26
ENDBRANCH  13  16
ENDBRANCH   1  12
BRANCH   5  29
ATOM     29  C22 ZIN A   1      16.881   6.016  19.250  0.00  0.00     0.227 C 
ATOM     30  O23 ZIN A   1      17.421   6.463  20.253  0.00  0.00    -0.643 OA
ATOM     31  O24 ZIN A   1      15.660   6.014  19.161  0.00  0.00    -0.643 OA
ENDBRANCH   5  29
BRANCH   6  32
ATOM     32  C26 ZIN A   1      17.552   7.684  17.207  0.00  0.00     0.120 C 
BRANCH  32  33
ATOM     33  S27 ZIN A   1      17.065   8.215  15.547  0.00  0.00    -0.084 SA
BRANCH  33  34
ATOM     34  C28 ZIN A   1      15.576   7.292  15.355  0.00  0.00     0.209 A 
ATOM     35  N32 ZIN A   1      15.341   6.327  14.434  0.00  0.00    -0.230 N 
ATOM     36  N31 ZIN A   1      14.027   5.893  14.682  0.00  0.00    -0.044 NA
ATOM     37  C33 ZIN A   1      16.260   5.837  13.404  0.00  0.00     0.184 C 
ATOM     38  N30 ZIN A   1      13.585   6.589  15.672  0.00  0.00    -0.022 NA
ATOM     39  N29 ZIN A   1      14.483   7.414  16.076  0.00  0.00    -0.102 NA
ENDBRANCH  33  34
ENDBRANCH  32  33
ENDBRANCH   6  32
TORSDOF 9
ENDMDL
MODEL 5
REMARK VINA RESULT:      -7.5      5.568      9.386
REMARK  9 active torsions:
REMARK  status: ('A' for Active; 'I' for Inactive)
REMARK    1  A    between atoms: O2_2  and  C3_3 
REMARK    2  A    between atoms: C3_3  and  N4_4 
REMARK       I    between atoms: N4_4  and  C5_5 
REMARK    3  A    between atoms: C5_5  and  C7_7 
REMARK    4  A    between atoms: C10_10  and  C11_11 
REMARK    5  A    between atoms: C10_10  and  C14_14 
REMARK       I    between atoms: C11_11  and  N12_12 
REMARK    6  A    between atoms: C21_21  and  C22_22 
REMARK    7  A    between atoms: C25_25  and  C26_26 
REMARK    8  A    between atoms: C26_26  and  S27_27 
REMARK    9  A    between atoms: S27_27  and  C28_28 
ROOT
ATOM      1  C3  ZIN A   1      18.593  -3.973   6.888  0.00  0.00     0.250 C 
ATOM      2  C18 ZIN A   1      17.851  -4.181   5.579  0.00  0.00     0.285 C 
ATOM      3  O19 ZIN A   1      17.887  -3.648   4.491  0.00  0.00    -0.267 OA
ATOM      4  N20 ZIN A   1      17.139  -5.192   6.107  0.00  0.00    -0.288 N 
ATOM      5  C21 ZIN A   1      15.952  -5.894   5.836  0.00  0.00     0.119 C 
ATOM      6  C25 ZIN A   1      15.249  -6.413   6.834  0.00  0.00    -0.027 C 
ATOM      7  C34 ZIN A   1      15.567  -6.409   8.292  0.00  0.00     0.113 C 
ATOM      8  S35 ZIN A   1      16.766  -5.115   8.731  0.00  0.00    -0.133 SA
ATOM      9  C36 ZIN A   1      17.956  -5.277   7.358  0.00  0.00     0.221 C 
ENDROOT
BRANCH   1  10
ATOM     10  O2  ZIN A   1      20.015  -4.043   6.760  0.00  0.00    -0.355 OA
ATOM     11  C1  ZIN A   1      20.577  -5.284   7.188  0.00  0.00     0.205 C 
ENDBRANCH   1  10
BRANCH   1  12
ATOM     12  N4  ZIN A   1      18.147  -2.796   7.639  0.00  0.00    -0.317 N 
ATOM     13  C5  ZIN A   1      18.571  -1.569   7.281  0.00  0.00     0.244 C 
ATOM     14  O6  ZIN A   1      19.322  -1.437   6.338  0.00  0.00    -0.271 OA
ATOM     15  H41 ZIN A   1      17.545  -2.901   8.393  0.00  0.00     0.166 HD
BRANCH  13  16
ATOM     16  C7  ZIN A   1      18.112  -0.358   8.053  0.00  0.00     0.211 A 
ATOM     17  S17 ZIN A   1      19.468   0.542   8.854  0.00  0.00    -0.096 SA
ATOM     18  C9  ZIN A   1      18.787   0.116  10.372  0.00  0.00     0.062 A 
ATOM     19  S8  ZIN A   1      17.468  -0.756   9.701  0.00  0.00    -0.096 SA
ATOM     20  C10 ZIN A   1      19.172   0.387  11.694  0.00  0.00     0.131 C 
BRANCH  20  21
ATOM     21  C11 ZIN A   1      20.373   1.178  11.959  0.00  0.00     0.258 C 
ATOM     22  N12 ZIN A   1      21.533   0.562  12.263  0.00  0.00    -0.366 N 
ATOM     23  H43 ZIN A   1      21.590  -0.406  12.233  0.00  0.00     0.159 HD
ATOM     24  H44 ZIN A   1      22.310   1.086  12.512  0.00  0.00     0.159 HD
ATOM     25  O13 ZIN A   1      20.325   2.393  11.907  0.00  0.00    -0.268 OA
ENDBRANCH  20  21
BRANCH  20  26
ATOM     26  C14 ZIN A   1      18.400  -0.105  12.768  0.00  0.00     0.216 C 
ATOM     27  O15 ZIN A   1      17.428   0.530  13.165  0.00  0.00    -0.644 OA
ATOM     28  O16 ZIN A   1      18.699  -1.165  13.304  0.00  0.00    -0.644 OA
ENDBRANCH  20  26
ENDBRANCH  13  16
ENDBRANCH   1  12
BRANCH   5  29
ATOM     29  C22 ZIN A   1      15.490  -6.052   4.448  0.00  0.00     0.227 C 
ATOM     30  O23 ZIN A   1      14.735  -5.224   3.956  0.00  0.00    -0.643 OA
ATOM     31  O24 ZIN A   1      15.860  -7.012   3.786  0.00  0.00    -0.643 OA
ENDBRANCH   5  29
BRANCH   6  32
ATOM     32  C26 ZIN A   1      13.963  -7.097   6.444  0.00  0.00     0.120 C 
BRANCH  32  33
ATOM     33  S27 ZIN A   1      13.961  -8.790   7.083  0.00  0.00    -0.084 SA
BRANCH  33  34
ATOM     34  C28 ZIN A   1      14.789  -9.615   5.765  0.00  0.00     0.209 A 
ATOM     35  N32 ZIN A   1      16.117  -9.874   5.685  0.00  0.00    -0.230 N 
ATOM     36  N31 ZIN A   1      16.289 -10.545   4.462  0.00  0.00    -0.044 NA
ATOM     37  C33 ZIN A   1      17.150  -9.533   6.666  0.00  0.00     0.184 C 
ATOM     38  N30 ZIN A   1      15.124 -10.633   3.918  0.00  0.00    -0.022 NA
ATOM     39  N29 ZIN A   1      14.236 -10.092   4.671  0.00  0.00    -0.102 NA
ENDBRANCH  33  34
ENDBRANCH  32  33
ENDBRANCH   6  32
TORSDOF 9
ENDMDL
MODEL 6
REMARK VINA RESULT:      -7.5      5.266     12.112
REMARK  9 active torsions:
REMARK  status: ('A' for Active; 'I' for Inactive)
REMARK    1  A    between atoms: O2_2  and  C3_3 
REMARK    2  A    between atoms: C3_3  and  N4_4 
REMARK       I    between atoms: N4_4  and  C5_5 
REMARK    3  A    between atoms: C5_5  and  C7_7 
REMARK    4  A    between atoms: C10_10  and  C11_11 
REMARK    5  A    between atoms: C10_10  and  C14_14 
REMARK       I    between atoms: C11_11  and  N12_12 
REMARK    6  A    between atoms: C21_21  and  C22_22 
REMARK    7  A    between atoms: C25_25  and  C26_26 
REMARK    8  A    between atoms: C26_26  and  S27_27 
REMARK    9  A    between atoms: S27_27  and  C28_28 
ROOT
ATOM      1  C3  ZIN A   1      19.067  -5.210   8.107  0.00  0.00     0.250 C 
ATOM      2  C18 ZIN A   1      18.662  -4.812   9.516  0.00  0.00     0.285 C 
ATOM      3  O19 ZIN A   1      18.365  -5.427  10.518  0.00  0.00    -0.267 OA
ATOM      4  N20 ZIN A   1      18.766  -3.507   9.211  0.00  0.00    -0.288 N 
ATOM      5  C21 ZIN A   1      18.323  -2.272   9.714  0.00  0.00     0.119 C 
ATOM      6  C25 ZIN A   1      18.105  -1.259   8.886  0.00  0.00    -0.027 C 
ATOM      7  C34 ZIN A   1      18.317  -1.209   7.409  0.00  0.00     0.113 C 
ATOM      8  S35 ZIN A   1      18.382  -2.867   6.666  0.00  0.00    -0.133 SA
ATOM      9  C36 ZIN A   1      19.419  -3.743   7.885  0.00  0.00     0.221 C 
ENDROOT
BRANCH   1  10
ATOM     10  O2  ZIN A   1      20.197  -6.085   8.059  0.00  0.00    -0.355 OA
ATOM     11  C1  ZIN A   1      21.371  -5.488   7.505  0.00  0.00     0.205 C 
ENDBRANCH   1  10
BRANCH   1  12
ATOM     12  N4  ZIN A   1      17.950  -5.679   7.282  0.00  0.00    -0.317 N 
ATOM     13  C5  ZIN A   1      17.595  -6.979   7.306  0.00  0.00     0.244 C 
ATOM     14  O6  ZIN A   1      18.199  -7.760   8.010  0.00  0.00    -0.271 OA
ATOM     15  H41 ZIN A   1      17.466  -5.054   6.719  0.00  0.00     0.166 HD
BRANCH  13  16
ATOM     16  C7  ZIN A   1      16.446  -7.461   6.458  0.00  0.00     0.211 A 
ATOM     17  S17 ZIN A   1      16.944  -7.957   4.785  0.00  0.00    -0.096 SA
ATOM     18  C9  ZIN A   1      16.005  -6.655   4.174  0.00  0.00     0.062 A 
ATOM     19  S8  ZIN A   1      15.482  -6.114   5.718  0.00  0.00    -0.096 SA
ATOM     20  C10 ZIN A   1      15.754  -6.196   2.872  0.00  0.00     0.131 C 
BRANCH  20  21
ATOM     21  C11 ZIN A   1      16.355  -6.879   1.726  0.00  0.00     0.258 C 
ATOM     22  N12 ZIN A   1      17.599  -6.554   1.323  0.00  0.00    -0.366 N 
ATOM     23  H43 ZIN A   1      18.125  -5.921   1.838  0.00  0.00     0.159 HD
ATOM     24  H44 ZIN A   1      17.969  -6.953   0.521  0.00  0.00     0.159 HD
ATOM     25  O13 ZIN A   1      15.729  -7.740   1.136  0.00  0.00    -0.268 OA
ENDBRANCH  20  21
BRANCH  20  26
ATOM     26  C14 ZIN A   1      14.922  -5.075   2.667  0.00  0.00     0.216 C 
ATOM     27  O15 ZIN A   1      13.710  -5.224   2.550  0.00  0.00    -0.644 OA
ATOM     28  O16 ZIN A   1      15.409  -3.952   2.608  0.00  0.00    -0.644 OA
ENDBRANCH  20  26
ENDBRANCH  13  16
ENDBRANCH   1  12
BRANCH   5  29
ATOM     29  C22 ZIN A   1      18.100  -2.103  11.159  0.00  0.00     0.227 C 
ATOM     30  O23 ZIN A   1      19.032  -1.800  11.891  0.00  0.00    -0.643 OA
ATOM     31  O24 ZIN A   1      16.982  -2.267  11.628  0.00  0.00    -0.643 OA
ENDBRANCH   5  29
BRANCH   6  32
ATOM     32  C26 ZIN A   1      17.577   0.004   9.518  0.00  0.00     0.120 C 
BRANCH  32  33
ATOM     33  S27 ZIN A   1      18.913   1.218   9.644  0.00  0.00    -0.084 SA
BRANCH  33  34
ATOM     34  C28 ZIN A   1      18.204   2.331  10.813  0.00  0.00     0.209 A 
ATOM     35  N32 ZIN A   1      18.471   2.381  12.140  0.00  0.00    -0.230 N 
ATOM     36  N31 ZIN A   1      17.670   3.423  12.638  0.00  0.00    -0.044 NA
ATOM     37  C33 ZIN A   1      19.400   1.534  12.893  0.00  0.00     0.184 C 
ATOM     38  N30 ZIN A   1      17.009   3.896  11.639  0.00  0.00    -0.022 NA
ATOM     39  N29 ZIN A   1      17.312   3.265  10.563  0.00  0.00    -0.102 NA
ENDBRANCH  33  34
ENDBRANCH  32  33
ENDBRANCH   6  32
TORSDOF 9
ENDMDL
MODEL 7
REMARK VINA RESULT:      -7.4      4.123      7.913
REMARK  9 active torsions:
REMARK  status: ('A' for Active; 'I' for Inactive)
REMARK    1  A    between atoms: O2_2  and  C3_3 
REMARK    2  A    between atoms: C3_3  and  N4_4 
REMARK       I    between atoms: N4_4  and  C5_5 
REMARK    3  A    between atoms: C5_5  and  C7_7 
REMARK    4  A    between atoms: C10_10  and  C11_11 
REMARK    5  A    between atoms: C10_10  and  C14_14 
REMARK       I    between atoms: C11_11  and  N12_12 
REMARK    6  A    between atoms: C21_21  and  C22_22 
REMARK    7  A    between atoms: C25_25  and  C26_26 
REMARK    8  A    between atoms: C26_26  and  S27_27 
REMARK    9  A    between atoms: S27_27  and  C28_28 
ROOT
ATOM      1  C3  ZIN A   1      18.321  -0.955   6.681  0.00  0.00     0.250 C 
ATOM      2  C18 ZIN A   1      17.610  -1.637   5.524  0.00  0.00     0.285 C 
ATOM      3  O19 ZIN A   1      16.807  -1.274   4.691  0.00  0.00    -0.267 OA
ATOM      4  N20 ZIN A   1      18.226  -2.801   5.790  0.00  0.00    -0.288 N 
ATOM      5  C21 ZIN A   1      18.061  -4.167   5.503  0.00  0.00     0.119 C 
ATOM      6  C25 ZIN A   1      18.479  -5.081   6.369  0.00  0.00    -0.027 C 
ATOM      7  C34 ZIN A   1      19.187  -4.872   7.666  0.00  0.00     0.113 C 
ATOM      8  S35 ZIN A   1      18.964  -3.185   8.308  0.00  0.00    -0.133 SA
ATOM      9  C36 ZIN A   1      19.180  -2.211   6.781  0.00  0.00     0.221 C 
ENDROOT
BRANCH   1  10
ATOM     10  O2  ZIN A   1      19.053   0.212   6.298  0.00  0.00    -0.355 OA
ATOM     11  C1  ZIN A   1      19.511   0.192   4.944  0.00  0.00     0.205 C 
ENDBRANCH   1  10
BRANCH   1  12
ATOM     12  N4  ZIN A   1      17.466  -0.732   7.850  0.00  0.00    -0.317 N 
ATOM     13  C5  ZIN A   1      17.935  -0.035   8.903  0.00  0.00     0.244 C 
ATOM     14  O6  ZIN A   1      19.064   0.408   8.884  0.00  0.00    -0.271 OA
ATOM     15  H41 ZIN A   1      16.563  -1.086   7.865  0.00  0.00     0.166 HD
BRANCH  13  16
ATOM     16  C7  ZIN A   1      17.056   0.195  10.106  0.00  0.00     0.211 A 
ATOM     17  S17 ZIN A   1      17.587   1.596  11.129  0.00  0.00    -0.096 SA
ATOM     18  C9  ZIN A   1      17.921   0.482  12.392  0.00  0.00     0.062 A 
ATOM     19  S8  ZIN A   1      17.438  -0.902  11.499  0.00  0.00    -0.096 SA
ATOM     20  C10 ZIN A   1      18.416   0.646  13.696  0.00  0.00     0.131 C 
BRANCH  20  21
ATOM     21  C11 ZIN A   1      18.747   1.982  14.190  0.00  0.00     0.258 C 
ATOM     22  N12 ZIN A   1      19.601   2.127  15.222  0.00  0.00    -0.366 N 
ATOM     23  H43 ZIN A   1      20.054   1.351  15.589  0.00  0.00     0.159 HD
ATOM     24  H44 ZIN A   1      19.764   3.006  15.599  0.00  0.00     0.159 HD
ATOM     25  O13 ZIN A   1      18.249   2.964  13.670  0.00  0.00    -0.268 OA
ENDBRANCH  20  21
BRANCH  20  26
ATOM     26  C14 ZIN A   1      18.592  -0.478  14.530  0.00  0.00     0.216 C 
ATOM     27  O15 ZIN A   1      17.743  -0.759  15.368  0.00  0.00    -0.644 OA
ATOM     28  O16 ZIN A   1      19.594  -1.175  14.415  0.00  0.00    -0.644 OA
ENDBRANCH  20  26
ENDBRANCH  13  16
ENDBRANCH   1  12
BRANCH   5  29
ATOM     29  C22 ZIN A   1      17.424  -4.583   4.242  0.00  0.00     0.227 C 
ATOM     30  O23 ZIN A   1      16.227  -4.832   4.215  0.00  0.00    -0.643 OA
ATOM     31  O24 ZIN A   1      18.093  -4.678   3.222  0.00  0.00    -0.643 OA
ENDBRANCH   5  29
BRANCH   6  32
ATOM     32  C26 ZIN A   1      18.203  -6.515   5.993  0.00  0.00     0.120 C 
BRANCH  32  33
ATOM     33  S27 ZIN A   1      17.588  -7.409   7.441  0.00  0.00    -0.084 SA
BRANCH  33  34
ATOM     34  C28 ZIN A   1      15.946  -6.774   7.518  0.00  0.00     0.209 A 
ATOM     35  N32 ZIN A   1      15.439  -5.969   8.482  0.00  0.00    -0.230 N 
ATOM     36  N31 ZIN A   1      14.106  -5.734   8.103  0.00  0.00    -0.044 NA
ATOM     37  C33 ZIN A   1      16.134  -5.448   9.662  0.00  0.00     0.184 C 
ATOM     38  N30 ZIN A   1      13.910  -6.382   7.007  0.00  0.00    -0.022 NA
ATOM     39  N29 ZIN A   1      14.980  -6.996   6.652  0.00  0.00    -0.102 NA
ENDBRANCH  33  34
ENDBRANCH  32  33
ENDBRANCH   6  32
TORSDOF 9
ENDMDL
MODEL 8
REMARK VINA RESULT:      -7.3      5.087     12.080
REMARK  9 active torsions:
REMARK  status: ('A' for Active; 'I' for Inactive)
REMARK    1  A    between atoms: O2_2  and  C3_3 
REMARK    2  A    between atoms: C3_3  and  N4_4 
REMARK       I    between atoms: N4_4  and  C5_5 
REMARK    3  A    between atoms: C5_5  and  C7_7 
REMARK    4  A    between atoms: C10_10  and  C11_11 
REMARK    5  A    between atoms: C10_10  and  C14_14 
REMARK       I    between atoms: C11_11  and  N12_12 
REMARK    6  A    between atoms: C21_21  and  C22_22 
REMARK    7  A    between atoms: C25_25  and  C26_26 
REMARK    8  A    between atoms: C26_26  and  S27_27 
REMARK    9  A    between atoms: S27_27  and  C28_28 
ROOT
ATOM      1  C3  ZIN A   1      18.184  -4.243   9.489  0.00  0.00     0.250 C 
ATOM      2  C18 ZIN A   1      17.434  -3.520  10.595  0.00  0.00     0.285 C 
ATOM      3  O19 ZIN A   1      16.656  -3.868  11.458  0.00  0.00    -0.267 OA
ATOM      4  N20 ZIN A   1      17.977  -2.344  10.238  0.00  0.00    -0.288 N 
ATOM      5  C21 ZIN A   1      17.728  -0.972  10.422  0.00  0.00     0.119 C 
ATOM      6  C25 ZIN A   1      18.087  -0.104   9.487  0.00  0.00    -0.027 C 
ATOM      7  C34 ZIN A   1      18.804  -0.367   8.204  0.00  0.00     0.113 C 
ATOM      8  S35 ZIN A   1      18.686  -2.107   7.693  0.00  0.00    -0.133 SA
ATOM      9  C36 ZIN A   1      18.964  -2.947   9.288  0.00  0.00     0.221 C 
ENDROOT
BRANCH   1  10
ATOM     10  O2  ZIN A   1      18.987  -5.330   9.955  0.00  0.00    -0.355 OA
ATOM     11  C1  ZIN A   1      20.136  -5.593   9.147  0.00  0.00     0.205 C 
ENDBRANCH   1  10
BRANCH   1  12
ATOM     12  N4  ZIN A   1      17.343  -4.606   8.346  0.00  0.00    -0.317 N 
ATOM     13  C5  ZIN A   1      16.604  -5.733   8.384  0.00  0.00     0.244 C 
ATOM     14  O6  ZIN A   1      16.634  -6.445   9.366  0.00  0.00    -0.271 OA
ATOM     15  H41 ZIN A   1      17.317  -4.037   7.561  0.00  0.00     0.166 HD
BRANCH  13  16
ATOM     16  C7  ZIN A   1      15.738  -6.107   7.208  0.00  0.00     0.211 A 
ATOM     17  S17 ZIN A   1      15.828  -7.867   6.779  0.00  0.00    -0.096 SA
ATOM     18  C9  ZIN A   1      16.543  -7.414   5.285  0.00  0.00     0.062 A 
ATOM     19  S8  ZIN A   1      16.498  -5.728   5.605  0.00  0.00    -0.096 SA
ATOM     20  C10 ZIN A   1      17.002  -8.160   4.188  0.00  0.00     0.131 C 
BRANCH  20  21
ATOM     21  C11 ZIN A   1      16.906  -9.620   4.204  0.00  0.00     0.258 C 
ATOM     22  N12 ZIN A   1      15.794 -10.228   3.745  0.00  0.00    -0.366 N 
ATOM     23  H43 ZIN A   1      15.089  -9.702   3.335  0.00  0.00     0.159 HD
ATOM     24  H44 ZIN A   1      15.699 -11.189   3.823  0.00  0.00     0.159 HD
ATOM     25  O13 ZIN A   1      17.830 -10.286   4.634  0.00  0.00    -0.268 OA
ENDBRANCH  20  21
BRANCH  20  26
ATOM     26  C14 ZIN A   1      17.557  -7.502   3.070  0.00  0.00     0.216 C 
ATOM     27  O15 ZIN A   1      17.069  -6.449   2.675  0.00  0.00    -0.644 OA
ATOM     28  O16 ZIN A   1      18.526  -7.983   2.494  0.00  0.00    -0.644 OA
ENDBRANCH  20  26
ENDBRANCH  13  16
ENDBRANCH   1  12
BRANCH   5  29
ATOM     29  C22 ZIN A   1      17.069  -0.503  11.651  0.00  0.00     0.227 C 
ATOM     30  O23 ZIN A   1      15.918  -0.088  11.609  0.00  0.00    -0.643 OA
ATOM     31  O24 ZIN A   1      17.672  -0.527  12.715  0.00  0.00    -0.643 OA
ENDBRANCH   5  29
BRANCH   6  32
ATOM     32  C26 ZIN A   1      17.724   1.335   9.754  0.00  0.00     0.120 C 
BRANCH  32  33
ATOM     33  S27 ZIN A   1      19.227   2.282  10.096  0.00  0.00    -0.084 SA
BRANCH  33  34
ATOM     34  C28 ZIN A   1      18.780   3.022  11.632  0.00  0.00     0.209 A 
ATOM     35  N32 ZIN A   1      18.048   4.149  11.799  0.00  0.00    -0.230 N 
ATOM     36  N31 ZIN A   1      17.959   4.328  13.190  0.00  0.00    -0.044 NA
ATOM     37  C33 ZIN A   1      17.468   4.996  10.754  0.00  0.00     0.184 C 
ATOM     38  N30 ZIN A   1      18.611   3.359  13.734  0.00  0.00    -0.022 NA
ATOM     39  N29 ZIN A   1      19.097   2.586  12.832  0.00  0.00    -0.102 NA
ENDBRANCH  33  34
ENDBRANCH  32  33
ENDBRANCH   6  32
TORSDOF 9
ENDMDL
MODEL 9
REMARK VINA RESULT:      -7.3      3.267     10.538
REMARK  9 active torsions:
REMARK  status: ('A' for Active; 'I' for Inactive)
REMARK    1  A    between atoms: O2_2  and  C3_3 
REMARK    2  A    between atoms: C3_3  and  N4_4 
REMARK       I    between atoms: N4_4  and  C5_5 
REMARK    3  A    between atoms: C5_5  and  C7_7 
REMARK    4  A    between atoms: C10_10  and  C11_11 
REMARK    5  A    between atoms: C10_10  and  C14_14 
REMARK       I    between atoms: C11_11  and  N12_12 
REMARK    6  A    between atoms: C21_21  and  C22_22 
REMARK    7  A    between atoms: C25_25  and  C26_26 
REMARK    8  A    between atoms: C26_26  and  S27_27 
REMARK    9  A    between atoms: S27_27  and  C28_28 
ROOT
ATOM      1  C3  ZIN A   1      18.566   3.223  12.159  0.00  0.00     0.250 C 
ATOM      2  C18 ZIN A   1      19.294   4.328  12.905  0.00  0.00     0.285 C 
ATOM      3  O19 ZIN A   1      20.038   5.226  12.573  0.00  0.00    -0.267 OA
ATOM      4  N20 ZIN A   1      18.784   3.916  14.079  0.00  0.00    -0.288 N 
ATOM      5  C21 ZIN A   1      19.052   4.063  15.451  0.00  0.00     0.119 C 
ATOM      6  C25 ZIN A   1      18.738   3.089  16.294  0.00  0.00    -0.027 C 
ATOM      7  C34 ZIN A   1      18.056   1.794  16.001  0.00  0.00     0.113 C 
ATOM      8  S35 ZIN A   1      18.159   1.344  14.243  0.00  0.00    -0.133 SA
ATOM      9  C36 ZIN A   1      17.816   2.956  13.461  0.00  0.00     0.221 C 
ENDROOT
BRANCH   1  10
ATOM     10  O2  ZIN A   1      17.729   3.698  11.102  0.00  0.00    -0.355 OA
ATOM     11  C1  ZIN A   1      16.756   4.658  11.518  0.00  0.00     0.205 C 
ENDBRANCH   1  10
BRANCH   1  12
ATOM     12  N4  ZIN A   1      19.435   2.119  11.744  0.00  0.00    -0.317 N 
ATOM     13  C5  ZIN A   1      19.082   1.338  10.704  0.00  0.00     0.244 C 
ATOM     14  O6  ZIN A   1      18.045   1.549  10.112  0.00  0.00    -0.271 OA
ATOM     15  H41 ZIN A   1      20.266   1.951  12.217  0.00  0.00     0.166 HD
BRANCH  13  16
ATOM     16  C7  ZIN A   1      19.977   0.203  10.276  0.00  0.00     0.211 A 
ATOM     17  S17 ZIN A   1      19.255  -0.829   8.971  0.00  0.00    -0.096 SA
ATOM     18  C9  ZIN A   1      19.221  -2.132  10.090  0.00  0.00     0.062 A 
ATOM     19  S8  ZIN A   1      19.900  -1.231  11.384  0.00  0.00    -0.096 SA
ATOM     20  C10 ZIN A   1      18.789  -3.463   9.983  0.00  0.00     0.131 C 
BRANCH  20  21
ATOM     21  C11 ZIN A   1      18.242  -3.957   8.720  0.00  0.00     0.258 C 
ATOM     22  N12 ZIN A   1      16.937  -4.283   8.631  0.00  0.00    -0.366 N 
ATOM     23  H43 ZIN A   1      16.345  -4.121   9.383  0.00  0.00     0.159 HD
ATOM     24  H44 ZIN A   1      16.590  -4.680   7.817  0.00  0.00     0.159 HD
ATOM     25  O13 ZIN A   1      18.965  -4.073   7.748  0.00  0.00    -0.268 OA
ENDBRANCH  20  21
BRANCH  20  26
ATOM     26  C14 ZIN A   1      18.884  -4.327  11.096  0.00  0.00     0.216 C 
ATOM     27  O15 ZIN A   1      19.981  -4.728  11.468  0.00  0.00    -0.644 OA
ATOM     28  O16 ZIN A   1      17.871  -4.675  11.689  0.00  0.00    -0.644 OA
ENDBRANCH  20  26
ENDBRANCH  13  16
ENDBRANCH   1  12
BRANCH   5  29
ATOM     29  C22 ZIN A   1      19.681   5.297  15.949  0.00  0.00     0.227 C 
ATOM     30  O23 ZIN A   1      18.986   6.252  16.268  0.00  0.00    -0.643 OA
ATOM     31  O24 ZIN A   1      20.898   5.367  16.045  0.00  0.00    -0.643 OA
ENDBRANCH   5  29
BRANCH   6  32
ATOM     32  C26 ZIN A   1      19.119   3.321  17.734  0.00  0.00     0.120 C 
BRANCH  32  33
ATOM     33  S27 ZIN A   1      17.685   3.009  18.794  0.00  0.00    -0.084 SA
BRANCH  33  34
ATOM     34  C28 ZIN A   1      17.529   4.584  19.568  0.00  0.00     0.209 A 
ATOM     35  N32 ZIN A   1      16.809   5.637  19.110  0.00  0.00    -0.230 N 
ATOM     36  N31 ZIN A   1      16.993   6.652  20.065  0.00  0.00    -0.044 NA
ATOM     37  C33 ZIN A   1      16.007   5.701  17.886  0.00  0.00     0.184 C 
ATOM     38  N30 ZIN A   1      17.770   6.173  20.975  0.00  0.00    -0.022 NA
ATOM     39  N29 ZIN A   1      18.092   4.961  20.695  0.00  0.00    -0.102 NA
ENDBRANCH  33  34
ENDBRANCH  32  33
ENDBRANCH   6  32
TORSDOF 9
ENDMDL
