MODEL 1
REMARK VINA RESULT:      -6.8      0.000      0.000
REMARK  0 active torsions:
REMARK  status: ('A' for Active; 'I' for Inactive)
ROOT
ATOM      1  O1  ZIN A   1      20.608  -5.674   6.989  0.00  0.00    -0.269 OA
ATOM      2  C2  ZIN A   1      20.013  -4.634   7.188  0.00  0.00     0.278 A 
ATOM      3  C3  ZIN A   1      19.031  -4.345   8.312  0.00  0.00     0.247 A 
ATOM      4  N4  ZIN A   1      18.630  -2.967   8.049  0.00  0.00    -0.203 N 
ATOM      5  C5  ZIN A   1      17.684  -2.101   8.754  0.00  0.00     0.184 C 
ATOM      6  C6  ZIN A   1      18.160  -0.674   8.585  0.00  0.00     0.011 A 
ATOM      7  C7  ZIN A   1      17.895   0.266   9.559  0.00  0.00     0.066 A 
ATOM      8 Cl8  ZIN A   1      17.022  -0.187  10.990  0.00  0.00    -0.082 Cl
ATOM      9  C9  ZIN A   1      18.327   1.573   9.395  0.00  0.00     0.056 A 
ATOM     10 Cl10 ZIN A   1      17.994   2.755  10.623  0.00  0.00    -0.083 Cl
ATOM     11  C11 ZIN A   1      19.022   1.939   8.256  0.00  0.00     0.028 A 
ATOM     12  C12 ZIN A   1      19.292   1.001   7.278  0.00  0.00     0.032 A 
ATOM     13  C13 ZIN A   1      18.866  -0.308   7.442  0.00  0.00     0.059 A 
ATOM     14  N14 ZIN A   1      19.158  -1.276   6.461  0.00  0.00    -0.189 N 
ATOM     15  C15 ZIN A   1      19.325  -2.561   6.934  0.00  0.00     0.706 A 
ATOM     16  N16 ZIN A   1      20.093  -3.514   6.470  0.00  0.00    -0.026 NA
ATOM     17  H23 ZIN A   1      19.235  -1.055   5.519  0.00  0.00     0.184 HD
ENDROOT
TORSDOF 0
ENDMDL
MODEL 2
REMARK VINA RESULT:      -6.7      4.746      5.671
REMARK  0 active torsions:
REMARK  status: ('A' for Active; 'I' for Inactive)
ROOT
ATOM      1  O1  ZIN A   1      18.666  -1.040  16.030  0.00  0.00    -0.269 OA
ATOM      2  C2  ZIN A   1      19.021  -0.690  14.922  0.00  0.00     0.278 A 
ATOM      3  C3  ZIN A   1      19.294  -1.586  13.725  0.00  0.00     0.247 A 
ATOM      4  N4  ZIN A   1      19.693  -0.638  12.690  0.00  0.00    -0.203 N 
ATOM      5  C5  ZIN A   1      20.111  -0.861  11.306  0.00  0.00     0.184 C 
ATOM      6  C6  ZIN A   1      19.701   0.356  10.505  0.00  0.00     0.011 A 
ATOM      7  C7  ZIN A   1      19.391   0.234   9.166  0.00  0.00     0.066 A 
ATOM      8 Cl8  ZIN A   1      19.459  -1.320   8.396  0.00  0.00    -0.082 Cl
ATOM      9  C9  ZIN A   1      19.023   1.354   8.436  0.00  0.00     0.056 A 
ATOM     10 Cl10 ZIN A   1      18.631   1.199   6.752  0.00  0.00    -0.083 Cl
ATOM     11  C11 ZIN A   1      18.969   2.595   9.046  0.00  0.00     0.028 A 
ATOM     12  C12 ZIN A   1      19.277   2.723  10.387  0.00  0.00     0.032 A 
ATOM     13  C13 ZIN A   1      19.639   1.603  11.120  0.00  0.00     0.059 A 
ATOM     14  N14 ZIN A   1      19.931   1.720  12.493  0.00  0.00    -0.189 N 
ATOM     15  C15 ZIN A   1      19.624   0.614  13.256  0.00  0.00     0.706 A 
ATOM     16  N16 ZIN A   1      19.246   0.557  14.508  0.00  0.00    -0.026 NA
ATOM     17  H23 ZIN A   1      20.321   2.523  12.875  0.00  0.00     0.184 HD
ENDROOT
TORSDOF 0
ENDMDL
MODEL 3
REMARK VINA RESULT:      -6.6      4.057      5.424
REMARK  0 active torsions:
REMARK  status: ('A' for Active; 'I' for Inactive)
ROOT
ATOM      1  O1  ZIN A   1      17.196   2.727  11.884  0.00  0.00    -0.269 OA
ATOM      2  C2  ZIN A   1      17.759   2.113  10.999  0.00  0.00     0.278 A 
ATOM      3  C3  ZIN A   1      18.125   0.637  11.002  0.00  0.00     0.247 A 
ATOM      4  N4  ZIN A   1      18.780   0.461   9.710  0.00  0.00    -0.203 N 
ATOM      5  C5  ZIN A   1      19.387  -0.726   9.107  0.00  0.00     0.184 C 
ATOM      6  C6  ZIN A   1      19.239  -0.600   7.606  0.00  0.00     0.011 A 
ATOM      7  C7  ZIN A   1      19.135  -1.731   6.821  0.00  0.00     0.066 A 
ATOM      8 Cl8  ZIN A   1      19.163  -3.303   7.555  0.00  0.00    -0.082 Cl
ATOM      9  C9  ZIN A   1      19.007  -1.609   5.446  0.00  0.00     0.056 A 
ATOM     10 Cl10 ZIN A   1      18.875  -3.032   4.460  0.00  0.00    -0.083 Cl
ATOM     11  C11 ZIN A   1      18.985  -0.357   4.858  0.00  0.00     0.028 A 
ATOM     12  C12 ZIN A   1      19.087   0.778   5.639  0.00  0.00     0.032 A 
ATOM     13  C13 ZIN A   1      19.209   0.660   7.015  0.00  0.00     0.059 A 
ATOM     14  N14 ZIN A   1      19.289   1.812   7.821  0.00  0.00    -0.189 N 
ATOM     15  C15 ZIN A   1      18.751   1.684   9.084  0.00  0.00     0.706 A 
ATOM     16  N16 ZIN A   1      18.175   2.594   9.828  0.00  0.00    -0.026 NA
ATOM     17  H23 ZIN A   1      19.694   2.637   7.510  0.00  0.00     0.184 HD
ENDROOT
TORSDOF 0
ENDMDL
MODEL 4
REMARK VINA RESULT:      -6.6      8.715     10.255
REMARK  0 active torsions:
REMARK  status: ('A' for Active; 'I' for Inactive)
ROOT
ATOM      1  O1  ZIN A   1      21.063   7.091  14.456  0.00  0.00    -0.269 OA
ATOM      2  C2  ZIN A   1      20.435   6.130  14.856  0.00  0.00     0.278 A 
ATOM      3  C3  ZIN A   1      19.582   5.187  14.023  0.00  0.00     0.247 A 
ATOM      4  N4  ZIN A   1      19.069   4.248  15.015  0.00  0.00    -0.203 N 
ATOM      5  C5  ZIN A   1      18.166   3.107  14.866  0.00  0.00     0.184 C 
ATOM      6  C6  ZIN A   1      18.530   2.095  15.932  0.00  0.00     0.011 A 
ATOM      7  C7  ZIN A   1      18.330   0.749  15.709  0.00  0.00     0.066 A 
ATOM      8 Cl8  ZIN A   1      17.668   0.207  14.198  0.00  0.00    -0.082 Cl
ATOM      9  C9  ZIN A   1      18.659  -0.172  16.691  0.00  0.00     0.056 A 
ATOM     10 Cl10 ZIN A   1      18.408  -1.867  16.408  0.00  0.00    -0.083 Cl
ATOM     11  C11 ZIN A   1      19.185   0.256  17.897  0.00  0.00     0.028 A 
ATOM     12  C12 ZIN A   1      19.390   1.603  18.125  0.00  0.00     0.032 A 
ATOM     13  C13 ZIN A   1      19.067   2.526  17.142  0.00  0.00     0.059 A 
ATOM     14  N14 ZIN A   1      19.295   3.899  17.357  0.00  0.00    -0.189 N 
ATOM     15  C15 ZIN A   1      19.597   4.629  16.227  0.00  0.00     0.706 A 
ATOM     16  N16 ZIN A   1      20.358   5.687  16.110  0.00  0.00    -0.026 NA
ATOM     17  H23 ZIN A   1      19.243   4.303  18.238  0.00  0.00     0.184 HD
ENDROOT
TORSDOF 0
ENDMDL
MODEL 5
REMARK VINA RESULT:      -6.6      2.599      3.419
REMARK  0 active torsions:
REMARK  status: ('A' for Active; 'I' for Inactive)
ROOT
ATOM      1  O1  ZIN A   1      19.797  -1.269   4.472  0.00  0.00    -0.269 OA
ATOM      2  C2  ZIN A   1      19.277  -1.413   5.561  0.00  0.00     0.278 A 
ATOM      3  C3  ZIN A   1      19.503  -2.557   6.536  0.00  0.00     0.247 A 
ATOM      4  N4  ZIN A   1      18.623  -2.215   7.649  0.00  0.00    -0.203 N 
ATOM      5  C5  ZIN A   1      18.356  -2.924   8.901  0.00  0.00     0.184 C 
ATOM      6  C6  ZIN A   1      18.014  -1.885   9.948  0.00  0.00     0.011 A 
ATOM      7  C7  ZIN A   1      18.303  -2.117  11.277  0.00  0.00     0.066 A 
ATOM      8 Cl8  ZIN A   1      19.071  -3.599  11.753  0.00  0.00    -0.082 Cl
ATOM      9  C9  ZIN A   1      17.981  -1.165  12.231  0.00  0.00     0.056 A 
ATOM     10 Cl10 ZIN A   1      18.347  -1.458  13.903  0.00  0.00    -0.083 Cl
ATOM     11  C11 ZIN A   1      17.368   0.017  11.856  0.00  0.00     0.028 A 
ATOM     12  C12 ZIN A   1      17.078   0.256  10.526  0.00  0.00     0.032 A 
ATOM     13  C13 ZIN A   1      17.404  -0.692   9.568  0.00  0.00     0.059 A 
ATOM     14  N14 ZIN A   1      17.134  -0.447   8.208  0.00  0.00    -0.189 N 
ATOM     15  C15 ZIN A   1      18.016  -1.026   7.320  0.00  0.00     0.706 A 
ATOM     16  N16 ZIN A   1      18.398  -0.598   6.144  0.00  0.00    -0.026 NA
ATOM     17  H23 ZIN A   1      16.381   0.091   7.916  0.00  0.00     0.184 HD
ENDROOT
TORSDOF 0
ENDMDL
MODEL 6
REMARK VINA RESULT:      -6.4      6.427      8.049
REMARK  0 active torsions:
REMARK  status: ('A' for Active; 'I' for Inactive)
ROOT
ATOM      1  O1  ZIN A   1      19.742   1.360  18.609  0.00  0.00    -0.269 OA
ATOM      2  C2  ZIN A   1      19.247   1.544  17.515  0.00  0.00     0.278 A 
ATOM      3  C3  ZIN A   1      19.288   2.826  16.698  0.00  0.00     0.247 A 
ATOM      4  N4  ZIN A   1      18.534   2.474  15.500  0.00  0.00    -0.203 N 
ATOM      5  C5  ZIN A   1      18.186   3.277  14.326  0.00  0.00     0.184 C 
ATOM      6  C6  ZIN A   1      18.090   2.336  13.144  0.00  0.00     0.011 A 
ATOM      7  C7  ZIN A   1      18.382   2.787  11.873  0.00  0.00     0.066 A 
ATOM      8 Cl8  ZIN A   1      18.871   4.434  11.626  0.00  0.00    -0.082 Cl
ATOM      9  C9  ZIN A   1      18.285   1.922  10.794  0.00  0.00     0.056 A 
ATOM     10 Cl10 ZIN A   1      18.654   2.490   9.195  0.00  0.00    -0.083 Cl
ATOM     11  C11 ZIN A   1      17.894   0.609  10.986  0.00  0.00     0.028 A 
ATOM     12  C12 ZIN A   1      17.603   0.152  12.258  0.00  0.00     0.032 A 
ATOM     13  C13 ZIN A   1      17.705   1.013  13.340  0.00  0.00     0.059 A 
ATOM     14  N14 ZIN A   1      17.433   0.549  14.642  0.00  0.00    -0.189 N 
ATOM     15  C15 ZIN A   1      18.153   1.161  15.646  0.00  0.00     0.706 A 
ATOM     16  N16 ZIN A   1      18.563   0.663  16.785  0.00  0.00    -0.026 NA
ATOM     17  H23 ZIN A   1      16.786  -0.152  14.819  0.00  0.00     0.184 HD
ENDROOT
TORSDOF 0
ENDMDL
MODEL 7
REMARK VINA RESULT:      -6.4      2.395      3.149
REMARK  0 active torsions:
REMARK  status: ('A' for Active; 'I' for Inactive)
ROOT
ATOM      1  O1  ZIN A   1      19.650  -1.260   4.364  0.00  0.00    -0.269 OA
ATOM      2  C2  ZIN A   1      19.305  -0.892   5.470  0.00  0.00     0.278 A 
ATOM      3  C3  ZIN A   1      18.942  -1.775   6.653  0.00  0.00     0.247 A 
ATOM      4  N4  ZIN A   1      18.602  -0.807   7.691  0.00  0.00    -0.203 N 
ATOM      5  C5  ZIN A   1      18.146  -1.009   9.066  0.00  0.00     0.184 C 
ATOM      6  C6  ZIN A   1      18.637   0.166   9.886  0.00  0.00     0.011 A 
ATOM      7  C7  ZIN A   1      18.915   0.008  11.228  0.00  0.00     0.066 A 
ATOM      8 Cl8  ZIN A   1      18.712  -1.543  11.981  0.00  0.00    -0.082 Cl
ATOM      9  C9  ZIN A   1      19.357   1.089  11.975  0.00  0.00     0.056 A 
ATOM     10 Cl10 ZIN A   1      19.708   0.889  13.663  0.00  0.00    -0.083 Cl
ATOM     11  C11 ZIN A   1      19.519   2.327  11.378  0.00  0.00     0.028 A 
ATOM     12  C12 ZIN A   1      19.244   2.490  10.034  0.00  0.00     0.032 A 
ATOM     13  C13 ZIN A   1      18.807   1.409   9.284  0.00  0.00     0.059 A 
ATOM     14  N14 ZIN A   1      18.548   1.561   7.907  0.00  0.00    -0.189 N 
ATOM     15  C15 ZIN A   1      18.779   0.440   7.138  0.00  0.00     0.706 A 
ATOM     16  N16 ZIN A   1      19.172   0.365   5.892  0.00  0.00    -0.026 NA
ATOM     17  H23 ZIN A   1      18.228   2.395   7.527  0.00  0.00     0.184 HD
ENDROOT
TORSDOF 0
ENDMDL
MODEL 8
REMARK VINA RESULT:      -6.4      6.408      7.896
REMARK  0 active torsions:
REMARK  status: ('A' for Active; 'I' for Inactive)
ROOT
ATOM      1  O1  ZIN A   1      19.603   1.581  18.611  0.00  0.00    -0.269 OA
ATOM      2  C2  ZIN A   1      19.283   1.291  17.474  0.00  0.00     0.278 A 
ATOM      3  C3  ZIN A   1      19.200   2.230  16.282  0.00  0.00     0.247 A 
ATOM      4  N4  ZIN A   1      18.761   1.351  15.203  0.00  0.00    -0.203 N 
ATOM      5  C5  ZIN A   1      18.468   1.641  13.799  0.00  0.00     0.184 C 
ATOM      6  C6  ZIN A   1      18.783   0.395  13.001  0.00  0.00     0.011 A 
ATOM      7  C7  ZIN A   1      19.195   0.497  11.688  0.00  0.00     0.066 A 
ATOM      8 Cl8  ZIN A   1      19.364   2.059  10.950  0.00  0.00    -0.082 Cl
ATOM      9  C9  ZIN A   1      19.475  -0.649  10.960  0.00  0.00     0.056 A 
ATOM     10 Cl10 ZIN A   1      19.996  -0.519   9.308  0.00  0.00    -0.083 Cl
ATOM     11  C11 ZIN A   1      19.341  -1.895  11.545  0.00  0.00     0.028 A 
ATOM     12  C12 ZIN A   1      18.930  -2.003  12.860  0.00  0.00     0.032 A 
ATOM     13  C13 ZIN A   1      18.655  -0.859  13.592  0.00  0.00     0.059 A 
ATOM     14  N14 ZIN A   1      18.259  -0.959  14.940  0.00  0.00    -0.189 N 
ATOM     15  C15 ZIN A   1      18.644   0.092  15.745  0.00  0.00     0.706 A 
ATOM     16  N16 ZIN A   1      18.940   0.086  17.020  0.00  0.00    -0.026 NA
ATOM     17  H23 ZIN A   1      17.752  -1.714  15.279  0.00  0.00     0.184 HD
ENDROOT
TORSDOF 0
ENDMDL
MODEL 9
REMARK VINA RESULT:      -6.3      3.912      4.616
REMARK  0 active torsions:
REMARK  status: ('A' for Active; 'I' for Inactive)
ROOT
ATOM      1  O1  ZIN A   1      18.669  -1.607  14.330  0.00  0.00    -0.269 OA
ATOM      2  C2  ZIN A   1      18.963  -1.414  13.167  0.00  0.00     0.278 A 
ATOM      3  C3  ZIN A   1      18.947  -2.434  12.040  0.00  0.00     0.247 A 
ATOM      4  N4  ZIN A   1      19.397  -1.657  10.889  0.00  0.00    -0.203 N 
ATOM      5  C5  ZIN A   1      19.621  -2.059   9.500  0.00  0.00     0.184 C 
ATOM      6  C6  ZIN A   1      19.351  -0.851   8.628  0.00  0.00     0.011 A 
ATOM      7  C7  ZIN A   1      18.886  -1.015   7.340  0.00  0.00     0.066 A 
ATOM      8 Cl8  ZIN A   1      18.597  -2.610   6.716  0.00  0.00    -0.082 Cl
ATOM      9  C9  ZIN A   1      18.648   0.094   6.543  0.00  0.00     0.056 A 
ATOM     10 Cl10 ZIN A   1      18.060  -0.114   4.923  0.00  0.00    -0.083 Cl
ATOM     11  C11 ZIN A   1      18.877   1.366   7.036  0.00  0.00     0.028 A 
ATOM     12  C12 ZIN A   1      19.342   1.537   8.326  0.00  0.00     0.032 A 
ATOM     13  C13 ZIN A   1      19.575   0.429   9.127  0.00  0.00     0.059 A 
ATOM     14  N14 ZIN A   1      20.025   0.594  10.451  0.00  0.00    -0.189 N 
ATOM     15  C15 ZIN A   1      19.609  -0.375  11.339  0.00  0.00     0.706 A 
ATOM     16  N16 ZIN A   1      19.360  -0.265  12.619  0.00  0.00    -0.026 NA
ATOM     17  H23 ZIN A   1      20.588   1.338  10.720  0.00  0.00     0.184 HD
ENDROOT
TORSDOF 0
ENDMDL
