MODEL 1
REMARK VINA RESULT:      -8.5      0.000      0.000
REMARK  6 active torsions:
REMARK  status: ('A' for Active; 'I' for Inactive)
REMARK    1  A    between atoms: N1_1  and  C2_2 
REMARK    2  A    between atoms: C2_2  and  C4_3 
REMARK    3  A    between atoms: C2_2  and  C20_19 
REMARK    4  A    between atoms: C4_3  and  C5_4 
REMARK       I    between atoms: C5_4  and  N7_6 
REMARK    5  A    between atoms: C14_13  and  C15_14 
REMARK    6  A    between atoms: C20_19  and  C21_20 
ROOT
ATOM      1  C4  ZIN A   1      19.517  -1.576  12.004  0.00  0.00     0.138 C 
ENDROOT
BRANCH   1   2
ATOM      2  C2  ZIN A   1      20.178  -1.057  10.725  0.00  0.00     0.231 C 
BRANCH   2   3
ATOM      3  N1  ZIN A   1      21.531  -0.577  11.035  0.00  0.00     0.083 N 
ATOM      4  H30 ZIN A   1      21.933  -0.095  10.244  0.00  0.00     0.313 HD
ATOM      5  H31 ZIN A   1      21.527   0.012  11.853  0.00  0.00     0.313 HD
ENDBRANCH   2   3
BRANCH   2   6
ATOM      6  C20 ZIN A   1      19.347   0.093  10.152  0.00  0.00     0.077 C 
BRANCH   6   7
ATOM      7  C21 ZIN A   1      19.229  -0.068   8.659  0.00  0.00    -0.014 A 
ATOM      8  C28 ZIN A   1      19.105   1.048   7.849  0.00  0.00     0.125 A 
ATOM      9  C27 ZIN A   1      19.002   0.901   6.477  0.00  0.00     0.088 A 
ATOM     10  F29 ZIN A   1      19.095   2.282   8.399  0.00  0.00    -0.205 F 
ATOM     11  C25 ZIN A   1      19.012  -0.364   5.915  0.00  0.00     0.157 A 
ATOM     12  C23 ZIN A   1      19.131  -1.482   6.727  0.00  0.00     0.155 A 
ATOM     13  F26 ZIN A   1      18.905  -0.510   4.576  0.00  0.00    -0.203 F 
ATOM     14  C22 ZIN A   1      19.239  -1.332   8.099  0.00  0.00     0.055 A 
ATOM     15  F24 ZIN A   1      19.140  -2.717   6.179  0.00  0.00    -0.203 F 
ENDBRANCH   6   7
ENDBRANCH   2   6
ENDBRANCH   1   2
BRANCH   1  16
ATOM     16  C5  ZIN A   1      18.244  -2.302  11.651  0.00  0.00     0.222 C 
ATOM     17  O6  ZIN A   1      17.171  -1.765  11.827  0.00  0.00    -0.273 OA
ATOM     18  N7  ZIN A   1      18.298  -3.548  11.140  0.00  0.00    -0.343 N 
ATOM     19  C19 ZIN A   1      19.590  -4.221  10.917  0.00  0.00     0.206 C 
ATOM     20  C8  ZIN A   1      17.068  -4.273  10.783  0.00  0.00     0.146 C 
ATOM     21  C11 ZIN A   1      19.515  -4.895   9.572  0.00  0.00     0.148 A 
ATOM     22  N10 ZIN A   1      18.368  -5.027   8.859  0.00  0.00    -0.310 N 
ATOM     23  N12 ZIN A   1      20.469  -5.444   8.886  0.00  0.00    -0.133 NA
ATOM     24  C9  ZIN A   1      17.056  -4.533   9.273  0.00  0.00     0.152 C 
ATOM     25  C14 ZIN A   1      18.703  -5.684   7.731  0.00  0.00     0.237 A 
ATOM     26  N13 ZIN A   1      19.989  -5.917   7.787  0.00  0.00    -0.125 NA
BRANCH  25  27
ATOM     27  C15 ZIN A   1      17.770  -6.078   6.615  0.00  0.00     0.453 C 
ATOM     28  F16 ZIN A   1      16.789  -6.944   7.112  0.00  0.00    -0.163 F 
ATOM     29  F17 ZIN A   1      17.160  -4.934   6.089  0.00  0.00    -0.163 F 
ATOM     30  F18 ZIN A   1      18.495  -6.725   5.608  0.00  0.00    -0.163 F 
ENDBRANCH  25  27
ENDBRANCH   1  16
TORSDOF 6
ENDMDL
MODEL 2
REMARK VINA RESULT:      -8.3      3.435      6.883
REMARK  6 active torsions:
REMARK  status: ('A' for Active; 'I' for Inactive)
REMARK    1  A    between atoms: N1_1  and  C2_2 
REMARK    2  A    between atoms: C2_2  and  C4_3 
REMARK    3  A    between atoms: C2_2  and  C20_19 
REMARK    4  A    between atoms: C4_3  and  C5_4 
REMARK       I    between atoms: C5_4  and  N7_6 
REMARK    5  A    between atoms: C14_13  and  C15_14 
REMARK    6  A    between atoms: C20_19  and  C21_20 
ROOT
ATOM      1  C4  ZIN A   1      18.399  -2.316  11.622  0.00  0.00     0.138 C 
ENDROOT
BRANCH   1   2
ATOM      2  C2  ZIN A   1      19.647  -2.278  10.737  0.00  0.00     0.231 C 
BRANCH   2   3
ATOM      3  N1  ZIN A   1      20.739  -3.004  11.400  0.00  0.00     0.083 N 
ATOM      4  H30 ZIN A   1      20.444  -3.361  12.296  0.00  0.00     0.313 HD
ATOM      5  H31 ZIN A   1      21.088  -3.745  10.812  0.00  0.00     0.313 HD
ENDBRANCH   2   3
BRANCH   2   6
ATOM      6  C20 ZIN A   1      20.066  -0.824  10.510  0.00  0.00     0.077 C 
BRANCH   6   7
ATOM      7  C21 ZIN A   1      19.626  -0.383   9.137  0.00  0.00    -0.014 A 
ATOM      8  C28 ZIN A   1      19.473   0.964   8.858  0.00  0.00     0.125 A 
ATOM      9  C27 ZIN A   1      19.075   1.369   7.596  0.00  0.00     0.088 A 
ATOM     10  F29 ZIN A   1      19.723   1.884   9.816  0.00  0.00    -0.205 F 
ATOM     11  C25 ZIN A   1      18.819   0.427   6.616  0.00  0.00     0.157 A 
ATOM     12  C23 ZIN A   1      18.967  -0.923   6.898  0.00  0.00     0.155 A 
ATOM     13  F26 ZIN A   1      18.424   0.820   5.385  0.00  0.00    -0.203 F 
ATOM     14  C22 ZIN A   1      19.371  -1.326   8.159  0.00  0.00     0.055 A 
ATOM     15  F24 ZIN A   1      18.718  -1.844   5.942  0.00  0.00    -0.203 F 
ENDBRANCH   6   7
ENDBRANCH   2   6
ENDBRANCH   1   2
BRANCH   1  16
ATOM     16  C5  ZIN A   1      18.684  -1.613  12.924  0.00  0.00     0.222 C 
ATOM     17  O6  ZIN A   1      19.448  -2.108  13.725  0.00  0.00    -0.273 OA
ATOM     18  N7  ZIN A   1      18.091  -0.434  13.197  0.00  0.00    -0.343 N 
ATOM     19  C19 ZIN A   1      17.160   0.187  12.238  0.00  0.00     0.206 C 
ATOM     20  C8  ZIN A   1      18.360   0.273  14.459  0.00  0.00     0.146 C 
ATOM     21  C11 ZIN A   1      17.488   1.656  12.186  0.00  0.00     0.148 A 
ATOM     22  N10 ZIN A   1      18.327   2.272  13.057  0.00  0.00    -0.310 N 
ATOM     23  N12 ZIN A   1      17.058   2.554  11.354  0.00  0.00    -0.133 NA
ATOM     24  C9  ZIN A   1      19.037   1.613  14.153  0.00  0.00     0.152 C 
ATOM     25  C14 ZIN A   1      18.355   3.570  12.694  0.00  0.00     0.237 A 
ATOM     26  N13 ZIN A   1      17.572   3.697  11.655  0.00  0.00    -0.125 NA
BRANCH  25  27
ATOM     27  C15 ZIN A   1      19.142   4.668  13.363  0.00  0.00     0.453 C 
ATOM     28  F16 ZIN A   1      18.390   5.848  13.358  0.00  0.00    -0.163 F 
ATOM     29  F17 ZIN A   1      19.427   4.302  14.682  0.00  0.00    -0.163 F 
ATOM     30  F18 ZIN A   1      20.338   4.874  12.667  0.00  0.00    -0.163 F 
ENDBRANCH  25  27
ENDBRANCH   1  16
TORSDOF 6
ENDMDL
MODEL 3
REMARK VINA RESULT:      -8.3      3.976      6.292
REMARK  6 active torsions:
REMARK  status: ('A' for Active; 'I' for Inactive)
REMARK    1  A    between atoms: N1_1  and  C2_2 
REMARK    2  A    between atoms: C2_2  and  C4_3 
REMARK    3  A    between atoms: C2_2  and  C20_19 
REMARK    4  A    between atoms: C4_3  and  C5_4 
REMARK       I    between atoms: C5_4  and  N7_6 
REMARK    5  A    between atoms: C14_13  and  C15_14 
REMARK    6  A    between atoms: C20_19  and  C21_20 
ROOT
ATOM      1  C4  ZIN A   1      18.363   2.379  11.392  0.00  0.00     0.138 C 
ENDROOT
BRANCH   1   2
ATOM      2  C2  ZIN A   1      19.608   2.348  12.281  0.00  0.00     0.231 C 
BRANCH   2   3
ATOM      3  N1  ZIN A   1      20.705   3.061  11.613  0.00  0.00     0.083 N 
ATOM      4  H30 ZIN A   1      20.495   3.215  10.638  0.00  0.00     0.313 HD
ATOM      5  H31 ZIN A   1      20.908   3.931  12.081  0.00  0.00     0.313 HD
ENDBRANCH   2   3
BRANCH   2   6
ATOM      6  C20 ZIN A   1      20.020   0.895  12.529  0.00  0.00     0.077 C 
BRANCH   6   7
ATOM      7  C21 ZIN A   1      19.556   0.468  13.898  0.00  0.00    -0.014 A 
ATOM      8  C28 ZIN A   1      19.435  -0.877  14.199  0.00  0.00     0.125 A 
ATOM      9  C27 ZIN A   1      19.015  -1.270  15.458  0.00  0.00     0.088 A 
ATOM     10  F29 ZIN A   1      19.739  -1.808  13.268  0.00  0.00    -0.205 F 
ATOM     11  C25 ZIN A   1      18.704  -0.317  16.412  0.00  0.00     0.157 A 
ATOM     12  C23 ZIN A   1      18.819   1.031  16.107  0.00  0.00     0.155 A 
ATOM     13  F26 ZIN A   1      18.287  -0.699  17.639  0.00  0.00    -0.203 F 
ATOM     14  C22 ZIN A   1      19.246   1.422  14.850  0.00  0.00     0.055 A 
ATOM     15  F24 ZIN A   1      18.516   1.962  17.037  0.00  0.00    -0.203 F 
ENDBRANCH   6   7
ENDBRANCH   2   6
ENDBRANCH   1   2
BRANCH   1  16
ATOM     16  C5  ZIN A   1      18.647   1.650  10.104  0.00  0.00     0.222 C 
ATOM     17  O6  ZIN A   1      19.412   2.126   9.293  0.00  0.00    -0.273 OA
ATOM     18  N7  ZIN A   1      18.051   0.466   9.855  0.00  0.00    -0.343 N 
ATOM     19  C19 ZIN A   1      17.118  -0.133  10.826  0.00  0.00     0.206 C 
ATOM     20  C8  ZIN A   1      18.318  -0.267   8.607  0.00  0.00     0.146 C 
ATOM     21  C11 ZIN A   1      17.443  -1.601  10.908  0.00  0.00     0.148 A 
ATOM     22  N10 ZIN A   1      18.280  -2.236  10.049  0.00  0.00    -0.310 N 
ATOM     23  N12 ZIN A   1      17.011  -2.481  11.757  0.00  0.00    -0.133 NA
ATOM     24  C9  ZIN A   1      18.992  -1.602   8.941  0.00  0.00     0.152 C 
ATOM     25  C14 ZIN A   1      18.306  -3.527  10.438  0.00  0.00     0.237 A 
ATOM     26  N13 ZIN A   1      17.522  -3.631  11.480  0.00  0.00    -0.125 NA
BRANCH  25  27
ATOM     27  C15 ZIN A   1      19.090  -4.640   9.792  0.00  0.00     0.453 C 
ATOM     28  F16 ZIN A   1      19.098  -4.460   8.405  0.00  0.00    -0.163 F 
ATOM     29  F17 ZIN A   1      20.404  -4.626  10.272  0.00  0.00    -0.163 F 
ATOM     30  F18 ZIN A   1      18.495  -5.868  10.099  0.00  0.00    -0.163 F 
ENDBRANCH  25  27
ENDBRANCH   1  16
TORSDOF 6
ENDMDL
MODEL 4
REMARK VINA RESULT:      -8.3      4.534      7.182
REMARK  6 active torsions:
REMARK  status: ('A' for Active; 'I' for Inactive)
REMARK    1  A    between atoms: N1_1  and  C2_2 
REMARK    2  A    between atoms: C2_2  and  C4_3 
REMARK    3  A    between atoms: C2_2  and  C20_19 
REMARK    4  A    between atoms: C4_3  and  C5_4 
REMARK       I    between atoms: C5_4  and  N7_6 
REMARK    5  A    between atoms: C14_13  and  C15_14 
REMARK    6  A    between atoms: C20_19  and  C21_20 
ROOT
ATOM      1  C4  ZIN A   1      17.862  -0.315  12.017  0.00  0.00     0.138 C 
ENDROOT
BRANCH   1   2
ATOM      2  C2  ZIN A   1      18.736  -0.477  13.262  0.00  0.00     0.231 C 
BRANCH   2   3
ATOM      3  N1  ZIN A   1      19.726  -1.537  13.031  0.00  0.00     0.083 N 
ATOM      4  H30 ZIN A   1      20.191  -1.410  12.144  0.00  0.00     0.313 HD
ATOM      5  H31 ZIN A   1      20.394  -1.578  13.786  0.00  0.00     0.313 HD
ENDBRANCH   2   3
BRANCH   2   6
ATOM      6  C20 ZIN A   1      17.857  -0.852  14.457  0.00  0.00     0.077 C 
BRANCH   6   7
ATOM      7  C21 ZIN A   1      18.237  -0.006  15.645  0.00  0.00    -0.014 A 
ATOM      8  C28 ZIN A   1      17.851  -0.388  16.918  0.00  0.00     0.125 A 
ATOM      9  C27 ZIN A   1      18.204   0.386  18.011  0.00  0.00     0.088 A 
ATOM     10  F29 ZIN A   1      17.137  -1.521  17.096  0.00  0.00    -0.205 F 
ATOM     11  C25 ZIN A   1      18.934   1.547  17.828  0.00  0.00     0.157 A 
ATOM     12  C23 ZIN A   1      19.316   1.931  16.552  0.00  0.00     0.155 A 
ATOM     13  F26 ZIN A   1      19.275   2.306  18.892  0.00  0.00    -0.203 F 
ATOM     14  C22 ZIN A   1      18.966   1.154  15.461  0.00  0.00     0.055 A 
ATOM     15  F24 ZIN A   1      20.029   3.064  16.372  0.00  0.00    -0.203 F 
ENDBRANCH   6   7
ENDBRANCH   2   6
ENDBRANCH   1   2
BRANCH   1  16
ATOM     16  C5  ZIN A   1      18.107  -1.468  11.078  0.00  0.00     0.222 C 
ATOM     17  O6  ZIN A   1      17.646  -2.561  11.326  0.00  0.00    -0.273 OA
ATOM     18  N7  ZIN A   1      18.839  -1.283   9.961  0.00  0.00    -0.343 N 
ATOM     19  C19 ZIN A   1      19.410   0.037   9.638  0.00  0.00     0.206 C 
ATOM     20  C8  ZIN A   1      19.086  -2.393   9.027  0.00  0.00     0.146 C 
ATOM     21  C11 ZIN A   1      19.187   0.270   8.167  0.00  0.00     0.148 A 
ATOM     22  N10 ZIN A   1      18.758  -0.689   7.308  0.00  0.00    -0.310 N 
ATOM     23  N12 ZIN A   1      19.355   1.360   7.484  0.00  0.00    -0.133 NA
ATOM     24  C9  ZIN A   1      18.439  -2.068   7.676  0.00  0.00     0.152 C 
ATOM     25  C14 ZIN A   1      18.692  -0.104   6.096  0.00  0.00     0.237 A 
ATOM     26  N13 ZIN A   1      19.062   1.141   6.248  0.00  0.00    -0.125 NA
BRANCH  25  27
ATOM     27  C15 ZIN A   1      18.273  -0.763   4.807  0.00  0.00     0.453 C 
ATOM     28  F16 ZIN A   1      19.108  -1.856   4.549  0.00  0.00    -0.163 F 
ATOM     29  F17 ZIN A   1      16.949  -1.203   4.916  0.00  0.00    -0.163 F 
ATOM     30  F18 ZIN A   1      18.374   0.158   3.759  0.00  0.00    -0.163 F 
ENDBRANCH  25  27
ENDBRANCH   1  16
TORSDOF 6
ENDMDL
MODEL 5
REMARK VINA RESULT:      -8.2      5.539      8.759
REMARK  6 active torsions:
REMARK  status: ('A' for Active; 'I' for Inactive)
REMARK    1  A    between atoms: N1_1  and  C2_2 
REMARK    2  A    between atoms: C2_2  and  C4_3 
REMARK    3  A    between atoms: C2_2  and  C20_19 
REMARK    4  A    between atoms: C4_3  and  C5_4 
REMARK       I    between atoms: C5_4  and  N7_6 
REMARK    5  A    between atoms: C14_13  and  C15_14 
REMARK    6  A    between atoms: C20_19  and  C21_20 
ROOT
ATOM      1  C4  ZIN A   1      19.642  -1.400  11.751  0.00  0.00     0.138 C 
ENDROOT
BRANCH   1   2
ATOM      2  C2  ZIN A   1      18.365  -1.843  12.469  0.00  0.00     0.231 C 
BRANCH   2   3
ATOM      3  N1  ZIN A   1      17.485  -2.535  11.518  0.00  0.00     0.083 N 
ATOM      4  H30 ZIN A   1      17.769  -3.495  11.396  0.00  0.00     0.313 HD
ATOM      5  H31 ZIN A   1      16.521  -2.478  11.810  0.00  0.00     0.313 HD
ENDBRANCH   2   3
BRANCH   2   6
ATOM      6  C20 ZIN A   1      17.644  -0.615  13.030  0.00  0.00     0.077 C 
BRANCH   6   7
ATOM      7  C21 ZIN A   1      18.074  -0.390  14.457  0.00  0.00    -0.014 A 
ATOM      8  C28 ZIN A   1      17.850   0.835  15.062  0.00  0.00     0.125 A 
ATOM      9  C27 ZIN A   1      18.238   1.041  16.374  0.00  0.00     0.088 A 
ATOM     10  F29 ZIN A   1      17.242   1.826  14.375  0.00  0.00    -0.205 F 
ATOM     11  C25 ZIN A   1      18.862   0.025  17.078  0.00  0.00     0.157 A 
ATOM     12  C23 ZIN A   1      19.091  -1.199  16.470  0.00  0.00     0.155 A 
ATOM     13  F26 ZIN A   1      19.248   0.227  18.357  0.00  0.00    -0.203 F 
ATOM     14  C22 ZIN A   1      18.696  -1.405  15.159  0.00  0.00     0.055 A 
ATOM     15  F24 ZIN A   1      19.699  -2.192  17.155  0.00  0.00    -0.203 F 
ENDBRANCH   6   7
ENDBRANCH   2   6
ENDBRANCH   1   2
BRANCH   1  16
ATOM     16  C5  ZIN A   1      19.282  -0.530  10.575  0.00  0.00     0.222 C 
ATOM     17  O6  ZIN A   1      18.766  -1.021   9.593  0.00  0.00    -0.273 OA
ATOM     18  N7  ZIN A   1      19.531   0.794  10.614  0.00  0.00    -0.343 N 
ATOM     19  C19 ZIN A   1      20.157   1.413  11.796  0.00  0.00     0.206 C 
ATOM     20  C8  ZIN A   1      19.182   1.663   9.479  0.00  0.00     0.146 C 
ATOM     21  C11 ZIN A   1      19.417   2.695  12.072  0.00  0.00     0.148 A 
ATOM     22  N10 ZIN A   1      18.516   3.243  11.217  0.00  0.00    -0.310 N 
ATOM     23  N12 ZIN A   1      19.495   3.471  13.108  0.00  0.00    -0.133 NA
ATOM     24  C9  ZIN A   1      18.124   2.677   9.927  0.00  0.00     0.152 C 
ATOM     25  C14 ZIN A   1      18.083   4.376  11.806  0.00  0.00     0.237 A 
ATOM     26  N13 ZIN A   1      18.702   4.475  12.954  0.00  0.00    -0.125 NA
BRANCH  25  27
ATOM     27  C15 ZIN A   1      17.075   5.346  11.246  0.00  0.00     0.453 C 
ATOM     28  F16 ZIN A   1      15.900   4.660  10.917  0.00  0.00    -0.163 F 
ATOM     29  F17 ZIN A   1      16.790   6.328  12.201  0.00  0.00    -0.163 F 
ATOM     30  F18 ZIN A   1      17.598   5.951  10.098  0.00  0.00    -0.163 F 
ENDBRANCH  25  27
ENDBRANCH   1  16
TORSDOF 6
ENDMDL
MODEL 6
REMARK VINA RESULT:      -8.1      4.563      7.137
REMARK  6 active torsions:
REMARK  status: ('A' for Active; 'I' for Inactive)
REMARK    1  A    between atoms: N1_1  and  C2_2 
REMARK    2  A    between atoms: C2_2  and  C4_3 
REMARK    3  A    between atoms: C2_2  and  C20_19 
REMARK    4  A    between atoms: C4_3  and  C5_4 
REMARK       I    between atoms: C5_4  and  N7_6 
REMARK    5  A    between atoms: C14_13  and  C15_14 
REMARK    6  A    between atoms: C20_19  and  C21_20 
ROOT
ATOM      1  C4  ZIN A   1      17.715  -2.658  11.657  0.00  0.00     0.138 C 
ENDROOT
BRANCH   1   2
ATOM      2  C2  ZIN A   1      17.714  -2.798  10.133  0.00  0.00     0.231 C 
BRANCH   2   3
ATOM      3  N1  ZIN A   1      17.371  -4.179   9.768  0.00  0.00     0.083 N 
ATOM      4  H30 ZIN A   1      16.379  -4.276   9.611  0.00  0.00     0.313 HD
ATOM      5  H31 ZIN A   1      17.896  -4.481   8.962  0.00  0.00     0.313 HD
ENDBRANCH   2   3
BRANCH   2   6
ATOM      6  C20 ZIN A   1      19.103  -2.457   9.589  0.00  0.00     0.077 C 
BRANCH   6   7
ATOM      7  C21 ZIN A   1      19.028  -1.188   8.779  0.00  0.00    -0.014 A 
ATOM      8  C28 ZIN A   1      19.595  -0.023   9.264  0.00  0.00     0.125 A 
ATOM      9  C27 ZIN A   1      19.532   1.141   8.518  0.00  0.00     0.088 A 
ATOM     10  F29 ZIN A   1      20.221  -0.024  10.462  0.00  0.00    -0.205 F 
ATOM     11  C25 ZIN A   1      18.891   1.142   7.292  0.00  0.00     0.157 A 
ATOM     12  C23 ZIN A   1      18.318  -0.024   6.809  0.00  0.00     0.155 A 
ATOM     13  F26 ZIN A   1      18.823   2.280   6.566  0.00  0.00    -0.203 F 
ATOM     14  C22 ZIN A   1      18.387  -1.189   7.554  0.00  0.00     0.055 A 
ATOM     15  F24 ZIN A   1      17.692  -0.025   5.612  0.00  0.00    -0.203 F 
ENDBRANCH   6   7
ENDBRANCH   2   6
ENDBRANCH   1   2
BRANCH   1  16
ATOM     16  C5  ZIN A   1      17.462  -1.220  12.029  0.00  0.00     0.222 C 
ATOM     17  O6  ZIN A   1      16.622  -0.579  11.436  0.00  0.00    -0.273 OA
ATOM     18  N7  ZIN A   1      18.169  -0.647  13.023  0.00  0.00    -0.343 N 
ATOM     19  C19 ZIN A   1      19.197  -1.407  13.759  0.00  0.00     0.206 C 
ATOM     20  C8  ZIN A   1      17.935   0.754  13.408  0.00  0.00     0.146 C 
ATOM     21  C11 ZIN A   1      19.032  -1.079  15.220  0.00  0.00     0.148 A 
ATOM     22  N10 ZIN A   1      18.234  -0.082  15.682  0.00  0.00    -0.310 N 
ATOM     23  N12 ZIN A   1      19.585  -1.646  16.246  0.00  0.00    -0.133 NA
ATOM     24  C9  ZIN A   1      17.419   0.801  14.850  0.00  0.00     0.152 C 
ATOM     25  C14 ZIN A   1      18.360  -0.097  17.025  0.00  0.00     0.237 A 
ATOM     26  N13 ZIN A   1      19.188  -1.063  17.324  0.00  0.00    -0.125 NA
BRANCH  25  27
ATOM     27  C15 ZIN A   1      17.674   0.829  17.996  0.00  0.00     0.453 C 
ATOM     28  F16 ZIN A   1      18.057   0.501  19.302  0.00  0.00    -0.163 F 
ATOM     29  F17 ZIN A   1      18.041   2.151  17.721  0.00  0.00    -0.163 F 
ATOM     30  F18 ZIN A   1      16.287   0.694  17.870  0.00  0.00    -0.163 F 
ENDBRANCH  25  27
ENDBRANCH   1  16
TORSDOF 6
ENDMDL
MODEL 7
REMARK VINA RESULT:      -8.1      4.787      7.321
REMARK  6 active torsions:
REMARK  status: ('A' for Active; 'I' for Inactive)
REMARK    1  A    between atoms: N1_1  and  C2_2 
REMARK    2  A    between atoms: C2_2  and  C4_3 
REMARK    3  A    between atoms: C2_2  and  C20_19 
REMARK    4  A    between atoms: C4_3  and  C5_4 
REMARK       I    between atoms: C5_4  and  N7_6 
REMARK    5  A    between atoms: C14_13  and  C15_14 
REMARK    6  A    between atoms: C20_19  and  C21_20 
ROOT
ATOM      1  C4  ZIN A   1      17.748   0.259  11.152  0.00  0.00     0.138 C 
ENDROOT
BRANCH   1   2
ATOM      2  C2  ZIN A   1      18.642   0.437   9.923  0.00  0.00     0.231 C 
BRANCH   2   3
ATOM      3  N1  ZIN A   1      19.630   1.493  10.184  0.00  0.00     0.083 N 
ATOM      4  H30 ZIN A   1      20.535   1.098  10.389  0.00  0.00     0.313 HD
ATOM      5  H31 ZIN A   1      19.683   2.137   9.411  0.00  0.00     0.313 HD
ENDBRANCH   2   3
BRANCH   2   6
ATOM      6  C20 ZIN A   1      17.783   0.830   8.720  0.00  0.00     0.077 C 
BRANCH   6   7
ATOM      7  C21 ZIN A   1      18.242   0.067   7.504  0.00  0.00    -0.014 A 
ATOM      8  C28 ZIN A   1      18.780   0.745   6.424  0.00  0.00     0.125 A 
ATOM      9  C27 ZIN A   1      19.208   0.044   5.309  0.00  0.00     0.088 A 
ATOM     10  F29 ZIN A   1      18.899   2.090   6.462  0.00  0.00    -0.205 F 
ATOM     11  C25 ZIN A   1      19.086  -1.334   5.271  0.00  0.00     0.157 A 
ATOM     12  C23 ZIN A   1      18.541  -2.012   6.351  0.00  0.00     0.155 A 
ATOM     13  F26 ZIN A   1      19.497  -2.019   4.181  0.00  0.00    -0.203 F 
ATOM     14  C22 ZIN A   1      18.119  -1.310   7.467  0.00  0.00     0.055 A 
ATOM     15  F24 ZIN A   1      18.422  -3.357   6.314  0.00  0.00    -0.203 F 
ENDBRANCH   6   7
ENDBRANCH   2   6
ENDBRANCH   1   2
BRANCH   1  16
ATOM     16  C5  ZIN A   1      17.963   1.411  12.100  0.00  0.00     0.222 C 
ATOM     17  O6  ZIN A   1      17.450   2.486  11.875  0.00  0.00    -0.273 OA
ATOM     18  N7  ZIN A   1      18.725   1.245  13.200  0.00  0.00    -0.343 N 
ATOM     19  C19 ZIN A   1      19.360  -0.053  13.495  0.00  0.00     0.206 C 
ATOM     20  C8  ZIN A   1      18.944   2.354  14.142  0.00  0.00     0.146 C 
ATOM     21  C11 ZIN A   1      19.179  -0.312  14.967  0.00  0.00     0.148 A 
ATOM     22  N10 ZIN A   1      18.726   0.618  15.846  0.00  0.00    -0.310 N 
ATOM     23  N12 ZIN A   1      19.407  -1.401  15.633  0.00  0.00    -0.133 NA
ATOM     24  C9  ZIN A   1      18.340   1.986  15.502  0.00  0.00     0.152 C 
ATOM     25  C14 ZIN A   1      18.711   0.016  17.052  0.00  0.00     0.237 A 
ATOM     26  N13 ZIN A   1      19.131  -1.210  16.877  0.00  0.00    -0.125 NA
BRANCH  25  27
ATOM     27  C15 ZIN A   1      18.291   0.641  18.358  0.00  0.00     0.453 C 
ATOM     28  F16 ZIN A   1      19.135   1.717  18.652  0.00  0.00    -0.163 F 
ATOM     29  F17 ZIN A   1      16.972   1.098  18.254  0.00  0.00    -0.163 F 
ATOM     30  F18 ZIN A   1      18.376  -0.311  19.379  0.00  0.00    -0.163 F 
ENDBRANCH  25  27
ENDBRANCH   1  16
TORSDOF 6
ENDMDL
MODEL 8
REMARK VINA RESULT:      -8.0      4.306      6.820
REMARK  6 active torsions:
REMARK  status: ('A' for Active; 'I' for Inactive)
REMARK    1  A    between atoms: N1_1  and  C2_2 
REMARK    2  A    between atoms: C2_2  and  C4_3 
REMARK    3  A    between atoms: C2_2  and  C20_19 
REMARK    4  A    between atoms: C4_3  and  C5_4 
REMARK       I    between atoms: C5_4  and  N7_6 
REMARK    5  A    between atoms: C14_13  and  C15_14 
REMARK    6  A    between atoms: C20_19  and  C21_20 
ROOT
ATOM      1  C4  ZIN A   1      19.340  -1.065  11.945  0.00  0.00     0.138 C 
ENDROOT
BRANCH   1   2
ATOM      2  C2  ZIN A   1      19.718  -0.258  13.189  0.00  0.00     0.231 C 
BRANCH   2   3
ATOM      3  N1  ZIN A   1      21.093   0.240  13.049  0.00  0.00     0.083 N 
ATOM      4  H30 ZIN A   1      21.758  -0.431  13.402  0.00  0.00     0.313 HD
ATOM      5  H31 ZIN A   1      21.295   0.480  12.091  0.00  0.00     0.313 HD
ENDBRANCH   2   3
BRANCH   2   6
ATOM      6  C20 ZIN A   1      19.624  -1.154  14.426  0.00  0.00     0.077 C 
BRANCH   6   7
ATOM      7  C21 ZIN A   1      18.963  -0.393  15.547  0.00  0.00    -0.014 A 
ATOM      8  C28 ZIN A   1      18.167  -1.061  16.461  0.00  0.00     0.125 A 
ATOM      9  C27 ZIN A   1      17.565  -0.364  17.495  0.00  0.00     0.088 A 
ATOM     10  F29 ZIN A   1      17.985  -2.395  16.352  0.00  0.00    -0.205 F 
ATOM     11  C25 ZIN A   1      17.751   1.003  17.607  0.00  0.00     0.157 A 
ATOM     12  C23 ZIN A   1      18.544   1.672  16.688  0.00  0.00     0.155 A 
ATOM     13  F26 ZIN A   1      17.159   1.686  18.612  0.00  0.00    -0.203 F 
ATOM     14  C22 ZIN A   1      19.150   0.972  15.658  0.00  0.00     0.055 A 
ATOM     15  F24 ZIN A   1      18.726   3.006  16.796  0.00  0.00    -0.203 F 
ENDBRANCH   6   7
ENDBRANCH   2   6
ENDBRANCH   1   2
BRANCH   1  16
ATOM     16  C5  ZIN A   1      18.757  -0.143  10.906  0.00  0.00     0.222 C 
ATOM     17  O6  ZIN A   1      18.844   1.059  11.044  0.00  0.00    -0.273 OA
ATOM     18  N7  ZIN A   1      18.139  -0.653   9.822  0.00  0.00    -0.343 N 
ATOM     19  C19 ZIN A   1      18.021  -2.111   9.632  0.00  0.00     0.206 C 
ATOM     20  C8  ZIN A   1      17.568   0.228   8.792  0.00  0.00     0.146 C 
ATOM     21  C11 ZIN A   1      18.330  -2.398   8.186  0.00  0.00     0.148 A 
ATOM     22  N10 ZIN A   1      18.447  -1.436   7.236  0.00  0.00    -0.310 N 
ATOM     23  N12 ZIN A   1      18.527  -3.543   7.611  0.00  0.00    -0.133 NA
ATOM     24  C9  ZIN A   1      18.306   0.001   7.468  0.00  0.00     0.152 C 
ATOM     25  C14 ZIN A   1      18.714  -2.081   6.083  0.00  0.00     0.237 A 
ATOM     26  N13 ZIN A   1      18.755  -3.359   6.356  0.00  0.00    -0.125 NA
BRANCH  25  27
ATOM     27  C15 ZIN A   1      18.924  -1.447   4.731  0.00  0.00     0.453 C 
ATOM     28  F16 ZIN A   1      17.746  -0.807   4.329  0.00  0.00    -0.163 F 
ATOM     29  F17 ZIN A   1      19.959  -0.510   4.811  0.00  0.00    -0.163 F 
ATOM     30  F18 ZIN A   1      19.259  -2.435   3.800  0.00  0.00    -0.163 F 
ENDBRANCH  25  27
ENDBRANCH   1  16
TORSDOF 6
ENDMDL
MODEL 9
REMARK VINA RESULT:      -7.9      4.418      7.017
REMARK  6 active torsions:
REMARK  status: ('A' for Active; 'I' for Inactive)
REMARK    1  A    between atoms: N1_1  and  C2_2 
REMARK    2  A    between atoms: C2_2  and  C4_3 
REMARK    3  A    between atoms: C2_2  and  C20_19 
REMARK    4  A    between atoms: C4_3  and  C5_4 
REMARK       I    between atoms: C5_4  and  N7_6 
REMARK    5  A    between atoms: C14_13  and  C15_14 
REMARK    6  A    between atoms: C20_19  and  C21_20 
ROOT
ATOM      1  C4  ZIN A   1      17.813  -0.666  11.852  0.00  0.00     0.138 C 
ENDROOT
BRANCH   1   2
ATOM      2  C2  ZIN A   1      18.673  -0.822  13.107  0.00  0.00     0.231 C 
BRANCH   2   3
ATOM      3  N1  ZIN A   1      19.578  -1.968  12.942  0.00  0.00     0.083 N 
ATOM      4  H30 ZIN A   1      19.663  -2.488  13.802  0.00  0.00     0.313 HD
ATOM      5  H31 ZIN A   1      19.271  -2.564  12.188  0.00  0.00     0.313 HD
ENDBRANCH   2   3
BRANCH   2   6
ATOM      6  C20 ZIN A   1      17.770  -1.057  14.320  0.00  0.00     0.077 C 
BRANCH   6   7
ATOM      7  C21 ZIN A   1      18.266  -0.236  15.482  0.00  0.00    -0.014 A 
ATOM      8  C28 ZIN A   1      18.428   1.132  15.345  0.00  0.00     0.125 A 
ATOM      9  C27 ZIN A   1      18.877   1.887  16.415  0.00  0.00     0.088 A 
ATOM     10  F29 ZIN A   1      18.136   1.732  14.171  0.00  0.00    -0.205 F 
ATOM     11  C25 ZIN A   1      19.176   1.271  17.618  0.00  0.00     0.157 A 
ATOM     12  C23 ZIN A   1      19.020  -0.100  17.752  0.00  0.00     0.155 A 
ATOM     13  F26 ZIN A   1      19.622   2.006  18.661  0.00  0.00    -0.203 F 
ATOM     14  C22 ZIN A   1      18.564  -0.852  16.683  0.00  0.00     0.055 A 
ATOM     15  F24 ZIN A   1      19.311  -0.701  18.926  0.00  0.00    -0.203 F 
ENDBRANCH   6   7
ENDBRANCH   2   6
ENDBRANCH   1   2
BRANCH   1  16
ATOM     16  C5  ZIN A   1      18.162  -1.751  10.865  0.00  0.00     0.222 C 
ATOM     17  O6  ZIN A   1      17.781  -2.886  11.053  0.00  0.00    -0.273 OA
ATOM     18  N7  ZIN A   1      18.897  -1.458   9.774  0.00  0.00    -0.343 N 
ATOM     19  C19 ZIN A   1      19.371  -0.084   9.525  0.00  0.00     0.206 C 
ATOM     20  C8  ZIN A   1      19.245  -2.499   8.794  0.00  0.00     0.146 C 
ATOM     21  C11 ZIN A   1      19.157   0.203   8.062  0.00  0.00     0.148 A 
ATOM     22  N10 ZIN A   1      18.817  -0.744   7.151  0.00  0.00    -0.310 N 
ATOM     23  N12 ZIN A   1      19.253   1.333   7.435  0.00  0.00    -0.133 NA
ATOM     24  C9  ZIN A   1      18.598  -2.160   7.447  0.00  0.00     0.152 C 
ATOM     25  C14 ZIN A   1      18.728  -0.108   5.966  0.00  0.00     0.237 A 
ATOM     26  N13 ZIN A   1      18.999   1.153   6.184  0.00  0.00    -0.125 NA
BRANCH  25  27
ATOM     27  C15 ZIN A   1      18.383  -0.734   4.639  0.00  0.00     0.453 C 
ATOM     28  F16 ZIN A   1      18.439   0.241   3.636  0.00  0.00    -0.163 F 
ATOM     29  F17 ZIN A   1      19.297  -1.752   4.351  0.00  0.00    -0.163 F 
ATOM     30  F18 ZIN A   1      17.092  -1.268   4.698  0.00  0.00    -0.163 F 
ENDBRANCH  25  27
ENDBRANCH   1  16
TORSDOF 6
ENDMDL
