MODEL 1
REMARK VINA RESULT:      -6.5      0.000      0.000
REMARK  2 active torsions:
REMARK  status: ('A' for Active; 'I' for Inactive)
REMARK    1  A    between atoms: C6_6  and  C7_7 
REMARK    2  A    between atoms: C7_7  and  C10_9 
ROOT
ATOM      1  C1  <0> d   1      19.177   1.550  18.058  0.00  0.00     0.049 C 
ATOM      2  C2  <0> d   1      18.923   0.588  16.927  0.00  0.00    -0.056 A 
ATOM      3  C3  <0> d   1      18.870  -0.772  17.173  0.00  0.00     0.007 A 
ATOM      4  C4  <0> d   1      18.638  -1.653  16.134  0.00  0.00     0.001 A 
ATOM      5  C5  <0> d   1      18.458  -1.176  14.849  0.00  0.00     0.008 A 
ATOM      6  C6  <0> d   1      18.511   0.183  14.602  0.00  0.00    -0.042 A 
ATOM      7  C15 <0> d   1      18.739   1.065  15.642  0.00  0.00    -0.049 A 
ATOM      8  C16 <0> d   1      18.797   2.547  15.374  0.00  0.00     0.049 C 
ENDROOT
BRANCH   6   9
ATOM      9  C7  <0> d   1      18.316   0.703  13.202  0.00  0.00     0.068 C 
ATOM     10  C9  <0> d   1      17.009   0.151  12.630  0.00  0.00     0.021 C 
BRANCH   9  11
ATOM     11  C10 <0> d   1      19.468   0.262  12.337  0.00  0.00     0.059 A 
ATOM     12  N14 <0> d   1      19.395  -0.584  11.299  0.00  0.00    -0.246 NA
ATOM     13  C13 <0> d   1      20.583  -0.735  10.782  0.00  0.00     0.207 A 
ATOM     14  N12 <0> d   1      21.460   0.011  11.487  0.00  0.00    -0.359 N 
ATOM     15  C11 <0> d   1      20.752   0.644  12.474  0.00  0.00     0.116 A 
ATOM     16  H27 <0> d   1      22.414   0.085  11.325  0.00  0.00     0.166 HD
ENDBRANCH   9  11
ENDBRANCH   6   9
TORSDOF 2
ENDMDL
MODEL 2
REMARK VINA RESULT:      -6.4      3.555      7.362
REMARK  2 active torsions:
REMARK  status: ('A' for Active; 'I' for Inactive)
REMARK    1  A    between atoms: C6_6  and  C7_7 
REMARK    2  A    between atoms: C7_7  and  C10_9 
ROOT
ATOM      1  C1  <0> d   1      19.177  -1.987   5.082  0.00  0.00     0.049 C 
ATOM      2  C2  <0> d   1      19.002  -0.898   6.109  0.00  0.00    -0.056 A 
ATOM      3  C3  <0> d   1      19.113   0.428   5.737  0.00  0.00     0.007 A 
ATOM      4  C4  <0> d   1      18.952   1.426   6.680  0.00  0.00     0.001 A 
ATOM      5  C5  <0> d   1      18.680   1.098   7.995  0.00  0.00     0.008 A 
ATOM      6  C6  <0> d   1      18.569  -0.229   8.368  0.00  0.00    -0.042 A 
ATOM      7  C15 <0> d   1      18.725  -1.227   7.423  0.00  0.00    -0.049 A 
ATOM      8  C16 <0> d   1      18.604  -2.674   7.829  0.00  0.00     0.049 C 
ENDROOT
BRANCH   6   9
ATOM      9  C7  <0> d   1      18.273  -0.588   9.800  0.00  0.00     0.068 C 
ATOM     10  C9  <0> d   1      17.023   0.162  10.266  0.00  0.00     0.021 C 
BRANCH   9  11
ATOM     11  C10 <0> d   1      19.443  -0.199  10.667  0.00  0.00     0.059 A 
ATOM     12  N14 <0> d   1      19.411   0.667  11.691  0.00  0.00    -0.246 NA
ATOM     13  C13 <0> d   1      20.603   0.758  12.215  0.00  0.00     0.207 A 
ATOM     14  N12 <0> d   1      21.440  -0.050  11.530  0.00  0.00    -0.359 N 
ATOM     15  C11 <0> d   1      20.703  -0.657  10.548  0.00  0.00     0.116 A 
ATOM     16  H27 <0> d   1      22.387  -0.176  11.700  0.00  0.00     0.166 HD
ENDBRANCH   9  11
ENDBRANCH   6   9
TORSDOF 2
ENDMDL
MODEL 3
REMARK VINA RESULT:      -6.1      3.565      6.273
REMARK  2 active torsions:
REMARK  status: ('A' for Active; 'I' for Inactive)
REMARK    1  A    between atoms: C6_6  and  C7_7 
REMARK    2  A    between atoms: C7_7  and  C10_9 
ROOT
ATOM      1  C1  <0> d   1      18.907   0.931   6.227  0.00  0.00     0.049 C 
ATOM      2  C2  <0> d   1      18.769   1.126   7.715  0.00  0.00    -0.056 A 
ATOM      3  C3  <0> d   1      19.218   2.293   8.304  0.00  0.00     0.007 A 
ATOM      4  C4  <0> d   1      19.092   2.471   9.669  0.00  0.00     0.001 A 
ATOM      5  C5  <0> d   1      18.516   1.482  10.445  0.00  0.00     0.008 A 
ATOM      6  C6  <0> d   1      18.066   0.315   9.856  0.00  0.00    -0.042 A 
ATOM      7  C15 <0> d   1      18.189   0.139   8.490  0.00  0.00    -0.049 A 
ATOM      8  C16 <0> d   1      17.699  -1.133   7.847  0.00  0.00     0.049 C 
ENDROOT
BRANCH   6   9
ATOM      9  C7  <0> d   1      17.439  -0.763  10.701  0.00  0.00     0.068 C 
ATOM     10  C9  <0> d   1      16.632  -0.119  11.831  0.00  0.00     0.021 C 
BRANCH   9  11
ATOM     11  C10 <0> d   1      18.520  -1.633  11.289  0.00  0.00     0.059 A 
ATOM     12  N14 <0> d   1      19.115  -2.669  10.680  0.00  0.00    -0.246 NA
ATOM     13  C13 <0> d   1      20.003  -3.189  11.483  0.00  0.00     0.207 A 
ATOM     14  N12 <0> d   1      19.996  -2.496  12.642  0.00  0.00    -0.359 N 
ATOM     15  C11 <0> d   1      19.054  -1.509  12.518  0.00  0.00     0.116 A 
ATOM     16  H27 <0> d   1      20.553  -2.666  13.418  0.00  0.00     0.166 HD
ENDBRANCH   9  11
ENDBRANCH   6   9
TORSDOF 2
ENDMDL
MODEL 4
REMARK VINA RESULT:      -5.8      3.050      5.204
REMARK  2 active torsions:
REMARK  status: ('A' for Active; 'I' for Inactive)
REMARK    1  A    between atoms: C6_6  and  C7_7 
REMARK    2  A    between atoms: C7_7  and  C10_9 
ROOT
ATOM      1  C1  <0> d   1      17.773   4.463  10.012  0.00  0.00     0.049 C 
ATOM      2  C2  <0> d   1      18.342   3.068  10.035  0.00  0.00    -0.056 A 
ATOM      3  C3  <0> d   1      18.912   2.535   8.894  0.00  0.00     0.007 A 
ATOM      4  C4  <0> d   1      19.433   1.254   8.915  0.00  0.00     0.001 A 
ATOM      5  C5  <0> d   1      19.384   0.507  10.078  0.00  0.00     0.008 A 
ATOM      6  C6  <0> d   1      18.815   1.041  11.220  0.00  0.00    -0.042 A 
ATOM      7  C15 <0> d   1      18.298   2.323  11.199  0.00  0.00    -0.049 A 
ATOM      8  C16 <0> d   1      17.676   2.906  12.442  0.00  0.00     0.049 C 
ENDROOT
BRANCH   6   9
ATOM      9  C7  <0> d   1      18.761   0.228  12.486  0.00  0.00     0.068 C 
ATOM     10  C9  <0> d   1      20.115   0.298  13.195  0.00  0.00     0.021 C 
BRANCH   9  11
ATOM     11  C10 <0> d   1      18.445  -1.207  12.149  0.00  0.00     0.059 A 
ATOM     12  N14 <0> d   1      17.283  -1.663  11.659  0.00  0.00    -0.246 NA
ATOM     13  C13 <0> d   1      17.367  -2.954  11.485  0.00  0.00     0.207 A 
ATOM     14  N12 <0> d   1      18.594  -3.364  11.871  0.00  0.00    -0.359 N 
ATOM     15  C11 <0> d   1      19.278  -2.255  12.293  0.00  0.00     0.116 A 
ATOM     16  H27 <0> d   1      18.929  -4.275  11.855  0.00  0.00     0.166 HD
ENDBRANCH   9  11
ENDBRANCH   6   9
TORSDOF 2
ENDMDL
MODEL 5
REMARK VINA RESULT:      -5.7      2.953      4.441
REMARK  2 active torsions:
REMARK  status: ('A' for Active; 'I' for Inactive)
REMARK    1  A    between atoms: C6_6  and  C7_7 
REMARK    2  A    between atoms: C7_7  and  C10_9 
ROOT
ATOM      1  C1  <0> d   1      19.589  -1.050  14.006  0.00  0.00     0.049 C 
ATOM      2  C2  <0> d   1      18.767  -0.461  12.888  0.00  0.00    -0.056 A 
ATOM      3  C3  <0> d   1      17.402  -0.678  12.845  0.00  0.00     0.007 A 
ATOM      4  C4  <0> d   1      16.649  -0.138  11.820  0.00  0.00     0.001 A 
ATOM      5  C5  <0> d   1      17.261   0.620  10.837  0.00  0.00     0.008 A 
ATOM      6  C6  <0> d   1      18.625   0.837  10.881  0.00  0.00    -0.042 A 
ATOM      7  C15 <0> d   1      19.377   0.300  11.909  0.00  0.00    -0.049 A 
ATOM      8  C16 <0> d   1      20.866   0.537  11.957  0.00  0.00     0.049 C 
ENDROOT
BRANCH   6   9
ATOM      9  C7  <0> d   1      19.291   1.661   9.811  0.00  0.00     0.068 C 
ATOM     10  C9  <0> d   1      18.599   3.022   9.710  0.00  0.00     0.021 C 
BRANCH   9  11
ATOM     11  C10 <0> d   1      19.188   0.947   8.488  0.00  0.00     0.059 A 
ATOM     12  N14 <0> d   1      18.927   1.517   7.303  0.00  0.00    -0.246 NA
ATOM     13  C13 <0> d   1      18.915   0.599   6.376  0.00  0.00     0.207 A 
ATOM     14  N12 <0> d   1      19.164  -0.598   6.949  0.00  0.00    -0.359 N 
ATOM     15  C11 <0> d   1      19.337  -0.377   8.290  0.00  0.00     0.116 A 
ATOM     16  H27 <0> d   1      19.211  -1.455   6.497  0.00  0.00     0.166 HD
ENDBRANCH   9  11
ENDBRANCH   6   9
TORSDOF 2
ENDMDL
MODEL 6
REMARK VINA RESULT:      -5.5      2.242      3.120
REMARK  2 active torsions:
REMARK  status: ('A' for Active; 'I' for Inactive)
REMARK    1  A    between atoms: C6_6  and  C7_7 
REMARK    2  A    between atoms: C7_7  and  C10_9 
ROOT
ATOM      1  C1  <0> d   1      18.687  -1.297  16.141  0.00  0.00     0.049 C 
ATOM      2  C2  <0> d   1      18.730  -1.167  14.640  0.00  0.00    -0.056 A 
ATOM      3  C3  <0> d   1      19.270  -2.182  13.873  0.00  0.00     0.007 A 
ATOM      4  C4  <0> d   1      19.310  -2.062  12.497  0.00  0.00     0.001 A 
ATOM      5  C5  <0> d   1      18.809  -0.926  11.887  0.00  0.00     0.008 A 
ATOM      6  C6  <0> d   1      18.268   0.089  12.654  0.00  0.00    -0.042 A 
ATOM      7  C15 <0> d   1      18.225  -0.034  14.030  0.00  0.00    -0.049 A 
ATOM      8  C16 <0> d   1      17.636   1.073  14.867  0.00  0.00     0.049 C 
ENDROOT
BRANCH   6   9
ATOM      9  C7  <0> d   1      17.724   1.326  11.990  0.00  0.00     0.068 C 
ATOM     10  C9  <0> d   1      17.344   1.004  10.543  0.00  0.00     0.021 C 
BRANCH   9  11
ATOM     11  C10 <0> d   1      18.773   2.408  12.004  0.00  0.00     0.059 A 
ATOM     12  N14 <0> d   1      18.597   3.670  12.421  0.00  0.00    -0.246 NA
ATOM     13  C13 <0> d   1      19.718   4.326  12.295  0.00  0.00     0.207 A 
ATOM     14  N12 <0> d   1      20.650   3.495  11.781  0.00  0.00    -0.359 N 
ATOM     15  C11 <0> d   1      20.049   2.278  11.596  0.00  0.00     0.116 A 
ATOM     16  H27 <0> d   1      21.572   3.718  11.579  0.00  0.00     0.166 HD
ENDBRANCH   9  11
ENDBRANCH   6   9
TORSDOF 2
ENDMDL
MODEL 7
REMARK VINA RESULT:      -5.3      2.163      2.697
REMARK  2 active torsions:
REMARK  status: ('A' for Active; 'I' for Inactive)
REMARK    1  A    between atoms: C6_6  and  C7_7 
REMARK    2  A    between atoms: C7_7  and  C10_9 
ROOT
ATOM      1  C1  <0> d   1      19.272   0.684  18.067  0.00  0.00     0.049 C 
ATOM      2  C2  <0> d   1      18.741   0.816  16.662  0.00  0.00    -0.056 A 
ATOM      3  C3  <0> d   1      18.084  -0.246  16.069  0.00  0.00     0.007 A 
ATOM      4  C4  <0> d   1      17.598  -0.125  14.781  0.00  0.00     0.001 A 
ATOM      5  C5  <0> d   1      17.768   1.058  14.086  0.00  0.00     0.008 A 
ATOM      6  C6  <0> d   1      18.424   2.121  14.679  0.00  0.00    -0.042 A 
ATOM      7  C15 <0> d   1      18.906   2.000  15.969  0.00  0.00    -0.049 A 
ATOM      8  C16 <0> d   1      19.622   3.158  16.617  0.00  0.00     0.049 C 
ENDROOT
BRANCH   6   9
ATOM      9  C7  <0> d   1      18.610   3.409  13.922  0.00  0.00     0.068 C 
ATOM     10  C9  <0> d   1      17.377   4.296  14.115  0.00  0.00     0.021 C 
BRANCH   9  11
ATOM     11  C10 <0> d   1      18.788   3.110  12.456  0.00  0.00     0.059 A 
ATOM     12  N14 <0> d   1      17.872   3.303  11.496  0.00  0.00    -0.246 NA
ATOM     13  C13 <0> d   1      18.369   2.938  10.346  0.00  0.00     0.207 A 
ATOM     14  N12 <0> d   1      19.628   2.489  10.542  0.00  0.00    -0.359 N 
ATOM     15  C11 <0> d   1      19.893   2.599  11.881  0.00  0.00     0.116 A 
ATOM     16  H27 <0> d   1      20.231   2.151   9.862  0.00  0.00     0.166 HD
ENDBRANCH   9  11
ENDBRANCH   6   9
TORSDOF 2
ENDMDL
MODEL 8
REMARK VINA RESULT:      -5.3      5.903      7.980
REMARK  2 active torsions:
REMARK  status: ('A' for Active; 'I' for Inactive)
REMARK    1  A    between atoms: C6_6  and  C7_7 
REMARK    2  A    between atoms: C7_7  and  C10_9 
ROOT
ATOM      1  C1  <0> d   1      19.019   1.976   8.208  0.00  0.00     0.049 C 
ATOM      2  C2  <0> d   1      18.752   0.700   7.450  0.00  0.00    -0.056 A 
ATOM      3  C3  <0> d   1      18.032   0.734   6.271  0.00  0.00     0.007 A 
ATOM      4  C4  <0> d   1      17.787  -0.436   5.577  0.00  0.00     0.001 A 
ATOM      5  C5  <0> d   1      18.263  -1.640   6.062  0.00  0.00     0.008 A 
ATOM      6  C6  <0> d   1      18.984  -1.674   7.241  0.00  0.00    -0.042 A 
ATOM      7  C15 <0> d   1      19.232  -0.503   7.933  0.00  0.00    -0.049 A 
ATOM      8  C16 <0> d   1      20.018  -0.539   9.219  0.00  0.00     0.049 C 
ENDROOT
BRANCH   6   9
ATOM      9  C7  <0> d   1      19.502  -2.986   7.771  0.00  0.00     0.068 C 
ATOM     10  C9  <0> d   1      19.971  -3.857   6.603  0.00  0.00     0.021 C 
BRANCH   9  11
ATOM     11  C10 <0> d   1      18.402  -3.697   8.516  0.00  0.00     0.059 A 
ATOM     12  N14 <0> d   1      17.963  -3.397   9.747  0.00  0.00    -0.246 NA
ATOM     13  C13 <0> d   1      17.002  -4.216  10.074  0.00  0.00     0.207 A 
ATOM     14  N12 <0> d   1      16.801  -5.077   9.053  0.00  0.00    -0.359 N 
ATOM     15  C11 <0> d   1      17.690  -4.747   8.065  0.00  0.00     0.116 A 
ATOM     16  H27 <0> d   1      16.150  -5.795   9.025  0.00  0.00     0.166 HD
ENDBRANCH   9  11
ENDBRANCH   6   9
TORSDOF 2
ENDMDL
MODEL 9
REMARK VINA RESULT:      -5.3      3.203      5.009
REMARK  2 active torsions:
REMARK  status: ('A' for Active; 'I' for Inactive)
REMARK    1  A    between atoms: C6_6  and  C7_7 
REMARK    2  A    between atoms: C7_7  and  C10_9 
ROOT
ATOM      1  C1  <0> d   1      17.378   5.146  14.587  0.00  0.00     0.049 C 
ATOM      2  C2  <0> d   1      17.407   4.806  13.119  0.00  0.00    -0.056 A 
ATOM      3  C3  <0> d   1      16.685   5.566  12.219  0.00  0.00     0.007 A 
ATOM      4  C4  <0> d   1      16.711   5.253  10.872  0.00  0.00     0.001 A 
ATOM      5  C5  <0> d   1      17.461   4.180  10.427  0.00  0.00     0.008 A 
ATOM      6  C6  <0> d   1      18.184   3.420  11.327  0.00  0.00    -0.042 A 
ATOM      7  C15 <0> d   1      18.160   3.736  12.673  0.00  0.00    -0.049 A 
ATOM      8  C16 <0> d   1      18.948   2.907  13.655  0.00  0.00     0.049 C 
ENDROOT
BRANCH   6   9
ATOM      9  C7  <0> d   1      19.000   2.250  10.842  0.00  0.00     0.068 C 
ATOM     10  C9  <0> d   1      19.169   2.342   9.324  0.00  0.00     0.021 C 
BRANCH   9  11
ATOM     11  C10 <0> d   1      18.294   0.966  11.192  0.00  0.00     0.059 A 
ATOM     12  N14 <0> d   1      16.968   0.801  11.305  0.00  0.00    -0.246 NA
ATOM     13  C13 <0> d   1      16.713  -0.441  11.616  0.00  0.00     0.207 A 
ATOM     14  N12 <0> d   1      17.882  -1.110  11.718  0.00  0.00    -0.359 N 
ATOM     15  C11 <0> d   1      18.885  -0.217  11.449  0.00  0.00     0.116 A 
ATOM     16  H27 <0> d   1      17.991  -2.047  11.942  0.00  0.00     0.166 HD
ENDBRANCH   9  11
ENDBRANCH   6   9
TORSDOF 2
ENDMDL
