MODEL 1
REMARK VINA RESULT:      -8.4      0.000      0.000
REMARK  2 active torsions:
REMARK  status: ('A' for Active; 'I' for Inactive)
REMARK    1  A    between atoms: C18_17  and  O19_18 
REMARK    2  A    between atoms: C20_19  and  O21_20 
ROOT
ATOM      1  C1  ZIN A   1      17.370   0.995  11.664  0.00  0.00     0.270 C 
ATOM      2  N2  ZIN A   1      17.663  -0.436  11.503  0.00  0.00    -0.066 N 
ATOM      3  H3  ZIN A   1      16.799  -0.955  11.486  0.00  0.00     0.280 HD
ATOM      4  C4  ZIN A   1      18.485  -0.894  12.624  0.00  0.00     0.240 C 
ATOM      5  C5  ZIN A   1      18.645  -2.405  12.595  0.00  0.00     0.067 C 
ATOM      6  C6  ZIN A   1      18.826  -2.927  11.197  0.00  0.00    -0.047 A 
ATOM      7  C7  ZIN A   1      19.132  -4.271  11.032  0.00  0.00     0.008 A 
ATOM      8  C8  ZIN A   1      19.334  -4.800   9.772  0.00  0.00     0.001 A 
ATOM      9  C9  ZIN A   1      19.228  -3.989   8.661  0.00  0.00     0.013 A 
ATOM     10  C10 ZIN A   1      18.901  -2.647   8.815  0.00  0.00    -0.014 A 
ATOM     11  C11 ZIN A   1      18.706  -2.112  10.092  0.00  0.00    -0.010 A 
ATOM     12  C12 ZIN A   1      18.386  -0.648  10.241  0.00  0.00     0.226 C 
ATOM     13  C14 ZIN A   1      17.505  -0.164   9.091  0.00  0.00     0.077 C 
ATOM     14  C15 ZIN A   1      18.100  -0.548   7.764  0.00  0.00    -0.042 A 
ATOM     15  C16 ZIN A   1      17.982   0.293   6.676  0.00  0.00     0.011 A 
ATOM     16  C17 ZIN A   1      18.511  -0.073   5.452  0.00  0.00     0.040 A 
ATOM     17  C18 ZIN A   1      19.163  -1.288   5.306  0.00  0.00     0.099 A 
ATOM     18  C20 ZIN A   1      19.295  -2.140   6.398  0.00  0.00     0.110 A 
ATOM     19  C22 ZIN A   1      18.779  -1.763   7.632  0.00  0.00     0.017 A 
ENDROOT
BRANCH  18  20
ATOM     20  O21 ZIN A   1      19.932  -3.333   6.261  0.00  0.00    -0.357 OA
ATOM     21  H38 ZIN A   1      19.451  -3.976   5.721  0.00  0.00     0.217 HD
ENDBRANCH  18  20
BRANCH  17  22
ATOM     22  O19 ZIN A   1      19.674  -1.646   4.097  0.00  0.00    -0.358 OA
ATOM     23  H37 ZIN A   1      20.312  -1.015   3.738  0.00  0.00     0.217 HD
ENDBRANCH  17  22
TORSDOF 2
ENDMDL
MODEL 2
REMARK VINA RESULT:      -8.3      1.463      3.554
REMARK  2 active torsions:
REMARK  status: ('A' for Active; 'I' for Inactive)
REMARK    1  A    between atoms: C18_17  and  O19_18 
REMARK    2  A    between atoms: C20_19  and  O21_20 
ROOT
ATOM      1  C1  ZIN A   1      17.548  -2.671  12.037  0.00  0.00     0.270 C 
ATOM      2  N2  ZIN A   1      17.928  -1.332  11.566  0.00  0.00    -0.066 N 
ATOM      3  H3  ZIN A   1      18.864  -1.120  11.877  0.00  0.00     0.280 HD
ATOM      4  C4  ZIN A   1      16.998  -0.342  12.110  0.00  0.00     0.240 C 
ATOM      5  C5  ZIN A   1      17.471   1.070  11.805  0.00  0.00     0.067 C 
ATOM      6  C6  ZIN A   1      18.052   1.184  10.424  0.00  0.00    -0.047 A 
ATOM      7  C7  ZIN A   1      18.388   2.446   9.954  0.00  0.00     0.008 A 
ATOM      8  C8  ZIN A   1      18.902   2.615   8.683  0.00  0.00     0.001 A 
ATOM      9  C9  ZIN A   1      19.090   1.518   7.867  0.00  0.00     0.013 A 
ATOM     10  C10 ZIN A   1      18.776   0.248   8.336  0.00  0.00    -0.014 A 
ATOM     11  C11 ZIN A   1      18.248   0.082   9.619  0.00  0.00    -0.010 A 
ATOM     12  C12 ZIN A   1      17.881  -1.299  10.097  0.00  0.00     0.226 C 
ATOM     13  C14 ZIN A   1      18.861  -2.339   9.558  0.00  0.00     0.077 C 
ATOM     14  C15 ZIN A   1      19.014  -2.207   8.067  0.00  0.00    -0.042 A 
ATOM     15  C16 ZIN A   1      19.191  -3.327   7.281  0.00  0.00     0.011 A 
ATOM     16  C17 ZIN A   1      19.353  -3.199   5.914  0.00  0.00     0.040 A 
ATOM     17  C18 ZIN A   1      19.341  -1.947   5.321  0.00  0.00     0.099 A 
ATOM     18  C20 ZIN A   1      19.156  -0.811   6.102  0.00  0.00     0.110 A 
ATOM     19  C22 ZIN A   1      18.975  -0.941   7.474  0.00  0.00     0.017 A 
ENDROOT
BRANCH  18  20
ATOM     20  O21 ZIN A   1      19.145   0.420   5.527  0.00  0.00    -0.357 OA
ATOM     21  H38 ZIN A   1      20.025   0.799   5.391  0.00  0.00     0.217 HD
ENDBRANCH  18  20
BRANCH  17  22
ATOM     22  O19 ZIN A   1      19.510  -1.828   3.976  0.00  0.00    -0.358 OA
ATOM     23  H37 ZIN A   1      20.318  -1.363   3.721  0.00  0.00     0.217 HD
ENDBRANCH  17  22
TORSDOF 2
ENDMDL
MODEL 3
REMARK VINA RESULT:      -8.3      1.330      1.461
REMARK  2 active torsions:
REMARK  status: ('A' for Active; 'I' for Inactive)
REMARK    1  A    between atoms: C18_17  and  O19_18 
REMARK    2  A    between atoms: C20_19  and  O21_20 
ROOT
ATOM      1  C1  ZIN A   1      19.298   2.733  10.999  0.00  0.00     0.270 C 
ATOM      2  N2  ZIN A   1      19.101   1.283  11.135  0.00  0.00    -0.066 N 
ATOM      3  H3  ZIN A   1      18.125   1.091  11.302  0.00  0.00     0.280 HD
ATOM      4  C4  ZIN A   1      19.894   0.787  12.260  0.00  0.00     0.240 C 
ATOM      5  C5  ZIN A   1      19.568  -0.668  12.552  0.00  0.00     0.067 C 
ATOM      6  C6  ZIN A   1      19.367  -1.465  11.295  0.00  0.00    -0.047 A 
ATOM      7  C7  ZIN A   1      19.209  -2.840  11.406  0.00  0.00     0.008 A 
ATOM      8  C8  ZIN A   1      19.047  -3.627  10.282  0.00  0.00     0.001 A 
ATOM      9  C9  ZIN A   1      19.037  -3.044   9.031  0.00  0.00     0.013 A 
ATOM     10  C10 ZIN A   1      19.173  -1.665   8.912  0.00  0.00    -0.014 A 
ATOM     11  C11 ZIN A   1      19.346  -0.874  10.050  0.00  0.00    -0.010 A 
ATOM     12  C12 ZIN A   1      19.526   0.614   9.898  0.00  0.00     0.226 C 
ATOM     13  C14 ZIN A   1      18.681   1.149   8.743  0.00  0.00     0.077 C 
ATOM     14  C15 ZIN A   1      18.924   0.352   7.490  0.00  0.00    -0.042 A 
ATOM     15  C16 ZIN A   1      18.915   0.971   6.257  0.00  0.00     0.011 A 
ATOM     16  C17 ZIN A   1      19.116   0.231   5.105  0.00  0.00     0.040 A 
ATOM     17  C18 ZIN A   1      19.326  -1.137   5.180  0.00  0.00     0.099 A 
ATOM     18  C20 ZIN A   1      19.344  -1.770   6.418  0.00  0.00     0.110 A 
ATOM     19  C22 ZIN A   1      19.160  -1.023   7.576  0.00  0.00     0.017 A 
ENDROOT
BRANCH  18  20
ATOM     20  O21 ZIN A   1      19.548  -3.111   6.498  0.00  0.00    -0.357 OA
ATOM     21  H38 ZIN A   1      20.231  -3.442   5.897  0.00  0.00     0.217 HD
ENDBRANCH  18  20
BRANCH  17  22
ATOM     22  O19 ZIN A   1      19.514  -1.860   4.042  0.00  0.00    -0.358 OA
ATOM     23  H37 ZIN A   1      20.392  -1.757   3.652  0.00  0.00     0.217 HD
ENDBRANCH  17  22
TORSDOF 2
ENDMDL
MODEL 4
REMARK VINA RESULT:      -8.2      5.383      8.636
REMARK  2 active torsions:
REMARK  status: ('A' for Active; 'I' for Inactive)
REMARK    1  A    between atoms: C18_17  and  O19_18 
REMARK    2  A    between atoms: C20_19  and  O21_20 
ROOT
ATOM      1  C1  ZIN A   1      17.101  -0.380  10.885  0.00  0.00     0.270 C 
ATOM      2  N2  ZIN A   1      17.375   1.019  11.241  0.00  0.00    -0.066 N 
ATOM      3  H3  ZIN A   1      16.503   1.506  11.382  0.00  0.00     0.280 HD
ATOM      4  C4  ZIN A   1      18.121   1.660  10.158  0.00  0.00     0.240 C 
ATOM      5  C5  ZIN A   1      18.254   3.154  10.403  0.00  0.00     0.067 C 
ATOM      6  C6  ZIN A   1      18.505   3.469  11.851  0.00  0.00    -0.047 A 
ATOM      7  C7  ZIN A   1      18.795   4.781  12.198  0.00  0.00     0.008 A 
ATOM      8  C8  ZIN A   1      19.059   5.124  13.510  0.00  0.00     0.001 A 
ATOM      9  C9  ZIN A   1      19.033   4.156  14.492  0.00  0.00     0.013 A 
ATOM     10  C10 ZIN A   1      18.723   2.842  14.157  0.00  0.00    -0.014 A 
ATOM     11  C11 ZIN A   1      18.465   2.497  12.827  0.00  0.00    -0.010 A 
ATOM     12  C12 ZIN A   1      18.166   1.063  12.479  0.00  0.00     0.226 C 
ATOM     13  C14 ZIN A   1      17.362   0.389  13.591  0.00  0.00     0.077 C 
ATOM     14  C15 ZIN A   1      18.026   0.589  14.926  0.00  0.00    -0.042 A 
ATOM     15  C16 ZIN A   1      17.987  -0.406  15.881  0.00  0.00     0.011 A 
ATOM     16  C17 ZIN A   1      18.580  -0.209  17.115  0.00  0.00     0.040 A 
ATOM     17  C18 ZIN A   1      19.215   0.988  17.405  0.00  0.00     0.099 A 
ATOM     18  C20 ZIN A   1      19.267   1.995  16.447  0.00  0.00     0.110 A 
ATOM     19  C22 ZIN A   1      18.687   1.790  15.200  0.00  0.00     0.017 A 
ENDROOT
BRANCH  18  20
ATOM     20  O21 ZIN A   1      19.887   3.172  16.725  0.00  0.00    -0.357 OA
ATOM     21  H38 ZIN A   1      19.529   3.633  17.496  0.00  0.00     0.217 HD
ENDBRANCH  18  20
BRANCH  17  22
ATOM     22  O19 ZIN A   1      19.788   1.177  18.624  0.00  0.00    -0.358 OA
ATOM     23  H37 ZIN A   1      19.301   1.785  19.197  0.00  0.00     0.217 HD
ENDBRANCH  17  22
TORSDOF 2
ENDMDL
MODEL 5
REMARK VINA RESULT:      -8.2      2.849      5.959
REMARK  2 active torsions:
REMARK  status: ('A' for Active; 'I' for Inactive)
REMARK    1  A    between atoms: C18_17  and  O19_18 
REMARK    2  A    between atoms: C20_19  and  O21_20 
ROOT
ATOM      1  C1  ZIN A   1      18.666  -3.564   5.097  0.00  0.00     0.270 C 
ATOM      2  N2  ZIN A   1      18.576  -2.183   5.590  0.00  0.00    -0.066 N 
ATOM      3  H3  ZIN A   1      17.607  -1.908   5.646  0.00  0.00     0.280 HD
ATOM      4  C4  ZIN A   1      19.282  -1.290   4.671  0.00  0.00     0.240 C 
ATOM      5  C5  ZIN A   1      19.047   0.165   5.042  0.00  0.00     0.067 C 
ATOM      6  C6  ZIN A   1      19.049   0.376   6.530  0.00  0.00    -0.047 A 
ATOM      7  C7  ZIN A   1      18.994   1.677   7.010  0.00  0.00     0.008 A 
ATOM      8  C8  ZIN A   1      19.019   1.932   8.367  0.00  0.00     0.001 A 
ATOM      9  C9  ZIN A   1      19.095   0.885   9.262  0.00  0.00     0.013 A 
ATOM     10  C10 ZIN A   1      19.129  -0.423   8.791  0.00  0.00    -0.014 A 
ATOM     11  C11 ZIN A   1      19.113  -0.677   7.417  0.00  0.00    -0.010 A 
ATOM     12  C12 ZIN A   1      19.185  -2.099   6.925  0.00  0.00     0.226 C 
ATOM     13  C14 ZIN A   1      18.428  -3.038   7.863  0.00  0.00     0.077 C 
ATOM     14  C15 ZIN A   1      18.868  -2.839   9.288  0.00  0.00    -0.042 A 
ATOM     15  C16 ZIN A   1      18.941  -3.913  10.152  0.00  0.00     0.011 A 
ATOM     16  C17 ZIN A   1      19.325  -3.723  11.467  0.00  0.00     0.040 A 
ATOM     17  C18 ZIN A   1      19.637  -2.454  11.929  0.00  0.00     0.099 A 
ATOM     18  C20 ZIN A   1      19.575  -1.366  11.065  0.00  0.00     0.110 A 
ATOM     19  C22 ZIN A   1      19.207  -1.560   9.738  0.00  0.00     0.017 A 
ENDROOT
BRANCH  18  20
ATOM     20  O21 ZIN A   1      19.879  -0.119  11.512  0.00  0.00    -0.357 OA
ATOM     21  H38 ZIN A   1      20.116   0.503  10.810  0.00  0.00     0.217 HD
ENDBRANCH  18  20
BRANCH  17  22
ATOM     22  O19 ZIN A   1      20.006  -2.273  13.226  0.00  0.00    -0.358 OA
ATOM     23  H37 ZIN A   1      20.264  -3.088  13.678  0.00  0.00     0.217 HD
ENDBRANCH  17  22
TORSDOF 2
ENDMDL
MODEL 6
REMARK VINA RESULT:      -8.2      4.832      6.703
REMARK  2 active torsions:
REMARK  status: ('A' for Active; 'I' for Inactive)
REMARK    1  A    between atoms: C18_17  and  O19_18 
REMARK    2  A    between atoms: C20_19  and  O21_20 
ROOT
ATOM      1  C1  ZIN A   1      18.273   4.704  17.012  0.00  0.00     0.270 C 
ATOM      2  N2  ZIN A   1      18.275   3.237  17.093  0.00  0.00    -0.066 N 
ATOM      3  H3  ZIN A   1      17.324   2.899  17.091  0.00  0.00     0.280 HD
ATOM      4  C4  ZIN A   1      18.939   2.817  18.327  0.00  0.00     0.240 C 
ATOM      5  C5  ZIN A   1      18.790   1.320  18.540  0.00  0.00     0.067 C 
ATOM      6  C6  ZIN A   1      18.918   0.551  17.255  0.00  0.00    -0.047 A 
ATOM      7  C7  ZIN A   1      18.951  -0.835  17.319  0.00  0.00     0.008 A 
ATOM      8  C8  ZIN A   1      19.094  -1.592  16.172  0.00  0.00     0.001 A 
ATOM      9  C9  ZIN A   1      19.200  -0.969  14.946  0.00  0.00     0.013 A 
ATOM     10  C10 ZIN A   1      19.147   0.418  14.870  0.00  0.00    -0.014 A 
ATOM     11  C11 ZIN A   1      19.012   1.182  16.033  0.00  0.00    -0.010 A 
ATOM     12  C12 ZIN A   1      18.991   2.684  15.934  0.00  0.00     0.226 C 
ATOM     13  C14 ZIN A   1      18.276   3.136  14.662  0.00  0.00     0.077 C 
ATOM     14  C15 ZIN A   1      18.835   2.432  13.456  0.00  0.00    -0.042 A 
ATOM     15  C16 ZIN A   1      18.937   3.090  12.248  0.00  0.00     0.011 A 
ATOM     16  C17 ZIN A   1      19.431   2.432  11.136  0.00  0.00     0.040 A 
ATOM     17  C18 ZIN A   1      19.827   1.107  11.224  0.00  0.00     0.099 A 
ATOM     18  C20 ZIN A   1      19.737   0.437  12.439  0.00  0.00     0.110 A 
ATOM     19  C22 ZIN A   1      19.257   1.103  13.561  0.00  0.00     0.017 A 
ENDROOT
BRANCH  18  20
ATOM     20  O21 ZIN A   1      20.123  -0.863  12.533  0.00  0.00    -0.357 OA
ATOM     21  H38 ZIN A   1      19.476  -1.492  12.181  0.00  0.00     0.217 HD
ENDBRANCH  18  20
BRANCH  17  22
ATOM     22  O19 ZIN A   1      20.304   0.464  10.124  0.00  0.00    -0.358 OA
ATOM     23  H37 ZIN A   1      20.705   1.051   9.470  0.00  0.00     0.217 HD
ENDBRANCH  17  22
TORSDOF 2
ENDMDL
MODEL 7
REMARK VINA RESULT:      -8.0      4.239      7.495
REMARK  2 active torsions:
REMARK  status: ('A' for Active; 'I' for Inactive)
REMARK    1  A    between atoms: C18_17  and  O19_18 
REMARK    2  A    between atoms: C20_19  and  O21_20 
ROOT
ATOM      1  C1  ZIN A   1      19.196  -1.668   9.370  0.00  0.00     0.270 C 
ATOM      2  N2  ZIN A   1      18.727  -0.279   9.471  0.00  0.00    -0.066 N 
ATOM      3  H3  ZIN A   1      17.754  -0.234   9.208  0.00  0.00     0.280 HD
ATOM      4  C4  ZIN A   1      19.514   0.568   8.575  0.00  0.00     0.240 C 
ATOM      5  C5  ZIN A   1      18.932   1.971   8.507  0.00  0.00     0.067 C 
ATOM      6  C6  ZIN A   1      18.450   2.447   9.848  0.00  0.00    -0.047 A 
ATOM      7  C7  ZIN A   1      18.031   3.766   9.965  0.00  0.00     0.008 A 
ATOM      8  C8  ZIN A   1      17.601   4.266  11.179  0.00  0.00     0.001 A 
ATOM      9  C9  ZIN A   1      17.581   3.449  12.291  0.00  0.00     0.013 A 
ATOM     10  C10 ZIN A   1      17.979   2.121  12.178  0.00  0.00    -0.014 A 
ATOM     11  C11 ZIN A   1      18.422   1.621  10.951  0.00  0.00    -0.010 A 
ATOM     12  C12 ZIN A   1      18.881   0.190  10.856  0.00  0.00     0.226 C 
ATOM     13  C14 ZIN A   1      18.049  -0.710  11.767  0.00  0.00     0.077 C 
ATOM     14  C15 ZIN A   1      17.998  -0.155  13.165  0.00  0.00    -0.042 A 
ATOM     15  C16 ZIN A   1      17.989  -1.002  14.253  0.00  0.00     0.011 A 
ATOM     16  C17 ZIN A   1      17.920  -0.489  15.535  0.00  0.00     0.040 A 
ATOM     17  C18 ZIN A   1      17.857   0.881  15.739  0.00  0.00     0.099 A 
ATOM     18  C20 ZIN A   1      17.873   1.745  14.649  0.00  0.00     0.110 A 
ATOM     19  C22 ZIN A   1      17.961   1.229  13.361  0.00  0.00     0.017 A 
ENDROOT
BRANCH  18  20
ATOM     20  O21 ZIN A   1      17.810   3.089  14.841  0.00  0.00    -0.357 OA
ATOM     21  H38 ZIN A   1      16.996   3.388  15.271  0.00  0.00     0.217 HD
ENDBRANCH  18  20
BRANCH  17  22
ATOM     22  O19 ZIN A   1      17.780   1.379  17.002  0.00  0.00    -0.358 OA
ATOM     23  H37 ZIN A   1      17.219   2.162  17.082  0.00  0.00     0.217 HD
ENDBRANCH  17  22
TORSDOF 2
ENDMDL
MODEL 8
REMARK VINA RESULT:      -7.9      1.942      4.517
REMARK  2 active torsions:
REMARK  status: ('A' for Active; 'I' for Inactive)
REMARK    1  A    between atoms: C18_17  and  O19_18 
REMARK    2  A    between atoms: C20_19  and  O21_20 
ROOT
ATOM      1  C1  ZIN A   1      20.028   1.476  12.075  0.00  0.00     0.270 C 
ATOM      2  N2  ZIN A   1      19.851   1.325  10.625  0.00  0.00    -0.066 N 
ATOM      3  H3  ZIN A   1      20.754   1.307  10.176  0.00  0.00     0.280 HD
ATOM      4  C4  ZIN A   1      19.073   2.451  10.109  0.00  0.00     0.240 C 
ATOM      5  C5  ZIN A   1      19.035   2.432   8.589  0.00  0.00     0.067 C 
ATOM      6  C6  ZIN A   1      18.891   1.038   8.046  0.00  0.00    -0.047 A 
ATOM      7  C7  ZIN A   1      18.693   0.881   6.681  0.00  0.00     0.008 A 
ATOM      8  C8  ZIN A   1      18.529  -0.375   6.130  0.00  0.00     0.001 A 
ATOM      9  C9  ZIN A   1      18.566  -1.491   6.940  0.00  0.00     0.013 A 
ATOM     10  C10 ZIN A   1      18.784  -1.345   8.305  0.00  0.00    -0.014 A 
ATOM     11  C11 ZIN A   1      18.941  -0.073   8.861  0.00  0.00    -0.010 A 
ATOM     12  C12 ZIN A   1      19.142   0.067  10.347  0.00  0.00     0.226 C 
ATOM     13  C14 ZIN A   1      19.977  -1.090  10.894  0.00  0.00     0.077 C 
ATOM     14  C15 ZIN A   1      19.409  -2.412  10.456  0.00  0.00    -0.042 A 
ATOM     15  C16 ZIN A   1      19.455  -3.505  11.297  0.00  0.00     0.011 A 
ATOM     16  C17 ZIN A   1      18.952  -4.725  10.881  0.00  0.00     0.040 A 
ATOM     17  C18 ZIN A   1      18.399  -4.861   9.617  0.00  0.00     0.099 A 
ATOM     18  C20 ZIN A   1      18.341  -3.764   8.765  0.00  0.00     0.110 A 
ATOM     19  C22 ZIN A   1      18.830  -2.534   9.189  0.00  0.00     0.017 A 
ENDROOT
BRANCH  18  20
ATOM     20  O21 ZIN A   1      17.801  -3.891   7.523  0.00  0.00    -0.357 OA
ATOM     21  H38 ZIN A   1      17.532  -3.052   7.124  0.00  0.00     0.217 HD
ENDBRANCH  18  20
BRANCH  17  22
ATOM     22  O19 ZIN A   1      17.914  -6.066   9.213  0.00  0.00    -0.358 OA
ATOM     23  H37 ZIN A   1      18.568  -6.624   8.772  0.00  0.00     0.217 HD
ENDBRANCH  17  22
TORSDOF 2
ENDMDL
MODEL 9
REMARK VINA RESULT:      -7.7      3.256      6.176
REMARK  2 active torsions:
REMARK  status: ('A' for Active; 'I' for Inactive)
REMARK    1  A    between atoms: C18_17  and  O19_18 
REMARK    2  A    between atoms: C20_19  and  O21_20 
ROOT
ATOM      1  C1  ZIN A   1      18.131  -4.089   8.378  0.00  0.00     0.270 C 
ATOM      2  N2  ZIN A   1      18.202  -2.640   8.144  0.00  0.00    -0.066 N 
ATOM      3  H3  ZIN A   1      17.268  -2.269   8.052  0.00  0.00     0.280 HD
ATOM      4  C4  ZIN A   1      18.951  -2.381   6.914  0.00  0.00     0.240 C 
ATOM      5  C5  ZIN A   1      18.880  -0.911   6.536  0.00  0.00     0.067 C 
ATOM      6  C6  ZIN A   1      18.971  -0.014   7.738  0.00  0.00    -0.047 A 
ATOM      7  C7  ZIN A   1      19.068   1.355   7.530  0.00  0.00     0.008 A 
ATOM      8  C8  ZIN A   1      19.180   2.226   8.597  0.00  0.00     0.001 A 
ATOM      9  C9  ZIN A   1      19.191   1.735   9.886  0.00  0.00     0.013 A 
ATOM     10  C10 ZIN A   1      19.073   0.367  10.104  0.00  0.00    -0.014 A 
ATOM     11  C11 ZIN A   1      18.969  -0.512   9.023  0.00  0.00    -0.010 A 
ATOM     12  C12 ZIN A   1      18.877  -1.993   9.278  0.00  0.00     0.226 C 
ATOM     13  C14 ZIN A   1      18.073  -2.278  10.545  0.00  0.00     0.077 C 
ATOM     14  C15 ZIN A   1      18.595  -1.470  11.702  0.00  0.00    -0.042 A 
ATOM     15  C16 ZIN A   1      18.600  -1.997  12.977  0.00  0.00     0.011 A 
ATOM     16  C17 ZIN A   1      19.060  -1.243  14.041  0.00  0.00     0.040 A 
ATOM     17  C18 ZIN A   1      19.519   0.049  13.837  0.00  0.00     0.099 A 
ATOM     18  C20 ZIN A   1      19.526   0.588  12.555  0.00  0.00     0.110 A 
ATOM     19  C22 ZIN A   1      19.080  -0.177  11.483  0.00  0.00     0.017 A 
ENDROOT
BRANCH  18  20
ATOM     20  O21 ZIN A   1      19.973   1.855  12.348  0.00  0.00    -0.357 OA
ATOM     21  H38 ZIN A   1      19.307   2.452  11.979  0.00  0.00     0.217 HD
ENDBRANCH  18  20
BRANCH  17  22
ATOM     22  O19 ZIN A   1      19.962   0.789  14.889  0.00  0.00    -0.358 OA
ATOM     23  H37 ZIN A   1      19.961   0.314  15.731  0.00  0.00     0.217 HD
ENDBRANCH  17  22
TORSDOF 2
ENDMDL
