MODEL 1
REMARK VINA RESULT:      -7.4      0.000      0.000
REMARK  7 active torsions:
REMARK  status: ('A' for Active; 'I' for Inactive)
REMARK    1  A    between atoms: C14_12  and  O15_13 
REMARK    2  A    between atoms: O15_13  and  C16_14 
REMARK    3  A    between atoms: C23_20  and  O25_21 
REMARK    4  A    between atoms: O25_21  and  C26_22 
REMARK    5  A    between atoms: C26_22  and  C28_24 
REMARK    6  A    between atoms: C36_31  and  O38_32 
REMARK    7  A    between atoms: O38_32  and  C39_33 
ROOT
ATOM      1  C1  ZIN A   1      19.610  -5.605   9.715  0.00  0.00     0.017 C 
ATOM      2  C2  ZIN A   1      19.494  -4.382  10.169  0.00  0.00    -0.059 C 
ATOM      3  C3  ZIN A   1      20.144  -4.019  11.480  0.00  0.00     0.036 C 
ATOM      4  C4  ZIN A   1      19.121  -3.339  12.389  0.00  0.00     0.010 C 
ATOM      5  C5  ZIN A   1      19.707  -2.102  13.052  0.00  0.00     0.002 A 
ATOM      6  C7  ZIN A   1      20.056  -0.868  12.215  0.00  0.00     0.022 A 
ATOM      7  C9  ZIN A   1      19.959  -0.981  10.731  0.00  0.00    -0.011 C 
ATOM      8  C10 ZIN A   1      19.711  -0.040   9.849  0.00  0.00    -0.016 C 
ATOM      9  C11 ZIN A   1      19.485   1.395  10.291  0.00  0.00     0.052 C 
ATOM     10  C12 ZIN A   1      19.635  -0.304   8.420  0.00  0.00     0.190 C 
ATOM     11  O13 ZIN A   1      20.126   0.530   7.679  0.00  0.00    -0.289 OA
ATOM     12  C14 ZIN A   1      18.954  -1.455   7.767  0.00  0.00     0.144 C 
ATOM     13  C19 ZIN A   1      19.164  -1.395   6.239  0.00  0.00     0.054 C 
ATOM     14  C20 ZIN A   1      19.702  -2.765   5.808  0.00  0.00     0.015 C 
ATOM     15  C22 ZIN A   1      18.827  -3.332   4.688  0.00  0.00     0.012 C 
ATOM     16  C23 ZIN A   1      19.648  -3.703   7.028  0.00  0.00     0.146 C 
ATOM     17  C34 ZIN A   1      19.535  -2.790   8.251  0.00  0.00     0.092 C 
ATOM     18  C36 ZIN A   1      18.709  -3.364   9.384  0.00  0.00     0.170 C 
ATOM     19  C42 ZIN A   1      18.855  -0.837  13.152  0.00  0.00    -0.036 A 
ATOM     20  C43 ZIN A   1      17.457  -0.828  12.538  0.00  0.00     0.016 C 
ATOM     21  C44 ZIN A   1      18.997  -0.011  14.438  0.00  0.00     0.016 C 
ENDROOT
BRANCH  16  22
ATOM     22  O25 ZIN A   1      18.525  -4.604   6.883  0.00  0.00    -0.311 OA
BRANCH  22  23
ATOM     23  C26 ZIN A   1      18.805  -5.895   6.622  0.00  0.00     0.293 C 
ATOM     24  O27 ZIN A   1      19.956  -6.244   6.455  0.00  0.00    -0.259 OA
BRANCH  23  25
ATOM     25  C28 ZIN A   1      17.713  -6.886   6.539  0.00  0.00     0.039 A 
ATOM     26  C33 ZIN A   1      17.705  -7.993   7.390  0.00  0.00     0.017 A 
ATOM     27  C32 ZIN A   1      16.678  -8.912   7.312  0.00  0.00     0.001 A 
ATOM     28  C31 ZIN A   1      15.665  -8.744   6.385  0.00  0.00     0.000 A 
ATOM     29  C30 ZIN A   1      15.670  -7.652   5.535  0.00  0.00     0.001 A 
ATOM     30  C29 ZIN A   1      16.686  -6.723   5.607  0.00  0.00     0.017 A 
ENDBRANCH  23  25
ENDBRANCH  22  23
ENDBRANCH  16  22
BRANCH  12  31
ATOM     31  O15 ZIN A   1      17.524  -1.422   8.025  0.00  0.00    -0.301 OA
BRANCH  31  32
ATOM     32  C16 ZIN A   1      16.899  -0.247   7.840  0.00  0.00     0.256 C 
ATOM     33  C17 ZIN A   1      16.547   0.208   6.447  0.00  0.00     0.126 C 
ATOM     34  O18 ZIN A   1      16.618   0.443   8.791  0.00  0.00    -0.266 OA
ENDBRANCH  31  32
ENDBRANCH  12  31
BRANCH  18  35
ATOM     35  O38 ZIN A   1      17.471  -3.952   8.917  0.00  0.00    -0.311 OA
BRANCH  35  36
ATOM     36  C39 ZIN A   1      16.655  -4.473   9.846  0.00  0.00     0.255 C 
ATOM     37  C40 ZIN A   1      15.851  -5.709   9.536  0.00  0.00     0.126 C 
ATOM     38  O41 ZIN A   1      16.564  -3.950  10.932  0.00  0.00    -0.266 OA
ENDBRANCH  35  36
ENDBRANCH  18  35
TORSDOF 7
ENDMDL
MODEL 2
REMARK VINA RESULT:      -7.4      3.102      7.819
REMARK  7 active torsions:
REMARK  status: ('A' for Active; 'I' for Inactive)
REMARK    1  A    between atoms: C14_12  and  O15_13 
REMARK    2  A    between atoms: O15_13  and  C16_14 
REMARK    3  A    between atoms: C23_20  and  O25_21 
REMARK    4  A    between atoms: O25_21  and  C26_22 
REMARK    5  A    between atoms: C26_22  and  C28_24 
REMARK    6  A    between atoms: C36_31  and  O38_32 
REMARK    7  A    between atoms: O38_32  and  C39_33 
ROOT
ATOM      1  C1  ZIN A   1      16.241  -7.694   8.488  0.00  0.00     0.017 C 
ATOM      2  C2  ZIN A   1      15.685  -7.585   7.308  0.00  0.00    -0.059 C 
ATOM      3  C3  ZIN A   1      14.213  -7.880   7.158  0.00  0.00     0.036 C 
ATOM      4  C4  ZIN A   1      14.003  -8.869   6.012  0.00  0.00     0.010 C 
ATOM      5  C5  ZIN A   1      12.852  -8.437   5.116  0.00  0.00     0.002 A 
ATOM      6  C7  ZIN A   1      12.975  -7.179   4.252  0.00  0.00     0.022 A 
ATOM      7  C9  ZIN A   1      14.175  -6.315   4.443  0.00  0.00    -0.011 C 
ATOM      8  C10 ZIN A   1      14.769  -5.529   3.575  0.00  0.00    -0.016 C 
ATOM      9  C11 ZIN A   1      14.240  -5.399   2.158  0.00  0.00     0.052 C 
ATOM     10  C12 ZIN A   1      15.951  -4.746   3.905  0.00  0.00     0.190 C 
ATOM     11  O13 ZIN A   1      16.008  -3.616   3.452  0.00  0.00    -0.289 OA
ATOM     12  C14 ZIN A   1      17.133  -5.211   4.682  0.00  0.00     0.144 C 
ATOM     13  C19 ZIN A   1      18.137  -4.052   4.862  0.00  0.00     0.054 C 
ATOM     14  C20 ZIN A   1      18.451  -3.962   6.360  0.00  0.00     0.015 C 
ATOM     15  C22 ZIN A   1      19.965  -4.017   6.572  0.00  0.00     0.012 C 
ATOM     16  C23 ZIN A   1      17.789  -5.164   7.059  0.00  0.00     0.146 C 
ATOM     17  C34 ZIN A   1      16.725  -5.678   6.085  0.00  0.00     0.092 C 
ATOM     18  C36 ZIN A   1      16.519  -7.178   6.122  0.00  0.00     0.170 C 
ATOM     19  C42 ZIN A   1      13.005  -8.555   3.599  0.00  0.00    -0.036 A 
ATOM     20  C43 ZIN A   1      14.327  -9.054   3.020  0.00  0.00     0.016 C 
ATOM     21  C44 ZIN A   1      11.758  -8.981   2.812  0.00  0.00     0.016 C 
ENDROOT
BRANCH  16  22
ATOM     22  O25 ZIN A   1      18.802  -6.149   7.368  0.00  0.00    -0.311 OA
BRANCH  22  23
ATOM     23  C26 ZIN A   1      19.435  -6.026   8.551  0.00  0.00     0.293 C 
ATOM     24  O27 ZIN A   1      20.540  -6.506   8.701  0.00  0.00    -0.259 OA
BRANCH  23  25
ATOM     25  C28 ZIN A   1      18.783  -5.306   9.665  0.00  0.00     0.039 A 
ATOM     26  C33 ZIN A   1      17.665  -5.855  10.295  0.00  0.00     0.017 A 
ATOM     27  C32 ZIN A   1      17.064  -5.181  11.338  0.00  0.00     0.001 A 
ATOM     28  C31 ZIN A   1      17.560  -3.958  11.752  0.00  0.00     0.000 A 
ATOM     29  C30 ZIN A   1      18.666  -3.406  11.128  0.00  0.00     0.001 A 
ATOM     30  C29 ZIN A   1      19.279  -4.072  10.088  0.00  0.00     0.017 A 
ENDBRANCH  23  25
ENDBRANCH  22  23
ENDBRANCH  16  22
BRANCH  12  31
ATOM     31  O15 ZIN A   1      17.814  -6.291   3.986  0.00  0.00    -0.301 OA
BRANCH  31  32
ATOM     32  C16 ZIN A   1      17.887  -6.203   2.648  0.00  0.00     0.256 C 
ATOM     33  C17 ZIN A   1      17.353  -7.320   1.789  0.00  0.00     0.126 C 
ATOM     34  O18 ZIN A   1      18.382  -5.228   2.134  0.00  0.00    -0.266 OA
ENDBRANCH  31  32
ENDBRANCH  12  31
BRANCH  18  35
ATOM     35  O38 ZIN A   1      17.772  -7.904   6.132  0.00  0.00    -0.311 OA
BRANCH  35  36
ATOM     36  C39 ZIN A   1      17.711  -9.228   5.926  0.00  0.00     0.255 C 
ATOM     37  C40 ZIN A   1      17.140  -9.767   4.641  0.00  0.00     0.126 C 
ATOM     38  O41 ZIN A   1      18.116  -9.990   6.773  0.00  0.00    -0.266 OA
ENDBRANCH  35  36
ENDBRANCH  18  35
TORSDOF 7
ENDMDL
MODEL 3
REMARK VINA RESULT:      -6.5      1.930      7.211
REMARK  7 active torsions:
REMARK  status: ('A' for Active; 'I' for Inactive)
REMARK    1  A    between atoms: C14_12  and  O15_13 
REMARK    2  A    between atoms: O15_13  and  C16_14 
REMARK    3  A    between atoms: C23_20  and  O25_21 
REMARK    4  A    between atoms: O25_21  and  C26_22 
REMARK    5  A    between atoms: C26_22  and  C28_24 
REMARK    6  A    between atoms: C36_31  and  O38_32 
REMARK    7  A    between atoms: O38_32  and  C39_33 
ROOT
ATOM      1  C1  ZIN A   1      19.933   0.915  10.558  0.00  0.00     0.017 C 
ATOM      2  C2  ZIN A   1      19.589   0.342   9.432  0.00  0.00    -0.059 C 
ATOM      3  C3  ZIN A   1      19.986   0.986   8.127  0.00  0.00     0.036 C 
ATOM      4  C4  ZIN A   1      18.759   1.116   7.226  0.00  0.00     0.010 C 
ATOM      5  C5  ZIN A   1      19.071   0.679   5.802  0.00  0.00     0.002 A 
ATOM      6  C7  ZIN A   1      19.369  -0.789   5.492  0.00  0.00     0.022 A 
ATOM      7  C9  ZIN A   1      19.507  -1.731   6.639  0.00  0.00    -0.011 C 
ATOM      8  C10 ZIN A   1      19.267  -3.022   6.678  0.00  0.00    -0.016 C 
ATOM      9  C11 ZIN A   1      18.788  -3.757   5.439  0.00  0.00     0.052 C 
ATOM     10  C12 ZIN A   1      19.437  -3.817   7.885  0.00  0.00     0.190 C 
ATOM     11  O13 ZIN A   1      19.915  -4.930   7.749  0.00  0.00    -0.289 OA
ATOM     12  C14 ZIN A   1      19.020  -3.436   9.262  0.00  0.00     0.144 C 
ATOM     13  C19 ZIN A   1      19.441  -4.533  10.264  0.00  0.00     0.054 C 
ATOM     14  C20 ZIN A   1      20.215  -3.836  11.390  0.00  0.00     0.015 C 
ATOM     15  C22 ZIN A   1      19.597  -4.201  12.741  0.00  0.00     0.012 C 
ATOM     16  C23 ZIN A   1      20.109  -2.315  11.170  0.00  0.00     0.146 C 
ATOM     17  C34 ZIN A   1      19.696  -2.133   9.706  0.00  0.00     0.092 C 
ATOM     18  C36 ZIN A   1      18.798  -0.940   9.456  0.00  0.00     0.170 C 
ATOM     19  C42 ZIN A   1      18.051  -0.171   5.044  0.00  0.00    -0.036 A 
ATOM     20  C43 ZIN A   1      16.770  -0.606   5.751  0.00  0.00     0.016 C 
ATOM     21  C44 ZIN A   1      17.891   0.119   3.546  0.00  0.00     0.016 C 
ENDROOT
BRANCH  16  22
ATOM     22  O25 ZIN A   1      19.150  -1.767  12.104  0.00  0.00    -0.311 OA
BRANCH  22  23
ATOM     23  C26 ZIN A   1      19.634  -0.994  13.096  0.00  0.00     0.293 C 
ATOM     24  O27 ZIN A   1      20.671  -0.383  12.937  0.00  0.00    -0.259 OA
BRANCH  23  25
ATOM     25  C28 ZIN A   1      18.903  -0.891  14.375  0.00  0.00     0.039 A 
ATOM     26  C33 ZIN A   1      19.289  -1.669  15.468  0.00  0.00     0.017 A 
ATOM     27  C32 ZIN A   1      18.606  -1.564  16.662  0.00  0.00     0.001 A 
ATOM     28  C31 ZIN A   1      17.533  -0.698  16.774  0.00  0.00     0.000 A 
ATOM     29  C30 ZIN A   1      17.141   0.073  15.693  0.00  0.00     0.001 A 
ATOM     30  C29 ZIN A   1      17.820  -0.018  14.496  0.00  0.00     0.017 A 
ENDBRANCH  23  25
ENDBRANCH  22  23
ENDBRANCH  16  22
BRANCH  12  31
ATOM     31  O15 ZIN A   1      17.576  -3.288   9.340  0.00  0.00    -0.301 OA
BRANCH  31  32
ATOM     32  C16 ZIN A   1      16.877  -4.350   9.773  0.00  0.00     0.256 C 
ATOM     33  C17 ZIN A   1      16.408  -5.395   8.792  0.00  0.00     0.126 C 
ATOM     34  O18 ZIN A   1      16.624  -4.468  10.949  0.00  0.00    -0.266 OA
ENDBRANCH  31  32
ENDBRANCH  12  31
BRANCH  18  35
ATOM     35  O38 ZIN A   1      17.732  -0.841  10.430  0.00  0.00    -0.311 OA
BRANCH  35  36
ATOM     36  C39 ZIN A   1      16.951   0.249  10.372  0.00  0.00     0.255 C 
ATOM     37  C40 ZIN A   1      16.919   1.217  11.525  0.00  0.00     0.126 C 
ATOM     38  O41 ZIN A   1      16.273   0.453   9.392  0.00  0.00    -0.266 OA
ENDBRANCH  35  36
ENDBRANCH  18  35
TORSDOF 7
ENDMDL
MODEL 4
REMARK VINA RESULT:      -6.3      7.056     11.609
REMARK  7 active torsions:
REMARK  status: ('A' for Active; 'I' for Inactive)
REMARK    1  A    between atoms: C14_12  and  O15_13 
REMARK    2  A    between atoms: O15_13  and  C16_14 
REMARK    3  A    between atoms: C23_20  and  O25_21 
REMARK    4  A    between atoms: O25_21  and  C26_22 
REMARK    5  A    between atoms: C26_22  and  C28_24 
REMARK    6  A    between atoms: C36_31  and  O38_32 
REMARK    7  A    between atoms: O38_32  and  C39_33 
ROOT
ATOM      1  C1  ZIN A   1      14.981   5.986  14.092  0.00  0.00     0.017 C 
ATOM      2  C2  ZIN A   1      15.357   6.077  15.343  0.00  0.00    -0.059 C 
ATOM      3  C3  ZIN A   1      14.320   6.340  16.406  0.00  0.00     0.036 C 
ATOM      4  C4  ZIN A   1      14.764   7.516  17.275  0.00  0.00     0.010 C 
ATOM      5  C5  ZIN A   1      14.563   7.215  18.753  0.00  0.00     0.002 A 
ATOM      6  C7  ZIN A   1      15.410   6.146  19.446  0.00  0.00     0.022 A 
ATOM      7  C9  ZIN A   1      16.305   5.306  18.600  0.00  0.00    -0.011 C 
ATOM      8  C10 ZIN A   1      17.433   4.717  18.927  0.00  0.00    -0.016 C 
ATOM      9  C11 ZIN A   1      17.987   4.834  20.335  0.00  0.00     0.052 C 
ATOM     10  C12 ZIN A   1      18.211   3.932  17.981  0.00  0.00     0.190 C 
ATOM     11  O13 ZIN A   1      18.721   2.908  18.403  0.00  0.00    -0.289 OA
ATOM     12  C14 ZIN A   1      18.507   4.288  16.566  0.00  0.00     0.144 C 
ATOM     13  C19 ZIN A   1      19.310   3.153  15.893  0.00  0.00     0.054 C 
ATOM     14  C20 ZIN A   1      18.576   2.798  14.594  0.00  0.00     0.015 C 
ATOM     15  C22 ZIN A   1      19.551   2.869  13.417  0.00  0.00     0.012 C 
ATOM     16  C23 ZIN A   1      17.446   3.824  14.389  0.00  0.00     0.146 C 
ATOM     17  C34 ZIN A   1      17.217   4.470  15.758  0.00  0.00     0.092 C 
ATOM     18  C36 ZIN A   1      16.812   5.929  15.699  0.00  0.00     0.170 C 
ATOM     19  C42 ZIN A   1      15.650   7.619  19.749  0.00  0.00    -0.036 A 
ATOM     20  C43 ZIN A   1      16.933   8.265  19.231  0.00  0.00     0.016 C 
ATOM     21  C44 ZIN A   1      15.176   8.137  21.114  0.00  0.00     0.016 C 
ENDROOT
BRANCH  16  22
ATOM     22  O25 ZIN A   1      17.845   4.771  13.371  0.00  0.00    -0.311 OA
BRANCH  22  23
ATOM     23  C26 ZIN A   1      17.236   4.676  12.174  0.00  0.00     0.293 C 
ATOM     24  O27 ZIN A   1      16.372   5.472  11.867  0.00  0.00    -0.259 OA
BRANCH  23  25
ATOM     25  C28 ZIN A   1      17.620   3.603  11.234  0.00  0.00     0.039 A 
ATOM     26  C33 ZIN A   1      18.416   3.894  10.125  0.00  0.00     0.017 A 
ATOM     27  C32 ZIN A   1      18.777   2.886   9.254  0.00  0.00     0.001 A 
ATOM     28  C31 ZIN A   1      18.341   1.592   9.471  0.00  0.00     0.000 A 
ATOM     29  C30 ZIN A   1      17.547   1.297  10.566  0.00  0.00     0.001 A 
ATOM     30  C29 ZIN A   1      17.185   2.293  11.448  0.00  0.00     0.017 A 
ENDBRANCH  23  25
ENDBRANCH  22  23
ENDBRANCH  16  22
BRANCH  12  31
ATOM     31  O15 ZIN A   1      19.304   5.502  16.497  0.00  0.00    -0.301 OA
BRANCH  31  32
ATOM     32  C16 ZIN A   1      20.518   5.404  15.931  0.00  0.00     0.256 C 
ATOM     33  C17 ZIN A   1      20.842   6.208  14.699  0.00  0.00     0.126 C 
ATOM     34  O18 ZIN A   1      21.349   4.670  16.411  0.00  0.00    -0.266 OA
ENDBRANCH  31  32
ENDBRANCH  12  31
BRANCH  18  35
ATOM     35  O38 ZIN A   1      17.625   6.686  14.770  0.00  0.00    -0.311 OA
BRANCH  35  36
ATOM     36  C39 ZIN A   1      17.756   8.000  15.005  0.00  0.00     0.255 C 
ATOM     37  C40 ZIN A   1      17.192   9.001  14.031  0.00  0.00     0.126 C 
ATOM     38  O41 ZIN A   1      18.328   8.381  16.000  0.00  0.00    -0.266 OA
ENDBRANCH  35  36
ENDBRANCH  18  35
TORSDOF 7
ENDMDL
MODEL 5
REMARK VINA RESULT:      -6.1      1.590      7.428
REMARK  7 active torsions:
REMARK  status: ('A' for Active; 'I' for Inactive)
REMARK    1  A    between atoms: C14_12  and  O15_13 
REMARK    2  A    between atoms: O15_13  and  C16_14 
REMARK    3  A    between atoms: C23_20  and  O25_21 
REMARK    4  A    between atoms: O25_21  and  C26_22 
REMARK    5  A    between atoms: C26_22  and  C28_24 
REMARK    6  A    between atoms: C36_31  and  O38_32 
REMARK    7  A    between atoms: O38_32  and  C39_33 
ROOT
ATOM      1  C1  ZIN A   1      19.896  -0.776   7.742  0.00  0.00     0.017 C 
ATOM      2  C2  ZIN A   1      19.319  -1.687   7.000  0.00  0.00    -0.059 C 
ATOM      3  C3  ZIN A   1      19.638  -1.748   5.528  0.00  0.00     0.036 C 
ATOM      4  C4  ZIN A   1      18.340  -1.763   4.721  0.00  0.00     0.010 C 
ATOM      5  C5  ZIN A   1      18.387  -2.812   3.621  0.00  0.00     0.002 A 
ATOM      6  C7  ZIN A   1      18.400  -4.301   3.972  0.00  0.00     0.022 A 
ATOM      7  C9  ZIN A   1      18.534  -4.679   5.409  0.00  0.00    -0.011 C 
ATOM      8  C10 ZIN A   1      18.096  -5.755   6.021  0.00  0.00    -0.016 C 
ATOM      9  C11 ZIN A   1      17.345  -6.829   5.255  0.00  0.00     0.052 C 
ATOM     10  C12 ZIN A   1      18.293  -5.983   7.444  0.00  0.00     0.190 C 
ATOM     11  O13 ZIN A   1      18.563  -7.121   7.787  0.00  0.00    -0.289 OA
ATOM     12  C14 ZIN A   1      18.129  -4.982   8.533  0.00  0.00     0.144 C 
ATOM     13  C19 ZIN A   1      18.496  -5.615   9.893  0.00  0.00     0.054 C 
ATOM     14  C20 ZIN A   1      19.514  -4.682  10.560  0.00  0.00     0.015 C 
ATOM     15  C22 ZIN A   1      19.029  -4.310  11.963  0.00  0.00     0.012 C 
ATOM     16  C23 ZIN A   1      19.627  -3.409   9.700  0.00  0.00     0.146 C 
ATOM     17  C34 ZIN A   1      19.060  -3.781   8.327  0.00  0.00     0.092 C 
ATOM     18  C36 ZIN A   1      18.342  -2.649   7.623  0.00  0.00     0.170 C 
ATOM     19  C42 ZIN A   1      17.152  -3.676   3.363  0.00  0.00    -0.036 A 
ATOM     20  C43 ZIN A   1      15.922  -3.502   4.251  0.00  0.00     0.016 C 
ATOM     21  C44 ZIN A   1      16.844  -4.018   1.899  0.00  0.00     0.016 C 
ENDROOT
BRANCH  16  22
ATOM     22  O25 ZIN A   1      18.901  -2.336  10.345  0.00  0.00    -0.311 OA
BRANCH  22  23
ATOM     23  C26 ZIN A   1      19.604  -1.525  11.160  0.00  0.00     0.293 C 
ATOM     24  O27 ZIN A   1      20.725  -1.178  10.851  0.00  0.00    -0.259 OA
BRANCH  23  25
ATOM     25  C28 ZIN A   1      19.009  -1.059  12.429  0.00  0.00     0.039 A 
ATOM     26  C33 ZIN A   1      17.894  -0.219  12.413  0.00  0.00     0.017 A 
ATOM     27  C32 ZIN A   1      17.339   0.209  13.603  0.00  0.00     0.001 A 
ATOM     28  C31 ZIN A   1      17.892  -0.184  14.808  0.00  0.00     0.000 A 
ATOM     29  C30 ZIN A   1      19.000  -1.013  14.831  0.00  0.00     0.001 A 
ATOM     30  C29 ZIN A   1      19.561  -1.452  13.650  0.00  0.00     0.017 A 
ENDBRANCH  23  25
ENDBRANCH  22  23
ENDBRANCH  16  22
BRANCH  12  31
ATOM     31  O15 ZIN A   1      16.751  -4.525   8.609  0.00  0.00    -0.301 OA
BRANCH  31  32
ATOM     32  C16 ZIN A   1      15.858  -5.369   9.151  0.00  0.00     0.256 C 
ATOM     33  C17 ZIN A   1      14.956  -6.186   8.261  0.00  0.00     0.126 C 
ATOM     34  O18 ZIN A   1      15.778  -5.474  10.352  0.00  0.00    -0.266 OA
ENDBRANCH  31  32
ENDBRANCH  12  31
BRANCH  18  35
ATOM     35  O38 ZIN A   1      17.444  -1.934   8.506  0.00  0.00    -0.311 OA
BRANCH  35  36
ATOM     36  C39 ZIN A   1      17.092  -0.692   8.142  0.00  0.00     0.255 C 
ATOM     37  C40 ZIN A   1      17.324   0.463   9.082  0.00  0.00     0.126 C 
ATOM     38  O41 ZIN A   1      16.589  -0.498   7.060  0.00  0.00    -0.266 OA
ENDBRANCH  35  36
ENDBRANCH  18  35
TORSDOF 7
ENDMDL
MODEL 6
REMARK VINA RESULT:      -5.5      4.362      6.899
REMARK  7 active torsions:
REMARK  status: ('A' for Active; 'I' for Inactive)
REMARK    1  A    between atoms: C14_12  and  O15_13 
REMARK    2  A    between atoms: O15_13  and  C16_14 
REMARK    3  A    between atoms: C23_20  and  O25_21 
REMARK    4  A    between atoms: O25_21  and  C26_22 
REMARK    5  A    between atoms: C26_22  and  C28_24 
REMARK    6  A    between atoms: C36_31  and  O38_32 
REMARK    7  A    between atoms: O38_32  and  C39_33 
ROOT
ATOM      1  C1  ZIN A   1      19.923  -1.110  12.416  0.00  0.00     0.017 C 
ATOM      2  C2  ZIN A   1      19.558  -0.504  13.518  0.00  0.00    -0.059 C 
ATOM      3  C3  ZIN A   1      19.932  -1.108  14.848  0.00  0.00     0.036 C 
ATOM      4  C4  ZIN A   1      18.688  -1.214  15.730  0.00  0.00     0.010 C 
ATOM      5  C5  ZIN A   1      18.974  -0.734  17.145  0.00  0.00     0.002 A 
ATOM      6  C7  ZIN A   1      19.264   0.744  17.417  0.00  0.00     0.022 A 
ATOM      7  C9  ZIN A   1      19.422   1.651  16.245  0.00  0.00    -0.011 C 
ATOM      8  C10 ZIN A   1      19.180   2.940  16.163  0.00  0.00    -0.016 C 
ATOM      9  C11 ZIN A   1      18.678   3.711  17.371  0.00  0.00     0.052 C 
ATOM     10  C12 ZIN A   1      19.371   3.698  14.936  0.00  0.00     0.190 C 
ATOM     11  O13 ZIN A   1      19.845   4.816  15.048  0.00  0.00    -0.289 OA
ATOM     12  C14 ZIN A   1      18.980   3.276  13.564  0.00  0.00     0.144 C 
ATOM     13  C19 ZIN A   1      19.418   4.343  12.537  0.00  0.00     0.054 C 
ATOM     14  C20 ZIN A   1      20.213   3.614  11.447  0.00  0.00     0.015 C 
ATOM     15  C22 ZIN A   1      19.620   3.938  10.074  0.00  0.00     0.012 C 
ATOM     16  C23 ZIN A   1      20.106   2.101  11.711  0.00  0.00     0.146 C 
ATOM     17  C34 ZIN A   1      19.667   1.962  13.171  0.00  0.00     0.092 C 
ATOM     18  C36 ZIN A   1      18.766   0.774  13.441  0.00  0.00     0.170 C 
ATOM     19  C42 ZIN A   1      17.939   0.136  17.859  0.00  0.00    -0.036 A 
ATOM     20  C43 ZIN A   1      16.670   0.547  17.116  0.00  0.00     0.016 C 
ATOM     21  C44 ZIN A   1      17.752  -0.109  19.362  0.00  0.00     0.016 C 
ENDROOT
BRANCH  16  22
ATOM     22  O25 ZIN A   1      19.165   1.523  10.775  0.00  0.00    -0.311 OA
BRANCH  22  23
ATOM     23  C26 ZIN A   1      19.673   0.761   9.788  0.00  0.00     0.293 C 
ATOM     24  O27 ZIN A   1      20.752   0.222   9.932  0.00  0.00    -0.259 OA
BRANCH  23  25
ATOM     25  C28 ZIN A   1      18.918   0.580   8.532  0.00  0.00     0.039 A 
ATOM     26  C33 ZIN A   1      19.253   1.323   7.399  0.00  0.00     0.017 A 
ATOM     27  C32 ZIN A   1      18.547   1.146   6.226  0.00  0.00     0.001 A 
ATOM     28  C31 ZIN A   1      17.501   0.242   6.176  0.00  0.00     0.000 A 
ATOM     29  C30 ZIN A   1      17.160  -0.495   7.297  0.00  0.00     0.001 A 
ATOM     30  C29 ZIN A   1      17.861  -0.331   8.473  0.00  0.00     0.017 A 
ENDBRANCH  23  25
ENDBRANCH  22  23
ENDBRANCH  16  22
BRANCH  12  31
ATOM     31  O15 ZIN A   1      17.538   3.123  13.463  0.00  0.00    -0.301 OA
BRANCH  31  32
ATOM     32  C16 ZIN A   1      16.860   4.112  12.858  0.00  0.00     0.256 C 
ATOM     33  C17 ZIN A   1      16.392   5.302  13.654  0.00  0.00     0.126 C 
ATOM     34  O18 ZIN A   1      16.627   4.047  11.674  0.00  0.00    -0.266 OA
ENDBRANCH  31  32
ENDBRANCH  12  31
BRANCH  18  35
ATOM     35  O38 ZIN A   1      17.718   0.644  12.450  0.00  0.00    -0.311 OA
BRANCH  35  36
ATOM     36  C39 ZIN A   1      16.917  -0.428  12.547  0.00  0.00     0.255 C 
ATOM     37  C40 ZIN A   1      17.002  -1.528  11.521  0.00  0.00     0.126 C 
ATOM     38  O41 ZIN A   1      16.127  -0.511  13.458  0.00  0.00    -0.266 OA
ENDBRANCH  35  36
ENDBRANCH  18  35
TORSDOF 7
ENDMDL
MODEL 7
REMARK VINA RESULT:      -5.4      2.780      8.129
REMARK  7 active torsions:
REMARK  status: ('A' for Active; 'I' for Inactive)
REMARK    1  A    between atoms: C14_12  and  O15_13 
REMARK    2  A    between atoms: O15_13  and  C16_14 
REMARK    3  A    between atoms: C23_20  and  O25_21 
REMARK    4  A    between atoms: O25_21  and  C26_22 
REMARK    5  A    between atoms: C26_22  and  C28_24 
REMARK    6  A    between atoms: C36_31  and  O38_32 
REMARK    7  A    between atoms: O38_32  and  C39_33 
ROOT
ATOM      1  C1  ZIN A   1      15.762  -5.427   8.066  0.00  0.00     0.017 C 
ATOM      2  C2  ZIN A   1      15.257  -6.154   7.101  0.00  0.00    -0.059 C 
ATOM      3  C3  ZIN A   1      13.870  -6.724   7.257  0.00  0.00     0.036 C 
ATOM      4  C4  ZIN A   1      13.895  -8.223   6.961  0.00  0.00     0.010 C 
ATOM      5  C5  ZIN A   1      12.735  -8.628   6.064  0.00  0.00     0.002 A 
ATOM      6  C7  ZIN A   1      12.683  -8.156   4.609  0.00  0.00     0.022 A 
ATOM      7  C9  ZIN A   1      13.702  -7.165   4.158  0.00  0.00    -0.011 C 
ATOM      8  C10 ZIN A   1      14.194  -6.982   2.955  0.00  0.00    -0.016 C 
ATOM      9  C11 ZIN A   1      13.726  -7.832   1.788  0.00  0.00     0.052 C 
ATOM     10  C12 ZIN A   1      15.203  -5.973   2.665  0.00  0.00     0.190 C 
ATOM     11  O13 ZIN A   1      15.086  -5.362   1.617  0.00  0.00    -0.289 OA
ATOM     12  C14 ZIN A   1      16.405  -5.661   3.486  0.00  0.00     0.144 C 
ATOM     13  C19 ZIN A   1      17.181  -4.483   2.860  0.00  0.00     0.054 C 
ATOM     14  C20 ZIN A   1      17.396  -3.449   3.972  0.00  0.00     0.015 C 
ATOM     15  C22 ZIN A   1      18.883  -3.106   4.076  0.00  0.00     0.012 C 
ATOM     16  C23 ZIN A   1      16.918  -4.069   5.298  0.00  0.00     0.146 C 
ATOM     17  C34 ZIN A   1      16.012  -5.241   4.908  0.00  0.00     0.092 C 
ATOM     18  C36 ZIN A   1      16.069  -6.417   5.860  0.00  0.00     0.170 C 
ATOM     19  C42 ZIN A   1      12.986  -9.615   4.924  0.00  0.00    -0.036 A 
ATOM     20  C43 ZIN A   1      14.402 -10.129   4.681  0.00  0.00     0.016 C 
ATOM     21  C44 ZIN A   1      11.875 -10.635   4.640  0.00  0.00     0.016 C 
ENDROOT
BRANCH  16  22
ATOM     22  O25 ZIN A   1      18.069  -4.474   6.075  0.00  0.00    -0.311 OA
BRANCH  22  23
ATOM     23  C26 ZIN A   1      18.545  -3.588   6.971  0.00  0.00     0.293 C 
ATOM     24  O27 ZIN A   1      18.792  -2.450   6.627  0.00  0.00    -0.259 OA
BRANCH  23  25
ATOM     25  C28 ZIN A   1      18.765  -4.001   8.372  0.00  0.00     0.039 A 
ATOM     26  C33 ZIN A   1      18.125  -3.324   9.411  0.00  0.00     0.017 A 
ATOM     27  C32 ZIN A   1      18.330  -3.718  10.718  0.00  0.00     0.001 A 
ATOM     28  C31 ZIN A   1      19.177  -4.775  10.999  0.00  0.00     0.000 A 
ATOM     29  C30 ZIN A   1      19.819  -5.448   9.974  0.00  0.00     0.001 A 
ATOM     30  C29 ZIN A   1      19.618  -5.067   8.663  0.00  0.00     0.017 A 
ENDBRANCH  23  25
ENDBRANCH  22  23
ENDBRANCH  16  22
BRANCH  12  31
ATOM     31  O15 ZIN A   1      17.299  -6.806   3.545  0.00  0.00    -0.301 OA
BRANCH  31  32
ATOM     32  C16 ZIN A   1      17.692  -7.334   2.374  0.00  0.00     0.256 C 
ATOM     33  C17 ZIN A   1      17.284  -8.737   2.005  0.00  0.00     0.126 C 
ATOM     34  O18 ZIN A   1      18.372  -6.683   1.616  0.00  0.00    -0.266 OA
ENDBRANCH  31  32
ENDBRANCH  12  31
BRANCH  18  35
ATOM     35  O38 ZIN A   1      17.427  -6.761   6.225  0.00  0.00    -0.311 OA
BRANCH  35  36
ATOM     36  C39 ZIN A   1      17.636  -8.000   6.696  0.00  0.00     0.255 C 
ATOM     37  C40 ZIN A   1      17.691  -8.244   8.182  0.00  0.00     0.126 C 
ATOM     38  O41 ZIN A   1      17.781  -8.922   5.927  0.00  0.00    -0.266 OA
ENDBRANCH  35  36
ENDBRANCH  18  35
TORSDOF 7
ENDMDL
MODEL 8
REMARK VINA RESULT:      -5.4      2.857      7.596
REMARK  7 active torsions:
REMARK  status: ('A' for Active; 'I' for Inactive)
REMARK    1  A    between atoms: C14_12  and  O15_13 
REMARK    2  A    between atoms: O15_13  and  C16_14 
REMARK    3  A    between atoms: C23_20  and  O25_21 
REMARK    4  A    between atoms: O25_21  and  C26_22 
REMARK    5  A    between atoms: C26_22  and  C28_24 
REMARK    6  A    between atoms: C36_31  and  O38_32 
REMARK    7  A    between atoms: O38_32  and  C39_33 
ROOT
ATOM      1  C1  ZIN A   1      16.891  -4.703   8.743  0.00  0.00     0.017 C 
ATOM      2  C2  ZIN A   1      16.194  -5.448   7.923  0.00  0.00    -0.059 C 
ATOM      3  C3  ZIN A   1      14.874  -6.014   8.384  0.00  0.00     0.036 C 
ATOM      4  C4  ZIN A   1      14.840  -7.519   8.119  0.00  0.00     0.010 C 
ATOM      5  C5  ZIN A   1      13.517  -7.940   7.499  0.00  0.00     0.002 A 
ATOM      6  C7  ZIN A   1      13.151  -7.497   6.080  0.00  0.00     0.022 A 
ATOM      7  C9  ZIN A   1      14.047  -6.517   5.402  0.00  0.00    -0.011 C 
ATOM      8  C10 ZIN A   1      14.269  -6.357   4.118  0.00  0.00    -0.016 C 
ATOM      9  C11 ZIN A   1      13.564  -7.229   3.096  0.00  0.00     0.052 C 
ATOM     10  C12 ZIN A   1      15.189  -5.355   3.599  0.00  0.00     0.190 C 
ATOM     11  O13 ZIN A   1      14.848  -4.765   2.589  0.00  0.00    -0.289 OA
ATOM     12  C14 ZIN A   1      16.538  -5.028   4.137  0.00  0.00     0.144 C 
ATOM     13  C19 ZIN A   1      17.157  -3.863   3.336  0.00  0.00     0.054 C 
ATOM     14  C20 ZIN A   1      17.602  -2.807   4.356  0.00  0.00     0.015 C 
ATOM     15  C22 ZIN A   1      19.076  -2.463   4.131  0.00  0.00     0.012 C 
ATOM     16  C23 ZIN A   1      17.422  -3.401   5.766  0.00  0.00     0.146 C 
ATOM     17  C34 ZIN A   1      16.457  -4.579   5.601  0.00  0.00     0.092 C 
ATOM     18  C36 ZIN A   1      16.721  -5.737   6.542  0.00  0.00     0.170 C 
ATOM     19  C42 ZIN A   1      13.520  -8.950   6.351  0.00  0.00    -0.036 A 
ATOM     20  C43 ZIN A   1      14.854  -9.470   5.820  0.00  0.00     0.016 C 
ATOM     21  C44 ZIN A   1      12.377  -9.974   6.332  0.00  0.00     0.016 C 
ENDROOT
BRANCH  16  22
ATOM     22  O25 ZIN A   1      18.715  -3.791   6.285  0.00  0.00    -0.311 OA
BRANCH  22  23
ATOM     23  C26 ZIN A   1      19.170  -3.121   7.361  0.00  0.00     0.293 C 
ATOM     24  O27 ZIN A   1      19.920  -3.668   8.144  0.00  0.00    -0.259 OA
BRANCH  23  25
ATOM     25  C28 ZIN A   1      18.756  -1.721   7.588  0.00  0.00     0.039 A 
ATOM     26  C33 ZIN A   1      17.873  -1.410   8.623  0.00  0.00     0.017 A 
ATOM     27  C32 ZIN A   1      17.495  -0.100   8.834  0.00  0.00     0.001 A 
ATOM     28  C31 ZIN A   1      17.979   0.903   8.013  0.00  0.00     0.000 A 
ATOM     29  C30 ZIN A   1      18.851   0.601   6.981  0.00  0.00     0.001 A 
ATOM     30  C29 ZIN A   1      19.241  -0.704   6.764  0.00  0.00     0.017 A 
ENDBRANCH  23  25
ENDBRANCH  22  23
ENDBRANCH  16  22
BRANCH  12  31
ATOM     31  O15 ZIN A   1      17.428  -6.172   4.025  0.00  0.00    -0.301 OA
BRANCH  31  32
ATOM     32  C16 ZIN A   1      17.517  -6.759   2.820  0.00  0.00     0.256 C 
ATOM     33  C17 ZIN A   1      18.192  -6.041   1.680  0.00  0.00     0.126 C 
ATOM     34  O18 ZIN A   1      17.057  -7.864   2.651  0.00  0.00    -0.266 OA
ENDBRANCH  31  32
ENDBRANCH  12  31
BRANCH  18  35
ATOM     35  O38 ZIN A   1      18.127  -6.075   6.614  0.00  0.00    -0.311 OA
BRANCH  35  36
ATOM     36  C39 ZIN A   1      18.466  -7.108   7.400  0.00  0.00     0.255 C 
ATOM     37  C40 ZIN A   1      19.384  -6.892   8.575  0.00  0.00     0.126 C 
ATOM     38  O41 ZIN A   1      18.035  -8.212   7.166  0.00  0.00    -0.266 OA
ENDBRANCH  35  36
ENDBRANCH  18  35
TORSDOF 7
ENDMDL
MODEL 9
REMARK VINA RESULT:      -5.3      1.993      4.767
REMARK  7 active torsions:
REMARK  status: ('A' for Active; 'I' for Inactive)
REMARK    1  A    between atoms: C14_12  and  O15_13 
REMARK    2  A    between atoms: O15_13  and  C16_14 
REMARK    3  A    between atoms: C23_20  and  O25_21 
REMARK    4  A    between atoms: O25_21  and  C26_22 
REMARK    5  A    between atoms: C26_22  and  C28_24 
REMARK    6  A    between atoms: C36_31  and  O38_32 
REMARK    7  A    between atoms: O38_32  and  C39_33 
ROOT
ATOM      1  C1  ZIN A   1      17.547  -3.872   4.935  0.00  0.00     0.017 C 
ATOM      2  C2  ZIN A   1      17.773  -3.218   6.047  0.00  0.00    -0.059 C 
ATOM      3  C3  ZIN A   1      17.571  -1.724   6.075  0.00  0.00     0.036 C 
ATOM      4  C4  ZIN A   1      18.816  -1.049   6.651  0.00  0.00     0.010 C 
ATOM      5  C5  ZIN A   1      18.444   0.019   7.668  0.00  0.00     0.002 A 
ATOM      6  C7  ZIN A   1      17.815  -0.375   9.007  0.00  0.00     0.022 A 
ATOM      7  C9  ZIN A   1      17.431  -1.802   9.206  0.00  0.00    -0.011 C 
ATOM      8  C10 ZIN A   1      17.359  -2.486  10.324  0.00  0.00    -0.016 C 
ATOM      9  C11 ZIN A   1      17.680  -1.831  11.655  0.00  0.00     0.052 C 
ATOM     10  C12 ZIN A   1      16.977  -3.890  10.362  0.00  0.00     0.190 C 
ATOM     11  O13 ZIN A   1      16.252  -4.239  11.279  0.00  0.00    -0.289 OA
ATOM     12  C14 ZIN A   1      17.438  -4.959   9.435  0.00  0.00     0.144 C 
ATOM     13  C19 ZIN A   1      16.746  -6.294   9.783  0.00  0.00     0.054 C 
ATOM     14  C20 ZIN A   1      16.132  -6.830   8.483  0.00  0.00     0.015 C 
ATOM     15  C22 ZIN A   1      16.613  -8.262   8.239  0.00  0.00     0.012 C 
ATOM     16  C23 ZIN A   1      16.599  -5.926   7.328  0.00  0.00     0.146 C 
ATOM     17  C34 ZIN A   1      17.078  -4.627   7.982  0.00  0.00     0.092 C 
ATOM     18  C36 ZIN A   1      18.238  -3.962   7.271  0.00  0.00     0.170 C 
ATOM     19  C42 ZIN A   1      19.252   0.128   8.961  0.00  0.00    -0.036 A 
ATOM     20  C43 ZIN A   1      20.377  -0.870   9.224  0.00  0.00     0.016 C 
ATOM     21  C44 ZIN A   1      19.512   1.544   9.494  0.00  0.00     0.016 C 
ENDROOT
BRANCH  16  22
ATOM     22  O25 ZIN A   1      17.637  -6.606   6.584  0.00  0.00    -0.311 OA
BRANCH  22  23
ATOM     23  C26 ZIN A   1      17.320  -7.042   5.350  0.00  0.00     0.293 C 
ATOM     24  O27 ZIN A   1      18.197  -7.260   4.539  0.00  0.00    -0.259 OA
BRANCH  23  25
ATOM     25  C28 ZIN A   1      15.905  -7.256   4.984  0.00  0.00     0.039 A 
ATOM     26  C33 ZIN A   1      15.359  -8.540   5.017  0.00  0.00     0.017 A 
ATOM     27  C32 ZIN A   1      14.034  -8.733   4.680  0.00  0.00     0.001 A 
ATOM     28  C31 ZIN A   1      13.252  -7.659   4.297  0.00  0.00     0.000 A 
ATOM     29  C30 ZIN A   1      13.788  -6.383   4.257  0.00  0.00     0.001 A 
ATOM     30  C29 ZIN A   1      15.109  -6.176   4.597  0.00  0.00     0.017 A 
ENDBRANCH  23  25
ENDBRANCH  22  23
ENDBRANCH  16  22
BRANCH  12  31
ATOM     31  O15 ZIN A   1      18.874  -5.155   9.550  0.00  0.00    -0.301 OA
BRANCH  31  32
ATOM     32  C16 ZIN A   1      19.412  -5.022  10.774  0.00  0.00     0.256 C 
ATOM     33  C17 ZIN A   1      20.495  -4.002  11.014  0.00  0.00     0.126 C 
ATOM     34  O18 ZIN A   1      19.026  -5.719  11.682  0.00  0.00    -0.266 OA
ENDBRANCH  31  32
ENDBRANCH  12  31
BRANCH  18  35
ATOM     35  O38 ZIN A   1      19.273  -4.906   6.908  0.00  0.00    -0.311 OA
BRANCH  35  36
ATOM     36  C39 ZIN A   1      20.543  -4.482   6.992  0.00  0.00     0.255 C 
ATOM     37  C40 ZIN A   1      21.604  -5.385   7.564  0.00  0.00     0.126 C 
ATOM     38  O41 ZIN A   1      20.836  -3.373   6.608  0.00  0.00    -0.266 OA
ENDBRANCH  35  36
ENDBRANCH  18  35
TORSDOF 7
ENDMDL
