MODEL 1
REMARK VINA RESULT:      -7.3      0.000      0.000
REMARK  6 active torsions:
REMARK  status: ('A' for Active; 'I' for Inactive)
REMARK       I    between atoms: N2_2  and  C4_4 
REMARK    1  A    between atoms: C4_4  and  C6_6 
REMARK    2  A    between atoms: C10_9  and  N12_10 
REMARK       I    between atoms: N12_10  and  C13_11 
REMARK    3  A    between atoms: C13_11  and  C15_13 
REMARK       I    between atoms: C15_13  and  N17_15 
REMARK    4  A    between atoms: N17_15  and  C18_16 
REMARK    5  A    between atoms: C25_23  and  N27_24 
REMARK       I    between atoms: N27_24  and  C28_25 
REMARK    6  A    between atoms: C28_25  and  C30_27 
ROOT
ATOM      1  C6  ZIN A   1      16.049   7.672  17.297  0.00  0.00     0.080 C 
ATOM      2  C8  ZIN A   1      14.943   7.841  16.254  0.00  0.00     0.016 C 
ATOM      3  C9  ZIN A   1      15.277   7.006  15.016  0.00  0.00     0.028 C 
ATOM      4  C10 ZIN A   1      16.609   7.476  14.427  0.00  0.00     0.107 C 
ATOM      5  C25 ZIN A   1      17.715   7.307  15.470  0.00  0.00     0.108 C 
ATOM      6  C40 ZIN A   1      17.380   8.142  16.708  0.00  0.00     0.041 C 
ENDROOT
BRANCH   4   7
ATOM      7  N12 ZIN A   1      16.929   6.676  13.242  0.00  0.00    -0.346 N 
ATOM      8  C13 ZIN A   1      16.447   5.424  13.124  0.00  0.00     0.310 C 
ATOM      9  O14 ZIN A   1      15.748   4.958  14.000  0.00  0.00    -0.262 OA
ATOM     10  H51 ZIN A   1      17.488   7.049  12.542  0.00  0.00     0.163 HD
BRANCH   8  11
ATOM     11  C15 ZIN A   1      16.773   4.609  11.915  0.00  0.00     0.315 C 
ATOM     12  O16 ZIN A   1      16.232   4.853  10.856  0.00  0.00    -0.262 OA
ATOM     13  N17 ZIN A   1      17.666   3.603  12.001  0.00  0.00    -0.303 N 
ATOM     14  H52 ZIN A   1      18.152   3.455  12.827  0.00  0.00     0.171 HD
BRANCH  13  15
ATOM     15  C18 ZIN A   1      17.891   2.776  10.903  0.00  0.00     0.130 A 
ATOM     16  N24 ZIN A   1      17.282   1.603  10.830  0.00  0.00    -0.242 NA
ATOM     17  C23 ZIN A   1      17.462   0.792   9.806  0.00  0.00     0.142 A 
ATOM     18  C21 ZIN A   1      18.309   1.137   8.770  0.00  0.00     0.051 A 
ATOM     19  C20 ZIN A   1      18.971   2.357   8.811  0.00  0.00     0.029 A 
ATOM     20 Cl22 ZIN A   1      18.543   0.056   7.431  0.00  0.00    -0.083 Cl
ATOM     21  C19 ZIN A   1      18.755   3.188   9.896  0.00  0.00     0.052 A 
ENDBRANCH  13  15
ENDBRANCH   8  11
ENDBRANCH   4   7
BRANCH   5  22
ATOM     22  N27 ZIN A   1      17.819   5.895  15.848  0.00  0.00    -0.349 N 
ATOM     23  C28 ZIN A   1      18.820   5.138  15.356  0.00  0.00     0.277 C 
ATOM     24  O29 ZIN A   1      19.637   5.627  14.600  0.00  0.00    -0.265 OA
ATOM     25  H56 ZIN A   1      17.167   5.505  16.451  0.00  0.00     0.163 HD
BRANCH  23  26
ATOM     26  C30 ZIN A   1      18.924   3.719  15.735  0.00  0.00     0.166 A 
ATOM     27  S39 ZIN A   1      19.284   3.115  17.349  0.00  0.00    -0.066 SA
ATOM     28  C33 ZIN A   1      19.182   1.507  16.781  0.00  0.00     0.038 A 
ATOM     29  C32 ZIN A   1      18.903   1.509  15.454  0.00  0.00     0.052 A 
ATOM     30  C34 ZIN A   1      19.376   0.256  17.608  0.00  0.00     0.320 C 
ATOM     31  N31 ZIN A   1      18.771   2.708  14.931  0.00  0.00    -0.239 NA
ATOM     32  C38 ZIN A   1      18.761   0.213  14.665  0.00  0.00     0.090 C 
ATOM     33  C37 ZIN A   1      19.384  -0.917  15.488  0.00  0.00     0.278 C 
ATOM     34  N35 ZIN A   1      18.841  -0.889  16.854  0.00  0.00     0.089 N 
ATOM     35  C36 ZIN A   1      19.111  -2.152  17.554  0.00  0.00     0.310 C 
ENDBRANCH  23  26
ENDBRANCH   5  22
BRANCH   1  36
ATOM     36  C4  ZIN A   1      15.720   8.494  18.515  0.00  0.00     0.223 C 
ATOM     37  N2  ZIN A   1      15.920   7.985  19.747  0.00  0.00    -0.360 N 
ATOM     38  C1  ZIN A   1      15.600   8.785  20.931  0.00  0.00     0.152 C 
ATOM     39  C3  ZIN A   1      16.459   6.631  19.901  0.00  0.00     0.152 C 
ATOM     40  O5  ZIN A   1      15.274   9.615  18.388  0.00  0.00    -0.273 OA
ENDBRANCH   1  36
TORSDOF 6
ENDMDL
MODEL 2
REMARK VINA RESULT:      -7.2      3.836      9.131
REMARK  6 active torsions:
REMARK  status: ('A' for Active; 'I' for Inactive)
REMARK       I    between atoms: N2_2  and  C4_4 
REMARK    1  A    between atoms: C4_4  and  C6_6 
REMARK    2  A    between atoms: C10_9  and  N12_10 
REMARK       I    between atoms: N12_10  and  C13_11 
REMARK    3  A    between atoms: C13_11  and  C15_13 
REMARK       I    between atoms: C15_13  and  N17_15 
REMARK    4  A    between atoms: N17_15  and  C18_16 
REMARK    5  A    between atoms: C25_23  and  N27_24 
REMARK       I    between atoms: N27_24  and  C28_25 
REMARK    6  A    between atoms: C28_25  and  C30_27 
ROOT
ATOM      1  C6  ZIN A   1      19.189  -1.768   8.237  0.00  0.00     0.080 C 
ATOM      2  C8  ZIN A   1      19.897  -0.560   7.621  0.00  0.00     0.016 C 
ATOM      3  C9  ZIN A   1      19.573   0.693   8.439  0.00  0.00     0.028 C 
ATOM      4  C10 ZIN A   1      18.061   0.929   8.435  0.00  0.00     0.107 C 
ATOM      5  C25 ZIN A   1      17.354  -0.280   9.050  0.00  0.00     0.108 C 
ATOM      6  C40 ZIN A   1      17.678  -1.531   8.232  0.00  0.00     0.041 C 
ENDROOT
BRANCH   4   7
ATOM      7  N12 ZIN A   1      17.752   2.128   9.218  0.00  0.00    -0.346 N 
ATOM      8  C13 ZIN A   1      18.556   2.494  10.235  0.00  0.00     0.310 C 
ATOM      9  O14 ZIN A   1      19.537   1.832  10.502  0.00  0.00    -0.262 OA
ATOM     10  H51 ZIN A   1      16.967   2.657   9.005  0.00  0.00     0.163 HD
BRANCH   8  11
ATOM     11  C15 ZIN A   1      18.241   3.717  11.033  0.00  0.00     0.315 C 
ATOM     12  O16 ZIN A   1      18.190   4.801  10.489  0.00  0.00    -0.262 OA
ATOM     13  N17 ZIN A   1      18.013   3.616  12.358  0.00  0.00    -0.303 N 
ATOM     14  H52 ZIN A   1      17.980   2.744  12.780  0.00  0.00     0.171 HD
BRANCH  13  15
ATOM     15  C18 ZIN A   1      17.824   4.767  13.121  0.00  0.00     0.130 A 
ATOM     16  N24 ZIN A   1      18.840   5.277  13.799  0.00  0.00    -0.242 NA
ATOM     17  C23 ZIN A   1      18.706   6.368  14.529  0.00  0.00     0.142 A 
ATOM     18  C21 ZIN A   1      17.487   7.013  14.622  0.00  0.00     0.051 A 
ATOM     19  C20 ZIN A   1      16.395   6.505  13.931  0.00  0.00     0.029 A 
ATOM     20 Cl22 ZIN A   1      17.324   8.443  15.593  0.00  0.00    -0.083 Cl
ATOM     21  C19 ZIN A   1      16.570   5.364  13.168  0.00  0.00     0.052 A 
ENDBRANCH  13  15
ENDBRANCH   8  11
ENDBRANCH   4   7
BRANCH   5  22
ATOM     22  N27 ZIN A   1      17.815  -0.465  10.429  0.00  0.00    -0.349 N 
ATOM     23  C28 ZIN A   1      16.988  -0.194  11.458  0.00  0.00     0.277 C 
ATOM     24  O29 ZIN A   1      15.859   0.205  11.242  0.00  0.00    -0.265 OA
ATOM     25  H56 ZIN A   1      18.715  -0.784  10.601  0.00  0.00     0.163 HD
BRANCH  23  26
ATOM     26  C30 ZIN A   1      17.451  -0.380  12.843  0.00  0.00     0.166 A 
ATOM     27  S39 ZIN A   1      18.291  -1.799  13.459  0.00  0.00    -0.066 SA
ATOM     28  C33 ZIN A   1      18.377  -1.088  15.010  0.00  0.00     0.038 A 
ATOM     29  C32 ZIN A   1      17.782   0.130  14.986  0.00  0.00     0.052 A 
ATOM     30  C34 ZIN A   1      19.007  -1.704  16.238  0.00  0.00     0.320 C 
ATOM     31  N31 ZIN A   1      17.300   0.475  13.813  0.00  0.00    -0.239 NA
ATOM     32  C38 ZIN A   1      17.695   1.001  16.233  0.00  0.00     0.090 C 
ATOM     33  C37 ZIN A   1      17.969   0.117  17.453  0.00  0.00     0.278 C 
ATOM     34  N35 ZIN A   1      19.208  -0.645  17.240  0.00  0.00     0.089 N 
ATOM     35  C36 ZIN A   1      19.705  -1.204  18.504  0.00  0.00     0.310 C 
ENDBRANCH  23  26
ENDBRANCH   5  22
BRANCH   1  36
ATOM     36  C4  ZIN A   1      19.508  -3.000   7.431  0.00  0.00     0.223 C 
ATOM     37  N2  ZIN A   1      19.509  -4.212   8.022  0.00  0.00    -0.360 N 
ATOM     38  C1  ZIN A   1      19.819  -5.409   7.238  0.00  0.00     0.152 C 
ATOM     39  C3  ZIN A   1      19.200  -4.330   9.449  0.00  0.00     0.152 C 
ATOM     40  O5  ZIN A   1      19.764  -2.903   6.250  0.00  0.00    -0.273 OA
ENDBRANCH   1  36
TORSDOF 6
ENDMDL
MODEL 3
REMARK VINA RESULT:      -7.1      1.547      1.967
REMARK  6 active torsions:
REMARK  status: ('A' for Active; 'I' for Inactive)
REMARK       I    between atoms: N2_2  and  C4_4 
REMARK    1  A    between atoms: C4_4  and  C6_6 
REMARK    2  A    between atoms: C10_9  and  N12_10 
REMARK       I    between atoms: N12_10  and  C13_11 
REMARK    3  A    between atoms: C13_11  and  C15_13 
REMARK       I    between atoms: C15_13  and  N17_15 
REMARK    4  A    between atoms: N17_15  and  C18_16 
REMARK    5  A    between atoms: C25_23  and  N27_24 
REMARK       I    between atoms: N27_24  and  C28_25 
REMARK    6  A    between atoms: C28_25  and  C30_27 
ROOT
ATOM      1  C6  ZIN A   1      15.787   7.025  15.935  0.00  0.00     0.080 C 
ATOM      2  C8  ZIN A   1      14.694   6.881  14.875  0.00  0.00     0.016 C 
ATOM      3  C9  ZIN A   1      15.096   5.800  13.870  0.00  0.00     0.028 C 
ATOM      4  C10 ZIN A   1      16.412   6.194  13.195  0.00  0.00     0.107 C 
ATOM      5  C25 ZIN A   1      17.505   6.337  14.255  0.00  0.00     0.108 C 
ATOM      6  C40 ZIN A   1      17.102   7.419  15.260  0.00  0.00     0.041 C 
ENDROOT
BRANCH   4   7
ATOM      7  N12 ZIN A   1      16.797   5.158  12.233  0.00  0.00    -0.346 N 
ATOM      8  C13 ZIN A   1      17.234   5.507  11.008  0.00  0.00     0.310 C 
ATOM      9  O14 ZIN A   1      17.311   6.678  10.700  0.00  0.00    -0.262 OA
ATOM     10  H51 ZIN A   1      16.735   4.222  12.478  0.00  0.00     0.163 HD
BRANCH   8  11
ATOM     11  C15 ZIN A   1      17.627   4.451  10.027  0.00  0.00     0.315 C 
ATOM     12  O16 ZIN A   1      17.721   4.723   8.847  0.00  0.00    -0.262 OA
ATOM     13  N17 ZIN A   1      17.878   3.196  10.451  0.00  0.00    -0.303 N 
ATOM     14  H52 ZIN A   1      17.876   2.995  11.400  0.00  0.00     0.171 HD
BRANCH  13  15
ATOM     15  C18 ZIN A   1      18.141   2.188   9.526  0.00  0.00     0.130 A 
ATOM     16  N24 ZIN A   1      17.383   1.102   9.508  0.00  0.00    -0.242 NA
ATOM     17  C23 ZIN A   1      17.593   0.126   8.645  0.00  0.00     0.142 A 
ATOM     18  C21 ZIN A   1      18.627   0.199   7.731  0.00  0.00     0.051 A 
ATOM     19  C20 ZIN A   1      19.448   1.319   7.722  0.00  0.00     0.029 A 
ATOM     20 Cl22 ZIN A   1      18.897  -1.096   6.607  0.00  0.00    -0.083 Cl
ATOM     21  C19 ZIN A   1      19.197   2.329   8.634  0.00  0.00     0.052 A 
ENDBRANCH  13  15
ENDBRANCH   8  11
ENDBRANCH   4   7
BRANCH   5  22
ATOM     22  N27 ZIN A   1      17.678   5.061  14.955  0.00  0.00    -0.349 N 
ATOM     23  C28 ZIN A   1      18.612   4.185  14.536  0.00  0.00     0.277 C 
ATOM     24  O29 ZIN A   1      19.312   4.453  13.578  0.00  0.00    -0.265 OA
ATOM     25  H56 ZIN A   1      17.120   4.848  15.719  0.00  0.00     0.163 HD
BRANCH  23  26
ATOM     26  C30 ZIN A   1      18.785   2.902  15.239  0.00  0.00     0.166 A 
ATOM     27  S39 ZIN A   1      18.813   1.315  14.477  0.00  0.00    -0.066 SA
ATOM     28  C33 ZIN A   1      19.044   0.577  16.000  0.00  0.00     0.038 A 
ATOM     29  C32 ZIN A   1      19.077   1.528  16.967  0.00  0.00     0.052 A 
ATOM     30  C34 ZIN A   1      19.186  -0.906  16.260  0.00  0.00     0.320 C 
ATOM     31  N31 ZIN A   1      18.937   2.757  16.522  0.00  0.00    -0.239 NA
ATOM     32  C38 ZIN A   1      19.263   1.168  18.436  0.00  0.00     0.090 C 
ATOM     33  C37 ZIN A   1      18.968  -0.326  18.602  0.00  0.00     0.278 C 
ATOM     34  N35 ZIN A   1      19.738  -1.092  17.611  0.00  0.00     0.089 N 
ATOM     35  C36 ZIN A   1      19.785  -2.516  17.968  0.00  0.00     0.310 C 
ENDBRANCH  23  26
ENDBRANCH   5  22
BRANCH   1  36
ATOM     36  C4  ZIN A   1      15.390   8.089  16.924  0.00  0.00     0.223 C 
ATOM     37  N2  ZIN A   1      15.002   7.744  18.168  0.00  0.00    -0.360 N 
ATOM     38  C1  ZIN A   1      14.617   8.780  19.129  0.00  0.00     0.152 C 
ATOM     39  C3  ZIN A   1      14.966   6.333  18.557  0.00  0.00     0.152 C 
ATOM     40  O5  ZIN A   1      15.420   9.258  16.601  0.00  0.00    -0.273 OA
ENDBRANCH   1  36
TORSDOF 6
ENDMDL
MODEL 4
REMARK VINA RESULT:      -6.4      4.583      8.208
REMARK  6 active torsions:
REMARK  status: ('A' for Active; 'I' for Inactive)
REMARK       I    between atoms: N2_2  and  C4_4 
REMARK    1  A    between atoms: C4_4  and  C6_6 
REMARK    2  A    between atoms: C10_9  and  N12_10 
REMARK       I    between atoms: N12_10  and  C13_11 
REMARK    3  A    between atoms: C13_11  and  C15_13 
REMARK       I    between atoms: C15_13  and  N17_15 
REMARK    4  A    between atoms: N17_15  and  C18_16 
REMARK    5  A    between atoms: C25_23  and  N27_24 
REMARK       I    between atoms: N27_24  and  C28_25 
REMARK    6  A    between atoms: C28_25  and  C30_27 
ROOT
ATOM      1  C6  ZIN A   1      19.162   1.956  14.809  0.00  0.00     0.080 C 
ATOM      2  C8  ZIN A   1      19.852   0.741  15.431  0.00  0.00     0.016 C 
ATOM      3  C9  ZIN A   1      19.509  -0.512  14.621  0.00  0.00     0.028 C 
ATOM      4  C10 ZIN A   1      17.994  -0.726  14.630  0.00  0.00     0.107 C 
ATOM      5  C25 ZIN A   1      17.304   0.489  14.008  0.00  0.00     0.108 C 
ATOM      6  C40 ZIN A   1      17.647   1.741  14.818  0.00  0.00     0.041 C 
ENDROOT
BRANCH   4   7
ATOM      7  N12 ZIN A   1      17.666  -1.925  13.855  0.00  0.00    -0.346 N 
ATOM      8  C13 ZIN A   1      18.461  -2.308  12.837  0.00  0.00     0.310 C 
ATOM      9  O14 ZIN A   1      19.450  -1.660  12.562  0.00  0.00    -0.262 OA
ATOM     10  H51 ZIN A   1      16.875  -2.443  14.074  0.00  0.00     0.163 HD
BRANCH   8  11
ATOM     11  C15 ZIN A   1      18.126  -3.531  12.047  0.00  0.00     0.315 C 
ATOM     12  O16 ZIN A   1      18.003  -4.600  12.608  0.00  0.00    -0.262 OA
ATOM     13  N17 ZIN A   1      17.962  -3.446  10.712  0.00  0.00    -0.303 N 
ATOM     14  H52 ZIN A   1      17.988  -2.582  10.273  0.00  0.00     0.171 HD
BRANCH  13  15
ATOM     15  C18 ZIN A   1      17.756  -4.602   9.961  0.00  0.00     0.130 A 
ATOM     16  N24 ZIN A   1      16.521  -5.005   9.704  0.00  0.00    -0.242 NA
ATOM     17  C23 ZIN A   1      16.281  -6.089   8.993  0.00  0.00     0.142 A 
ATOM     18  C21 ZIN A   1      17.319  -6.855   8.497  0.00  0.00     0.051 A 
ATOM     19  C20 ZIN A   1      18.629  -6.469   8.748  0.00  0.00     0.029 A 
ATOM     20 Cl22 ZIN A   1      16.988  -8.284   7.568  0.00  0.00    -0.083 Cl
ATOM     21  C19 ZIN A   1      18.848  -5.322   9.492  0.00  0.00     0.052 A 
ENDBRANCH  13  15
ENDBRANCH   8  11
ENDBRANCH   4   7
BRANCH   5  22
ATOM     22  N27 ZIN A   1      17.764   0.659  12.627  0.00  0.00    -0.349 N 
ATOM     23  C28 ZIN A   1      16.956   0.328  11.601  0.00  0.00     0.277 C 
ATOM     24  O29 ZIN A   1      15.843  -0.112  11.821  0.00  0.00    -0.265 OA
ATOM     25  H56 ZIN A   1      18.652   1.010  12.452  0.00  0.00     0.163 HD
BRANCH  23  26
ATOM     26  C30 ZIN A   1      17.419   0.499  10.214  0.00  0.00     0.166 A 
ATOM     27  S39 ZIN A   1      18.576   1.705   9.664  0.00  0.00    -0.066 SA
ATOM     28  C33 ZIN A   1      18.444   1.118   8.065  0.00  0.00     0.038 A 
ATOM     29  C32 ZIN A   1      17.561   0.089   8.029  0.00  0.00     0.052 A 
ATOM     30  C34 ZIN A   1      19.181   1.650   6.857  0.00  0.00     0.320 C 
ATOM     31  N31 ZIN A   1      17.036  -0.213   9.195  0.00  0.00    -0.239 NA
ATOM     32  C38 ZIN A   1      17.229  -0.634   6.730  0.00  0.00     0.090 C 
ATOM     33  C37 ZIN A   1      17.690   0.245   5.564  0.00  0.00     0.278 C 
ATOM     34  N35 ZIN A   1      19.086   0.655   5.777  0.00  0.00     0.089 N 
ATOM     35  C36 ZIN A   1      19.679   1.167   4.535  0.00  0.00     0.310 C 
ENDBRANCH  23  26
ENDBRANCH   5  22
BRANCH   1  36
ATOM     36  C4  ZIN A   1      19.500   3.188  15.606  0.00  0.00     0.223 C 
ATOM     37  N2  ZIN A   1      19.486   4.399  15.015  0.00  0.00    -0.360 N 
ATOM     38  C1  ZIN A   1      19.815   5.597  15.791  0.00  0.00     0.152 C 
ATOM     39  C3  ZIN A   1      19.142   4.517  13.596  0.00  0.00     0.152 C 
ATOM     40  O5  ZIN A   1      19.784   3.090  16.781  0.00  0.00    -0.273 OA
ENDBRANCH   1  36
TORSDOF 6
ENDMDL
MODEL 5
REMARK VINA RESULT:      -6.4      3.229      4.588
REMARK  6 active torsions:
REMARK  status: ('A' for Active; 'I' for Inactive)
REMARK       I    between atoms: N2_2  and  C4_4 
REMARK    1  A    between atoms: C4_4  and  C6_6 
REMARK    2  A    between atoms: C10_9  and  N12_10 
REMARK       I    between atoms: N12_10  and  C13_11 
REMARK    3  A    between atoms: C13_11  and  C15_13 
REMARK       I    between atoms: C15_13  and  N17_15 
REMARK    4  A    between atoms: N17_15  and  C18_16 
REMARK    5  A    between atoms: C25_23  and  N27_24 
REMARK       I    between atoms: N27_24  and  C28_25 
REMARK    6  A    between atoms: C28_25  and  C30_27 
ROOT
ATOM      1  C6  ZIN A   1      18.114   4.010  15.617  0.00  0.00     0.080 C 
ATOM      2  C8  ZIN A   1      17.228   4.882  14.726  0.00  0.00     0.016 C 
ATOM      3  C9  ZIN A   1      17.355   4.421  13.272  0.00  0.00     0.028 C 
ATOM      4  C10 ZIN A   1      18.813   4.546  12.822  0.00  0.00     0.107 C 
ATOM      5  C25 ZIN A   1      19.699   3.674  13.714  0.00  0.00     0.108 C 
ATOM      6  C40 ZIN A   1      19.571   4.136  15.167  0.00  0.00     0.041 C 
ENDROOT
BRANCH   4   7
ATOM      7  N12 ZIN A   1      18.934   4.104  11.431  0.00  0.00    -0.346 N 
ATOM      8  C13 ZIN A   1      18.059   3.211  10.929  0.00  0.00     0.310 C 
ATOM      9  O14 ZIN A   1      17.170   2.773  11.629  0.00  0.00    -0.262 OA
ATOM     10  H51 ZIN A   1      19.645   4.454  10.872  0.00  0.00     0.163 HD
BRANCH   8  11
ATOM     11  C15 ZIN A   1      18.183   2.761   9.510  0.00  0.00     0.315 C 
ATOM     12  O16 ZIN A   1      18.223   3.580   8.615  0.00  0.00    -0.262 OA
ATOM     13  N17 ZIN A   1      18.250   1.446   9.224  0.00  0.00    -0.303 N 
ATOM     14  H52 ZIN A   1      18.292   0.794   9.941  0.00  0.00     0.171 HD
BRANCH  13  15
ATOM     15  C18 ZIN A   1      18.258   1.021   7.897  0.00  0.00     0.130 A 
ATOM     16  N24 ZIN A   1      17.261   0.279   7.440  0.00  0.00    -0.242 NA
ATOM     17  C23 ZIN A   1      17.227  -0.139   6.190  0.00  0.00     0.142 A 
ATOM     18  C21 ZIN A   1      18.245   0.175   5.309  0.00  0.00     0.051 A 
ATOM     19  C20 ZIN A   1      19.311   0.948   5.751  0.00  0.00     0.029 A 
ATOM     20 Cl22 ZIN A   1      18.190  -0.388   3.668  0.00  0.00    -0.083 Cl
ATOM     21  C19 ZIN A   1      19.314   1.377   7.066  0.00  0.00     0.052 A 
ENDBRANCH  13  15
ENDBRANCH   8  11
ENDBRANCH   4   7
BRANCH   5  22
ATOM     22  N27 ZIN A   1      19.273   2.276  13.608  0.00  0.00    -0.349 N 
ATOM     23  C28 ZIN A   1      19.888   1.449  12.739  0.00  0.00     0.277 C 
ATOM     24  O29 ZIN A   1      20.796   1.864  12.043  0.00  0.00    -0.265 OA
ATOM     25  H56 ZIN A   1      18.549   1.946  14.162  0.00  0.00     0.163 HD
BRANCH  23  26
ATOM     26  C30 ZIN A   1      19.461   0.044  12.631  0.00  0.00     0.166 A 
ATOM     27  S39 ZIN A   1      18.162  -0.703  13.555  0.00  0.00    -0.066 SA
ATOM     28  C33 ZIN A   1      18.442  -2.191  12.765  0.00  0.00     0.038 A 
ATOM     29  C32 ZIN A   1      19.467  -2.055  11.886  0.00  0.00     0.052 A 
ATOM     30  C34 ZIN A   1      17.684  -3.479  12.995  0.00  0.00     0.320 C 
ATOM     31  N31 ZIN A   1      19.984  -0.848  11.842  0.00  0.00    -0.239 NA
ATOM     32  C38 ZIN A   1      19.952  -3.224  11.038  0.00  0.00     0.090 C 
ATOM     33  C37 ZIN A   1      19.415  -4.518  11.655  0.00  0.00     0.278 C 
ATOM     34  N35 ZIN A   1      17.967  -4.393  11.878  0.00  0.00     0.089 N 
ATOM     35  C36 ZIN A   1      17.355  -5.709  12.106  0.00  0.00     0.310 C 
ENDBRANCH  23  26
ENDBRANCH   5  22
BRANCH   1  36
ATOM     36  C4  ZIN A   1      17.989   4.465  17.048  0.00  0.00     0.223 C 
ATOM     37  N2  ZIN A   1      18.083   3.570  18.052  0.00  0.00    -0.360 N 
ATOM     38  C1  ZIN A   1      17.960   4.013  19.442  0.00  0.00     0.152 C 
ATOM     39  C3  ZIN A   1      18.307   2.154  17.750  0.00  0.00     0.152 C 
ATOM     40  O5  ZIN A   1      17.803   5.638  17.297  0.00  0.00    -0.273 OA
ENDBRANCH   1  36
TORSDOF 6
ENDMDL
MODEL 6
REMARK VINA RESULT:      -6.3      8.335     14.342
REMARK  6 active torsions:
REMARK  status: ('A' for Active; 'I' for Inactive)
REMARK       I    between atoms: N2_2  and  C4_4 
REMARK    1  A    between atoms: C4_4  and  C6_6 
REMARK    2  A    between atoms: C10_9  and  N12_10 
REMARK       I    between atoms: N12_10  and  C13_11 
REMARK    3  A    between atoms: C13_11  and  C15_13 
REMARK       I    between atoms: C15_13  and  N17_15 
REMARK    4  A    between atoms: N17_15  and  C18_16 
REMARK    5  A    between atoms: C25_23  and  N27_24 
REMARK       I    between atoms: N27_24  and  C28_25 
REMARK    6  A    between atoms: C28_25  and  C30_27 
ROOT
ATOM      1  C6  ZIN A   1      15.546  -8.242   5.641  0.00  0.00     0.080 C 
ATOM      2  C8  ZIN A   1      14.549  -8.285   6.800  0.00  0.00     0.016 C 
ATOM      3  C9  ZIN A   1      15.032  -7.365   7.923  0.00  0.00     0.028 C 
ATOM      4  C10 ZIN A   1      16.404  -7.834   8.413  0.00  0.00     0.107 C 
ATOM      5  C25 ZIN A   1      17.401  -7.790   7.253  0.00  0.00     0.108 C 
ATOM      6  C40 ZIN A   1      16.917  -8.711   6.131  0.00  0.00     0.041 C 
ENDROOT
BRANCH   4   7
ATOM      7  N12 ZIN A   1      16.867  -6.952   9.488  0.00  0.00    -0.346 N 
ATOM      8  C13 ZIN A   1      16.387  -5.698   9.584  0.00  0.00     0.310 C 
ATOM      9  O14 ZIN A   1      15.571  -5.297   8.780  0.00  0.00    -0.262 OA
ATOM     10  H51 ZIN A   1      17.519  -7.273  10.130  0.00  0.00     0.163 HD
BRANCH   8  11
ATOM     11  C15 ZIN A   1      16.858  -4.799  10.681  0.00  0.00     0.315 C 
ATOM     12  O16 ZIN A   1      16.621  -5.080  11.838  0.00  0.00    -0.262 OA
ATOM     13  N17 ZIN A   1      17.544  -3.678  10.385  0.00  0.00    -0.303 N 
ATOM     14  H52 ZIN A   1      17.797  -3.491   9.468  0.00  0.00     0.171 HD
BRANCH  13  15
ATOM     15  C18 ZIN A   1      17.891  -2.786  11.398  0.00  0.00     0.130 A 
ATOM     16  N24 ZIN A   1      17.098  -1.762  11.669  0.00  0.00    -0.242 NA
ATOM     17  C23 ZIN A   1      17.385  -0.898  12.623  0.00  0.00     0.142 A 
ATOM     18  C21 ZIN A   1      18.541  -1.026  13.371  0.00  0.00     0.051 A 
ATOM     19  C20 ZIN A   1      19.402  -2.085  13.114  0.00  0.00     0.029 A 
ATOM     20 Cl22 ZIN A   1      18.911   0.122  14.619  0.00  0.00    -0.083 Cl
ATOM     21  C19 ZIN A   1      19.069  -2.978  12.111  0.00  0.00     0.052 A 
ENDBRANCH  13  15
ENDBRANCH   8  11
ENDBRANCH   4   7
BRANCH   5  22
ATOM     22  N27 ZIN A   1      17.505  -6.419   6.749  0.00  0.00    -0.349 N 
ATOM     23  C28 ZIN A   1      18.560  -5.653   7.093  0.00  0.00     0.277 C 
ATOM     24  O29 ZIN A   1      19.425  -6.100   7.821  0.00  0.00    -0.265 OA
ATOM     25  H56 ZIN A   1      16.815  -6.062   6.168  0.00  0.00     0.163 HD
BRANCH  23  26
ATOM     26  C30 ZIN A   1      18.664  -4.274   6.587  0.00  0.00     0.166 A 
ATOM     27  S39 ZIN A   1      18.774  -3.812   4.892  0.00  0.00    -0.066 SA
ATOM     28  C33 ZIN A   1      18.844  -2.164   5.334  0.00  0.00     0.038 A 
ATOM     29  C32 ZIN A   1      18.793  -2.052   6.685  0.00  0.00     0.052 A 
ATOM     30  C34 ZIN A   1      18.953  -0.991   4.386  0.00  0.00     0.320 C 
ATOM     31  N31 ZIN A   1      18.696  -3.199   7.319  0.00  0.00    -0.239 NA
ATOM     32  C38 ZIN A   1      18.846  -0.696   7.377  0.00  0.00     0.090 C 
ATOM     33  C37 ZIN A   1      19.374   0.332   6.372  0.00  0.00     0.278 C 
ATOM     34  N35 ZIN A   1      18.607   0.236   5.121  0.00  0.00     0.089 N 
ATOM     35  C36 ZIN A   1      18.813   1.426   4.285  0.00  0.00     0.310 C 
ENDBRANCH  23  26
ENDBRANCH   5  22
BRANCH   1  36
ATOM     36  C4  ZIN A   1      15.070  -9.148   4.536  0.00  0.00     0.223 C 
ATOM     37  N2  ZIN A   1      14.774  -8.637   3.324  0.00  0.00    -0.360 N 
ATOM     38  C1  ZIN A   1      14.311  -9.518   2.250  0.00  0.00     0.152 C 
ATOM     39  C3  ZIN A   1      14.915  -7.199   3.083  0.00  0.00     0.152 C 
ATOM     40  O5  ZIN A   1      14.954 -10.339   4.735  0.00  0.00    -0.273 OA
ENDBRANCH   1  36
TORSDOF 6
ENDMDL
MODEL 7
REMARK VINA RESULT:      -5.8      5.552     11.054
REMARK  6 active torsions:
REMARK  status: ('A' for Active; 'I' for Inactive)
REMARK       I    between atoms: N2_2  and  C4_4 
REMARK    1  A    between atoms: C4_4  and  C6_6 
REMARK    2  A    between atoms: C10_9  and  N12_10 
REMARK       I    between atoms: N12_10  and  C13_11 
REMARK    3  A    between atoms: C13_11  and  C15_13 
REMARK       I    between atoms: C15_13  and  N17_15 
REMARK    4  A    between atoms: N17_15  and  C18_16 
REMARK    5  A    between atoms: C25_23  and  N27_24 
REMARK       I    between atoms: N27_24  and  C28_25 
REMARK    6  A    between atoms: C28_25  and  C30_27 
ROOT
ATOM      1  C6  ZIN A   1      18.164  -3.701   7.645  0.00  0.00     0.080 C 
ATOM      2  C8  ZIN A   1      17.330  -4.562   8.596  0.00  0.00     0.016 C 
ATOM      3  C9  ZIN A   1      17.434  -4.002  10.016  0.00  0.00     0.028 C 
ATOM      4  C10 ZIN A   1      18.898  -4.018  10.465  0.00  0.00     0.107 C 
ATOM      5  C25 ZIN A   1      19.732  -3.157   9.514  0.00  0.00     0.108 C 
ATOM      6  C40 ZIN A   1      19.626  -3.717   8.094  0.00  0.00     0.041 C 
ENDROOT
BRANCH   4   7
ATOM      7  N12 ZIN A   1      18.998  -3.481  11.825  0.00  0.00    -0.346 N 
ATOM      8  C13 ZIN A   1      18.128  -2.542  12.244  0.00  0.00     0.310 C 
ATOM      9  O14 ZIN A   1      17.261  -2.139  11.495  0.00  0.00    -0.262 OA
ATOM     10  H51 ZIN A   1      19.690  -3.803  12.422  0.00  0.00     0.163 HD
BRANCH   8  11
ATOM     11  C15 ZIN A   1      18.230  -1.995  13.630  0.00  0.00     0.315 C 
ATOM     12  O16 ZIN A   1      18.528  -2.728  14.551  0.00  0.00    -0.262 OA
ATOM     13  N17 ZIN A   1      17.991  -0.689  13.859  0.00  0.00    -0.303 N 
ATOM     14  H52 ZIN A   1      17.825  -0.088  13.116  0.00  0.00     0.171 HD
BRANCH  13  15
ATOM     15  C18 ZIN A   1      17.981  -0.200  15.164  0.00  0.00     0.130 A 
ATOM     16  N24 ZIN A   1      17.006  -0.552  15.988  0.00  0.00    -0.242 NA
ATOM     17  C23 ZIN A   1      16.962  -0.117  17.232  0.00  0.00     0.142 A 
ATOM     18  C21 ZIN A   1      17.933   0.737  17.720  0.00  0.00     0.051 A 
ATOM     19  C20 ZIN A   1      18.970   1.133  16.885  0.00  0.00     0.029 A 
ATOM     20 Cl22 ZIN A   1      17.859   1.307  19.357  0.00  0.00    -0.083 Cl
ATOM     21  C19 ZIN A   1      18.992   0.654  15.587  0.00  0.00     0.052 A 
ENDBRANCH  13  15
ENDBRANCH   8  11
ENDBRANCH   4   7
BRANCH   5  22
ATOM     22  N27 ZIN A   1      19.230  -1.780   9.534  0.00  0.00    -0.349 N 
ATOM     23  C28 ZIN A   1      19.867  -0.841  10.260  0.00  0.00     0.277 C 
ATOM     24  O29 ZIN A   1      20.860  -1.136  10.899  0.00  0.00    -0.265 OA
ATOM     25  H56 ZIN A   1      18.438  -1.545   9.024  0.00  0.00     0.163 HD
BRANCH  23  26
ATOM     26  C30 ZIN A   1      19.363   0.542  10.280  0.00  0.00     0.166 A 
ATOM     27  S39 ZIN A   1      19.151   1.574   8.870  0.00  0.00    -0.066 SA
ATOM     28  C33 ZIN A   1      18.574   2.836   9.867  0.00  0.00     0.038 A 
ATOM     29  C32 ZIN A   1      18.580   2.432  11.162  0.00  0.00     0.052 A 
ATOM     30  C34 ZIN A   1      18.126   4.203   9.404  0.00  0.00     0.320 C 
ATOM     31  N31 ZIN A   1      19.007   1.202  11.343  0.00  0.00    -0.239 NA
ATOM     32  C38 ZIN A   1      18.125   3.352  12.288  0.00  0.00     0.090 C 
ATOM     33  C37 ZIN A   1      18.113   4.788  11.755  0.00  0.00     0.278 C 
ATOM     34  N35 ZIN A   1      17.364   4.837  10.491  0.00  0.00     0.089 N 
ATOM     35  C36 ZIN A   1      17.005   6.219  10.146  0.00  0.00     0.310 C 
ENDBRANCH  23  26
ENDBRANCH   5  22
BRANCH   1  36
ATOM     36  C4  ZIN A   1      18.061  -4.253   6.248  0.00  0.00     0.223 C 
ATOM     37  N2  ZIN A   1      18.087  -3.419   5.189  0.00  0.00    -0.360 N 
ATOM     38  C1  ZIN A   1      17.987  -3.956   3.831  0.00  0.00     0.152 C 
ATOM     39  C3  ZIN A   1      18.217  -1.975   5.399  0.00  0.00     0.152 C 
ATOM     40  O5  ZIN A   1      17.954  -5.449   6.074  0.00  0.00    -0.273 OA
ENDBRANCH   1  36
TORSDOF 6
ENDMDL
MODEL 8
REMARK VINA RESULT:      -5.0      5.453      7.777
REMARK  6 active torsions:
REMARK  status: ('A' for Active; 'I' for Inactive)
REMARK       I    between atoms: N2_2  and  C4_4 
REMARK    1  A    between atoms: C4_4  and  C6_6 
REMARK    2  A    between atoms: C10_9  and  N12_10 
REMARK       I    between atoms: N12_10  and  C13_11 
REMARK    3  A    between atoms: C13_11  and  C15_13 
REMARK       I    between atoms: C15_13  and  N17_15 
REMARK    4  A    between atoms: N17_15  and  C18_16 
REMARK    5  A    between atoms: C25_23  and  N27_24 
REMARK       I    between atoms: N27_24  and  C28_25 
REMARK    6  A    between atoms: C28_25  and  C30_27 
ROOT
ATOM      1  C6  ZIN A   1      18.094  -0.664  15.407  0.00  0.00     0.080 C 
ATOM      2  C8  ZIN A   1      17.377   0.626  15.007  0.00  0.00     0.016 C 
ATOM      3  C9  ZIN A   1      17.479   0.818  13.492  0.00  0.00     0.028 C 
ATOM      4  C10 ZIN A   1      18.952   0.907  13.087  0.00  0.00     0.107 C 
ATOM      5  C25 ZIN A   1      19.670  -0.383  13.488  0.00  0.00     0.108 C 
ATOM      6  C40 ZIN A   1      19.567  -0.575  15.003  0.00  0.00     0.041 C 
ENDROOT
BRANCH   4   7
ATOM      7  N12 ZIN A   1      19.050   1.090  11.637  0.00  0.00    -0.346 N 
ATOM      8  C13 ZIN A   1      18.015   0.755  10.844  0.00  0.00     0.310 C 
ATOM      9  O14 ZIN A   1      16.999   0.302  11.331  0.00  0.00    -0.262 OA
ATOM     10  H51 ZIN A   1      19.862   1.453  11.248  0.00  0.00     0.163 HD
BRANCH   8  11
ATOM     11  C15 ZIN A   1      18.114   0.943   9.365  0.00  0.00     0.315 C 
ATOM     12  O16 ZIN A   1      18.127   2.062   8.896  0.00  0.00    -0.262 OA
ATOM     13  N17 ZIN A   1      18.190  -0.130   8.554  0.00  0.00    -0.303 N 
ATOM     14  H52 ZIN A   1      18.254  -1.021   8.931  0.00  0.00     0.171 HD
BRANCH  13  15
ATOM     15  C18 ZIN A   1      18.176   0.040   7.171  0.00  0.00     0.130 A 
ATOM     16  N24 ZIN A   1      19.279   0.423   6.546  0.00  0.00    -0.242 NA
ATOM     17  C23 ZIN A   1      19.311   0.590   5.238  0.00  0.00     0.142 A 
ATOM     18  C21 ZIN A   1      18.181   0.382   4.470  0.00  0.00     0.051 A 
ATOM     19  C20 ZIN A   1      17.003  -0.015   5.088  0.00  0.00     0.029 A 
ATOM     20 Cl22 ZIN A   1      18.235   0.614   2.750  0.00  0.00    -0.083 Cl
ATOM     21  C19 ZIN A   1      17.003  -0.188   6.461  0.00  0.00     0.052 A 
ENDBRANCH  13  15
ENDBRANCH   8  11
ENDBRANCH   4   7
BRANCH   5  22
ATOM     22  N27 ZIN A   1      19.045  -1.521  12.809  0.00  0.00    -0.349 N 
ATOM     23  C28 ZIN A   1      19.592  -2.016  11.680  0.00  0.00     0.277 C 
ATOM     24  O29 ZIN A   1      20.604  -1.517  11.226  0.00  0.00    -0.265 OA
ATOM     25  H56 ZIN A   1      18.238  -1.919  13.171  0.00  0.00     0.163 HD
BRANCH  23  26
ATOM     26  C30 ZIN A   1      18.963  -3.159  10.997  0.00  0.00     0.166 A 
ATOM     27  S39 ZIN A   1      17.466  -3.944  11.485  0.00  0.00    -0.066 SA
ATOM     28  C33 ZIN A   1      17.597  -5.032  10.175  0.00  0.00     0.038 A 
ATOM     29  C32 ZIN A   1      18.725  -4.763   9.471  0.00  0.00     0.052 A 
ATOM     30  C34 ZIN A   1      16.624  -6.138   9.834  0.00  0.00     0.320 C 
ATOM     31  N31 ZIN A   1      19.428  -3.756   9.939  0.00  0.00    -0.239 NA
ATOM     32  C38 ZIN A   1      19.115  -5.580   8.245  0.00  0.00     0.090 C 
ATOM     33  C37 ZIN A   1      18.313  -6.884   8.265  0.00  0.00     0.278 C 
ATOM     34  N35 ZIN A   1      16.887  -6.582   8.456  0.00  0.00     0.089 N 
ATOM     35  C36 ZIN A   1      16.053  -7.740   8.108  0.00  0.00     0.310 C 
ENDBRANCH  23  26
ENDBRANCH   5  22
BRANCH   1  36
ATOM     36  C4  ZIN A   1      17.993  -0.852  16.898  0.00  0.00     0.223 C 
ATOM     37  N2  ZIN A   1      18.549   0.050  17.732  0.00  0.00    -0.360 N 
ATOM     38  C1  ZIN A   1      18.450  -0.134  19.181  0.00  0.00     0.152 C 
ATOM     39  C3  ZIN A   1      19.253   1.213  17.186  0.00  0.00     0.152 C 
ATOM     40  O5  ZIN A   1      17.410  -1.816  17.350  0.00  0.00    -0.273 OA
ENDBRANCH   1  36
TORSDOF 6
ENDMDL
MODEL 9
REMARK VINA RESULT:      -4.7      5.616     11.480
REMARK  6 active torsions:
REMARK  status: ('A' for Active; 'I' for Inactive)
REMARK       I    between atoms: N2_2  and  C4_4 
REMARK    1  A    between atoms: C4_4  and  C6_6 
REMARK    2  A    between atoms: C10_9  and  N12_10 
REMARK       I    between atoms: N12_10  and  C13_11 
REMARK    3  A    between atoms: C13_11  and  C15_13 
REMARK       I    between atoms: C15_13  and  N17_15 
REMARK    4  A    between atoms: N17_15  and  C18_16 
REMARK    5  A    between atoms: C25_23  and  N27_24 
REMARK       I    between atoms: N27_24  and  C28_25 
REMARK    6  A    between atoms: C28_25  and  C30_27 
ROOT
ATOM      1  C6  ZIN A   1      17.603  -5.326   8.878  0.00  0.00     0.080 C 
ATOM      2  C8  ZIN A   1      16.783  -5.622  10.134  0.00  0.00     0.016 C 
ATOM      3  C9  ZIN A   1      17.127  -4.601  11.221  0.00  0.00     0.028 C 
ATOM      4  C10 ZIN A   1      18.618  -4.692  11.553  0.00  0.00     0.107 C 
ATOM      5  C25 ZIN A   1      19.439  -4.396  10.296  0.00  0.00     0.108 C 
ATOM      6  C40 ZIN A   1      19.094  -5.417   9.210  0.00  0.00     0.041 C 
ENDROOT
BRANCH   4   7
ATOM      7  N12 ZIN A   1      18.948  -3.715  12.593  0.00  0.00    -0.346 N 
ATOM      8  C13 ZIN A   1      18.210  -2.596  12.724  0.00  0.00     0.310 C 
ATOM      9  O14 ZIN A   1      17.271  -2.396  11.980  0.00  0.00    -0.262 OA
ATOM     10  H51 ZIN A   1      19.698  -3.874  13.187  0.00  0.00     0.163 HD
BRANCH   8  11
ATOM     11  C15 ZIN A   1      18.546  -1.599  13.785  0.00  0.00     0.315 C 
ATOM     12  O16 ZIN A   1      19.580  -1.706  14.412  0.00  0.00    -0.262 OA
ATOM     13  N17 ZIN A   1      17.701  -0.582  14.046  0.00  0.00    -0.303 N 
ATOM     14  H52 ZIN A   1      16.912  -0.454  13.498  0.00  0.00     0.171 HD
BRANCH  13  15
ATOM     15  C18 ZIN A   1      17.961   0.285  15.105  0.00  0.00     0.130 A 
ATOM     16  N24 ZIN A   1      18.663   1.387  14.893  0.00  0.00    -0.242 NA
ATOM     17  C23 ZIN A   1      18.927   2.238  15.866  0.00  0.00     0.142 A 
ATOM     18  C21 ZIN A   1      18.486   2.000  17.154  0.00  0.00     0.051 A 
ATOM     19  C20 ZIN A   1      17.751   0.852  17.419  0.00  0.00     0.029 A 
ATOM     20 Cl22 ZIN A   1      18.847   3.124  18.426  0.00  0.00    -0.083 Cl
ATOM     21  C19 ZIN A   1      17.485  -0.017  16.376  0.00  0.00     0.052 A 
ENDBRANCH  13  15
ENDBRANCH   8  11
ENDBRANCH   4   7
BRANCH   5  22
ATOM     22  N27 ZIN A   1      19.127  -3.048   9.815  0.00  0.00    -0.349 N 
ATOM     23  C28 ZIN A   1      19.868  -1.998  10.223  0.00  0.00     0.277 C 
ATOM     24  O29 ZIN A   1      20.796  -2.171  10.991  0.00  0.00    -0.265 OA
ATOM     25  H56 ZIN A   1      18.387  -2.910   9.203  0.00  0.00     0.163 HD
BRANCH  23  26
ATOM     26  C30 ZIN A   1      19.554  -0.643   9.741  0.00  0.00     0.166 A 
ATOM     27  S39 ZIN A   1      19.847  -0.045   8.112  0.00  0.00    -0.066 SA
ATOM     28  C33 ZIN A   1      19.196   1.475   8.541  0.00  0.00     0.038 A 
ATOM     29  C32 ZIN A   1      18.816   1.456   9.843  0.00  0.00     0.052 A 
ATOM     30  C34 ZIN A   1      19.061   2.675   7.632  0.00  0.00     0.320 C 
ATOM     31  N31 ZIN A   1      19.021   0.308  10.450  0.00  0.00    -0.239 NA
ATOM     32  C38 ZIN A   1      18.205   2.679  10.515  0.00  0.00     0.090 C 
ATOM     33  C37 ZIN A   1      18.512   3.903   9.648  0.00  0.00     0.278 C 
ATOM     34  N35 ZIN A   1      18.129   3.629   8.255  0.00  0.00     0.089 N 
ATOM     35  C36 ZIN A   1      18.049   4.872   7.476  0.00  0.00     0.310 C 
ENDBRANCH  23  26
ENDBRANCH   5  22
BRANCH   1  36
ATOM     36  C4  ZIN A   1      17.264  -6.331   7.808  0.00  0.00     0.223 C 
ATOM     37  N2  ZIN A   1      17.355  -5.989   6.507  0.00  0.00    -0.360 N 
ATOM     38  C1  ZIN A   1      17.024  -6.967   5.469  0.00  0.00     0.152 C 
ATOM     39  C3  ZIN A   1      17.784  -4.639   6.134  0.00  0.00     0.152 C 
ATOM     40  O5  ZIN A   1      16.909  -7.449   8.118  0.00  0.00    -0.273 OA
ENDBRANCH   1  36
TORSDOF 6
ENDMDL
