MODEL 1
REMARK VINA RESULT:      -8.3      0.000      0.000
REMARK  4 active torsions:
REMARK  status: ('A' for Active; 'I' for Inactive)
REMARK    1  A    between atoms: C2_2  and  C4_4 
REMARK    2  A    between atoms: C4_4  and  C5_5 
REMARK    3  A    between atoms: C5_5  and  C7_6 
REMARK    4  A    between atoms: C5_5  and  C13_12 
ROOT
ATOM      1  C13 ZIN A   1      18.055   0.139  13.041  0.00  0.00     0.064 A 
ATOM      2  C14 ZIN A   1      18.856   1.217  13.297  0.00  0.00     0.133 A 
ATOM      3  O15 ZIN A   1      19.829   1.155  14.236  0.00  0.00    -0.190 OA
ATOM      4  C16 ZIN A   1      18.630   2.446  12.521  0.00  0.00     0.035 A 
ATOM      5  C17 ZIN A   1      19.411   3.584  12.730  0.00  0.00     0.017 A 
ATOM      6  C18 ZIN A   1      19.174   4.719  11.986  0.00  0.00     0.001 A 
ATOM      7  C19 ZIN A   1      18.165   4.734  11.035  0.00  0.00     0.003 A 
ATOM      8  C20 ZIN A   1      17.386   3.616  10.817  0.00  0.00     0.038 A 
ATOM      9  C21 ZIN A   1      17.609   2.461  11.556  0.00  0.00     0.092 A 
ATOM     10  O22 ZIN A   1      16.856   1.358  11.357  0.00  0.00    -0.274 OA
ATOM     11  C23 ZIN A   1      17.060   0.230  12.057  0.00  0.00     0.298 A 
ATOM     12  O24 ZIN A   1      16.352  -0.738  11.838  0.00  0.00    -0.259 OA
ENDROOT
BRANCH   1  13
ATOM     13  C5  ZIN A   1      18.246  -1.144  13.807  0.00  0.00     0.067 C 
BRANCH  13  14
ATOM     14  C4  ZIN A   1      19.587  -1.774  13.423  0.00  0.00     0.092 C 
BRANCH  14  15
ATOM     15  C2  ZIN A   1      19.464  -2.432  12.072  0.00  0.00     0.124 C 
ATOM     16  C1  ZIN A   1      18.531  -3.601  11.885  0.00  0.00     0.091 C 
ATOM     17  O3  ZIN A   1      20.114  -2.023  11.140  0.00  0.00    -0.298 OA
ENDBRANCH  14  15
ENDBRANCH  13  14
BRANCH  13  18
ATOM     18  C7  ZIN A   1      18.234  -0.852  15.286  0.00  0.00    -0.049 A 
ATOM     19  C12 ZIN A   1      19.250  -1.332  16.092  0.00  0.00     0.008 A 
ATOM     20  C11 ZIN A   1      19.241  -1.062  17.449  0.00  0.00     0.001 A 
ATOM     21  C10 ZIN A   1      18.213  -0.320  17.998  0.00  0.00     0.000 A 
ATOM     22  C9  ZIN A   1      17.196   0.156  17.193  0.00  0.00     0.001 A 
ATOM     23  C8  ZIN A   1      17.206  -0.111  15.836  0.00  0.00     0.008 A 
ENDBRANCH  13  18
ENDBRANCH   1  13
TORSDOF 4
ENDMDL
MODEL 2
REMARK VINA RESULT:      -8.3      3.426      7.374
REMARK  4 active torsions:
REMARK  status: ('A' for Active; 'I' for Inactive)
REMARK    1  A    between atoms: C2_2  and  C4_4 
REMARK    2  A    between atoms: C4_4  and  C5_5 
REMARK    3  A    between atoms: C5_5  and  C7_6 
REMARK    4  A    between atoms: C5_5  and  C13_12 
ROOT
ATOM      1  C13 ZIN A   1      17.969  -0.396  10.114  0.00  0.00     0.064 A 
ATOM      2  C14 ZIN A   1      18.846  -1.405   9.824  0.00  0.00     0.133 A 
ATOM      3  O15 ZIN A   1      19.828  -1.232   8.910  0.00  0.00    -0.190 OA
ATOM      4  C16 ZIN A   1      18.691  -2.682  10.537  0.00  0.00     0.035 A 
ATOM      5  C17 ZIN A   1      19.551  -3.753  10.291  0.00  0.00     0.017 A 
ATOM      6  C18 ZIN A   1      19.379  -4.936  10.976  0.00  0.00     0.001 A 
ATOM      7  C19 ZIN A   1      18.357  -5.065  11.905  0.00  0.00     0.003 A 
ATOM      8  C20 ZIN A   1      17.500  -4.014  12.158  0.00  0.00     0.038 A 
ATOM      9  C21 ZIN A   1      17.657  -2.812  11.479  0.00  0.00     0.092 A 
ATOM     10  O22 ZIN A   1      16.827  -1.774  11.714  0.00  0.00    -0.274 OA
ATOM     11  C23 ZIN A   1      16.965  -0.602  11.072  0.00  0.00     0.298 A 
ATOM     12  O24 ZIN A   1      16.190   0.305  11.321  0.00  0.00    -0.259 OA
ENDROOT
BRANCH   1  13
ATOM     13  C5  ZIN A   1      18.085   0.932   9.413  0.00  0.00     0.067 C 
BRANCH  13  14
ATOM     14  C4  ZIN A   1      19.369   1.635   9.859  0.00  0.00     0.092 C 
BRANCH  14  15
ATOM     15  C2  ZIN A   1      19.018   2.836  10.700  0.00  0.00     0.124 C 
ATOM     16  C1  ZIN A   1      17.693   3.528  10.510  0.00  0.00     0.091 C 
ATOM     17  O3  ZIN A   1      19.800   3.245  11.525  0.00  0.00    -0.298 OA
ENDBRANCH  14  15
ENDBRANCH  13  14
BRANCH  13  18
ATOM     18  C7  ZIN A   1      18.126   0.711   7.922  0.00  0.00    -0.049 A 
ATOM     19  C12 ZIN A   1      19.118   1.306   7.164  0.00  0.00     0.008 A 
ATOM     20  C11 ZIN A   1      19.158   1.100   5.797  0.00  0.00     0.001 A 
ATOM     21  C10 ZIN A   1      18.203   0.308   5.189  0.00  0.00     0.000 A 
ATOM     22  C9  ZIN A   1      17.209  -0.282   5.946  0.00  0.00     0.001 A 
ATOM     23  C8  ZIN A   1      17.171  -0.080   7.314  0.00  0.00     0.008 A 
ENDBRANCH  13  18
ENDBRANCH   1  13
TORSDOF 4
ENDMDL
MODEL 3
REMARK VINA RESULT:      -7.9      2.690      4.480
REMARK  4 active torsions:
REMARK  status: ('A' for Active; 'I' for Inactive)
REMARK    1  A    between atoms: C2_2  and  C4_4 
REMARK    2  A    between atoms: C4_4  and  C5_5 
REMARK    3  A    between atoms: C5_5  and  C7_6 
REMARK    4  A    between atoms: C5_5  and  C13_12 
ROOT
ATOM      1  C13 ZIN A   1      18.137   1.383  11.405  0.00  0.00     0.064 A 
ATOM      2  C14 ZIN A   1      18.907   1.786  10.349  0.00  0.00     0.133 A 
ATOM      3  O15 ZIN A   1      19.930   2.653  10.525  0.00  0.00    -0.190 OA
ATOM      4  C16 ZIN A   1      18.589   1.249   9.017  0.00  0.00     0.035 A 
ATOM      5  C17 ZIN A   1      19.334   1.618   7.896  0.00  0.00     0.017 A 
ATOM      6  C18 ZIN A   1      19.012   1.096   6.662  0.00  0.00     0.001 A 
ATOM      7  C19 ZIN A   1      17.952   0.210   6.532  0.00  0.00     0.003 A 
ATOM      8  C20 ZIN A   1      17.208  -0.163   7.632  0.00  0.00     0.038 A 
ATOM      9  C21 ZIN A   1      17.517   0.351   8.885  0.00  0.00     0.092 A 
ATOM     10  O22 ZIN A   1      16.800  -0.004   9.973  0.00  0.00    -0.274 OA
ATOM     11  C23 ZIN A   1      17.086   0.478  11.194  0.00  0.00     0.298 A 
ATOM     12  O24 ZIN A   1      16.407   0.126  12.143  0.00  0.00    -0.259 OA
ENDROOT
BRANCH   1  13
ATOM     13  C5  ZIN A   1      18.420   1.902  12.790  0.00  0.00     0.067 C 
BRANCH  13  14
ATOM     14  C4  ZIN A   1      17.291   2.840  13.224  0.00  0.00     0.092 C 
BRANCH  14  15
ATOM     15  C2  ZIN A   1      17.625   4.252  12.816  0.00  0.00     0.124 C 
ATOM     16  C1  ZIN A   1      16.554   5.147  12.248  0.00  0.00     0.091 C 
ATOM     17  O3  ZIN A   1      18.753   4.667  12.945  0.00  0.00    -0.298 OA
ENDBRANCH  14  15
ENDBRANCH  13  14
BRANCH  13  18
ATOM     18  C7  ZIN A   1      18.509   0.745  13.753  0.00  0.00    -0.049 A 
ATOM     19  C12 ZIN A   1      17.667   0.693  14.848  0.00  0.00     0.008 A 
ATOM     20  C11 ZIN A   1      17.746  -0.370  15.730  0.00  0.00     0.001 A 
ATOM     21  C10 ZIN A   1      18.672  -1.374  15.520  0.00  0.00     0.000 A 
ATOM     22  C9  ZIN A   1      19.517  -1.319  14.427  0.00  0.00     0.001 A 
ATOM     23  C8  ZIN A   1      19.435  -0.258  13.543  0.00  0.00     0.008 A 
ENDBRANCH  13  18
ENDBRANCH   1  13
TORSDOF 4
ENDMDL
MODEL 4
REMARK VINA RESULT:      -7.9      2.152      5.229
REMARK  4 active torsions:
REMARK  status: ('A' for Active; 'I' for Inactive)
REMARK    1  A    between atoms: C2_2  and  C4_4 
REMARK    2  A    between atoms: C4_4  and  C5_5 
REMARK    3  A    between atoms: C5_5  and  C7_6 
REMARK    4  A    between atoms: C5_5  and  C13_12 
ROOT
ATOM      1  C13 ZIN A   1      18.447  -0.045  11.620  0.00  0.00     0.064 A 
ATOM      2  C14 ZIN A   1      19.462  -0.944  11.441  0.00  0.00     0.133 A 
ATOM      3  O15 ZIN A   1      20.740  -0.529  11.282  0.00  0.00    -0.190 OA
ATOM      4  C16 ZIN A   1      19.124  -2.376  11.429  0.00  0.00     0.035 A 
ATOM      5  C17 ZIN A   1      20.110  -3.348  11.251  0.00  0.00     0.017 A 
ATOM      6  C18 ZIN A   1      19.760  -4.680  11.245  0.00  0.00     0.001 A 
ATOM      7  C19 ZIN A   1      18.436  -5.057  11.412  0.00  0.00     0.003 A 
ATOM      8  C20 ZIN A   1      17.451  -4.106  11.589  0.00  0.00     0.038 A 
ATOM      9  C21 ZIN A   1      17.783  -2.758  11.599  0.00  0.00     0.092 A 
ATOM     10  O22 ZIN A   1      16.832  -1.815  11.771  0.00  0.00    -0.274 OA
ATOM     11  C23 ZIN A   1      17.133  -0.506  11.789  0.00  0.00     0.298 A 
ATOM     12  O24 ZIN A   1      16.237   0.306  11.948  0.00  0.00    -0.259 OA
ENDROOT
BRANCH   1  13
ATOM     13  C5  ZIN A   1      18.740   1.432  11.642  0.00  0.00     0.067 C 
BRANCH  13  14
ATOM     14  C4  ZIN A   1      17.697   2.172  10.801  0.00  0.00     0.092 C 
BRANCH  14  15
ATOM     15  C2  ZIN A   1      18.378   2.859   9.645  0.00  0.00     0.124 C 
ATOM     16  C1  ZIN A   1      19.224   2.062   8.686  0.00  0.00     0.091 C 
ATOM     17  O3  ZIN A   1      18.246   4.050   9.488  0.00  0.00    -0.298 OA
ENDBRANCH  14  15
ENDBRANCH  13  14
BRANCH  13  18
ATOM     18  C7  ZIN A   1      18.687   1.934  13.062  0.00  0.00    -0.049 A 
ATOM     19  C12 ZIN A   1      19.247   1.185  14.080  0.00  0.00     0.008 A 
ATOM     20  C11 ZIN A   1      19.202   1.647  15.383  0.00  0.00     0.001 A 
ATOM     21  C10 ZIN A   1      18.588   2.852  15.668  0.00  0.00     0.000 A 
ATOM     22  C9  ZIN A   1      18.024   3.598  14.650  0.00  0.00     0.001 A 
ATOM     23  C8  ZIN A   1      18.073   3.138  13.347  0.00  0.00     0.008 A 
ENDBRANCH  13  18
ENDBRANCH   1  13
TORSDOF 4
ENDMDL
MODEL 5
REMARK VINA RESULT:      -7.8      2.378      5.448
REMARK  4 active torsions:
REMARK  status: ('A' for Active; 'I' for Inactive)
REMARK    1  A    between atoms: C2_2  and  C4_4 
REMARK    2  A    between atoms: C4_4  and  C5_5 
REMARK    3  A    between atoms: C5_5  and  C7_6 
REMARK    4  A    between atoms: C5_5  and  C13_12 
ROOT
ATOM      1  C13 ZIN A   1      17.996  -1.240  11.823  0.00  0.00     0.064 A 
ATOM      2  C14 ZIN A   1      18.809  -1.711  12.817  0.00  0.00     0.133 A 
ATOM      3  O15 ZIN A   1      19.764  -2.634  12.558  0.00  0.00    -0.190 OA
ATOM      4  C16 ZIN A   1      18.614  -1.183  14.176  0.00  0.00     0.035 A 
ATOM      5  C17 ZIN A   1      19.409  -1.618  15.239  0.00  0.00     0.017 A 
ATOM      6  C18 ZIN A   1      19.201  -1.103  16.500  0.00  0.00     0.001 A 
ATOM      7  C19 ZIN A   1      18.209  -0.159  16.716  0.00  0.00     0.003 A 
ATOM      8  C20 ZIN A   1      17.417   0.280  15.674  0.00  0.00     0.038 A 
ATOM      9  C21 ZIN A   1      17.610  -0.225  14.395  0.00  0.00     0.092 A 
ATOM     10  O22 ZIN A   1      16.844   0.193  13.365  0.00  0.00    -0.274 OA
ATOM     11  C23 ZIN A   1      17.019  -0.279  12.120  0.00  0.00     0.298 A 
ATOM     12  O24 ZIN A   1      16.301   0.132  11.225  0.00  0.00    -0.259 OA
ENDROOT
BRANCH   1  13
ATOM     13  C5  ZIN A   1      18.154  -1.748  10.413  0.00  0.00     0.067 C 
BRANCH  13  14
ATOM     14  C4  ZIN A   1      19.544  -1.379   9.891  0.00  0.00     0.092 C 
BRANCH  14  15
ATOM     15  C2  ZIN A   1      19.408  -0.461   8.703  0.00  0.00     0.124 C 
ATOM     16  C1  ZIN A   1      19.297   1.027   8.909  0.00  0.00     0.091 C 
ATOM     17  O3  ZIN A   1      19.387  -0.920   7.585  0.00  0.00    -0.298 OA
ENDBRANCH  14  15
ENDBRANCH  13  14
BRANCH  13  18
ATOM     18  C7  ZIN A   1      17.993  -3.247  10.398  0.00  0.00    -0.049 A 
ATOM     19  C12 ZIN A   1      18.845  -4.024   9.635  0.00  0.00     0.008 A 
ATOM     20  C11 ZIN A   1      18.700  -5.400   9.623  0.00  0.00     0.001 A 
ATOM     21  C10 ZIN A   1      17.699  -5.995  10.367  0.00  0.00     0.000 A 
ATOM     22  C9  ZIN A   1      16.846  -5.217  11.126  0.00  0.00     0.001 A 
ATOM     23  C8  ZIN A   1      16.993  -3.842  11.141  0.00  0.00     0.008 A 
ENDBRANCH  13  18
ENDBRANCH   1  13
TORSDOF 4
ENDMDL
MODEL 6
REMARK VINA RESULT:      -7.7      2.891      5.189
REMARK  4 active torsions:
REMARK  status: ('A' for Active; 'I' for Inactive)
REMARK    1  A    between atoms: C2_2  and  C4_4 
REMARK    2  A    between atoms: C4_4  and  C5_5 
REMARK    3  A    between atoms: C5_5  and  C7_6 
REMARK    4  A    between atoms: C5_5  and  C13_12 
ROOT
ATOM      1  C13 ZIN A   1      18.287   1.716  11.084  0.00  0.00     0.064 A 
ATOM      2  C14 ZIN A   1      17.512   0.864  10.346  0.00  0.00     0.133 A 
ATOM      3  O15 ZIN A   1      16.494   0.179  10.917  0.00  0.00    -0.190 OA
ATOM      4  C16 ZIN A   1      17.817   0.716   8.915  0.00  0.00     0.035 A 
ATOM      5  C17 ZIN A   1      17.066  -0.136   8.103  0.00  0.00     0.017 A 
ATOM      6  C18 ZIN A   1      17.377  -0.251   6.766  0.00  0.00     0.001 A 
ATOM      7  C19 ZIN A   1      18.431   0.472   6.227  0.00  0.00     0.003 A 
ATOM      8  C20 ZIN A   1      19.181   1.318   7.018  0.00  0.00     0.038 A 
ATOM      9  C21 ZIN A   1      18.883   1.449   8.369  0.00  0.00     0.092 A 
ATOM     10  O22 ZIN A   1      19.607   2.272   9.157  0.00  0.00    -0.274 OA
ATOM     11  C23 ZIN A   1      19.332   2.418  10.464  0.00  0.00     0.298 A 
ATOM     12  O24 ZIN A   1      20.015   3.174  11.132  0.00  0.00    -0.259 OA
ENDROOT
BRANCH   1  13
ATOM     13  C5  ZIN A   1      18.017   1.905  12.554  0.00  0.00     0.067 C 
BRANCH  13  14
ATOM     14  C4  ZIN A   1      19.250   1.486  13.357  0.00  0.00     0.092 C 
BRANCH  14  15
ATOM     15  C2  ZIN A   1      19.014   0.129  13.969  0.00  0.00     0.124 C 
ATOM     16  C1  ZIN A   1      18.015  -0.032  15.086  0.00  0.00     0.091 C 
ATOM     17  O3  ZIN A   1      19.627  -0.831  13.564  0.00  0.00    -0.298 OA
ENDBRANCH  14  15
ENDBRANCH  13  14
BRANCH  13  18
ATOM     18  C7  ZIN A   1      17.709   3.355  12.826  0.00  0.00    -0.049 A 
ATOM     19  C12 ZIN A   1      17.003   4.097  11.897  0.00  0.00     0.008 A 
ATOM     20  C11 ZIN A   1      16.717   5.427  12.148  0.00  0.00     0.001 A 
ATOM     21  C10 ZIN A   1      17.145   6.015  13.322  0.00  0.00     0.000 A 
ATOM     22  C9  ZIN A   1      17.855   5.275  14.249  0.00  0.00     0.001 A 
ATOM     23  C8  ZIN A   1      18.138   3.944  14.000  0.00  0.00     0.008 A 
ENDBRANCH  13  18
ENDBRANCH   1  13
TORSDOF 4
ENDMDL
MODEL 7
REMARK VINA RESULT:      -7.7      1.717      5.488
REMARK  4 active torsions:
REMARK  status: ('A' for Active; 'I' for Inactive)
REMARK    1  A    between atoms: C2_2  and  C4_4 
REMARK    2  A    between atoms: C4_4  and  C5_5 
REMARK    3  A    between atoms: C5_5  and  C7_6 
REMARK    4  A    between atoms: C5_5  and  C13_12 
ROOT
ATOM      1  C13 ZIN A   1      18.844  -1.264  11.626  0.00  0.00     0.064 A 
ATOM      2  C14 ZIN A   1      17.831  -2.184  11.613  0.00  0.00     0.133 A 
ATOM      3  O15 ZIN A   1      16.655  -1.933  12.232  0.00  0.00    -0.190 OA
ATOM      4  C16 ZIN A   1      18.059  -3.452  10.904  0.00  0.00     0.035 A 
ATOM      5  C17 ZIN A   1      17.069  -4.435  10.850  0.00  0.00     0.017 A 
ATOM      6  C18 ZIN A   1      17.314  -5.612  10.177  0.00  0.00     0.001 A 
ATOM      7  C19 ZIN A   1      18.537  -5.823   9.558  0.00  0.00     0.003 A 
ATOM      8  C20 ZIN A   1      19.524  -4.860   9.603  0.00  0.00     0.038 A 
ATOM      9  C21 ZIN A   1      19.297  -3.666  10.275  0.00  0.00     0.092 A 
ATOM     10  O22 ZIN A   1      20.252  -2.713  10.330  0.00  0.00    -0.274 OA
ATOM     11  C23 ZIN A   1      20.051  -1.549  10.970  0.00  0.00     0.298 A 
ATOM     12  O24 ZIN A   1      20.945  -0.721  10.989  0.00  0.00    -0.259 OA
ENDROOT
BRANCH   1  13
ATOM     13  C5  ZIN A   1      18.662   0.051  12.337  0.00  0.00     0.067 C 
BRANCH  13  14
ATOM     14  C4  ZIN A   1      17.408   0.749  11.805  0.00  0.00     0.092 C 
BRANCH  14  15
ATOM     15  C2  ZIN A   1      17.790   2.077  11.201  0.00  0.00     0.124 C 
ATOM     16  C1  ZIN A   1      18.950   2.163  10.243  0.00  0.00     0.091 C 
ATOM     17  O3  ZIN A   1      17.166   3.072  11.485  0.00  0.00    -0.298 OA
ENDBRANCH  14  15
ENDBRANCH  13  14
BRANCH  13  18
ATOM     18  C7  ZIN A   1      18.510  -0.194  13.817  0.00  0.00    -0.049 A 
ATOM     19  C12 ZIN A   1      19.317  -1.122  14.449  0.00  0.00     0.008 A 
ATOM     20  C11 ZIN A   1      19.180  -1.345  15.807  0.00  0.00     0.001 A 
ATOM     21  C10 ZIN A   1      18.231  -0.647  16.529  0.00  0.00     0.000 A 
ATOM     22  C9  ZIN A   1      17.422   0.277  15.896  0.00  0.00     0.001 A 
ATOM     23  C8  ZIN A   1      17.561   0.503  14.539  0.00  0.00     0.008 A 
ENDBRANCH  13  18
ENDBRANCH   1  13
TORSDOF 4
ENDMDL
MODEL 8
REMARK VINA RESULT:      -7.6      2.642      4.766
REMARK  4 active torsions:
REMARK  status: ('A' for Active; 'I' for Inactive)
REMARK    1  A    between atoms: C2_2  and  C4_4 
REMARK    2  A    between atoms: C4_4  and  C5_5 
REMARK    3  A    between atoms: C5_5  and  C7_6 
REMARK    4  A    between atoms: C5_5  and  C13_12 
ROOT
ATOM      1  C13 ZIN A   1      17.873   1.249  11.350  0.00  0.00     0.064 A 
ATOM      2  C14 ZIN A   1      18.712   1.750  10.393  0.00  0.00     0.133 A 
ATOM      3  O15 ZIN A   1      19.664   2.659  10.707  0.00  0.00    -0.190 OA
ATOM      4  C16 ZIN A   1      18.549   1.269   9.012  0.00  0.00     0.035 A 
ATOM      5  C17 ZIN A   1      19.370   1.738   7.985  0.00  0.00     0.017 A 
ATOM      6  C18 ZIN A   1      19.192   1.267   6.702  0.00  0.00     0.001 A 
ATOM      7  C19 ZIN A   1      18.201   0.336   6.430  0.00  0.00     0.003 A 
ATOM      8  C20 ZIN A   1      17.383  -0.136   7.436  0.00  0.00     0.038 A 
ATOM      9  C21 ZIN A   1      17.547   0.325   8.736  0.00  0.00     0.092 A 
ATOM     10  O22 ZIN A   1      16.754  -0.126   9.732  0.00  0.00    -0.274 OA
ATOM     11  C23 ZIN A   1      16.900   0.303  10.997  0.00  0.00     0.298 A 
ATOM     12  O24 ZIN A   1      16.159  -0.135  11.860  0.00  0.00    -0.259 OA
ENDROOT
BRANCH   1  13
ATOM     13  C5  ZIN A   1      17.999   1.707  12.780  0.00  0.00     0.067 C 
BRANCH  13  14
ATOM     14  C4  ZIN A   1      19.398   1.373  13.302  0.00  0.00     0.092 C 
BRANCH  14  15
ATOM     15  C2  ZIN A   1      19.292   0.354  14.407  0.00  0.00     0.124 C 
ATOM     16  C1  ZIN A   1      19.236  -1.115  14.076  0.00  0.00     0.091 C 
ATOM     17  O3  ZIN A   1      19.252   0.715  15.560  0.00  0.00    -0.298 OA
ENDBRANCH  14  15
ENDBRANCH  13  14
BRANCH  13  18
ATOM     18  C7  ZIN A   1      17.779   3.197  12.851  0.00  0.00    -0.049 A 
ATOM     19  C12 ZIN A   1      18.350   3.930  13.875  0.00  0.00     0.008 A 
ATOM     20  C11 ZIN A   1      18.152   5.298  13.939  0.00  0.00     0.001 A 
ATOM     21  C10 ZIN A   1      17.375   5.928  12.985  0.00  0.00     0.000 A 
ATOM     22  C9  ZIN A   1      16.801   5.194  11.965  0.00  0.00     0.001 A 
ATOM     23  C8  ZIN A   1      17.002   3.827  11.899  0.00  0.00     0.008 A 
ENDBRANCH  13  18
ENDBRANCH   1  13
TORSDOF 4
ENDMDL
MODEL 9
REMARK VINA RESULT:      -7.5      2.596      4.766
REMARK  4 active torsions:
REMARK  status: ('A' for Active; 'I' for Inactive)
REMARK    1  A    between atoms: C2_2  and  C4_4 
REMARK    2  A    between atoms: C4_4  and  C5_5 
REMARK    3  A    between atoms: C5_5  and  C7_6 
REMARK    4  A    between atoms: C5_5  and  C13_12 
ROOT
ATOM      1  C13 ZIN A   1      18.776   2.026  11.903  0.00  0.00     0.064 A 
ATOM      2  C14 ZIN A   1      17.916   1.150  11.299  0.00  0.00     0.133 A 
ATOM      3  O15 ZIN A   1      16.968   0.500  12.013  0.00  0.00    -0.190 OA
ATOM      4  C16 ZIN A   1      18.052   0.937   9.849  0.00  0.00     0.035 A 
ATOM      5  C17 ZIN A   1      17.208   0.058   9.168  0.00  0.00     0.017 A 
ATOM      6  C18 ZIN A   1      17.361  -0.118   7.811  0.00  0.00     0.001 A 
ATOM      7  C19 ZIN A   1      18.348   0.571   7.122  0.00  0.00     0.003 A 
ATOM      8  C20 ZIN A   1      19.189   1.443   7.783  0.00  0.00     0.038 A 
ATOM      9  C21 ZIN A   1      19.051   1.636   9.152  0.00  0.00     0.092 A 
ATOM     10  O22 ZIN A   1      19.865   2.485   9.814  0.00  0.00    -0.274 OA
ATOM     11  C23 ZIN A   1      19.744   2.690  11.136  0.00  0.00     0.298 A 
ATOM     12  O24 ZIN A   1      20.504   3.468  11.687  0.00  0.00    -0.259 OA
ENDROOT
BRANCH   1  13
ATOM     13  C5  ZIN A   1      18.678   2.280  13.384  0.00  0.00     0.067 C 
BRANCH  13  14
ATOM     14  C4  ZIN A   1      17.380   3.030  13.689  0.00  0.00     0.092 C 
BRANCH  14  15
ATOM     15  C2  ZIN A   1      17.698   4.455  14.066  0.00  0.00     0.124 C 
ATOM     16  C1  ZIN A   1      16.636   5.518  13.960  0.00  0.00     0.091 C 
ATOM     17  O3  ZIN A   1      18.806   4.744  14.452  0.00  0.00    -0.298 OA
ENDBRANCH  14  15
ENDBRANCH  13  14
BRANCH  13  18
ATOM     18  C7  ZIN A   1      18.684   0.965  14.121  0.00  0.00    -0.049 A 
ATOM     19  C12 ZIN A   1      17.756   0.730  15.119  0.00  0.00     0.008 A 
ATOM     20  C11 ZIN A   1      17.758  -0.478  15.793  0.00  0.00     0.001 A 
ATOM     21  C10 ZIN A   1      18.693  -1.444  15.475  0.00  0.00     0.000 A 
ATOM     22  C9  ZIN A   1      19.623  -1.207  14.481  0.00  0.00     0.001 A 
ATOM     23  C8  ZIN A   1      19.619  -0.001  13.804  0.00  0.00     0.008 A 
ENDBRANCH  13  18
ENDBRANCH   1  13
TORSDOF 4
ENDMDL
