MODEL 1
REMARK VINA RESULT:      -4.2      0.000      0.000
REMARK  5 active torsions:
REMARK  status: ('A' for Active; 'I' for Inactive)
REMARK       I    between atoms: N1_1  and  C2_2 
REMARK    1  A    between atoms: C2_2  and  C4_4 
REMARK    2  A    between atoms: C4_4  and  C5_5 
REMARK    3  A    between atoms: C5_5  and  C6_6 
REMARK    4  A    between atoms: C6_6  and  N8_7 
REMARK    5  A    between atoms: C6_6  and  C12_11 
ROOT
ATOM      1  C6  <0> d   1      18.291   0.133   5.965  0.00  0.00     0.283 C 
ENDROOT
BRANCH   1   2
ATOM      2  C5  <0> d   1      18.935   1.039   7.015  0.00  0.00     0.053 C 
BRANCH   2   3
ATOM      3  C4  <0> d   1      18.300   0.768   8.381  0.00  0.00     0.105 C 
BRANCH   3   4
ATOM      4  C2  <0> d   1      19.365   0.318   9.349  0.00  0.00     0.215 C 
ATOM      5  N1  <0> d   1      20.081  -0.795   9.093  0.00  0.00    -0.370 N 
ATOM      6  H15 <0> d   1      20.766  -1.085   9.716  0.00  0.00     0.159 HD
ATOM      7  H16 <0> d   1      19.909  -1.308   8.288  0.00  0.00     0.159 HD
ATOM      8  O3  <0> d   1      19.577   0.957  10.357  0.00  0.00    -0.274 OA
ENDBRANCH   3   4
ENDBRANCH   2   3
ENDBRANCH   1   2
BRANCH   1   9
ATOM      9  N8  <0> d   1      17.071  -0.468   6.518  0.00  0.00    -0.065 N 
ATOM     10  H9  <0> d   1      16.273   0.096   6.265  0.00  0.00     0.275 HD
ATOM     11  H10 <0> d   1      16.956  -1.399   6.147  0.00  0.00     0.275 HD
ATOM     12  H11 <0> d   1      17.144  -0.514   7.524  0.00  0.00     0.275 HD
ENDBRANCH   1   9
BRANCH   1  13
ATOM     13  C12 <0> d   1      19.259  -0.958   5.582  0.00  0.00     0.204 C 
ATOM     14  O13 <0> d   1      19.889  -0.874   4.541  0.00  0.00    -0.646 OA
ATOM     15  O14 <0> d   1      19.411  -1.923   6.311  0.00  0.00    -0.646 OA
ENDBRANCH   1  13
TORSDOF 5
ENDMDL
MODEL 2
REMARK VINA RESULT:      -4.2      7.057      9.629
REMARK  5 active torsions:
REMARK  status: ('A' for Active; 'I' for Inactive)
REMARK       I    between atoms: N1_1  and  C2_2 
REMARK    1  A    between atoms: C2_2  and  C4_4 
REMARK    2  A    between atoms: C4_4  and  C5_5 
REMARK    3  A    between atoms: C5_5  and  C6_6 
REMARK    4  A    between atoms: C6_6  and  N8_7 
REMARK    5  A    between atoms: C6_6  and  C12_11 
ROOT
ATOM      1  C6  <0> d   1      18.307  -0.113  17.491  0.00  0.00     0.283 C 
ENDROOT
BRANCH   1   2
ATOM      2  C5  <0> d   1      18.959  -1.192  16.626  0.00  0.00     0.053 C 
BRANCH   2   3
ATOM      3  C4  <0> d   1      18.241  -1.267  15.276  0.00  0.00     0.105 C 
BRANCH   3   4
ATOM      4  C2  <0> d   1      19.230  -1.017  14.167  0.00  0.00     0.215 C 
ATOM      5  N1  <0> d   1      19.831   0.185  14.058  0.00  0.00    -0.370 N 
ATOM      6  H15 <0> d   1      20.467   0.346  13.345  0.00  0.00     0.159 HD
ATOM      7  H16 <0> d   1      19.624   0.889  14.692  0.00  0.00     0.159 HD
ATOM      8  O3  <0> d   1      19.486  -1.896  13.372  0.00  0.00    -0.274 OA
ENDBRANCH   3   4
ENDBRANCH   2   3
ENDBRANCH   1   2
BRANCH   1   9
ATOM      9  N8  <0> d   1      17.016   0.272  16.905  0.00  0.00    -0.065 N 
ATOM     10  H9  <0> d   1      16.426   0.667  17.621  0.00  0.00     0.275 HD
ATOM     11  H10 <0> d   1      17.167   0.955  16.178  0.00  0.00     0.275 HD
ATOM     12  H11 <0> d   1      16.569  -0.544  16.513  0.00  0.00     0.275 HD
ENDBRANCH   1   9
BRANCH   1  13
ATOM     13  C12 <0> d   1      19.209   1.094  17.553  0.00  0.00     0.204 C 
ATOM     14  O13 <0> d   1      19.840   1.330  18.569  0.00  0.00    -0.646 OA
ATOM     15  O14 <0> d   1      19.307   1.833  16.589  0.00  0.00    -0.646 OA
ENDBRANCH   1  13
TORSDOF 5
ENDMDL
MODEL 3
REMARK VINA RESULT:      -4.1      7.478      9.230
REMARK  5 active torsions:
REMARK  status: ('A' for Active; 'I' for Inactive)
REMARK       I    between atoms: N1_1  and  C2_2 
REMARK    1  A    between atoms: C2_2  and  C4_4 
REMARK    2  A    between atoms: C4_4  and  C5_5 
REMARK    3  A    between atoms: C5_5  and  C6_6 
REMARK    4  A    between atoms: C6_6  and  N8_7 
REMARK    5  A    between atoms: C6_6  and  C12_11 
ROOT
ATOM      1  C6  <0> d   1      18.427   0.133  15.556  0.00  0.00     0.283 C 
ENDROOT
BRANCH   1   2
ATOM      2  C5  <0> d   1      18.067  -0.651  16.819  0.00  0.00     0.053 C 
BRANCH   2   3
ATOM      3  C4  <0> d   1      19.139  -0.419  17.886  0.00  0.00     0.105 C 
BRANCH   3   4
ATOM      4  C2  <0> d   1      18.937   0.936  18.515  0.00  0.00     0.215 C 
ATOM      5  N1  <0> d   1      17.744   1.258  19.054  0.00  0.00    -0.370 N 
ATOM      6  H15 <0> d   1      17.614   2.129  19.458  0.00  0.00     0.159 HD
ATOM      7  H16 <0> d   1      17.015   0.618  19.034  0.00  0.00     0.159 HD
ATOM      8  O3  <0> d   1      19.847   1.737  18.535  0.00  0.00    -0.274 OA
ENDBRANCH   3   4
ENDBRANCH   2   3
ENDBRANCH   1   2
BRANCH   1   9
ATOM      9  N8  <0> d   1      17.319   1.031  15.204  0.00  0.00    -0.065 N 
ATOM     10  H9  <0> d   1      16.706   1.137  15.998  0.00  0.00     0.275 HD
ATOM     11  H10 <0> d   1      17.687   1.932  14.941  0.00  0.00     0.275 HD
ATOM     12  H11 <0> d   1      16.802   0.640  14.431  0.00  0.00     0.275 HD
ENDBRANCH   1   9
BRANCH   1  13
ATOM     13  C12 <0> d   1      18.675  -0.828  14.421  0.00  0.00     0.204 C 
ATOM     14  O13 <0> d   1      17.854  -0.938  13.526  0.00  0.00    -0.646 OA
ATOM     15  O14 <0> d   1      19.694  -1.495  14.399  0.00  0.00    -0.646 OA
ENDBRANCH   1  13
TORSDOF 5
ENDMDL
MODEL 4
REMARK VINA RESULT:      -4.1      2.871      5.152
REMARK  5 active torsions:
REMARK  status: ('A' for Active; 'I' for Inactive)
REMARK       I    between atoms: N1_1  and  C2_2 
REMARK    1  A    between atoms: C2_2  and  C4_4 
REMARK    2  A    between atoms: C4_4  and  C5_5 
REMARK    3  A    between atoms: C5_5  and  C6_6 
REMARK    4  A    between atoms: C6_6  and  N8_7 
REMARK    5  A    between atoms: C6_6  and  C12_11 
ROOT
ATOM      1  C6  <0> d   1      18.880   2.982   9.904  0.00  0.00     0.283 C 
ENDROOT
BRANCH   1   2
ATOM      2  C5  <0> d   1      18.343   1.580   9.617  0.00  0.00     0.053 C 
BRANCH   2   3
ATOM      3  C4  <0> d   1      19.091   0.982   8.423  0.00  0.00     0.105 C 
BRANCH   3   4
ATOM      4  C2  <0> d   1      19.737  -0.316   8.834  0.00  0.00     0.215 C 
ATOM      5  N1  <0> d   1      20.731  -0.316   9.746  0.00  0.00    -0.370 N 
ATOM      6  H15 <0> d   1      21.146  -1.151  10.010  0.00  0.00     0.159 HD
ATOM      7  H16 <0> d   1      21.031   0.521  10.134  0.00  0.00     0.159 HD
ATOM      8  O3  <0> d   1      19.365  -1.361   8.344  0.00  0.00    -0.274 OA
ENDBRANCH   3   4
ENDBRANCH   2   3
ENDBRANCH   1   2
BRANCH   1   9
ATOM      9  N8  <0> d   1      19.862   2.918  10.995  0.00  0.00    -0.065 N 
ATOM     10  H9  <0> d   1      19.718   3.695  11.623  0.00  0.00     0.275 HD
ATOM     11  H10 <0> d   1      19.749   2.052  11.499  0.00  0.00     0.275 HD
ATOM     12  H11 <0> d   1      20.794   2.966  10.611  0.00  0.00     0.275 HD
ENDBRANCH   1   9
BRANCH   1  13
ATOM     13  C12 <0> d   1      17.741   3.884  10.307  0.00  0.00     0.204 C 
ATOM     14  O13 <0> d   1      16.938   3.513  11.147  0.00  0.00    -0.646 OA
ATOM     15  O14 <0> d   1      17.621   4.983   9.792  0.00  0.00    -0.646 OA
ENDBRANCH   1  13
TORSDOF 5
ENDMDL
MODEL 5
REMARK VINA RESULT:      -4.1      3.756      5.687
REMARK  5 active torsions:
REMARK  status: ('A' for Active; 'I' for Inactive)
REMARK       I    between atoms: N1_1  and  C2_2 
REMARK    1  A    between atoms: C2_2  and  C4_4 
REMARK    2  A    between atoms: C4_4  and  C5_5 
REMARK    3  A    between atoms: C5_5  and  C6_6 
REMARK    4  A    between atoms: C6_6  and  N8_7 
REMARK    5  A    between atoms: C6_6  and  C12_11 
ROOT
ATOM      1  C6  <0> d   1      19.295   3.118  10.884  0.00  0.00     0.283 C 
ENDROOT
BRANCH   1   2
ATOM      2  C5  <0> d   1      19.104   1.844  10.059  0.00  0.00     0.053 C 
BRANCH   2   3
ATOM      3  C4  <0> d   1      19.365   0.622  10.943  0.00  0.00     0.105 C 
BRANCH   3   4
ATOM      4  C2  <0> d   1      20.368  -0.280  10.269  0.00  0.00     0.215 C 
ATOM      5  N1  <0> d   1      21.502  -0.626  10.912  0.00  0.00    -0.370 N 
ATOM      6  H15 <0> d   1      22.147  -1.206  10.479  0.00  0.00     0.159 HD
ATOM      7  H16 <0> d   1      21.673  -0.292  11.807  0.00  0.00     0.159 HD
ATOM      8  O3  <0> d   1      20.156  -0.693   9.150  0.00  0.00    -0.274 OA
ENDBRANCH   3   4
ENDBRANCH   2   3
ENDBRANCH   1   2
BRANCH   1   9
ATOM      9  N8  <0> d   1      20.477   2.974  11.742  0.00  0.00    -0.065 N 
ATOM     10  H9  <0> d   1      21.147   2.367  11.294  0.00  0.00     0.275 HD
ATOM     11  H10 <0> d   1      20.894   3.880  11.896  0.00  0.00     0.275 HD
ATOM     12  H11 <0> d   1      20.203   2.575  12.628  0.00  0.00     0.275 HD
ENDBRANCH   1   9
BRANCH   1  13
ATOM     13  C12 <0> d   1      18.076   3.348  11.741  0.00  0.00     0.204 C 
ATOM     14  O13 <0> d   1      18.199   3.503  12.944  0.00  0.00    -0.646 OA
ATOM     15  O14 <0> d   1      16.969   3.380  11.232  0.00  0.00    -0.646 OA
ENDBRANCH   1  13
TORSDOF 5
ENDMDL
MODEL 6
REMARK VINA RESULT:      -4.0      4.879      5.459
REMARK  5 active torsions:
REMARK  status: ('A' for Active; 'I' for Inactive)
REMARK       I    between atoms: N1_1  and  C2_2 
REMARK    1  A    between atoms: C2_2  and  C4_4 
REMARK    2  A    between atoms: C4_4  and  C5_5 
REMARK    3  A    between atoms: C5_5  and  C6_6 
REMARK    4  A    between atoms: C6_6  and  N8_7 
REMARK    5  A    between atoms: C6_6  and  C12_11 
ROOT
ATOM      1  C6  <0> d   1      19.344  -3.093  11.974  0.00  0.00     0.283 C 
ENDROOT
BRANCH   1   2
ATOM      2  C5  <0> d   1      19.194  -1.890  12.905  0.00  0.00     0.053 C 
BRANCH   2   3
ATOM      3  C4  <0> d   1      19.359  -0.598  12.100  0.00  0.00     0.105 C 
BRANCH   3   4
ATOM      4  C2  <0> d   1      20.355   0.299  12.790  0.00  0.00     0.215 C 
ATOM      5  N1  <0> d   1      21.526   0.592  12.190  0.00  0.00    -0.370 N 
ATOM      6  H15 <0> d   1      22.166   1.170  12.633  0.00  0.00     0.159 HD
ATOM      7  H16 <0> d   1      21.729   0.222  11.316  0.00  0.00     0.159 HD
ATOM      8  O3  <0> d   1      20.102   0.758  13.883  0.00  0.00    -0.274 OA
ENDBRANCH   3   4
ENDBRANCH   2   3
ENDBRANCH   1   2
BRANCH   1   9
ATOM      9  N8  <0> d   1      20.612  -2.992  11.241  0.00  0.00    -0.065 N 
ATOM     10  H9  <0> d   1      20.556  -3.538  10.395  0.00  0.00     0.275 HD
ATOM     11  H10 <0> d   1      20.790  -2.027  11.008  0.00  0.00     0.275 HD
ATOM     12  H11 <0> d   1      21.363  -3.343  11.818  0.00  0.00     0.275 HD
ENDBRANCH   1   9
BRANCH   1  13
ATOM     13  C12 <0> d   1      18.198  -3.115  10.994  0.00  0.00     0.204 C 
ATOM     14  O13 <0> d   1      17.049  -3.115  11.401  0.00  0.00    -0.646 OA
ATOM     15  O14 <0> d   1      18.421  -3.134   9.796  0.00  0.00    -0.646 OA
ENDBRANCH   1  13
TORSDOF 5
ENDMDL
MODEL 7
REMARK VINA RESULT:      -4.0      5.406      6.839
REMARK  5 active torsions:
REMARK  status: ('A' for Active; 'I' for Inactive)
REMARK       I    between atoms: N1_1  and  C2_2 
REMARK    1  A    between atoms: C2_2  and  C4_4 
REMARK    2  A    between atoms: C4_4  and  C5_5 
REMARK    3  A    between atoms: C5_5  and  C6_6 
REMARK    4  A    between atoms: C6_6  and  N8_7 
REMARK    5  A    between atoms: C6_6  and  C12_11 
ROOT
ATOM      1  C6  <0> d   1      20.122   0.521  12.423  0.00  0.00     0.283 C 
ENDROOT
BRANCH   1   2
ATOM      2  C5  <0> d   1      19.930   0.307  13.925  0.00  0.00     0.053 C 
BRANCH   2   3
ATOM      3  C4  <0> d   1      18.855  -0.758  14.156  0.00  0.00     0.105 C 
BRANCH   3   4
ATOM      4  C2  <0> d   1      17.888  -0.275  15.206  0.00  0.00     0.215 C 
ATOM      5  N1  <0> d   1      17.393   0.977  15.142  0.00  0.00    -0.370 N 
ATOM      6  H15 <0> d   1      16.770   1.288  15.817  0.00  0.00     0.159 HD
ATOM      7  H16 <0> d   1      17.662   1.568  14.421  0.00  0.00     0.159 HD
ATOM      8  O3  <0> d   1      17.555  -1.013  16.109  0.00  0.00    -0.274 OA
ENDBRANCH   3   4
ENDBRANCH   2   3
ENDBRANCH   1   2
BRANCH   1   9
ATOM      9  N8  <0> d   1      21.554   0.639  12.123  0.00  0.00    -0.065 N 
ATOM     10  H9  <0> d   1      21.752   1.571  11.792  0.00  0.00     0.275 HD
ATOM     11  H10 <0> d   1      22.089   0.459  12.959  0.00  0.00     0.275 HD
ATOM     12  H11 <0> d   1      21.805  -0.030  11.411  0.00  0.00     0.275 HD
ENDBRANCH   1   9
BRANCH   1  13
ATOM     13  C12 <0> d   1      19.414   1.783  12.001  0.00  0.00     0.204 C 
ATOM     14  O13 <0> d   1      19.390   2.104  10.825  0.00  0.00    -0.646 OA
ATOM     15  O14 <0> d   1      18.866   2.484  12.835  0.00  0.00    -0.646 OA
ENDBRANCH   1  13
TORSDOF 5
ENDMDL
MODEL 8
REMARK VINA RESULT:      -3.7      5.376      6.707
REMARK  5 active torsions:
REMARK  status: ('A' for Active; 'I' for Inactive)
REMARK       I    between atoms: N1_1  and  C2_2 
REMARK    1  A    between atoms: C2_2  and  C4_4 
REMARK    2  A    between atoms: C4_4  and  C5_5 
REMARK    3  A    between atoms: C5_5  and  C6_6 
REMARK    4  A    between atoms: C6_6  and  N8_7 
REMARK    5  A    between atoms: C6_6  and  C12_11 
ROOT
ATOM      1  C6  <0> d   1      18.463   2.314  13.687  0.00  0.00     0.283 C 
ENDROOT
BRANCH   1   2
ATOM      2  C5  <0> d   1      18.305   0.801  13.536  0.00  0.00     0.053 C 
BRANCH   2   3
ATOM      3  C4  <0> d   1      19.685   0.139  13.563  0.00  0.00     0.105 C 
BRANCH   3   4
ATOM      4  C2  <0> d   1      20.332   0.271  12.209  0.00  0.00     0.215 C 
ATOM      5  N1  <0> d   1      21.630   0.626  12.114  0.00  0.00    -0.370 N 
ATOM      6  H15 <0> d   1      22.046   0.711  11.242  0.00  0.00     0.159 HD
ATOM      7  H16 <0> d   1      22.145   0.798  12.917  0.00  0.00     0.159 HD
ATOM      8  O3  <0> d   1      19.687   0.060  11.205  0.00  0.00    -0.274 OA
ENDBRANCH   3   4
ENDBRANCH   2   3
ENDBRANCH   1   2
BRANCH   1   9
ATOM      9  N8  <0> d   1      17.784   2.759  14.911  0.00  0.00    -0.065 N 
ATOM     10  H9  <0> d   1      18.465   2.890  15.644  0.00  0.00     0.275 HD
ATOM     11  H10 <0> d   1      17.308   3.630  14.734  0.00  0.00     0.275 HD
ATOM     12  H11 <0> d   1      17.115   2.060  15.196  0.00  0.00     0.275 HD
ENDBRANCH   1   9
BRANCH   1  13
ATOM     13  C12 <0> d   1      17.852   3.005  12.494  0.00  0.00     0.204 C 
ATOM     14  O13 <0> d   1      17.982   4.209  12.355  0.00  0.00    -0.646 OA
ATOM     15  O14 <0> d   1      17.227   2.360  11.670  0.00  0.00    -0.646 OA
ENDBRANCH   1  13
TORSDOF 5
ENDMDL
MODEL 9
REMARK VINA RESULT:      -3.6      5.153      6.559
REMARK  5 active torsions:
REMARK  status: ('A' for Active; 'I' for Inactive)
REMARK       I    between atoms: N1_1  and  C2_2 
REMARK    1  A    between atoms: C2_2  and  C4_4 
REMARK    2  A    between atoms: C4_4  and  C5_5 
REMARK    3  A    between atoms: C5_5  and  C6_6 
REMARK    4  A    between atoms: C6_6  and  N8_7 
REMARK    5  A    between atoms: C6_6  and  C12_11 
ROOT
ATOM      1  C6  <0> d   1      19.169  -2.354  10.799  0.00  0.00     0.283 C 
ENDROOT
BRANCH   1   2
ATOM      2  C5  <0> d   1      18.695  -3.737  10.351  0.00  0.00     0.053 C 
BRANCH   2   3
ATOM      3  C4  <0> d   1      18.856  -4.730  11.505  0.00  0.00     0.105 C 
BRANCH   3   4
ATOM      4  C2  <0> d   1      17.521  -5.352  11.823  0.00  0.00     0.215 C 
ATOM      5  N1  <0> d   1      16.397  -4.857  11.267  0.00  0.00    -0.370 N 
ATOM      6  H15 <0> d   1      15.538  -5.257  11.471  0.00  0.00     0.159 HD
ATOM      7  H16 <0> d   1      16.448  -4.098  10.665  0.00  0.00     0.159 HD
ATOM      8  O3  <0> d   1      17.457  -6.297  12.579  0.00  0.00    -0.274 OA
ENDBRANCH   3   4
ENDBRANCH   2   3
ENDBRANCH   1   2
BRANCH   1   9
ATOM      9  N8  <0> d   1      20.534  -2.452  11.330  0.00  0.00    -0.065 N 
ATOM     10  H9  <0> d   1      20.623  -3.294  11.878  0.00  0.00     0.275 HD
ATOM     11  H10 <0> d   1      21.191  -2.478  10.565  0.00  0.00     0.275 HD
ATOM     12  H11 <0> d   1      20.727  -1.650  11.913  0.00  0.00     0.275 HD
ENDBRANCH   1   9
BRANCH   1  13
ATOM     13  C12 <0> d   1      18.249  -1.831  11.873  0.00  0.00     0.204 C 
ATOM     14  O13 <0> d   1      18.709  -1.449  12.936  0.00  0.00    -0.646 OA
ATOM     15  O14 <0> d   1      17.046  -1.791  11.680  0.00  0.00    -0.646 OA
ENDBRANCH   1  13
TORSDOF 5
ENDMDL
