MODEL 1
REMARK VINA RESULT:      -5.0      0.000      0.000
REMARK  1 active torsions:
REMARK  status: ('A' for Active; 'I' for Inactive)
REMARK    1  A    between atoms: N2_2  and  C5_5 
ROOT
ATOM      1  C5  <0> d   1      18.688   1.211  10.312  0.00  0.00     0.132 C 
ATOM      2  C6  <0> d   1      17.876   0.651   9.142  0.00  0.00     0.047 C 
ATOM      3  C7  <0> d   1      18.798   2.762  10.207  0.00  0.00     0.022 C 
ATOM      4  C9  <0> d   1      19.848   3.153  11.293  0.00  0.00     0.007 C 
ATOM      5  C10 <0> d   1      19.130   2.902  12.638  0.00  0.00     0.006 C 
ATOM      6  C11 <0> d   1      17.714   2.383  12.240  0.00  0.00    -0.004 C 
ATOM      7  C13 <0> d   1      17.458   3.195  10.901  0.00  0.00     0.012 C 
ATOM      8  C14 <0> d   1      17.952   0.959  11.648  0.00  0.00    -0.011 C 
ATOM      9  C15 <0> d   1      16.617   0.246  11.423  0.00  0.00     0.018 C 
ATOM     10  C16 <0> d   1      18.848   0.138  12.578  0.00  0.00     0.018 C 
ENDROOT
BRANCH   1  11
ATOM     11  N2  <0> d   1      20.026   0.604  10.342  0.00  0.00    -0.069 N 
ATOM     12  C1  <0> d   1      20.138  -0.390   9.267  0.00  0.00     0.267 C 
ATOM     13  H3  <0> d   1      20.170   0.152  11.233  0.00  0.00     0.277 HD
ATOM     14  H4  <0> d   1      20.724   1.321  10.212  0.00  0.00     0.277 HD
ENDBRANCH   1  11
TORSDOF 1
ENDMDL
MODEL 2
REMARK VINA RESULT:      -4.9      1.492      3.359
REMARK  1 active torsions:
REMARK  status: ('A' for Active; 'I' for Inactive)
REMARK    1  A    between atoms: N2_2  and  C5_5 
ROOT
ATOM      1  C5  <0> d   1      19.073  -0.144  10.759  0.00  0.00     0.132 C 
ATOM      2  C6  <0> d   1      18.992  -1.065  11.978  0.00  0.00     0.047 C 
ATOM      3  C7  <0> d   1      19.412  -0.965   9.477  0.00  0.00     0.022 C 
ATOM      4  C9  <0> d   1      19.714   0.114   8.392  0.00  0.00     0.007 C 
ATOM      5  C10 <0> d   1      18.343   0.761   8.091  0.00  0.00     0.006 C 
ATOM      6  C11 <0> d   1      17.340   0.013   9.023  0.00  0.00    -0.004 C 
ATOM      7  C13 <0> d   1      17.978  -1.440   9.051  0.00  0.00     0.012 C 
ATOM      8  C14 <0> d   1      17.692   0.487  10.467  0.00  0.00    -0.011 C 
ATOM      9  C15 <0> d   1      16.636  -0.003  11.460  0.00  0.00     0.018 C 
ATOM     10  C16 <0> d   1      17.806   2.011  10.514  0.00  0.00     0.018 C 
ENDROOT
BRANCH   1  11
ATOM     11  N2  <0> d   1      20.079   0.905  10.976  0.00  0.00    -0.069 N 
ATOM     12  C1  <0> d   1      20.811   0.631  12.219  0.00  0.00     0.267 C 
ATOM     13  H3  <0> d   1      19.620   1.801  11.045  0.00  0.00     0.277 HD
ATOM     14  H4  <0> d   1      20.725   0.917  10.200  0.00  0.00     0.277 HD
ENDBRANCH   1  11
TORSDOF 1
ENDMDL
MODEL 3
REMARK VINA RESULT:      -4.8      0.996      3.050
REMARK  1 active torsions:
REMARK  status: ('A' for Active; 'I' for Inactive)
REMARK    1  A    between atoms: N2_2  and  C5_5 
ROOT
ATOM      1  C5  <0> d   1      18.551   1.343  11.018  0.00  0.00     0.132 C 
ATOM      2  C6  <0> d   1      17.805   2.500  10.350  0.00  0.00     0.047 C 
ATOM      3  C7  <0> d   1      17.847   0.934  12.347  0.00  0.00     0.022 C 
ATOM      4  C9  <0> d   1      18.842  -0.054  13.029  0.00  0.00     0.007 C 
ATOM      5  C10 <0> d   1      18.792  -1.326  12.153  0.00  0.00     0.006 C 
ATOM      6  C11 <0> d   1      17.771  -0.988  11.024  0.00  0.00    -0.004 C 
ATOM      7  C13 <0> d   1      16.753  -0.053  11.804  0.00  0.00     0.012 C 
ATOM      8  C14 <0> d   1      18.482   0.076  10.133  0.00  0.00    -0.011 C 
ATOM      9  C15 <0> d   1      17.675   0.331   8.859  0.00  0.00     0.018 C 
ATOM     10  C16 <0> d   1      19.900  -0.382   9.786  0.00  0.00     0.018 C 
ENDROOT
BRANCH   1  11
ATOM     11  N2  <0> d   1      19.949   1.714  11.273  0.00  0.00    -0.069 N 
ATOM     12  C1  <0> d   1      20.029   3.151  11.561  0.00  0.00     0.267 C 
ATOM     13  H3  <0> d   1      20.506   1.503  10.458  0.00  0.00     0.277 HD
ATOM     14  H4  <0> d   1      20.297   1.191  12.063  0.00  0.00     0.277 HD
ENDBRANCH   1  11
TORSDOF 1
ENDMDL
MODEL 4
REMARK VINA RESULT:      -4.7      3.767      4.850
REMARK  1 active torsions:
REMARK  status: ('A' for Active; 'I' for Inactive)
REMARK    1  A    between atoms: N2_2  and  C5_5 
ROOT
ATOM      1  C5  <0> d   1      18.349  -3.485   9.913  0.00  0.00     0.132 C 
ATOM      2  C6  <0> d   1      17.146  -4.273   9.390  0.00  0.00     0.047 C 
ATOM      3  C7  <0> d   1      17.984  -1.978  10.077  0.00  0.00     0.022 C 
ATOM      4  C9  <0> d   1      19.347  -1.274  10.359  0.00  0.00     0.007 C 
ATOM      5  C10 <0> d   1      19.740  -1.738  11.780  0.00  0.00     0.006 C 
ATOM      6  C11 <0> d   1      18.578  -2.679  12.224  0.00  0.00    -0.004 C 
ATOM      7  C13 <0> d   1      17.340  -1.990  11.509  0.00  0.00     0.012 C 
ATOM      8  C14 <0> d   1      18.722  -3.955  11.338  0.00  0.00    -0.011 C 
ATOM      9  C15 <0> d   1      17.776  -5.053  11.828  0.00  0.00     0.018 C 
ATOM     10  C16 <0> d   1      20.170  -4.450  11.349  0.00  0.00     0.018 C 
ENDROOT
BRANCH   1  11
ATOM     11  N2  <0> d   1      19.495  -3.638   9.007  0.00  0.00    -0.069 N 
ATOM     12  C1  <0> d   1      19.011  -3.891   7.644  0.00  0.00     0.267 C 
ATOM     13  H3  <0> d   1      20.063  -4.414   9.312  0.00  0.00     0.277 HD
ATOM     14  H4  <0> d   1      20.047  -2.793   9.017  0.00  0.00     0.277 HD
ENDBRANCH   1  11
TORSDOF 1
ENDMDL
MODEL 5
REMARK VINA RESULT:      -4.7      1.300      3.373
REMARK  1 active torsions:
REMARK  status: ('A' for Active; 'I' for Inactive)
REMARK    1  A    between atoms: N2_2  and  C5_5 
ROOT
ATOM      1  C5  <0> d   1      18.955   0.917  11.289  0.00  0.00     0.132 C 
ATOM      2  C6  <0> d   1      18.828   1.789  12.539  0.00  0.00     0.047 C 
ATOM      3  C7  <0> d   1      18.167  -0.416  11.470  0.00  0.00     0.022 C 
ATOM      4  C9  <0> d   1      18.594  -1.291  10.251  0.00  0.00     0.007 C 
ATOM      5  C10 <0> d   1      17.935  -0.610   9.030  0.00  0.00     0.006 C 
ATOM      6  C11 <0> d   1      17.171   0.612   9.625  0.00  0.00    -0.004 C 
ATOM      7  C13 <0> d   1      16.728   0.037  11.036  0.00  0.00     0.012 C 
ATOM      8  C14 <0> d   1      18.282   1.608  10.080  0.00  0.00    -0.011 C 
ATOM      9  C15 <0> d   1      17.665   2.950  10.479  0.00  0.00     0.018 C 
ATOM     10  C16 <0> d   1      19.312   1.803   8.965  0.00  0.00     0.018 C 
ENDROOT
BRANCH   1  11
ATOM     11  N2  <0> d   1      20.368   0.640  10.998  0.00  0.00    -0.069 N 
ATOM     12  C1  <0> d   1      21.113   0.525  12.259  0.00  0.00     0.267 C 
ATOM     13  H3  <0> d   1      20.752   1.394  10.448  0.00  0.00     0.277 HD
ATOM     14  H4  <0> d   1      20.443  -0.225  10.483  0.00  0.00     0.277 HD
ENDBRANCH   1  11
TORSDOF 1
ENDMDL
MODEL 6
REMARK VINA RESULT:      -4.7      1.561      3.573
REMARK  1 active torsions:
REMARK  status: ('A' for Active; 'I' for Inactive)
REMARK    1  A    between atoms: N2_2  and  C5_5 
ROOT
ATOM      1  C5  <0> d   1      19.201   0.335  10.516  0.00  0.00     0.132 C 
ATOM      2  C6  <0> d   1      20.341  -0.078  11.449  0.00  0.00     0.047 C 
ATOM      3  C7  <0> d   1      19.670   0.295   9.029  0.00  0.00     0.022 C 
ATOM      4  C9  <0> d   1      18.512   0.975   8.236  0.00  0.00     0.007 C 
ATOM      5  C10 <0> d   1      17.344  -0.035   8.305  0.00  0.00     0.006 C 
ATOM      6  C11 <0> d   1      17.906  -1.231   9.133  0.00  0.00    -0.004 C 
ATOM      7  C13 <0> d   1      19.429  -1.219   8.690  0.00  0.00     0.012 C 
ATOM      8  C14 <0> d   1      18.046  -0.691  10.590  0.00  0.00    -0.011 C 
ATOM      9  C15 <0> d   1      18.378  -1.833  11.552  0.00  0.00     0.018 C 
ATOM     10  C16 <0> d   1      16.761   0.017  11.022  0.00  0.00     0.018 C 
ENDROOT
BRANCH   1  11
ATOM     11  N2  <0> d   1      18.716   1.677  10.863  0.00  0.00    -0.069 N 
ATOM     12  C1  <0> d   1      19.769   2.408  11.580  0.00  0.00     0.267 C 
ATOM     13  H3  <0> d   1      17.901   1.598  11.453  0.00  0.00     0.277 HD
ATOM     14  H4  <0> d   1      18.474   2.177  10.020  0.00  0.00     0.277 HD
ENDBRANCH   1  11
TORSDOF 1
ENDMDL
MODEL 7
REMARK VINA RESULT:      -4.6      1.461      2.506
REMARK  1 active torsions:
REMARK  status: ('A' for Active; 'I' for Inactive)
REMARK    1  A    between atoms: N2_2  and  C5_5 
ROOT
ATOM      1  C5  <0> d   1      19.304   0.925  11.558  0.00  0.00     0.132 C 
ATOM      2  C6  <0> d   1      20.378  -0.135  11.308  0.00  0.00     0.047 C 
ATOM      3  C7  <0> d   1      19.737   2.295  10.952  0.00  0.00     0.022 C 
ATOM      4  C9  <0> d   1      18.690   3.313  11.500  0.00  0.00     0.007 C 
ATOM      5  C10 <0> d   1      17.377   2.957  10.766  0.00  0.00     0.006 C 
ATOM      6  C11 <0> d   1      17.753   1.758   9.843  0.00  0.00    -0.004 C 
ATOM      7  C13 <0> d   1      19.252   2.121   9.469  0.00  0.00     0.012 C 
ATOM      8  C14 <0> d   1      18.001   0.559  10.810  0.00  0.00    -0.011 C 
ATOM      9  C15 <0> d   1      18.162  -0.740  10.017  0.00  0.00     0.018 C 
ATOM     10  C16 <0> d   1      16.853   0.436  11.813  0.00  0.00     0.018 C 
ENDROOT
BRANCH   1  11
ATOM     11  N2  <0> d   1      19.045   1.062  12.998  0.00  0.00    -0.069 N 
ATOM     12  C1  <0> d   1      20.002   0.238  13.748  0.00  0.00     0.267 C 
ATOM     13  H3  <0> d   1      18.106   0.756  13.201  0.00  0.00     0.277 HD
ATOM     14  H4  <0> d   1      19.150   2.029  13.269  0.00  0.00     0.277 HD
ENDBRANCH   1  11
TORSDOF 1
ENDMDL
MODEL 8
REMARK VINA RESULT:      -4.6      3.901      5.687
REMARK  1 active torsions:
REMARK  status: ('A' for Active; 'I' for Inactive)
REMARK    1  A    between atoms: N2_2  and  C5_5 
ROOT
ATOM      1  C5  <0> d   1      18.969  -3.167   9.566  0.00  0.00     0.132 C 
ATOM      2  C6  <0> d   1      19.185  -3.351   8.063  0.00  0.00     0.047 C 
ATOM      3  C7  <0> d   1      17.448  -3.052   9.890  0.00  0.00     0.022 C 
ATOM      4  C9  <0> d   1      17.400  -2.617  11.387  0.00  0.00     0.007 C 
ATOM      5  C10 <0> d   1      17.874  -3.861  12.172  0.00  0.00     0.006 C 
ATOM      6  C11 <0> d   1      18.164  -4.932  11.076  0.00  0.00    -0.004 C 
ATOM      7  C13 <0> d   1      17.059  -4.570   9.996  0.00  0.00     0.012 C 
ATOM      8  C14 <0> d   1      19.439  -4.424  10.335  0.00  0.00    -0.011 C 
ATOM      9  C15 <0> d   1      19.963  -5.497   9.379  0.00  0.00     0.018 C 
ATOM     10  C16 <0> d   1      20.521  -4.031  11.343  0.00  0.00     0.018 C 
ENDROOT
BRANCH   1  11
ATOM     11  N2  <0> d   1      19.685  -1.977  10.045  0.00  0.00    -0.069 N 
ATOM     12  C1  <0> d   1      19.611  -0.920   9.029  0.00  0.00     0.267 C 
ATOM     13  H3  <0> d   1      20.652  -2.212  10.215  0.00  0.00     0.277 HD
ATOM     14  H4  <0> d   1      19.262  -1.651  10.902  0.00  0.00     0.277 HD
ENDBRANCH   1  11
TORSDOF 1
ENDMDL
MODEL 9
REMARK VINA RESULT:      -4.6      1.932      4.100
REMARK  1 active torsions:
REMARK  status: ('A' for Active; 'I' for Inactive)
REMARK    1  A    between atoms: N2_2  and  C5_5 
ROOT
ATOM      1  C5  <0> d   1      19.356  -0.274  11.991  0.00  0.00     0.132 C 
ATOM      2  C6  <0> d   1      20.320   0.240  13.062  0.00  0.00     0.047 C 
ATOM      3  C7  <0> d   1      19.994  -1.458  11.204  0.00  0.00     0.022 C 
ATOM      4  C9  <0> d   1      19.026  -1.698  10.005  0.00  0.00     0.007 C 
ATOM      5  C10 <0> d   1      17.752  -2.296  10.645  0.00  0.00     0.006 C 
ATOM      6  C11 <0> d   1      18.070  -2.362  12.171  0.00  0.00    -0.004 C 
ATOM      7  C13 <0> d   1      19.628  -2.662  12.144  0.00  0.00     0.012 C 
ATOM      8  C14 <0> d   1      18.092  -0.877  12.649  0.00  0.00    -0.011 C 
ATOM      9  C15 <0> d   1      18.173  -0.809  14.175  0.00  0.00     0.018 C 
ATOM     10  C16 <0> d   1      16.852  -0.136  12.145  0.00  0.00     0.018 C 
ENDROOT
BRANCH   1  11
ATOM     11  N2  <0> d   1      18.986   0.811  11.072  0.00  0.00    -0.069 N 
ATOM     12  C1  <0> d   1      19.645   2.054  11.492  0.00  0.00     0.267 C 
ATOM     13  H3  <0> d   1      17.985   0.939  11.088  0.00  0.00     0.277 HD
ATOM     14  H4  <0> d   1      19.280   0.574  10.136  0.00  0.00     0.277 HD
ENDBRANCH   1  11
TORSDOF 1
ENDMDL
