MODEL 1
REMARK VINA RESULT:      -8.7      0.000      0.000
REMARK  6 active torsions:
REMARK  status: ('A' for Active; 'I' for Inactive)
REMARK    1  A    between atoms: N12_12  and  C13_13 
REMARK    2  A    between atoms: C13_13  and  C14_14 
REMARK    3  A    between atoms: C14_14  and  C15_15 
REMARK    4  A    between atoms: C15_15  and  C16_16 
REMARK    5  A    between atoms: C16_16  and  N17_17 
REMARK    6  A    between atoms: N21_21  and  C22_22 
ROOT
ATOM      1  C15 <0> d   1      18.417   0.828   9.046  0.00  0.00     0.029 C 
ENDROOT
BRANCH   1   2
ATOM      2  C14 <0> d   1      18.487   2.196   9.726  0.00  0.00     0.022 C 
BRANCH   2   3
ATOM      3  C13 <0> d   1      17.552   2.212  10.937  0.00  0.00     0.135 C 
BRANCH   3   4
ATOM      4  N12 <0> d   1      18.001   1.217  11.915  0.00  0.00    -0.288 N 
ATOM      5  C2  <0> d   1      19.184   1.398  12.517  0.00  0.00     0.227 C 
ATOM      6  O1  <0> d   1      19.840   2.384  12.256  0.00  0.00    -0.273 OA
ATOM      7  C3  <0> d   1      19.713   0.403  13.517  0.00  0.00     0.113 C 
ATOM      8  C4  <0> d   1      18.539  -0.299  14.198  0.00  0.00    -0.024 C 
ATOM      9  C8  <0> d   1      17.749   0.709  15.053  0.00  0.00     0.010 C 
ATOM     10  C5  <0> d   1      19.051  -1.389  15.148  0.00  0.00     0.010 C 
ATOM     11  C9  <0> d   1      17.624  -0.911  13.138  0.00  0.00     0.113 C 
ATOM     12  C7  <0> d   1      17.323  -0.107  16.299  0.00  0.00     0.001 C 
ATOM     13  C6  <0> d   1      18.556  -1.007  16.559  0.00  0.00     0.001 C 
ATOM     14  C10 <0> d   1      17.214   0.159  12.159  0.00  0.00     0.227 C 
ATOM     15  O11 <0> d   1      16.150   0.064  11.587  0.00  0.00    -0.273 OA
ENDBRANCH   3   4
ENDBRANCH   2   3
ENDBRANCH   1   2
BRANCH   1  16
ATOM     16  C16 <0> d   1      19.831   0.270   8.876  0.00  0.00     0.235 C 
BRANCH  16  17
ATOM     17  N17 <0> d   1      19.763  -1.186   8.693  0.00  0.00    -0.068 N 
ATOM     18  H18 <0> d   1      20.695  -1.571   8.711  0.00  0.00     0.280 HD
ATOM     19  C29 <0> d   1      18.972  -1.779   9.779  0.00  0.00     0.255 C 
ATOM     20  C28 <0> d   1      18.997  -3.305   9.655  0.00  0.00     0.169 C 
ATOM     21  N21 <0> d   1      18.540  -3.670   8.304  0.00  0.00    -0.211 N 
ATOM     22  C20 <0> d   1      19.168  -2.999   7.156  0.00  0.00     0.169 C 
ATOM     23  C19 <0> d   1      19.136  -1.486   7.399  0.00  0.00     0.255 C 
BRANCH  21  24
ATOM     24  C22 <0> d   1      17.548  -4.616   8.120  0.00  0.00     0.724 A 
ATOM     25  N27 <0> d   1      17.514  -5.307   6.990  0.00  0.00    -0.075 NA
ATOM     26  C26 <0> d   1      16.581  -6.223   6.785  0.00  0.00     0.138 A 
ATOM     27  C25 <0> d   1      15.627  -6.447   7.764  0.00  0.00     0.040 A 
ATOM     28  C24 <0> d   1      15.688  -5.702   8.931  0.00  0.00     0.138 A 
ATOM     29  N23 <0> d   1      16.649  -4.806   9.076  0.00  0.00    -0.075 NA
ENDBRANCH  21  24
ENDBRANCH  16  17
ENDBRANCH   1  16
TORSDOF 6
ENDMDL
MODEL 2
REMARK VINA RESULT:      -8.6      3.112      8.523
REMARK  6 active torsions:
REMARK  status: ('A' for Active; 'I' for Inactive)
REMARK    1  A    between atoms: N12_12  and  C13_13 
REMARK    2  A    between atoms: C13_13  and  C14_14 
REMARK    3  A    between atoms: C14_14  and  C15_15 
REMARK    4  A    between atoms: C15_15  and  C16_16 
REMARK    5  A    between atoms: C16_16  and  N17_17 
REMARK    6  A    between atoms: N21_21  and  C22_22 
ROOT
ATOM      1  C15 <0> d   1      18.477  -0.580  13.823  0.00  0.00     0.029 C 
ENDROOT
BRANCH   1   2
ATOM      2  C14 <0> d   1      18.549  -1.966  13.178  0.00  0.00     0.022 C 
BRANCH   2   3
ATOM      3  C13 <0> d   1      17.586  -2.027  11.991  0.00  0.00     0.135 C 
BRANCH   3   4
ATOM      4  N12 <0> d   1      18.030  -1.094  10.952  0.00  0.00    -0.288 N 
ATOM      5  C2  <0> d   1      19.191  -1.336  10.328  0.00  0.00     0.227 C 
ATOM      6  O1  <0> d   1      19.830  -2.323  10.621  0.00  0.00    -0.273 OA
ATOM      7  C3  <0> d   1      19.715  -0.406   9.264  0.00  0.00     0.113 C 
ATOM      8  C4  <0> d   1      18.539   0.291   8.581  0.00  0.00    -0.024 C 
ATOM      9  C8  <0> d   1      17.702  -0.739   7.800  0.00  0.00     0.010 C 
ATOM     10  C5  <0> d   1      19.050   1.318   7.563  0.00  0.00     0.010 C 
ATOM     11  C9  <0> d   1      17.670   0.978   9.633  0.00  0.00     0.113 C 
ATOM     12  C7  <0> d   1      17.260   0.024   6.526  0.00  0.00     0.001 C 
ATOM     13  C6  <0> d   1      18.507   0.878   6.187  0.00  0.00     0.001 C 
ATOM     14  C10 <0> d   1      17.262  -0.030  10.675  0.00  0.00     0.227 C 
ATOM     15  O11 <0> d   1      16.217   0.121  11.271  0.00  0.00    -0.273 OA
ENDBRANCH   3   4
ENDBRANCH   2   3
ENDBRANCH   1   2
BRANCH   1  16
ATOM     16  C16 <0> d   1      19.875   0.041  13.855  0.00  0.00     0.235 C 
BRANCH  16  17
ATOM     17  N17 <0> d   1      19.766   1.478  14.139  0.00  0.00    -0.068 N 
ATOM     18  H18 <0> d   1      20.688   1.885  14.171  0.00  0.00     0.280 HD
ATOM     19  C29 <0> d   1      18.984   2.127  13.079  0.00  0.00     0.255 C 
ATOM     20  C28 <0> d   1      18.967   3.641  13.311  0.00  0.00     0.169 C 
ATOM     21  N21 <0> d   1      18.471   3.897  14.673  0.00  0.00    -0.211 N 
ATOM     22  C20 <0> d   1      19.090   3.160  15.786  0.00  0.00     0.169 C 
ATOM     23  C19 <0> d   1      19.102   1.669  15.435  0.00  0.00     0.255 C 
BRANCH  21  24
ATOM     24  C22 <0> d   1      17.450   4.803  14.899  0.00  0.00     0.724 A 
ATOM     25  N27 <0> d   1      17.317   5.340  16.104  0.00  0.00    -0.075 NA
ATOM     26  C26 <0> d   1      16.356   6.214  16.352  0.00  0.00     0.138 A 
ATOM     27  C25 <0> d   1      15.475   6.557  15.338  0.00  0.00     0.040 A 
ATOM     28  C24 <0> d   1      15.638   5.971  14.093  0.00  0.00     0.138 A 
ATOM     29  N23 <0> d   1      16.624   5.109  13.909  0.00  0.00    -0.075 NA
ENDBRANCH  21  24
ENDBRANCH  16  17
ENDBRANCH   1  16
TORSDOF 6
ENDMDL
MODEL 3
REMARK VINA RESULT:      -8.6      2.025      4.991
REMARK  6 active torsions:
REMARK  status: ('A' for Active; 'I' for Inactive)
REMARK    1  A    between atoms: N12_12  and  C13_13 
REMARK    2  A    between atoms: C13_13  and  C14_14 
REMARK    3  A    between atoms: C14_14  and  C15_15 
REMARK    4  A    between atoms: C15_15  and  C16_16 
REMARK    5  A    between atoms: C16_16  and  N17_17 
REMARK    6  A    between atoms: N21_21  and  C22_22 
ROOT
ATOM      1  C15 <0> d   1      19.659  -0.726  13.370  0.00  0.00     0.029 C 
ENDROOT
BRANCH   1   2
ATOM      2  C14 <0> d   1      19.348   0.769  13.277  0.00  0.00     0.022 C 
BRANCH   2   3
ATOM      3  C13 <0> d   1      19.961   1.339  11.996  0.00  0.00     0.135 C 
BRANCH   3   4
ATOM      4  N12 <0> d   1      19.294   0.751  10.832  0.00  0.00    -0.288 N 
ATOM      5  C2  <0> d   1      18.027   1.102  10.573  0.00  0.00     0.227 C 
ATOM      6  O1  <0> d   1      17.474   1.907  11.292  0.00  0.00    -0.273 OA
ATOM      7  C3  <0> d   1      17.277   0.520   9.404  0.00  0.00     0.113 C 
ATOM      8  C4  <0> d   1      18.270   0.146   8.305  0.00  0.00    -0.024 C 
ATOM      9  C8  <0> d   1      18.925   1.418   7.735  0.00  0.00     0.010 C 
ATOM     10  C5  <0> d   1      17.542  -0.542   7.143  0.00  0.00     0.010 C 
ATOM     11  C9  <0> d   1      19.343  -0.780   8.877  0.00  0.00     0.113 C 
ATOM     12  C7  <0> d   1      19.074   1.120   6.222  0.00  0.00     0.001 C 
ATOM     13  C6  <0> d   1      17.776   0.338   5.897  0.00  0.00     0.001 C 
ATOM     14  C10 <0> d   1      19.976  -0.124  10.077  0.00  0.00     0.227 C 
ATOM     15  O11 <0> d   1      21.124  -0.388  10.361  0.00  0.00    -0.273 OA
ENDBRANCH   3   4
ENDBRANCH   2   3
ENDBRANCH   1   2
BRANCH   1  16
ATOM     16  C16 <0> d   1      18.359  -1.504  13.588  0.00  0.00     0.235 C 
BRANCH  16  17
ATOM     17  N17 <0> d   1      18.350  -2.693  12.726  0.00  0.00    -0.068 N 
ATOM     18  H18 <0> d   1      18.072  -3.497  13.266  0.00  0.00     0.280 HD
ATOM     19  C29 <0> d   1      17.399  -2.492  11.626  0.00  0.00     0.255 C 
ATOM     20  C28 <0> d   1      17.303  -3.774  10.793  0.00  0.00     0.169 C 
ATOM     21  N21 <0> d   1      18.658  -4.149  10.359  0.00  0.00    -0.211 N 
ATOM     22  C20 <0> d   1      19.718  -4.214  11.377  0.00  0.00     0.169 C 
ATOM     23  C19 <0> d   1      19.698  -2.911  12.184  0.00  0.00     0.255 C 
BRANCH  21  24
ATOM     24  C22 <0> d   1      18.928  -4.432   9.032  0.00  0.00     0.724 A 
ATOM     25  N27 <0> d   1      18.066  -4.049   8.101  0.00  0.00    -0.075 NA
ATOM     26  C26 <0> d   1      18.296  -4.299   6.822  0.00  0.00     0.138 A 
ATOM     27  C25 <0> d   1      19.448  -4.981   6.464  0.00  0.00     0.040 A 
ATOM     28  C24 <0> d   1      20.325  -5.372   7.463  0.00  0.00     0.138 A 
ATOM     29  N23 <0> d   1      20.038  -5.086   8.722  0.00  0.00    -0.075 NA
ENDBRANCH  21  24
ENDBRANCH  16  17
ENDBRANCH   1  16
TORSDOF 6
ENDMDL
MODEL 4
REMARK VINA RESULT:      -8.4      1.984      2.397
REMARK  6 active torsions:
REMARK  status: ('A' for Active; 'I' for Inactive)
REMARK    1  A    between atoms: N12_12  and  C13_13 
REMARK    2  A    between atoms: C13_13  and  C14_14 
REMARK    3  A    between atoms: C14_14  and  C15_15 
REMARK    4  A    between atoms: C15_15  and  C16_16 
REMARK    5  A    between atoms: C16_16  and  N17_17 
REMARK    6  A    between atoms: N21_21  and  C22_22 
ROOT
ATOM      1  C15 <0> d   1      18.467   1.355   9.183  0.00  0.00     0.029 C 
ENDROOT
BRANCH   1   2
ATOM      2  C14 <0> d   1      18.409   2.617  10.046  0.00  0.00     0.022 C 
BRANCH   2   3
ATOM      3  C13 <0> d   1      17.421   2.404  11.195  0.00  0.00     0.135 C 
BRANCH   3   4
ATOM      4  N12 <0> d   1      17.939   1.374  12.100  0.00  0.00    -0.288 N 
ATOM      5  C2  <0> d   1      19.075   1.618  12.767  0.00  0.00     0.227 C 
ATOM      6  O1  <0> d   1      19.632   2.685  12.622  0.00  0.00    -0.273 OA
ATOM      7  C3  <0> d   1      19.671   0.593  13.697  0.00  0.00     0.113 C 
ATOM      8  C4  <0> d   1      18.555  -0.284  14.261  0.00  0.00    -0.024 C 
ATOM      9  C8  <0> d   1      17.635   0.555  15.167  0.00  0.00     0.010 C 
ATOM     10  C5  <0> d   1      19.146  -1.400  15.133  0.00  0.00     0.010 C 
ATOM     11  C9  <0> d   1      17.746  -0.886  13.113  0.00  0.00     0.113 C 
ATOM     12  C7  <0> d   1      17.254  -0.412  16.316  0.00  0.00     0.001 C 
ATOM     13  C6  <0> d   1      18.566  -1.201  16.550  0.00  0.00     0.001 C 
ATOM     14  C10 <0> d   1      17.259   0.223  12.215  0.00  0.00     0.227 C 
ATOM     15  O11 <0> d   1      16.231   0.073  11.591  0.00  0.00    -0.273 OA
ENDBRANCH   3   4
ENDBRANCH   2   3
ENDBRANCH   1   2
BRANCH   1  16
ATOM     16  C16 <0> d   1      19.079   1.696   7.823  0.00  0.00     0.235 C 
BRANCH  16  17
ATOM     17  N17 <0> d   1      19.391   0.455   7.102  0.00  0.00    -0.068 N 
ATOM     18  H18 <0> d   1      20.390   0.319   7.084  0.00  0.00     0.280 HD
ATOM     19  C29 <0> d   1      18.758  -0.680   7.786  0.00  0.00     0.255 C 
ATOM     20  C28 <0> d   1      19.178  -1.985   7.104  0.00  0.00     0.169 C 
ATOM     21  N21 <0> d   1      18.855  -1.886   5.672  0.00  0.00    -0.211 N 
ATOM     22  C20 <0> d   1      19.311  -0.694   4.940  0.00  0.00     0.169 C 
ATOM     23  C19 <0> d   1      18.886   0.551   5.726  0.00  0.00     0.255 C 
BRANCH  21  24
ATOM     24  C22 <0> d   1      18.143  -2.885   5.032  0.00  0.00     0.724 A 
ATOM     25  N27 <0> d   1      18.380  -4.151   5.345  0.00  0.00    -0.075 NA
ATOM     26  C26 <0> d   1      17.713  -5.130   4.756  0.00  0.00     0.138 A 
ATOM     27  C25 <0> d   1      16.767  -4.819   3.793  0.00  0.00     0.040 A 
ATOM     28  C24 <0> d   1      16.549  -3.485   3.484  0.00  0.00     0.138 A 
ATOM     29  N23 <0> d   1      17.245  -2.554   4.115  0.00  0.00    -0.075 NA
ENDBRANCH  21  24
ENDBRANCH  16  17
ENDBRANCH   1  16
TORSDOF 6
ENDMDL
MODEL 5
REMARK VINA RESULT:      -8.4      3.040      6.478
REMARK  6 active torsions:
REMARK  status: ('A' for Active; 'I' for Inactive)
REMARK    1  A    between atoms: N12_12  and  C13_13 
REMARK    2  A    between atoms: C13_13  and  C14_14 
REMARK    3  A    between atoms: C14_14  and  C15_15 
REMARK    4  A    between atoms: C15_15  and  C16_16 
REMARK    5  A    between atoms: C16_16  and  N17_17 
REMARK    6  A    between atoms: N21_21  and  C22_22 
ROOT
ATOM      1  C15 <0> d   1      18.401  -0.688   9.414  0.00  0.00     0.029 C 
ENDROOT
BRANCH   1   2
ATOM      2  C14 <0> d   1      18.531  -2.036  10.125  0.00  0.00     0.022 C 
BRANCH   2   3
ATOM      3  C13 <0> d   1      17.529  -2.101  11.280  0.00  0.00     0.135 C 
BRANCH   3   4
ATOM      4  N12 <0> d   1      17.974  -1.219  12.363  0.00  0.00    -0.288 N 
ATOM      5  C2  <0> d   1      17.240  -0.136  12.650  0.00  0.00     0.227 C 
ATOM      6  O1  <0> d   1      16.223   0.076  12.025  0.00  0.00    -0.273 OA
ATOM      7  C3  <0> d   1      17.652   0.822  13.737  0.00  0.00     0.113 C 
ATOM      8  C4  <0> d   1      18.459   0.068  14.793  0.00  0.00    -0.024 C 
ATOM      9  C8  <0> d   1      17.557  -0.952  15.513  0.00  0.00     0.010 C 
ATOM     10  C5  <0> d   1      18.976   1.041  15.861  0.00  0.00     0.010 C 
ATOM     11  C9  <0> d   1      19.629  -0.653  14.126  0.00  0.00     0.113 C 
ATOM     12  C7  <0> d   1      18.048  -0.918  16.982  0.00  0.00     0.001 C 
ATOM     13  C6  <0> d   1      18.367   0.582  17.203  0.00  0.00     0.001 C 
ATOM     14  C10 <0> d   1      19.105  -1.527  13.016  0.00  0.00     0.227 C 
ATOM     15  O11 <0> d   1      19.714  -2.530  12.712  0.00  0.00    -0.273 OA
ENDBRANCH   3   4
ENDBRANCH   2   3
ENDBRANCH   1   2
BRANCH   1  16
ATOM     16  C16 <0> d   1      19.774  -0.014   9.345  0.00  0.00     0.235 C 
BRANCH  16  17
ATOM     17  N17 <0> d   1      19.652   1.386   9.773  0.00  0.00    -0.068 N 
ATOM     18  H18 <0> d   1      20.239   1.966   9.192  0.00  0.00     0.280 HD
ATOM     19  C29 <0> d   1      18.255   1.819   9.639  0.00  0.00     0.255 C 
ATOM     20  C28 <0> d   1      18.149   3.310   9.973  0.00  0.00     0.169 C 
ATOM     21  N21 <0> d   1      18.725   3.529  11.309  0.00  0.00    -0.211 N 
ATOM     22  C20 <0> d   1      20.063   2.982  11.586  0.00  0.00     0.169 C 
ATOM     23  C19 <0> d   1      20.079   1.507  11.173  0.00  0.00     0.255 C 
BRANCH  21  24
ATOM     24  C22 <0> d   1      18.028   4.230  12.278  0.00  0.00     0.724 A 
ATOM     25  N27 <0> d   1      18.496   4.259  13.518  0.00  0.00    -0.075 NA
ATOM     26  C26 <0> d   1      17.857   4.924  14.466  0.00  0.00     0.138 A 
ATOM     27  C25 <0> d   1      16.680   5.584  14.153  0.00  0.00     0.040 A 
ATOM     28  C24 <0> d   1      16.215   5.527  12.849  0.00  0.00     0.138 A 
ATOM     29  N23 <0> d   1      16.905   4.850  11.946  0.00  0.00    -0.075 NA
ENDBRANCH  21  24
ENDBRANCH  16  17
ENDBRANCH   1  16
TORSDOF 6
ENDMDL
MODEL 6
REMARK VINA RESULT:      -8.3      2.278      6.995
REMARK  6 active torsions:
REMARK  status: ('A' for Active; 'I' for Inactive)
REMARK    1  A    between atoms: N12_12  and  C13_13 
REMARK    2  A    between atoms: C13_13  and  C14_14 
REMARK    3  A    between atoms: C14_14  and  C15_15 
REMARK    4  A    between atoms: C15_15  and  C16_16 
REMARK    5  A    between atoms: C16_16  and  N17_17 
REMARK    6  A    between atoms: N21_21  and  C22_22 
ROOT
ATOM      1  C15 <0> d   1      18.584   2.203   9.287  0.00  0.00     0.029 C 
ENDROOT
BRANCH   1   2
ATOM      2  C14 <0> d   1      19.043   0.855   8.727  0.00  0.00     0.022 C 
BRANCH   2   3
ATOM      3  C13 <0> d   1      17.847  -0.096   8.643  0.00  0.00     0.135 C 
BRANCH   3   4
ATOM      4  N12 <0> d   1      18.094  -1.267   9.488  0.00  0.00    -0.288 N 
ATOM      5  C2  <0> d   1      17.476  -1.344  10.675  0.00  0.00     0.227 C 
ATOM      6  O1  <0> d   1      16.718  -0.459  11.009  0.00  0.00    -0.273 OA
ATOM      7  C3  <0> d   1      17.701  -2.511  11.600  0.00  0.00     0.113 C 
ATOM      8  C4  <0> d   1      18.059  -3.746  10.774  0.00  0.00    -0.024 C 
ATOM      9  C8  <0> d   1      16.852  -4.172   9.919  0.00  0.00     0.010 C 
ATOM     10  C5  <0> d   1      18.392  -4.924  11.699  0.00  0.00     0.010 C 
ATOM     11  C9  <0> d   1      19.251  -3.431   9.872  0.00  0.00     0.113 C 
ATOM     12  C7  <0> d   1      16.910  -5.721   9.932  0.00  0.00     0.001 C 
ATOM     13  C6  <0> d   1      17.370  -6.035  11.377  0.00  0.00     0.001 C 
ATOM     14  C10 <0> d   1      18.938  -2.211   9.045  0.00  0.00     0.227 C 
ATOM     15  O11 <0> d   1      19.454  -2.083   7.956  0.00  0.00    -0.273 OA
ENDBRANCH   3   4
ENDBRANCH   2   3
ENDBRANCH   1   2
BRANCH   1  16
ATOM     16  C16 <0> d   1      19.385   2.529  10.550  0.00  0.00     0.235 C 
BRANCH  16  17
ATOM     17  N17 <0> d   1      18.974   1.628  11.635  0.00  0.00    -0.068 N 
ATOM     18  H18 <0> d   1      18.431   0.868  11.253  0.00  0.00     0.280 HD
ATOM     19  C29 <0> d   1      20.167   1.087  12.299  0.00  0.00     0.255 C 
ATOM     20  C28 <0> d   1      19.743   0.059  13.352  0.00  0.00     0.169 C 
ATOM     21  N21 <0> d   1      18.780   0.698  14.264  0.00  0.00    -0.211 N 
ATOM     22  C20 <0> d   1      17.635   1.409  13.675  0.00  0.00     0.169 C 
ATOM     23  C19 <0> d   1      18.159   2.372  12.604  0.00  0.00     0.255 C 
BRANCH  21  24
ATOM     24  C22 <0> d   1      18.947   0.632  15.636  0.00  0.00     0.724 A 
ATOM     25  N27 <0> d   1      19.101   1.754  16.324  0.00  0.00    -0.075 NA
ATOM     26  C26 <0> d   1      19.258   1.726  17.637  0.00  0.00     0.138 A 
ATOM     27  C25 <0> d   1      19.273   0.504  18.290  0.00  0.00     0.040 A 
ATOM     28  C24 <0> d   1      19.116  -0.650  17.540  0.00  0.00     0.138 A 
ATOM     29  N23 <0> d   1      18.958  -0.553  16.230  0.00  0.00    -0.075 NA
ENDBRANCH  21  24
ENDBRANCH  16  17
ENDBRANCH   1  16
TORSDOF 6
ENDMDL
MODEL 7
REMARK VINA RESULT:      -8.3      1.598      2.349
REMARK  6 active torsions:
REMARK  status: ('A' for Active; 'I' for Inactive)
REMARK    1  A    between atoms: N12_12  and  C13_13 
REMARK    2  A    between atoms: C13_13  and  C14_14 
REMARK    3  A    between atoms: C14_14  and  C15_15 
REMARK    4  A    between atoms: C15_15  and  C16_16 
REMARK    5  A    between atoms: C16_16  and  N17_17 
REMARK    6  A    between atoms: N21_21  and  C22_22 
ROOT
ATOM      1  C15 <0> d   1      18.142   3.206   9.795  0.00  0.00     0.029 C 
ENDROOT
BRANCH   1   2
ATOM      2  C14 <0> d   1      18.416   3.759  11.195  0.00  0.00     0.022 C 
BRANCH   2   3
ATOM      3  C13 <0> d   1      17.387   3.193  12.177  0.00  0.00     0.135 C 
BRANCH   3   4
ATOM      4  N12 <0> d   1      17.966   2.050  12.887  0.00  0.00    -0.288 N 
ATOM      5  C2  <0> d   1      18.940   2.277  13.780  0.00  0.00     0.227 C 
ATOM      6  O1  <0> d   1      19.301   3.414  13.991  0.00  0.00    -0.273 OA
ATOM      7  C3  <0> d   1      19.592   1.144  14.531  0.00  0.00     0.113 C 
ATOM      8  C4  <0> d   1      18.596  -0.006  14.669  0.00  0.00    -0.024 C 
ATOM      9  C8  <0> d   1      17.425   0.419  15.573  0.00  0.00     0.010 C 
ATOM     10  C5  <0> d   1      19.267  -1.211  15.341  0.00  0.00     0.010 C 
ATOM     11  C9  <0> d   1      18.071  -0.398  13.288  0.00  0.00     0.113 C 
ATOM     12  C7  <0> d   1      17.086  -0.861  16.377  0.00  0.00     0.001 C 
ATOM     13  C6  <0> d   1      18.481  -1.481  16.642  0.00  0.00     0.001 C 
ATOM     14  C10 <0> d   1      17.506   0.822  12.608  0.00  0.00     0.227 C 
ATOM     15  O11 <0> d   1      16.615   0.690  11.797  0.00  0.00    -0.273 OA
ENDBRANCH   3   4
ENDBRANCH   2   3
ENDBRANCH   1   2
BRANCH   1  16
ATOM     16  C16 <0> d   1      19.267   2.248   9.396  0.00  0.00     0.235 C 
BRANCH  16  17
ATOM     17  N17 <0> d   1      18.778   0.865   9.467  0.00  0.00    -0.068 N 
ATOM     18  H18 <0> d   1      18.045   0.802  10.156  0.00  0.00     0.280 HD
ATOM     19  C29 <0> d   1      18.250   0.465   8.156  0.00  0.00     0.255 C 
ATOM     20  C28 <0> d   1      17.635  -0.934   8.259  0.00  0.00     0.169 C 
ATOM     21  N21 <0> d   1      18.650  -1.849   8.806  0.00  0.00    -0.211 N 
ATOM     22  C20 <0> d   1      19.352  -1.449  10.035  0.00  0.00     0.169 C 
ATOM     23  C19 <0> d   1      19.884  -0.024   9.849  0.00  0.00     0.255 C 
BRANCH  21  24
ATOM     24  C22 <0> d   1      18.935  -3.050   8.182  0.00  0.00     0.724 A 
ATOM     25  N27 <0> d   1      18.634  -4.185   8.796  0.00  0.00    -0.075 NA
ATOM     26  C26 <0> d   1      18.889  -5.351   8.225  0.00  0.00     0.138 A 
ATOM     27  C25 <0> d   1      19.488  -5.375   6.976  0.00  0.00     0.040 A 
ATOM     28  C24 <0> d   1      19.795  -4.170   6.365  0.00  0.00     0.138 A 
ATOM     29  N23 <0> d   1      19.509  -3.039   6.988  0.00  0.00    -0.075 NA
ENDBRANCH  21  24
ENDBRANCH  16  17
ENDBRANCH   1  16
TORSDOF 6
ENDMDL
MODEL 8
REMARK VINA RESULT:      -8.2      3.618      7.561
REMARK  6 active torsions:
REMARK  status: ('A' for Active; 'I' for Inactive)
REMARK    1  A    between atoms: N12_12  and  C13_13 
REMARK    2  A    between atoms: C13_13  and  C14_14 
REMARK    3  A    between atoms: C14_14  and  C15_15 
REMARK    4  A    between atoms: C15_15  and  C16_16 
REMARK    5  A    between atoms: C16_16  and  N17_17 
REMARK    6  A    between atoms: N21_21  and  C22_22 
ROOT
ATOM      1  C15 <0> d   1      18.713   2.933  10.179  0.00  0.00     0.029 C 
ENDROOT
BRANCH   1   2
ATOM      2  C14 <0> d   1      17.812   1.718  10.414  0.00  0.00     0.022 C 
BRANCH   2   3
ATOM      3  C13 <0> d   1      18.644   0.438  10.308  0.00  0.00     0.135 C 
BRANCH   3   4
ATOM      4  N12 <0> d   1      18.823  -0.140  11.642  0.00  0.00    -0.288 N 
ATOM      5  C2  <0> d   1      19.892   0.227  12.362  0.00  0.00     0.227 C 
ATOM      6  O1  <0> d   1      20.668   1.038  11.904  0.00  0.00    -0.273 OA
ATOM      7  C3  <0> d   1      20.145  -0.344  13.733  0.00  0.00     0.113 C 
ATOM      8  C4  <0> d   1      18.811  -0.729  14.372  0.00  0.00    -0.024 C 
ATOM      9  C8  <0> d   1      17.974   0.535  14.641  0.00  0.00     0.010 C 
ATOM     10  C5  <0> d   1      19.048  -1.407  15.728  0.00  0.00     0.010 C 
ATOM     11  C9  <0> d   1      18.049  -1.669  13.439  0.00  0.00     0.113 C 
ATOM     12  C7  <0> d   1      17.263   0.236  15.984  0.00  0.00     0.001 C 
ATOM     13  C6  <0> d   1      18.346  -0.528  16.785  0.00  0.00     0.001 C 
ATOM     14  C10 <0> d   1      17.915  -1.022  12.085  0.00  0.00     0.227 C 
ATOM     15  O11 <0> d   1      16.965  -1.301  11.385  0.00  0.00    -0.273 OA
ENDBRANCH   3   4
ENDBRANCH   2   3
ENDBRANCH   1   2
BRANCH   1  16
ATOM     16  C16 <0> d   1      17.882   4.213  10.293  0.00  0.00     0.235 C 
BRANCH  16  17
ATOM     17  N17 <0> d   1      18.126   4.840  11.598  0.00  0.00    -0.068 N 
ATOM     18  H18 <0> d   1      18.322   5.820  11.469  0.00  0.00     0.280 HD
ATOM     19  C29 <0> d   1      16.936   4.688  12.444  0.00  0.00     0.255 C 
ATOM     20  C28 <0> d   1      17.146   5.441  13.761  0.00  0.00     0.169 C 
ATOM     21  N21 <0> d   1      18.391   4.958  14.379  0.00  0.00    -0.211 N 
ATOM     22  C20 <0> d   1      19.606   4.920  13.550  0.00  0.00     0.169 C 
ATOM     23  C19 <0> d   1      19.278   4.193  12.241  0.00  0.00     0.255 C 
BRANCH  21  24
ATOM     24  C22 <0> d   1      18.419   4.552  15.701  0.00  0.00     0.724 A 
ATOM     25  N27 <0> d   1      19.190   3.532  16.049  0.00  0.00    -0.075 NA
ATOM     26  C26 <0> d   1      19.243   3.122  17.306  0.00  0.00     0.138 A 
ATOM     27  C25 <0> d   1      18.471   3.766  18.260  0.00  0.00     0.040 A 
ATOM     28  C24 <0> d   1      17.671   4.824  17.861  0.00  0.00     0.138 A 
ATOM     29  N23 <0> d   1      17.668   5.188  16.589  0.00  0.00    -0.075 NA
ENDBRANCH  21  24
ENDBRANCH  16  17
ENDBRANCH   1  16
TORSDOF 6
ENDMDL
MODEL 9
REMARK VINA RESULT:      -8.1      2.336      6.806
REMARK  6 active torsions:
REMARK  status: ('A' for Active; 'I' for Inactive)
REMARK    1  A    between atoms: N12_12  and  C13_13 
REMARK    2  A    between atoms: C13_13  and  C14_14 
REMARK    3  A    between atoms: C14_14  and  C15_15 
REMARK    4  A    between atoms: C15_15  and  C16_16 
REMARK    5  A    between atoms: C16_16  and  N17_17 
REMARK    6  A    between atoms: N21_21  and  C22_22 
ROOT
ATOM      1  C15 <0> d   1      18.417   1.813   9.228  0.00  0.00     0.029 C 
ENDROOT
BRANCH   1   2
ATOM      2  C14 <0> d   1      18.023   0.418   8.739  0.00  0.00     0.022 C 
BRANCH   2   3
ATOM      3  C13 <0> d   1      19.280  -0.352   8.328  0.00  0.00     0.135 C 
BRANCH   3   4
ATOM      4  N12 <0> d   1      19.317  -1.637   9.032  0.00  0.00    -0.288 N 
ATOM      5  C2  <0> d   1      19.884  -1.688  10.245  0.00  0.00     0.227 C 
ATOM      6  O1  <0> d   1      20.331  -0.674  10.736  0.00  0.00    -0.273 OA
ATOM      7  C3  <0> d   1      19.972  -2.981  11.014  0.00  0.00     0.113 C 
ATOM      8  C4  <0> d   1      18.812  -3.889  10.605  0.00  0.00    -0.024 C 
ATOM      9  C8  <0> d   1      17.477  -3.272  11.060  0.00  0.00     0.010 C 
ATOM     10  C5  <0> d   1      18.936  -5.252  11.299  0.00  0.00     0.010 C 
ATOM     11  C9  <0> d   1      18.812  -4.068   9.087  0.00  0.00     0.113 C 
ATOM     12  C7  <0> d   1      16.624  -4.492  11.488  0.00  0.00     0.001 C 
ATOM     13  C6  <0> d   1      17.667  -5.420  12.161  0.00  0.00     0.001 C 
ATOM     14  C10 <0> d   1      18.790  -2.713   8.428  0.00  0.00     0.227 C 
ATOM     15  O11 <0> d   1      18.282  -2.593   7.334  0.00  0.00    -0.273 OA
ENDBRANCH   3   4
ENDBRANCH   2   3
ENDBRANCH   1   2
BRANCH   1  16
ATOM     16  C16 <0> d   1      17.754   2.084  10.581  0.00  0.00     0.235 C 
BRANCH  16  17
ATOM     17  N17 <0> d   1      18.391   1.255  11.612  0.00  0.00    -0.068 N 
ATOM     18  H18 <0> d   1      18.955   0.545  11.171  0.00  0.00     0.280 HD
ATOM     19  C29 <0> d   1      19.244   2.098  12.459  0.00  0.00     0.255 C 
ATOM     20  C28 <0> d   1      19.998   1.217  13.460  0.00  0.00     0.169 C 
ATOM     21  N21 <0> d   1      19.016   0.412  14.203  0.00  0.00    -0.211 N 
ATOM     22  C20 <0> d   1      18.012  -0.340  13.433  0.00  0.00     0.169 C 
ATOM     23  C19 <0> d   1      17.353   0.615  12.432  0.00  0.00     0.255 C 
BRANCH  21  24
ATOM     24  C22 <0> d   1      19.035   0.363  15.585  0.00  0.00     0.724 A 
ATOM     25  N27 <0> d   1      18.869  -0.803  16.194  0.00  0.00    -0.075 NA
ATOM     26  C26 <0> d   1      18.888  -0.885  17.515  0.00  0.00     0.138 A 
ATOM     27  C25 <0> d   1      19.071   0.268  18.261  0.00  0.00     0.040 A 
ATOM     28  C24 <0> d   1      19.235   1.471  17.593  0.00  0.00     0.138 A 
ATOM     29  N23 <0> d   1      19.212   1.484  16.270  0.00  0.00    -0.075 NA
ENDBRANCH  21  24
ENDBRANCH  16  17
ENDBRANCH   1  16
TORSDOF 6
ENDMDL
