MODEL 1
REMARK VINA RESULT:      -6.6      0.000      0.000
REMARK  6 active torsions:
REMARK  status: ('A' for Active; 'I' for Inactive)
REMARK    1  A    between atoms: N2_2  and  C4_4 
REMARK    2  A    between atoms: C4_4  and  C5_5 
REMARK    3  A    between atoms: C5_5  and  C7_6 
REMARK    4  A    between atoms: C5_5  and  C14_13 
REMARK    5  A    between atoms: C10_9  and  O11_10 
REMARK    6  A    between atoms: C14_13  and  O15_14 
ROOT
ATOM      1  C5  ZIN A   1      17.891   1.418  10.856  0.00  0.00     0.081 C 
ENDROOT
BRANCH   1   2
ATOM      2  C4  ZIN A   1      18.468   2.805  11.141  0.00  0.00     0.283 C 
BRANCH   2   3
ATOM      3  N2  ZIN A   1      17.371   3.769  11.301  0.00  0.00     0.080 N 
ATOM      4  C1  ZIN A   1      17.362   4.338  12.656  0.00  0.00     0.309 C 
ATOM      5  C3  ZIN A   1      17.447   4.828  10.286  0.00  0.00     0.309 C 
ENDBRANCH   2   3
ENDBRANCH   1   2
BRANCH   1   6
ATOM      6  C7  ZIN A   1      18.062   1.093   9.395  0.00  0.00    -0.049 A 
ATOM      7  C13 ZIN A   1      18.973   1.801   8.632  0.00  0.00     0.010 A 
ATOM      8  C12 ZIN A   1      19.135   1.502   7.293  0.00  0.00     0.037 A 
ATOM      9  C10 ZIN A   1      18.375   0.498   6.711  0.00  0.00     0.065 A 
ATOM     10  C9  ZIN A   1      17.458  -0.208   7.477  0.00  0.00     0.037 A 
ATOM     11  C8  ZIN A   1      17.304   0.092   8.817  0.00  0.00     0.010 A 
BRANCH   9  12
ATOM     12  O11 ZIN A   1      18.529   0.205   5.393  0.00  0.00    -0.361 OA
ATOM     13  H31 ZIN A   1      17.967  -0.519   5.082  0.00  0.00     0.217 HD
ENDBRANCH   9  12
ENDBRANCH   1   6
BRANCH   1  14
ATOM     14  C14 ZIN A   1      18.629   0.376  11.699  0.00  0.00     0.067 C 
ATOM     15  C20 ZIN A   1      17.659  -0.737  12.101  0.00  0.00     0.038 C 
ATOM     16  C19 ZIN A   1      18.396  -1.779  12.944  0.00  0.00     0.003 C 
ATOM     17  C18 ZIN A   1      18.956  -1.112  14.202  0.00  0.00     0.000 C 
ATOM     18  C17 ZIN A   1      19.927   0.001  13.801  0.00  0.00     0.003 C 
ATOM     19  C16 ZIN A   1      19.189   1.042  12.958  0.00  0.00     0.038 C 
BRANCH  14  20
ATOM     20  O15 ZIN A   1      19.703  -0.180  10.937  0.00  0.00    -0.389 OA
ATOM     21  H34 ZIN A   1      20.099  -0.969  11.333  0.00  0.00     0.210 HD
ENDBRANCH  14  20
ENDBRANCH   1  14
TORSDOF 6
ENDMDL
MODEL 2
REMARK VINA RESULT:      -6.6      1.608      4.059
REMARK  6 active torsions:
REMARK  status: ('A' for Active; 'I' for Inactive)
REMARK    1  A    between atoms: N2_2  and  C4_4 
REMARK    2  A    between atoms: C4_4  and  C5_5 
REMARK    3  A    between atoms: C5_5  and  C7_6 
REMARK    4  A    between atoms: C5_5  and  C14_13 
REMARK    5  A    between atoms: C10_9  and  O11_10 
REMARK    6  A    between atoms: C14_13  and  O15_14 
ROOT
ATOM      1  C5  ZIN A   1      19.154   1.415  10.835  0.00  0.00     0.081 C 
ENDROOT
BRANCH   1   2
ATOM      2  C4  ZIN A   1      18.477   0.476  11.835  0.00  0.00     0.283 C 
BRANCH   2   3
ATOM      3  N2  ZIN A   1      19.491  -0.382  12.465  0.00  0.00     0.080 N 
ATOM      4  C1  ZIN A   1      20.098   0.284  13.625  0.00  0.00     0.309 C 
ATOM      5  C3  ZIN A   1      18.919  -1.681  12.843  0.00  0.00     0.309 C 
ENDBRANCH   2   3
ENDBRANCH   1   2
BRANCH   1   6
ATOM      6  C7  ZIN A   1      18.737   1.041   9.436  0.00  0.00    -0.049 A 
ATOM      7  C13 ZIN A   1      17.634   0.232   9.237  0.00  0.00     0.010 A 
ATOM      8  C12 ZIN A   1      17.247  -0.108   7.955  0.00  0.00     0.037 A 
ATOM      9  C10 ZIN A   1      17.973   0.355   6.867  0.00  0.00     0.065 A 
ATOM     10  C9  ZIN A   1      19.083   1.163   7.069  0.00  0.00     0.037 A 
ATOM     11  C8  ZIN A   1      19.462   1.503   8.353  0.00  0.00     0.010 A 
BRANCH   9  12
ATOM     12  O11 ZIN A   1      17.597   0.018   5.605  0.00  0.00    -0.361 OA
ATOM     13  H31 ZIN A   1      16.663  -0.220   5.523  0.00  0.00     0.217 HD
ENDBRANCH   9  12
ENDBRANCH   1   6
BRANCH   1  14
ATOM     14  C14 ZIN A   1      18.734   2.857  11.124  0.00  0.00     0.067 C 
ATOM     15  C20 ZIN A   1      17.701   2.873  12.252  0.00  0.00     0.038 C 
ATOM     16  C19 ZIN A   1      17.281   4.315  12.541  0.00  0.00     0.003 C 
ATOM     17  C18 ZIN A   1      16.670   4.930  11.280  0.00  0.00     0.000 C 
ATOM     18  C17 ZIN A   1      17.703   4.915  10.152  0.00  0.00     0.003 C 
ATOM     19  C16 ZIN A   1      18.123   3.472   9.864  0.00  0.00     0.038 C 
BRANCH  14  20
ATOM     20  O15 ZIN A   1      19.880   3.617  11.516  0.00  0.00    -0.389 OA
ATOM     21  H34 ZIN A   1      20.612   3.080  11.853  0.00  0.00     0.210 HD
ENDBRANCH  14  20
ENDBRANCH   1  14
TORSDOF 6
ENDMDL
MODEL 3
REMARK VINA RESULT:      -6.3      1.361      5.110
REMARK  6 active torsions:
REMARK  status: ('A' for Active; 'I' for Inactive)
REMARK    1  A    between atoms: N2_2  and  C4_4 
REMARK    2  A    between atoms: C4_4  and  C5_5 
REMARK    3  A    between atoms: C5_5  and  C7_6 
REMARK    4  A    between atoms: C5_5  and  C14_13 
REMARK    5  A    between atoms: C10_9  and  O11_10 
REMARK    6  A    between atoms: C14_13  and  O15_14 
ROOT
ATOM      1  C5  ZIN A   1      18.882   1.988  10.757  0.00  0.00     0.081 C 
ENDROOT
BRANCH   1   2
ATOM      2  C4  ZIN A   1      17.608   2.835  10.731  0.00  0.00     0.283 C 
BRANCH   2   3
ATOM      3  N2  ZIN A   1      17.924   4.207  11.154  0.00  0.00     0.080 N 
ATOM      4  C1  ZIN A   1      17.369   5.189  10.212  0.00  0.00     0.309 C 
ATOM      5  C3  ZIN A   1      17.447   4.459  12.520  0.00  0.00     0.309 C 
ENDBRANCH   2   3
ENDBRANCH   1   2
BRANCH   1   6
ATOM      6  C7  ZIN A   1      18.868   1.099  11.974  0.00  0.00    -0.049 A 
ATOM      7  C13 ZIN A   1      17.666   0.654  12.490  0.00  0.00     0.010 A 
ATOM      8  C12 ZIN A   1      17.650  -0.165  13.603  0.00  0.00     0.037 A 
ATOM      9  C10 ZIN A   1      18.844  -0.532  14.209  0.00  0.00     0.065 A 
ATOM     10  C9  ZIN A   1      20.049  -0.080  13.692  0.00  0.00     0.037 A 
ATOM     11  C8  ZIN A   1      20.058   0.735  12.576  0.00  0.00     0.010 A 
BRANCH   9  12
ATOM     12  O11 ZIN A   1      18.832  -1.333  15.306  0.00  0.00    -0.361 OA
ATOM     13  H31 ZIN A   1      19.235  -0.934  16.089  0.00  0.00     0.217 HD
ENDBRANCH   9  12
ENDBRANCH   1   6
BRANCH   1  14
ATOM     14  C14 ZIN A   1      18.946   1.125   9.496  0.00  0.00     0.067 C 
ATOM     15  C20 ZIN A   1      19.050   2.025   8.264  0.00  0.00     0.038 C 
ATOM     16  C19 ZIN A   1      19.115   1.162   7.003  0.00  0.00     0.003 C 
ATOM     17  C18 ZIN A   1      17.848   0.309   6.905  0.00  0.00     0.000 C 
ATOM     18  C17 ZIN A   1      17.743  -0.593   8.136  0.00  0.00     0.003 C 
ATOM     19  C16 ZIN A   1      17.679   0.271   9.397  0.00  0.00     0.038 C 
BRANCH  14  20
ATOM     20  O15 ZIN A   1      20.091   0.271   9.561  0.00  0.00    -0.389 OA
ATOM     21  H34 ZIN A   1      19.904  -0.655   9.349  0.00  0.00     0.210 HD
ENDBRANCH  14  20
ENDBRANCH   1  14
TORSDOF 6
ENDMDL
MODEL 4
REMARK VINA RESULT:      -6.3      2.540      5.574
REMARK  6 active torsions:
REMARK  status: ('A' for Active; 'I' for Inactive)
REMARK    1  A    between atoms: N2_2  and  C4_4 
REMARK    2  A    between atoms: C4_4  and  C5_5 
REMARK    3  A    between atoms: C5_5  and  C7_6 
REMARK    4  A    between atoms: C5_5  and  C14_13 
REMARK    5  A    between atoms: C10_9  and  O11_10 
REMARK    6  A    between atoms: C14_13  and  O15_14 
ROOT
ATOM      1  C5  ZIN A   1      19.329  -0.651  11.864  0.00  0.00     0.081 C 
ENDROOT
BRANCH   1   2
ATOM      2  C4  ZIN A   1      18.581   0.404  11.047  0.00  0.00     0.283 C 
BRANCH   2   3
ATOM      3  N2  ZIN A   1      19.543   1.368  10.494  0.00  0.00     0.080 N 
ATOM      4  C1  ZIN A   1      19.215   1.698   9.101  0.00  0.00     0.309 C 
ATOM      5  C3  ZIN A   1      19.608   2.580  11.321  0.00  0.00     0.309 C 
ENDBRANCH   2   3
ENDBRANCH   1   2
BRANCH   1   6
ATOM      6  C7  ZIN A   1      18.851  -0.611  13.293  0.00  0.00    -0.049 A 
ATOM      7  C13 ZIN A   1      19.490  -1.370  14.255  0.00  0.00     0.010 A 
ATOM      8  C12 ZIN A   1      19.057  -1.332  15.567  0.00  0.00     0.037 A 
ATOM      9  C10 ZIN A   1      17.973  -0.539  15.915  0.00  0.00     0.065 A 
ATOM     10  C9  ZIN A   1      17.331   0.219  14.946  0.00  0.00     0.037 A 
ATOM     11  C8  ZIN A   1      17.771   0.180  13.637  0.00  0.00     0.010 A 
BRANCH   9  12
ATOM     12  O11 ZIN A   1      17.542  -0.503  17.204  0.00  0.00    -0.361 OA
ATOM     13  H31 ZIN A   1      17.271   0.376  17.503  0.00  0.00     0.217 HD
ENDBRANCH   9  12
ENDBRANCH   1   6
BRANCH   1  14
ATOM     14  C14 ZIN A   1      19.059  -2.037  11.275  0.00  0.00     0.067 C 
ATOM     15  C20 ZIN A   1      17.593  -2.410  11.496  0.00  0.00     0.038 C 
ATOM     16  C19 ZIN A   1      17.323  -3.796  10.907  0.00  0.00     0.003 C 
ATOM     17  C18 ZIN A   1      18.221  -4.825  11.596  0.00  0.00     0.000 C 
ATOM     18  C17 ZIN A   1      19.688  -4.453  11.376  0.00  0.00     0.003 C 
ATOM     19  C16 ZIN A   1      19.957  -3.067  11.964  0.00  0.00     0.038 C 
BRANCH  14  20
ATOM     20  O15 ZIN A   1      19.342  -2.022   9.874  0.00  0.00    -0.389 OA
ATOM     21  H34 ZIN A   1      18.846  -2.680   9.365  0.00  0.00     0.210 HD
ENDBRANCH  14  20
ENDBRANCH   1  14
TORSDOF 6
ENDMDL
MODEL 5
REMARK VINA RESULT:      -6.3      2.754      5.167
REMARK  6 active torsions:
REMARK  status: ('A' for Active; 'I' for Inactive)
REMARK    1  A    between atoms: N2_2  and  C4_4 
REMARK    2  A    between atoms: C4_4  and  C5_5 
REMARK    3  A    between atoms: C5_5  and  C7_6 
REMARK    4  A    between atoms: C5_5  and  C14_13 
REMARK    5  A    between atoms: C10_9  and  O11_10 
REMARK    6  A    between atoms: C14_13  and  O15_14 
ROOT
ATOM      1  C5  ZIN A   1      19.190  -1.154  12.497  0.00  0.00     0.081 C 
ENDROOT
BRANCH   1   2
ATOM      2  C4  ZIN A   1      17.928  -0.633  13.187  0.00  0.00     0.283 C 
BRANCH   2   3
ATOM      3  N2  ZIN A   1      18.048  -0.828  14.639  0.00  0.00     0.080 N 
ATOM      4  C1  ZIN A   1      19.427  -1.171  15.012  0.00  0.00     0.309 C 
ATOM      5  C3  ZIN A   1      17.585   0.359  15.370  0.00  0.00     0.309 C 
ENDBRANCH   2   3
ENDBRANCH   1   2
BRANCH   1   6
ATOM      6  C7  ZIN A   1      18.887  -2.468  11.823  0.00  0.00    -0.049 A 
ATOM      7  C13 ZIN A   1      17.582  -2.801  11.515  0.00  0.00     0.010 A 
ATOM      8  C12 ZIN A   1      17.302  -4.002  10.893  0.00  0.00     0.037 A 
ATOM      9  C10 ZIN A   1      18.332  -4.880  10.587  0.00  0.00     0.065 A 
ATOM     10  C9  ZIN A   1      19.642  -4.546  10.902  0.00  0.00     0.037 A 
ATOM     11  C8  ZIN A   1      19.916  -3.341  11.520  0.00  0.00     0.010 A 
BRANCH   9  12
ATOM     12  O11 ZIN A   1      18.060  -6.065   9.980  0.00  0.00    -0.361 OA
ATOM     13  H31 ZIN A   1      17.138  -6.161   9.702  0.00  0.00     0.217 HD
ENDBRANCH   9  12
ENDBRANCH   1   6
BRANCH   1  14
ATOM     14  C14 ZIN A   1      19.655  -0.140  11.451  0.00  0.00     0.067 C 
ATOM     15  C20 ZIN A   1      19.069   1.235  11.776  0.00  0.00     0.038 C 
ATOM     16  C19 ZIN A   1      19.534   2.250  10.730  0.00  0.00     0.003 C 
ATOM     17  C18 ZIN A   1      19.058   1.807   9.345  0.00  0.00     0.000 C 
ATOM     18  C17 ZIN A   1      19.644   0.432   9.018  0.00  0.00     0.003 C 
ATOM     19  C16 ZIN A   1      19.179  -0.581  10.066  0.00  0.00     0.038 C 
BRANCH  14  20
ATOM     20  O15 ZIN A   1      21.082  -0.064  11.462  0.00  0.00    -0.389 OA
ATOM     21  H34 ZIN A   1      21.445   0.429  12.211  0.00  0.00     0.210 HD
ENDBRANCH  14  20
ENDBRANCH   1  14
TORSDOF 6
ENDMDL
MODEL 6
REMARK VINA RESULT:      -6.3      2.651      6.379
REMARK  6 active torsions:
REMARK  status: ('A' for Active; 'I' for Inactive)
REMARK    1  A    between atoms: N2_2  and  C4_4 
REMARK    2  A    between atoms: C4_4  and  C5_5 
REMARK    3  A    between atoms: C5_5  and  C7_6 
REMARK    4  A    between atoms: C5_5  and  C14_13 
REMARK    5  A    between atoms: C10_9  and  O11_10 
REMARK    6  A    between atoms: C14_13  and  O15_14 
ROOT
ATOM      1  C5  ZIN A   1      17.981  -0.847  11.421  0.00  0.00     0.081 C 
ENDROOT
BRANCH   1   2
ATOM      2  C4  ZIN A   1      18.578  -2.170  10.938  0.00  0.00     0.283 C 
BRANCH   2   3
ATOM      3  N2  ZIN A   1      17.494  -3.094  10.578  0.00  0.00     0.080 N 
ATOM      4  C1  ZIN A   1      17.680  -3.621   9.219  0.00  0.00     0.309 C 
ATOM      5  C3  ZIN A   1      17.387  -4.185  11.555  0.00  0.00     0.309 C 
ENDBRANCH   2   3
ENDBRANCH   1   2
BRANCH   1   6
ATOM      6  C7  ZIN A   1      18.197  -0.713  12.907  0.00  0.00    -0.049 A 
ATOM      7  C13 ZIN A   1      17.466   0.212  13.630  0.00  0.00     0.010 A 
ATOM      8  C12 ZIN A   1      17.659   0.334  14.992  0.00  0.00     0.037 A 
ATOM      9  C10 ZIN A   1      18.596  -0.464  15.634  0.00  0.00     0.065 A 
ATOM     10  C9  ZIN A   1      19.331  -1.388  14.905  0.00  0.00     0.037 A 
ATOM     11  C8  ZIN A   1      19.131  -1.509  13.544  0.00  0.00     0.010 A 
BRANCH   9  12
ATOM     12  O11 ZIN A   1      18.791  -0.343  16.973  0.00  0.00    -0.361 OA
ATOM     13  H31 ZIN A   1      18.498  -1.110  17.484  0.00  0.00     0.217 HD
ENDBRANCH   9  12
ENDBRANCH   1   6
BRANCH   1  14
ATOM     14  C14 ZIN A   1      18.664   0.316  10.699  0.00  0.00     0.067 C 
ATOM     15  C20 ZIN A   1      17.722   1.520  10.666  0.00  0.00     0.038 C 
ATOM     16  C19 ZIN A   1      18.405   2.683   9.944  0.00  0.00     0.003 C 
ATOM     17  C18 ZIN A   1      18.747   2.264   8.513  0.00  0.00     0.000 C 
ATOM     18  C17 ZIN A   1      19.690   1.059   8.546  0.00  0.00     0.003 C 
ATOM     19  C16 ZIN A   1      19.006  -0.103   9.268  0.00  0.00     0.038 C 
BRANCH  14  20
ATOM     20  O15 ZIN A   1      19.863   0.668  11.392  0.00  0.00    -0.389 OA
ATOM     21  H34 ZIN A   1      19.942   0.269  12.271  0.00  0.00     0.210 HD
ENDBRANCH  14  20
ENDBRANCH   1  14
TORSDOF 6
ENDMDL
MODEL 7
REMARK VINA RESULT:      -6.2      1.762      3.982
REMARK  6 active torsions:
REMARK  status: ('A' for Active; 'I' for Inactive)
REMARK    1  A    between atoms: N2_2  and  C4_4 
REMARK    2  A    between atoms: C4_4  and  C5_5 
REMARK    3  A    between atoms: C5_5  and  C7_6 
REMARK    4  A    between atoms: C5_5  and  C14_13 
REMARK    5  A    between atoms: C10_9  and  O11_10 
REMARK    6  A    between atoms: C14_13  and  O15_14 
ROOT
ATOM      1  C5  ZIN A   1      18.905   0.747  10.639  0.00  0.00     0.081 C 
ENDROOT
BRANCH   1   2
ATOM      2  C4  ZIN A   1      18.396  -0.495  11.373  0.00  0.00     0.283 C 
BRANCH   2   3
ATOM      3  N2  ZIN A   1      19.525  -1.181  12.015  0.00  0.00     0.080 N 
ATOM      4  C1  ZIN A   1      19.277  -1.375  13.450  0.00  0.00     0.309 C 
ATOM      5  C3  ZIN A   1      19.809  -2.461  11.353  0.00  0.00     0.309 C 
ENDBRANCH   2   3
ENDBRANCH   1   2
BRANCH   1   6
ATOM      6  C7  ZIN A   1      18.601   0.620   9.169  0.00  0.00    -0.049 A 
ATOM      7  C13 ZIN A   1      17.515  -0.124   8.749  0.00  0.00     0.010 A 
ATOM      8  C12 ZIN A   1      17.232  -0.239   7.402  0.00  0.00     0.037 A 
ATOM      9  C10 ZIN A   1      18.045   0.387   6.468  0.00  0.00     0.065 A 
ATOM     10  C9  ZIN A   1      19.138   1.130   6.891  0.00  0.00     0.037 A 
ATOM     11  C8  ZIN A   1      19.414   1.244   8.240  0.00  0.00     0.010 A 
BRANCH   9  12
ATOM     12  O11 ZIN A   1      17.772   0.273   5.142  0.00  0.00    -0.361 OA
ATOM     13  H31 ZIN A   1      17.356  -0.565   4.897  0.00  0.00     0.217 HD
ENDBRANCH   9  12
ENDBRANCH   1   6
BRANCH   1  14
ATOM     14  C14 ZIN A   1      18.210   1.990  11.198  0.00  0.00     0.067 C 
ATOM     15  C20 ZIN A   1      18.211   3.095  10.141  0.00  0.00     0.038 C 
ATOM     16  C19 ZIN A   1      17.516   4.338  10.699  0.00  0.00     0.003 C 
ATOM     17  C18 ZIN A   1      18.262   4.822  11.944  0.00  0.00     0.000 C 
ATOM     18  C17 ZIN A   1      18.260   3.718  13.003  0.00  0.00     0.003 C 
ATOM     19  C16 ZIN A   1      18.955   2.475  12.443  0.00  0.00     0.038 C 
BRANCH  14  20
ATOM     20  O15 ZIN A   1      16.862   1.666  11.546  0.00  0.00    -0.389 OA
ATOM     21  H34 ZIN A   1      16.368   1.224  10.840  0.00  0.00     0.210 HD
ENDBRANCH  14  20
ENDBRANCH   1  14
TORSDOF 6
ENDMDL
MODEL 8
REMARK VINA RESULT:      -6.1      2.885      3.994
REMARK  6 active torsions:
REMARK  status: ('A' for Active; 'I' for Inactive)
REMARK    1  A    between atoms: N2_2  and  C4_4 
REMARK    2  A    between atoms: C4_4  and  C5_5 
REMARK    3  A    between atoms: C5_5  and  C7_6 
REMARK    4  A    between atoms: C5_5  and  C14_13 
REMARK    5  A    between atoms: C10_9  and  O11_10 
REMARK    6  A    between atoms: C14_13  and  O15_14 
ROOT
ATOM      1  C5  ZIN A   1      18.751  -0.193  12.111  0.00  0.00     0.081 C 
ENDROOT
BRANCH   1   2
ATOM      2  C4  ZIN A   1      19.839   0.504  11.294  0.00  0.00     0.283 C 
BRANCH   2   3
ATOM      3  N2  ZIN A   1      19.273   1.690  10.635  0.00  0.00     0.080 N 
ATOM      4  C1  ZIN A   1      17.808   1.604  10.564  0.00  0.00     0.309 C 
ATOM      5  C3  ZIN A   1      19.695   2.921  11.315  0.00  0.00     0.309 C 
ENDBRANCH   2   3
ENDBRANCH   1   2
BRANCH   1   6
ATOM      6  C7  ZIN A   1      18.652  -1.636  11.688  0.00  0.00    -0.049 A 
ATOM      7  C13 ZIN A   1      19.801  -2.363  11.441  0.00  0.00     0.010 A 
ATOM      8  C12 ZIN A   1      19.714  -3.687  11.057  0.00  0.00     0.037 A 
ATOM      9  C10 ZIN A   1      18.470  -4.285  10.909  0.00  0.00     0.065 A 
ATOM     10  C9  ZIN A   1      17.318  -3.552  11.153  0.00  0.00     0.037 A 
ATOM     11  C8  ZIN A   1      17.412  -2.229  11.541  0.00  0.00     0.010 A 
BRANCH   9  12
ATOM     12  O11 ZIN A   1      18.381  -5.586  10.527  0.00  0.00    -0.361 OA
ATOM     13  H31 ZIN A   1      18.958  -6.182  11.024  0.00  0.00     0.217 HD
ENDBRANCH   9  12
ENDBRANCH   1   6
BRANCH   1  14
ATOM     14  C14 ZIN A   1      19.105  -0.121  13.598  0.00  0.00     0.067 C 
ATOM     15  C20 ZIN A   1      18.658  -1.409  14.292  0.00  0.00     0.038 C 
ATOM     16  C19 ZIN A   1      19.012  -1.337  15.779  0.00  0.00     0.003 C 
ATOM     17  C18 ZIN A   1      18.300  -0.141  16.415  0.00  0.00     0.000 C 
ATOM     18  C17 ZIN A   1      18.747   1.147  15.721  0.00  0.00     0.003 C 
ATOM     19  C16 ZIN A   1      18.393   1.075  14.234  0.00  0.00     0.038 C 
BRANCH  14  20
ATOM     20  O15 ZIN A   1      20.518   0.033  13.744  0.00  0.00    -0.389 OA
ATOM     21  H34 ZIN A   1      20.782   0.863  14.166  0.00  0.00     0.210 HD
ENDBRANCH  14  20
ENDBRANCH   1  14
TORSDOF 6
ENDMDL
MODEL 9
REMARK VINA RESULT:      -6.1      2.981      4.553
REMARK  6 active torsions:
REMARK  status: ('A' for Active; 'I' for Inactive)
REMARK    1  A    between atoms: N2_2  and  C4_4 
REMARK    2  A    between atoms: C4_4  and  C5_5 
REMARK    3  A    between atoms: C5_5  and  C7_6 
REMARK    4  A    between atoms: C5_5  and  C14_13 
REMARK    5  A    between atoms: C10_9  and  O11_10 
REMARK    6  A    between atoms: C14_13  and  O15_14 
ROOT
ATOM      1  C5  ZIN A   1      19.482   0.187  12.418  0.00  0.00     0.081 C 
ENDROOT
BRANCH   1   2
ATOM      2  C4  ZIN A   1      18.740  -0.953  11.721  0.00  0.00     0.283 C 
BRANCH   2   3
ATOM      3  N2  ZIN A   1      19.680  -1.710  10.883  0.00  0.00     0.080 N 
ATOM      4  C1  ZIN A   1      19.786  -3.103  11.337  0.00  0.00     0.309 C 
ATOM      5  C3  ZIN A   1      19.294  -1.645   9.467  0.00  0.00     0.309 C 
ENDBRANCH   2   3
ENDBRANCH   1   2
BRANCH   1   6
ATOM      6  C7  ZIN A   1      19.007   1.507  11.867  0.00  0.00    -0.049 A 
ATOM      7  C13 ZIN A   1      17.874   1.557  11.077  0.00  0.00     0.010 A 
ATOM      8  C12 ZIN A   1      17.434   2.766  10.574  0.00  0.00     0.037 A 
ATOM      9  C10 ZIN A   1      18.137   3.930  10.853  0.00  0.00     0.065 A 
ATOM     10  C9  ZIN A   1      19.277   3.876  11.642  0.00  0.00     0.037 A 
ATOM     11  C8  ZIN A   1      19.710   2.665  12.146  0.00  0.00     0.010 A 
BRANCH   9  12
ATOM     12  O11 ZIN A   1      17.709   5.120  10.356  0.00  0.00    -0.361 OA
ATOM     13  H31 ZIN A   1      18.352   5.561   9.784  0.00  0.00     0.217 HD
ENDBRANCH   9  12
ENDBRANCH   1   6
BRANCH   1  14
ATOM     14  C14 ZIN A   1      19.204   0.133  13.921  0.00  0.00     0.067 C 
ATOM     15  C20 ZIN A   1      19.568  -1.251  14.460  0.00  0.00     0.038 C 
ATOM     16  C19 ZIN A   1      19.289  -1.305  15.963  0.00  0.00     0.003 C 
ATOM     17  C18 ZIN A   1      17.805  -1.034  16.215  0.00  0.00     0.000 C 
ATOM     18  C17 ZIN A   1      17.439   0.351  15.678  0.00  0.00     0.003 C 
ATOM     19  C16 ZIN A   1      17.719   0.404  14.175  0.00  0.00     0.038 C 
BRANCH  14  20
ATOM     20  O15 ZIN A   1      19.989   1.125  14.587  0.00  0.00    -0.389 OA
ATOM     21  H34 ZIN A   1      19.551   1.524  15.353  0.00  0.00     0.210 HD
ENDBRANCH  14  20
ENDBRANCH   1  14
TORSDOF 6
ENDMDL
