MODEL 1
REMARK VINA RESULT:      -6.8      0.000      0.000
REMARK  7 active torsions:
REMARK  status: ('A' for Active; 'I' for Inactive)
REMARK    1  A    between atoms: O2_2  and  C3_3 
REMARK    2  A    between atoms: C6_6  and  C7_7 
REMARK    3  A    between atoms: C7_7  and  N8_8 
REMARK    4  A    between atoms: N8_8  and  C9_9 
REMARK    5  A    between atoms: N8_8  and  C14_14 
REMARK    6  A    between atoms: C9_9  and  C10_10 
REMARK    7  A    between atoms: C10_10  and  N11_11 
ROOT
ATOM      1  N8  ZIN A   1      18.132  -0.236  11.732  0.00  0.00    -0.360 N 
ENDROOT
BRANCH   1   2
ATOM      2  C7  ZIN A   1      17.155   0.427  10.866  0.00  0.00     0.163 C 
BRANCH   2   3
ATOM      3  C6  ZIN A   1      17.735   0.583   9.484  0.00  0.00    -0.040 A 
ATOM      4  C5  ZIN A   1      18.702   1.542   9.246  0.00  0.00     0.011 A 
ATOM      5  C4  ZIN A   1      19.237   1.686   7.979  0.00  0.00     0.037 A 
ATOM      6  C3  ZIN A   1      18.802   0.869   6.947  0.00  0.00     0.068 A 
ATOM      7  C21 ZIN A   1      17.827  -0.089   7.187  0.00  0.00     0.037 A 
ATOM      8  C20 ZIN A   1      17.300  -0.233   8.456  0.00  0.00     0.011 A 
BRANCH   6   9
ATOM      9  O2  ZIN A   1      19.325   1.009   5.701  0.00  0.00    -0.356 OA
ATOM     10  C1  ZIN A   1      19.322  -0.150   4.862  0.00  0.00     0.210 C 
ENDBRANCH   6   9
ENDBRANCH   2   3
ENDBRANCH   1   2
BRANCH   1  11
ATOM     11  C9  ZIN A   1      18.924   0.551  12.681  0.00  0.00     0.155 C 
BRANCH  11  12
ATOM     12  C10 ZIN A   1      18.182   0.639  14.016  0.00  0.00     0.291 C 
BRANCH  12  13
ATOM     13  N11 ZIN A   1      19.088   0.250  15.105  0.00  0.00     0.081 N 
ATOM     14  C12 ZIN A   1      18.733   0.937  16.355  0.00  0.00     0.309 C 
ATOM     15  C13 ZIN A   1      19.096  -1.208  15.290  0.00  0.00     0.309 C 
ENDBRANCH  12  13
ENDBRANCH  11  12
ENDBRANCH   1  11
BRANCH   1  16
ATOM     16  C14 ZIN A   1      18.306  -1.614  11.656  0.00  0.00     0.125 A 
ATOM     17  N19 ZIN A   1      17.249  -2.403  11.533  0.00  0.00    -0.244 NA
ATOM     18  C18 ZIN A   1      17.371  -3.714  11.453  0.00  0.00     0.119 A 
ATOM     19  C17 ZIN A   1      18.613  -4.315  11.507  0.00  0.00     0.019 A 
ATOM     20  C16 ZIN A   1      19.746  -3.523  11.641  0.00  0.00     0.005 A 
ATOM     21  C15 ZIN A   1      19.588  -2.151  11.717  0.00  0.00     0.050 A 
ENDBRANCH   1  16
TORSDOF 7
ENDMDL
MODEL 2
REMARK VINA RESULT:      -6.7      0.872      1.598
REMARK  7 active torsions:
REMARK  status: ('A' for Active; 'I' for Inactive)
REMARK    1  A    between atoms: O2_2  and  C3_3 
REMARK    2  A    between atoms: C6_6  and  C7_7 
REMARK    3  A    between atoms: C7_7  and  N8_8 
REMARK    4  A    between atoms: N8_8  and  C9_9 
REMARK    5  A    between atoms: N8_8  and  C14_14 
REMARK    6  A    between atoms: C9_9  and  C10_10 
REMARK    7  A    between atoms: C10_10  and  N11_11 
ROOT
ATOM      1  N8  ZIN A   1      17.993  -0.406  11.772  0.00  0.00    -0.360 N 
ENDROOT
BRANCH   1   2
ATOM      2  C7  ZIN A   1      17.028   0.256  10.889  0.00  0.00     0.163 C 
BRANCH   2   3
ATOM      3  C6  ZIN A   1      17.655   0.472   9.536  0.00  0.00    -0.040 A 
ATOM      4  C5  ZIN A   1      17.292  -0.333   8.472  0.00  0.00     0.011 A 
ATOM      5  C4  ZIN A   1      17.865  -0.136   7.229  0.00  0.00     0.037 A 
ATOM      6  C3  ZIN A   1      18.803   0.870   7.050  0.00  0.00     0.068 A 
ATOM      7  C21 ZIN A   1      19.169   1.672   8.121  0.00  0.00     0.037 A 
ATOM      8  C20 ZIN A   1      18.590   1.475   9.360  0.00  0.00     0.011 A 
BRANCH   6   9
ATOM      9  O2  ZIN A   1      19.368   1.065   5.830  0.00  0.00    -0.356 OA
ATOM     10  C1  ZIN A   1      19.284  -0.014   4.896  0.00  0.00     0.210 C 
ENDBRANCH   6   9
ENDBRANCH   2   3
ENDBRANCH   1   2
BRANCH   1  11
ATOM     11  C9  ZIN A   1      18.699   0.368  12.796  0.00  0.00     0.155 C 
BRANCH  11  12
ATOM     12  C10 ZIN A   1      17.730   0.727  13.924  0.00  0.00     0.291 C 
BRANCH  12  13
ATOM     13  N11 ZIN A   1      17.961   2.115  14.345  0.00  0.00     0.081 N 
ATOM     14  C12 ZIN A   1      18.945   2.178  15.435  0.00  0.00     0.309 C 
ATOM     15  C13 ZIN A   1      18.380   2.949  13.209  0.00  0.00     0.309 C 
ENDBRANCH  12  13
ENDBRANCH  11  12
ENDBRANCH   1  11
BRANCH   1  16
ATOM     16  C14 ZIN A   1      18.236  -1.768  11.640  0.00  0.00     0.125 A 
ATOM     17  N19 ZIN A   1      17.218  -2.607  11.510  0.00  0.00    -0.244 NA
ATOM     18  C18 ZIN A   1      17.405  -3.906  11.378  0.00  0.00     0.119 A 
ATOM     19  C17 ZIN A   1      18.678  -4.443  11.381  0.00  0.00     0.019 A 
ATOM     20  C16 ZIN A   1      19.771  -3.598  11.519  0.00  0.00     0.005 A 
ATOM     21  C15 ZIN A   1      19.544  -2.240  11.651  0.00  0.00     0.050 A 
ENDBRANCH   1  16
TORSDOF 7
ENDMDL
MODEL 3
REMARK VINA RESULT:      -6.5      3.441      7.167
REMARK  7 active torsions:
REMARK  status: ('A' for Active; 'I' for Inactive)
REMARK    1  A    between atoms: O2_2  and  C3_3 
REMARK    2  A    between atoms: C6_6  and  C7_7 
REMARK    3  A    between atoms: C7_7  and  N8_8 
REMARK    4  A    between atoms: N8_8  and  C9_9 
REMARK    5  A    between atoms: N8_8  and  C14_14 
REMARK    6  A    between atoms: C9_9  and  C10_10 
REMARK    7  A    between atoms: C10_10  and  N11_11 
ROOT
ATOM      1  N8  ZIN A   1      18.629   0.269  11.411  0.00  0.00    -0.360 N 
ENDROOT
BRANCH   1   2
ATOM      2  C7  ZIN A   1      17.645  -0.507  12.171  0.00  0.00     0.163 C 
BRANCH   2   3
ATOM      3  C6  ZIN A   1      18.030  -0.515  13.627  0.00  0.00    -0.040 A 
ATOM      4  C5  ZIN A   1      17.465   0.400  14.495  0.00  0.00     0.011 A 
ATOM      5  C4  ZIN A   1      17.816   0.394  15.832  0.00  0.00     0.037 A 
ATOM      6  C3  ZIN A   1      18.736  -0.531  16.303  0.00  0.00     0.068 A 
ATOM      7  C21 ZIN A   1      19.306  -1.445  15.428  0.00  0.00     0.037 A 
ATOM      8  C20 ZIN A   1      18.948  -1.438  14.093  0.00  0.00     0.011 A 
BRANCH   6   9
ATOM      9  O2  ZIN A   1      19.083  -0.539  17.616  0.00  0.00    -0.356 OA
ATOM     10  C1  ZIN A   1      19.365   0.725  18.220  0.00  0.00     0.210 C 
ENDBRANCH   6   9
ENDBRANCH   2   3
ENDBRANCH   1   2
BRANCH   1  11
ATOM     11  C9  ZIN A   1      19.674  -0.419  10.649  0.00  0.00     0.155 C 
BRANCH  11  12
ATOM     12  C10 ZIN A   1      19.452  -0.188   9.153  0.00  0.00     0.291 C 
BRANCH  12  13
ATOM     13  N11 ZIN A   1      18.305  -0.986   8.700  0.00  0.00     0.081 N 
ATOM     14  C12 ZIN A   1      17.334  -0.150   7.979  0.00  0.00     0.309 C 
ATOM     15  C13 ZIN A   1      18.744  -2.117   7.871  0.00  0.00     0.309 C 
ENDBRANCH  12  13
ENDBRANCH  11  12
ENDBRANCH   1  11
BRANCH   1  16
ATOM     16  C14 ZIN A   1      18.569   1.658  11.412  0.00  0.00     0.125 A 
ATOM     17  N19 ZIN A   1      17.470   2.268  10.993  0.00  0.00    -0.244 NA
ATOM     18  C18 ZIN A   1      17.371   3.583  10.981  0.00  0.00     0.119 A 
ATOM     19  C17 ZIN A   1      18.421   4.377  11.398  0.00  0.00     0.019 A 
ATOM     20  C16 ZIN A   1      19.593   3.776  11.840  0.00  0.00     0.005 A 
ATOM     21  C15 ZIN A   1      19.666   2.395  11.845  0.00  0.00     0.050 A 
ENDBRANCH   1  16
TORSDOF 7
ENDMDL
MODEL 4
REMARK VINA RESULT:      -6.5      3.422      7.050
REMARK  7 active torsions:
REMARK  status: ('A' for Active; 'I' for Inactive)
REMARK    1  A    between atoms: O2_2  and  C3_3 
REMARK    2  A    between atoms: C6_6  and  C7_7 
REMARK    3  A    between atoms: C7_7  and  N8_8 
REMARK    4  A    between atoms: N8_8  and  C9_9 
REMARK    5  A    between atoms: N8_8  and  C14_14 
REMARK    6  A    between atoms: C9_9  and  C10_10 
REMARK    7  A    between atoms: C10_10  and  N11_11 
ROOT
ATOM      1  N8  ZIN A   1      18.430   0.004  11.915  0.00  0.00    -0.360 N 
ENDROOT
BRANCH   1   2
ATOM      2  C7  ZIN A   1      19.650  -0.308  12.665  0.00  0.00     0.163 C 
BRANCH   2   3
ATOM      3  C6  ZIN A   1      19.362  -0.237  14.142  0.00  0.00    -0.040 A 
ATOM      4  C5  ZIN A   1      19.262   0.992  14.766  0.00  0.00     0.011 A 
ATOM      5  C4  ZIN A   1      18.997   1.061  16.122  0.00  0.00     0.037 A 
ATOM      6  C3  ZIN A   1      18.833  -0.105  16.855  0.00  0.00     0.068 A 
ATOM      7  C21 ZIN A   1      18.940  -1.338  16.227  0.00  0.00     0.037 A 
ATOM      8  C20 ZIN A   1      19.199  -1.401  14.871  0.00  0.00     0.011 A 
BRANCH   6   9
ATOM      9  O2  ZIN A   1      18.573  -0.041  18.187  0.00  0.00    -0.356 OA
ATOM     10  C1  ZIN A   1      17.814   1.080  18.646  0.00  0.00     0.210 C 
ENDBRANCH   6   9
ENDBRANCH   2   3
ENDBRANCH   1   2
BRANCH   1  11
ATOM     11  C9  ZIN A   1      17.333  -0.965  11.865  0.00  0.00     0.155 C 
BRANCH  11  12
ATOM     12  C10 ZIN A   1      17.714  -2.120  10.937  0.00  0.00     0.291 C 
BRANCH  12  13
ATOM     13  N11 ZIN A   1      17.925  -3.337  11.731  0.00  0.00     0.081 N 
ATOM     14  C12 ZIN A   1      16.965  -4.385  11.355  0.00  0.00     0.309 C 
ATOM     15  C13 ZIN A   1      19.307  -3.819  11.602  0.00  0.00     0.309 C 
ENDBRANCH  12  13
ENDBRANCH  11  12
ENDBRANCH   1  11
BRANCH   1  16
ATOM     16  C14 ZIN A   1      18.315   1.221  11.253  0.00  0.00     0.125 A 
ATOM     17  N19 ZIN A   1      17.535   2.169  11.752  0.00  0.00    -0.244 NA
ATOM     18  C18 ZIN A   1      17.401   3.339  11.157  0.00  0.00     0.119 A 
ATOM     19  C17 ZIN A   1      18.064   3.614   9.978  0.00  0.00     0.019 A 
ATOM     20  C16 ZIN A   1      18.887   2.645   9.419  0.00  0.00     0.005 A 
ATOM     21  C15 ZIN A   1      19.013   1.430  10.068  0.00  0.00     0.050 A 
ENDBRANCH   1  16
TORSDOF 7
ENDMDL
MODEL 5
REMARK VINA RESULT:      -6.3      3.196      6.501
REMARK  7 active torsions:
REMARK  status: ('A' for Active; 'I' for Inactive)
REMARK    1  A    between atoms: O2_2  and  C3_3 
REMARK    2  A    between atoms: C6_6  and  C7_7 
REMARK    3  A    between atoms: C7_7  and  N8_8 
REMARK    4  A    between atoms: N8_8  and  C9_9 
REMARK    5  A    between atoms: N8_8  and  C14_14 
REMARK    6  A    between atoms: C9_9  and  C10_10 
REMARK    7  A    between atoms: C10_10  and  N11_11 
ROOT
ATOM      1  N8  ZIN A   1      18.538  -0.809  12.014  0.00  0.00    -0.360 N 
ENDROOT
BRANCH   1   2
ATOM      2  C7  ZIN A   1      19.675  -0.274  12.768  0.00  0.00     0.163 C 
BRANCH   2   3
ATOM      3  C6  ZIN A   1      19.312  -0.184  14.227  0.00  0.00    -0.040 A 
ATOM      4  C5  ZIN A   1      19.231  -1.335  14.990  0.00  0.00     0.011 A 
ATOM      5  C4  ZIN A   1      18.899  -1.255  16.329  0.00  0.00     0.037 A 
ATOM      6  C3  ZIN A   1      18.646  -0.021  16.908  0.00  0.00     0.068 A 
ATOM      7  C21 ZIN A   1      18.722   1.132  16.139  0.00  0.00     0.037 A 
ATOM      8  C20 ZIN A   1      19.060   1.048  14.802  0.00  0.00     0.011 A 
BRANCH   6   9
ATOM      9  O2  ZIN A   1      18.319   0.060  18.224  0.00  0.00    -0.356 OA
ATOM     10  C1  ZIN A   1      17.635   1.241  18.651  0.00  0.00     0.210 C 
ENDBRANCH   6   9
ENDBRANCH   2   3
ENDBRANCH   1   2
BRANCH   1  11
ATOM     11  C9  ZIN A   1      17.482   0.091  11.545  0.00  0.00     0.155 C 
BRANCH  11  12
ATOM     12  C10 ZIN A   1      17.768   0.503  10.099  0.00  0.00     0.291 C 
BRANCH  12  13
ATOM     13  N11 ZIN A   1      18.524   1.762  10.089  0.00  0.00     0.081 N 
ATOM     14  C12 ZIN A   1      19.119   2.009   8.768  0.00  0.00     0.309 C 
ATOM     15  C13 ZIN A   1      17.679   2.889  10.505  0.00  0.00     0.309 C 
ENDBRANCH  12  13
ENDBRANCH  11  12
ENDBRANCH   1  11
BRANCH   1  16
ATOM     16  C14 ZIN A   1      18.463  -2.171  11.744  0.00  0.00     0.125 A 
ATOM     17  N19 ZIN A   1      17.279  -2.749  11.609  0.00  0.00    -0.244 NA
ATOM     18  C18 ZIN A   1      17.164  -4.037  11.348  0.00  0.00     0.119 A 
ATOM     19  C17 ZIN A   1      18.282  -4.836  11.216  0.00  0.00     0.019 A 
ATOM     20  C16 ZIN A   1      19.542  -4.269  11.355  0.00  0.00     0.005 A 
ATOM     21  C15 ZIN A   1      19.632  -2.915  11.623  0.00  0.00     0.050 A 
ENDBRANCH   1  16
TORSDOF 7
ENDMDL
MODEL 6
REMARK VINA RESULT:      -6.3      2.999      6.405
REMARK  7 active torsions:
REMARK  status: ('A' for Active; 'I' for Inactive)
REMARK    1  A    between atoms: O2_2  and  C3_3 
REMARK    2  A    between atoms: C6_6  and  C7_7 
REMARK    3  A    between atoms: C7_7  and  N8_8 
REMARK    4  A    between atoms: N8_8  and  C9_9 
REMARK    5  A    between atoms: N8_8  and  C14_14 
REMARK    6  A    between atoms: C9_9  and  C10_10 
REMARK    7  A    between atoms: C10_10  and  N11_11 
ROOT
ATOM      1  N8  ZIN A   1      19.041  -0.971  11.138  0.00  0.00    -0.360 N 
ENDROOT
BRANCH   1   2
ATOM      2  C7  ZIN A   1      19.901  -0.348  12.147  0.00  0.00     0.163 C 
BRANCH   2   3
ATOM      3  C6  ZIN A   1      19.185  -0.326  13.472  0.00  0.00    -0.040 A 
ATOM      4  C5  ZIN A   1      18.197   0.611  13.707  0.00  0.00     0.011 A 
ATOM      5  C4  ZIN A   1      17.537   0.633  14.922  0.00  0.00     0.037 A 
ATOM      6  C3  ZIN A   1      17.869  -0.287  15.906  0.00  0.00     0.068 A 
ATOM      7  C21 ZIN A   1      18.865  -1.223  15.670  0.00  0.00     0.037 A 
ATOM      8  C20 ZIN A   1      19.518  -1.244  14.452  0.00  0.00     0.011 A 
BRANCH   6   9
ATOM      9  O2  ZIN A   1      17.223  -0.268  17.101  0.00  0.00    -0.356 OA
ATOM     10  C1  ZIN A   1      17.611   0.744  18.033  0.00  0.00     0.210 C 
ENDBRANCH   6   9
ENDBRANCH   2   3
ENDBRANCH   1   2
BRANCH   1  11
ATOM     11  C9  ZIN A   1      18.493  -0.166  10.044  0.00  0.00     0.155 C 
BRANCH  11  12
ATOM     12  C10 ZIN A   1      19.524  -0.067   8.918  0.00  0.00     0.291 C 
BRANCH  12  13
ATOM     13  N11 ZIN A   1      18.940  -0.582   7.672  0.00  0.00     0.081 N 
ATOM     14  C12 ZIN A   1      19.112  -2.038   7.571  0.00  0.00     0.309 C 
ATOM     15  C13 ZIN A   1      17.522  -0.210   7.562  0.00  0.00     0.309 C 
ENDBRANCH  12  13
ENDBRANCH  11  12
ENDBRANCH   1  11
BRANCH   1  16
ATOM     16  C14 ZIN A   1      18.745  -2.327  11.219  0.00  0.00     0.125 A 
ATOM     17  N19 ZIN A   1      17.481  -2.725  11.211  0.00  0.00    -0.244 NA
ATOM     18  C18 ZIN A   1      17.159  -4.003  11.282  0.00  0.00     0.119 A 
ATOM     19  C17 ZIN A   1      18.133  -4.976  11.378  0.00  0.00     0.019 A 
ATOM     20  C16 ZIN A   1      19.470  -4.600  11.395  0.00  0.00     0.005 A 
ATOM     21  C15 ZIN A   1      19.779  -3.254  11.314  0.00  0.00     0.050 A 
ENDBRANCH   1  16
TORSDOF 7
ENDMDL
MODEL 7
REMARK VINA RESULT:      -6.3      2.312      4.371
REMARK  7 active torsions:
REMARK  status: ('A' for Active; 'I' for Inactive)
REMARK    1  A    between atoms: O2_2  and  C3_3 
REMARK    2  A    between atoms: C6_6  and  C7_7 
REMARK    3  A    between atoms: C7_7  and  N8_8 
REMARK    4  A    between atoms: N8_8  and  C9_9 
REMARK    5  A    between atoms: N8_8  and  C14_14 
REMARK    6  A    between atoms: C9_9  and  C10_10 
REMARK    7  A    between atoms: C10_10  and  N11_11 
ROOT
ATOM      1  N8  ZIN A   1      18.058   1.618  11.610  0.00  0.00    -0.360 N 
ENDROOT
BRANCH   1   2
ATOM      2  C7  ZIN A   1      19.246   1.252  10.834  0.00  0.00     0.163 C 
BRANCH   2   3
ATOM      3  C6  ZIN A   1      18.848   0.973   9.408  0.00  0.00    -0.040 A 
ATOM      4  C5  ZIN A   1      17.892   0.013   9.134  0.00  0.00     0.011 A 
ATOM      5  C4  ZIN A   1      17.524  -0.244   7.827  0.00  0.00     0.037 A 
ATOM      6  C3  ZIN A   1      18.115   0.463   6.789  0.00  0.00     0.068 A 
ATOM      7  C21 ZIN A   1      19.078   1.423   7.067  0.00  0.00     0.037 A 
ATOM      8  C20 ZIN A   1      19.438   1.679   8.376  0.00  0.00     0.011 A 
BRANCH   6   9
ATOM      9  O2  ZIN A   1      17.755   0.213   5.503  0.00  0.00    -0.356 OA
ATOM     10  C1  ZIN A   1      18.788  -0.215   4.613  0.00  0.00     0.210 C 
ENDBRANCH   6   9
ENDBRANCH   2   3
ENDBRANCH   1   2
BRANCH   1  11
ATOM     11  C9  ZIN A   1      17.265   0.578  12.269  0.00  0.00     0.155 C 
BRANCH  11  12
ATOM     12  C10 ZIN A   1      18.199  -0.494  12.836  0.00  0.00     0.291 C 
BRANCH  12  13
ATOM     13  N11 ZIN A   1      18.667  -0.082  14.166  0.00  0.00     0.081 N 
ATOM     14  C12 ZIN A   1      17.576   0.519  14.946  0.00  0.00     0.309 C 
ATOM     15  C13 ZIN A   1      19.270  -1.211  14.887  0.00  0.00     0.309 C 
ENDBRANCH  12  13
ENDBRANCH  11  12
ENDBRANCH   1  11
BRANCH   1  16
ATOM     16  C14 ZIN A   1      17.685   2.952  11.721  0.00  0.00     0.125 A 
ATOM     17  N19 ZIN A   1      17.602   3.513  12.919  0.00  0.00    -0.244 NA
ATOM     18  C18 ZIN A   1      17.255   4.777  13.068  0.00  0.00     0.119 A 
ATOM     19  C17 ZIN A   1      16.955   5.563  11.973  0.00  0.00     0.019 A 
ATOM     20  C16 ZIN A   1      17.026   5.012  10.701  0.00  0.00     0.005 A 
ATOM     21  C15 ZIN A   1      17.396   3.686  10.575  0.00  0.00     0.050 A 
ENDBRANCH   1  16
TORSDOF 7
ENDMDL
MODEL 8
REMARK VINA RESULT:      -6.3      3.570      7.065
REMARK  7 active torsions:
REMARK  status: ('A' for Active; 'I' for Inactive)
REMARK    1  A    between atoms: O2_2  and  C3_3 
REMARK    2  A    between atoms: C6_6  and  C7_7 
REMARK    3  A    between atoms: C7_7  and  N8_8 
REMARK    4  A    between atoms: N8_8  and  C9_9 
REMARK    5  A    between atoms: N8_8  and  C14_14 
REMARK    6  A    between atoms: C9_9  and  C10_10 
REMARK    7  A    between atoms: C10_10  and  N11_11 
ROOT
ATOM      1  N8  ZIN A   1      18.614  -0.394  11.634  0.00  0.00    -0.360 N 
ENDROOT
BRANCH   1   2
ATOM      2  C7  ZIN A   1      17.588  -0.911  12.543  0.00  0.00     0.163 C 
BRANCH   2   3
ATOM      3  C6  ZIN A   1      18.010  -0.662  13.968  0.00  0.00    -0.040 A 
ATOM      4  C5  ZIN A   1      18.809  -1.582  14.621  0.00  0.00     0.011 A 
ATOM      5  C4  ZIN A   1      19.198  -1.355  15.928  0.00  0.00     0.037 A 
ATOM      6  C3  ZIN A   1      18.785  -0.206  16.585  0.00  0.00     0.068 A 
ATOM      7  C21 ZIN A   1      17.978   0.713  15.929  0.00  0.00     0.037 A 
ATOM      8  C20 ZIN A   1      17.596   0.485  14.621  0.00  0.00     0.011 A 
BRANCH   6   9
ATOM      9  O2  ZIN A   1      19.166   0.019  17.870  0.00  0.00    -0.356 OA
ATOM     10  C1  ZIN A   1      18.190   0.591  18.744  0.00  0.00     0.210 C 
ENDBRANCH   6   9
ENDBRANCH   2   3
ENDBRANCH   1   2
BRANCH   1  11
ATOM     11  C9  ZIN A   1      19.561  -1.314  10.999  0.00  0.00     0.155 C 
BRANCH  11  12
ATOM     12  C10 ZIN A   1      18.798  -2.298  10.110  0.00  0.00     0.291 C 
BRANCH  12  13
ATOM     13  N11 ZIN A   1      19.176  -3.672  10.464  0.00  0.00     0.081 N 
ATOM     14  C12 ZIN A   1      20.163  -3.684  11.553  0.00  0.00     0.309 C 
ATOM     15  C13 ZIN A   1      17.993  -4.470  10.816  0.00  0.00     0.309 C 
ENDBRANCH  12  13
ENDBRANCH  11  12
ENDBRANCH   1  11
BRANCH   1  16
ATOM     16  C14 ZIN A   1      18.688   0.970  11.373  0.00  0.00     0.125 A 
ATOM     17  N19 ZIN A   1      19.776   1.645  11.714  0.00  0.00    -0.244 NA
ATOM     18  C18 ZIN A   1      19.887   2.939  11.480  0.00  0.00     0.119 A 
ATOM     19  C17 ZIN A   1      18.863   3.641  10.877  0.00  0.00     0.019 A 
ATOM     20  C16 ZIN A   1      17.704   2.971  10.508  0.00  0.00     0.005 A 
ATOM     21  C15 ZIN A   1      17.618   1.614  10.761  0.00  0.00     0.050 A 
ENDBRANCH   1  16
TORSDOF 7
ENDMDL
MODEL 9
REMARK VINA RESULT:      -6.2      3.222      6.018
REMARK  7 active torsions:
REMARK  status: ('A' for Active; 'I' for Inactive)
REMARK    1  A    between atoms: O2_2  and  C3_3 
REMARK    2  A    between atoms: C6_6  and  C7_7 
REMARK    3  A    between atoms: C7_7  and  N8_8 
REMARK    4  A    between atoms: N8_8  and  C9_9 
REMARK    5  A    between atoms: N8_8  and  C14_14 
REMARK    6  A    between atoms: C9_9  and  C10_10 
REMARK    7  A    between atoms: C10_10  and  N11_11 
ROOT
ATOM      1  N8  ZIN A   1      18.520   0.504   9.163  0.00  0.00    -0.360 N 
ENDROOT
BRANCH   1   2
ATOM      2  C7  ZIN A   1      19.399   1.674   9.106  0.00  0.00     0.163 C 
BRANCH   2   3
ATOM      3  C6  ZIN A   1      19.002   2.653  10.180  0.00  0.00    -0.040 A 
ATOM      4  C5  ZIN A   1      19.858   2.904  11.236  0.00  0.00     0.011 A 
ATOM      5  C4  ZIN A   1      19.496   3.803  12.222  0.00  0.00     0.037 A 
ATOM      6  C3  ZIN A   1      18.272   4.452  12.152  0.00  0.00     0.068 A 
ATOM      7  C21 ZIN A   1      17.412   4.194  11.094  0.00  0.00     0.037 A 
ATOM      8  C20 ZIN A   1      17.781   3.299  10.108  0.00  0.00     0.011 A 
BRANCH   6   9
ATOM      9  O2  ZIN A   1      17.914   5.335  13.120  0.00  0.00    -0.356 OA
ATOM     10  C1  ZIN A   1      16.601   5.895  13.033  0.00  0.00     0.210 C 
ENDBRANCH   6   9
ENDBRANCH   2   3
ENDBRANCH   1   2
BRANCH   1  11
ATOM     11  C9  ZIN A   1      17.656   0.180   8.025  0.00  0.00     0.155 C 
BRANCH  11  12
ATOM     12  C10 ZIN A   1      18.379   0.526   6.721  0.00  0.00     0.291 C 
BRANCH  12  13
ATOM     13  N11 ZIN A   1      18.406  -0.656   5.849  0.00  0.00     0.081 N 
ATOM     14  C12 ZIN A   1      18.920  -0.314   4.515  0.00  0.00     0.309 C 
ATOM     15  C13 ZIN A   1      19.192  -1.740   6.454  0.00  0.00     0.309 C 
ENDBRANCH  12  13
ENDBRANCH  11  12
ENDBRANCH   1  11
BRANCH   1  16
ATOM     16  C14 ZIN A   1      18.507  -0.300  10.297  0.00  0.00     0.125 A 
ATOM     17  N19 ZIN A   1      19.589  -0.989  10.626  0.00  0.00    -0.244 NA
ATOM     18  C18 ZIN A   1      19.619  -1.761  11.696  0.00  0.00     0.119 A 
ATOM     19  C17 ZIN A   1      18.512  -1.887  12.510  0.00  0.00     0.019 A 
ATOM     20  C16 ZIN A   1      17.355  -1.185  12.197  0.00  0.00     0.005 A 
ATOM     21  C15 ZIN A   1      17.354  -0.380  11.072  0.00  0.00     0.050 A 
ENDBRANCH   1  16
TORSDOF 7
ENDMDL
