MODEL 1
REMARK VINA RESULT:      -7.3      0.000      0.000
REMARK  5 active torsions:
REMARK  status: ('A' for Active; 'I' for Inactive)
REMARK    1  A    between atoms: C2_2  and  O3_3 
REMARK    2  A    between atoms: O3_3  and  C4_4 
REMARK    3  A    between atoms: C4_4  and  C5_5 
REMARK    4  A    between atoms: C5_5  and  N6_6 
REMARK    5  A    between atoms: C14_14  and  N15_15 
ROOT
ATOM      1  N6  ZIN A   1      17.889  -0.196  12.996  0.00  0.00    -0.318 N 
ATOM      2  C7  ZIN A   1      17.990  -0.264  14.376  0.00  0.00     0.066 A 
ATOM      3  C8  ZIN A   1      17.403   0.435  15.420  0.00  0.00     0.032 A 
ATOM      4  C9  ZIN A   1      17.723   0.118  16.724  0.00  0.00     0.002 A 
ATOM      5  C10 ZIN A   1      18.629  -0.895  16.999  0.00  0.00     0.002 A 
ATOM      6  C11 ZIN A   1      19.222  -1.599  15.975  0.00  0.00     0.034 A 
ATOM      7  C12 ZIN A   1      18.909  -1.291  14.650  0.00  0.00     0.087 A 
ATOM      8  N13 ZIN A   1      19.316  -1.792  13.454  0.00  0.00    -0.218 NA
ATOM      9  C14 ZIN A   1      18.715  -1.154  12.482  0.00  0.00     0.185 A 
ENDROOT
BRANCH   9  10
ATOM     10  N15 ZIN A   1      18.894  -1.405  11.138  0.00  0.00    -0.251 NA
ATOM     11  C23 ZIN A   1      18.879  -2.863  10.863  0.00  0.00     0.126 C 
ATOM     12  C22 ZIN A   1      18.558  -3.145   9.465  0.00  0.00     0.249 C 
ATOM     13  N19 ZIN A   1      19.541  -2.579   8.521  0.00  0.00    -0.074 N 
ATOM     14  C18 ZIN A   1      19.207  -1.192   8.303  0.00  0.00     0.235 C 
ATOM     15  H20 ZIN A   1      20.469  -2.648   8.914  0.00  0.00     0.279 HD
ATOM     16  C21 ZIN A   1      19.487  -3.309   7.248  0.00  0.00     0.269 C 
ATOM     17  C17 ZIN A   1      20.006  -0.255   9.230  0.00  0.00     0.042 C 
ATOM     18  C16 ZIN A   1      20.122  -0.816  10.661  0.00  0.00     0.100 C 
ENDBRANCH   9  10
BRANCH   1  19
ATOM     19  C5  ZIN A   1      17.046   0.728  12.232  0.00  0.00     0.158 C 
BRANCH  19  20
ATOM     20  C4  ZIN A   1      17.838   1.997  11.915  0.00  0.00     0.187 C 
BRANCH  20  21
ATOM     21  O3  ZIN A   1      17.095   2.807  11.003  0.00  0.00    -0.390 OA
BRANCH  21  22
ATOM     22  C2  ZIN A   1      17.859   3.850  10.395  0.00  0.00     0.163 C 
ATOM     23  C1  ZIN A   1      17.146   5.189  10.594  0.00  0.00     0.033 C 
ENDBRANCH  21  22
ENDBRANCH  20  21
ENDBRANCH  19  20
ENDBRANCH   1  19
TORSDOF 5
ENDMDL
MODEL 2
REMARK VINA RESULT:      -7.2      2.714      6.994
REMARK  5 active torsions:
REMARK  status: ('A' for Active; 'I' for Inactive)
REMARK    1  A    between atoms: C2_2  and  O3_3 
REMARK    2  A    between atoms: O3_3  and  C4_4 
REMARK    3  A    between atoms: C4_4  and  C5_5 
REMARK    4  A    between atoms: C5_5  and  N6_6 
REMARK    5  A    between atoms: C14_14  and  N15_15 
ROOT
ATOM      1  N6  ZIN A   1      17.815   0.390  10.704  0.00  0.00    -0.318 N 
ATOM      2  C7  ZIN A   1      17.948   0.438   9.326  0.00  0.00     0.066 A 
ATOM      3  C8  ZIN A   1      17.377  -0.268   8.278  0.00  0.00     0.032 A 
ATOM      4  C9  ZIN A   1      17.730   0.027   6.977  0.00  0.00     0.002 A 
ATOM      5  C10 ZIN A   1      18.653   1.026   6.709  0.00  0.00     0.002 A 
ATOM      6  C11 ZIN A   1      19.231   1.737   7.737  0.00  0.00     0.034 A 
ATOM      7  C12 ZIN A   1      18.885   1.451   9.059  0.00  0.00     0.087 A 
ATOM      8  N13 ZIN A   1      19.270   1.964  10.257  0.00  0.00    -0.218 NA
ATOM      9  C14 ZIN A   1      18.640   1.345  11.223  0.00  0.00     0.185 A 
ENDROOT
BRANCH   9  10
ATOM     10  N15 ZIN A   1      18.792   1.613  12.568  0.00  0.00    -0.251 NA
ATOM     11  C23 ZIN A   1      19.041   3.058  12.798  0.00  0.00     0.126 C 
ATOM     12  C22 ZIN A   1      18.705   3.452  14.164  0.00  0.00     0.249 C 
ATOM     13  N19 ZIN A   1      19.511   2.750  15.183  0.00  0.00    -0.074 N 
ATOM     14  C18 ZIN A   1      18.907   1.461  15.422  0.00  0.00     0.235 C 
ATOM     15  H20 ZIN A   1      20.454   2.627  14.845  0.00  0.00     0.279 HD
ATOM     16  C21 ZIN A   1      19.528   3.529  16.428  0.00  0.00     0.269 C 
ATOM     17  C17 ZIN A   1      19.561   0.353  14.573  0.00  0.00     0.042 C 
ATOM     18  C16 ZIN A   1      19.858   0.823  13.135  0.00  0.00     0.100 C 
ENDBRANCH   9  10
BRANCH   1  19
ATOM     19  C5  ZIN A   1      16.946  -0.514  11.461  0.00  0.00     0.158 C 
BRANCH  19  20
ATOM     20  C4  ZIN A   1      17.723  -1.777  11.833  0.00  0.00     0.187 C 
BRANCH  20  21
ATOM     21  O3  ZIN A   1      16.956  -2.930  11.483  0.00  0.00    -0.390 OA
BRANCH  21  22
ATOM     22  C2  ZIN A   1      17.741  -4.043  11.052  0.00  0.00     0.163 C 
ATOM     23  C1  ZIN A   1      17.455  -5.249  11.949  0.00  0.00     0.033 C 
ENDBRANCH  21  22
ENDBRANCH  20  21
ENDBRANCH  19  20
ENDBRANCH   1  19
TORSDOF 5
ENDMDL
MODEL 3
REMARK VINA RESULT:      -7.0      1.714      5.627
REMARK  5 active torsions:
REMARK  status: ('A' for Active; 'I' for Inactive)
REMARK    1  A    between atoms: C2_2  and  O3_3 
REMARK    2  A    between atoms: O3_3  and  C4_4 
REMARK    3  A    between atoms: C4_4  and  C5_5 
REMARK    4  A    between atoms: C5_5  and  N6_6 
REMARK    5  A    between atoms: C14_14  and  N15_15 
ROOT
ATOM      1  N6  ZIN A   1      17.916  -1.415  11.809  0.00  0.00    -0.318 N 
ATOM      2  C7  ZIN A   1      18.299  -2.452  10.975  0.00  0.00     0.066 A 
ATOM      3  C8  ZIN A   1      17.886  -2.882   9.723  0.00  0.00     0.032 A 
ATOM      4  C9  ZIN A   1      18.483  -3.983   9.144  0.00  0.00     0.002 A 
ATOM      5  C10 ZIN A   1      19.494  -4.663   9.805  0.00  0.00     0.002 A 
ATOM      6  C11 ZIN A   1      19.916  -4.250  11.050  0.00  0.00     0.034 A 
ATOM      7  C12 ZIN A   1      19.322  -3.138  11.650  0.00  0.00     0.087 A 
ATOM      8  N13 ZIN A   1      19.515  -2.503  12.835  0.00  0.00    -0.218 NA
ATOM      9  C14 ZIN A   1      18.693  -1.488  12.929  0.00  0.00     0.185 A 
ENDROOT
BRANCH   9  10
ATOM     10  N15 ZIN A   1      18.618  -0.626  14.002  0.00  0.00    -0.251 NA
ATOM     11  C23 ZIN A   1      19.537   0.526  13.825  0.00  0.00     0.126 C 
ATOM     12  C22 ZIN A   1      19.131   1.669  14.640  0.00  0.00     0.249 C 
ATOM     13  N19 ZIN A   1      19.143   1.380  16.087  0.00  0.00    -0.074 N 
ATOM     14  C18 ZIN A   1      17.903   0.721  16.422  0.00  0.00     0.235 C 
ATOM     15  H20 ZIN A   1      19.920   0.776  16.307  0.00  0.00     0.279 HD
ATOM     16  C21 ZIN A   1      19.260   2.633  16.845  0.00  0.00     0.269 C 
ATOM     17  C17 ZIN A   1      18.048  -0.814  16.419  0.00  0.00     0.042 C 
ATOM     18  C16 ZIN A   1      18.906  -1.312  15.239  0.00  0.00     0.100 C 
ENDBRANCH   9  10
BRANCH   1  19
ATOM     19  C5  ZIN A   1      16.875  -0.420  11.536  0.00  0.00     0.158 C 
BRANCH  19  20
ATOM     20  C4  ZIN A   1      17.469   0.728  10.718  0.00  0.00     0.187 C 
BRANCH  20  21
ATOM     21  O3  ZIN A   1      17.100   1.975  11.309  0.00  0.00    -0.390 OA
BRANCH  21  22
ATOM     22  C2  ZIN A   1      17.844   3.093  10.822  0.00  0.00     0.163 C 
ATOM     23  C1  ZIN A   1      18.666   2.667   9.603  0.00  0.00     0.033 C 
ENDBRANCH  21  22
ENDBRANCH  20  21
ENDBRANCH  19  20
ENDBRANCH   1  19
TORSDOF 5
ENDMDL
MODEL 4
REMARK VINA RESULT:      -6.9      1.726      2.083
REMARK  5 active torsions:
REMARK  status: ('A' for Active; 'I' for Inactive)
REMARK    1  A    between atoms: C2_2  and  O3_3 
REMARK    2  A    between atoms: O3_3  and  C4_4 
REMARK    3  A    between atoms: C4_4  and  C5_5 
REMARK    4  A    between atoms: C5_5  and  N6_6 
REMARK    5  A    between atoms: C14_14  and  N15_15 
ROOT
ATOM      1  N6  ZIN A   1      19.008   1.359  14.113  0.00  0.00    -0.318 N 
ATOM      2  C7  ZIN A   1      19.053   1.027  15.457  0.00  0.00     0.066 A 
ATOM      3  C8  ZIN A   1      19.191   1.761  16.625  0.00  0.00     0.032 A 
ATOM      4  C9  ZIN A   1      19.199   1.115  17.845  0.00  0.00     0.002 A 
ATOM      5  C10 ZIN A   1      19.072  -0.264  17.910  0.00  0.00     0.002 A 
ATOM      6  C11 ZIN A   1      18.934  -1.009  16.760  0.00  0.00     0.034 A 
ATOM      7  C12 ZIN A   1      18.923  -0.371  15.518  0.00  0.00     0.087 A 
ATOM      8  N13 ZIN A   1      18.806  -0.817  14.240  0.00  0.00    -0.218 NA
ATOM      9  C14 ZIN A   1      18.851   0.197  13.414  0.00  0.00     0.185 A 
ENDROOT
BRANCH   9  10
ATOM     10  N15 ZIN A   1      18.761   0.106  12.041  0.00  0.00    -0.251 NA
ATOM     11  C23 ZIN A   1      17.375  -0.215  11.618  0.00  0.00     0.126 C 
ATOM     12  C22 ZIN A   1      17.130   0.173  10.231  0.00  0.00     0.249 C 
ATOM     13  N19 ZIN A   1      18.003  -0.530   9.272  0.00  0.00    -0.074 N 
ATOM     14  C18 ZIN A   1      19.269   0.162   9.226  0.00  0.00     0.235 C 
ATOM     15  H20 ZIN A   1      18.146  -1.482   9.576  0.00  0.00     0.279 HD
ATOM     16  C21 ZIN A   1      17.387  -0.524   7.939  0.00  0.00     0.269 C 
ATOM     17  C17 ZIN A   1      20.306  -0.472  10.175  0.00  0.00     0.042 C 
ATOM     18  C16 ZIN A   1      19.683  -0.878  11.526  0.00  0.00     0.100 C 
ENDBRANCH   9  10
BRANCH   1  19
ATOM     19  C5  ZIN A   1      19.103   2.708  13.548  0.00  0.00     0.158 C 
BRANCH  19  20
ATOM     20  C4  ZIN A   1      17.703   3.313  13.433  0.00  0.00     0.187 C 
BRANCH  20  21
ATOM     21  O3  ZIN A   1      17.245   3.201  12.085  0.00  0.00    -0.390 OA
BRANCH  21  22
ATOM     22  C2  ZIN A   1      18.141   3.752  11.118  0.00  0.00     0.163 C 
ATOM     23  C1  ZIN A   1      17.481   4.953  10.436  0.00  0.00     0.033 C 
ENDBRANCH  21  22
ENDBRANCH  20  21
ENDBRANCH  19  20
ENDBRANCH   1  19
TORSDOF 5
ENDMDL
MODEL 5
REMARK VINA RESULT:      -6.8      1.638      5.794
REMARK  5 active torsions:
REMARK  status: ('A' for Active; 'I' for Inactive)
REMARK    1  A    between atoms: C2_2  and  O3_3 
REMARK    2  A    between atoms: O3_3  and  C4_4 
REMARK    3  A    between atoms: C4_4  and  C5_5 
REMARK    4  A    between atoms: C5_5  and  N6_6 
REMARK    5  A    between atoms: C14_14  and  N15_15 
ROOT
ATOM      1  N6  ZIN A   1      18.981   1.145  10.171  0.00  0.00    -0.318 N 
ATOM      2  C7  ZIN A   1      18.884   0.826   8.826  0.00  0.00     0.066 A 
ATOM      3  C8  ZIN A   1      19.062   1.543   7.652  0.00  0.00     0.032 A 
ATOM      4  C9  ZIN A   1      18.884   0.921   6.434  0.00  0.00     0.002 A 
ATOM      5  C10 ZIN A   1      18.527  -0.418   6.374  0.00  0.00     0.002 A 
ATOM      6  C11 ZIN A   1      18.345  -1.145   7.530  0.00  0.00     0.034 A 
ATOM      7  C12 ZIN A   1      18.521  -0.530   8.771  0.00  0.00     0.087 A 
ATOM      8  N13 ZIN A   1      18.419  -0.968  10.053  0.00  0.00    -0.218 NA
ATOM      9  C14 ZIN A   1      18.692   0.012  10.876  0.00  0.00     0.185 A 
ENDROOT
BRANCH   9  10
ATOM     10  N15 ZIN A   1      18.683  -0.083  12.252  0.00  0.00    -0.251 NA
ATOM     11  C23 ZIN A   1      19.170  -1.412  12.697  0.00  0.00     0.126 C 
ATOM     12  C22 ZIN A   1      19.648  -1.376  14.078  0.00  0.00     0.249 C 
ATOM     13  N19 ZIN A   1      18.597  -1.002  15.044  0.00  0.00    -0.074 N 
ATOM     14  C18 ZIN A   1      18.494   0.438  15.058  0.00  0.00     0.235 C 
ATOM     15  H20 ZIN A   1      17.716  -1.403  14.761  0.00  0.00     0.279 HD
ATOM     16  C21 ZIN A   1      18.955  -1.487  16.383  0.00  0.00     0.269 C 
ATOM     17  C17 ZIN A   1      17.386   0.945  14.113  0.00  0.00     0.042 C 
ATOM     18  C16 ZIN A   1      17.364   0.172  12.779  0.00  0.00     0.100 C 
ENDBRANCH   9  10
BRANCH   1  19
ATOM     19  C5  ZIN A   1      19.335   2.452  10.731  0.00  0.00     0.158 C 
BRANCH  19  20
ATOM     20  C4  ZIN A   1      18.232   3.461  10.407  0.00  0.00     0.187 C 
BRANCH  20  21
ATOM     21  O3  ZIN A   1      17.179   3.339  11.364  0.00  0.00    -0.390 OA
BRANCH  21  22
ATOM     22  C2  ZIN A   1      17.327   4.188  12.504  0.00  0.00     0.163 C 
ATOM     23  C1  ZIN A   1      16.543   5.483  12.282  0.00  0.00     0.033 C 
ENDBRANCH  21  22
ENDBRANCH  20  21
ENDBRANCH  19  20
ENDBRANCH   1  19
TORSDOF 5
ENDMDL
MODEL 6
REMARK VINA RESULT:      -6.8      2.853      7.060
REMARK  5 active torsions:
REMARK  status: ('A' for Active; 'I' for Inactive)
REMARK    1  A    between atoms: C2_2  and  O3_3 
REMARK    2  A    between atoms: O3_3  and  C4_4 
REMARK    3  A    between atoms: C4_4  and  C5_5 
REMARK    4  A    between atoms: C5_5  and  N6_6 
REMARK    5  A    between atoms: C14_14  and  N15_15 
ROOT
ATOM      1  N6  ZIN A   1      17.550   1.230  10.663  0.00  0.00    -0.318 N 
ATOM      2  C7  ZIN A   1      17.921   0.694   9.441  0.00  0.00     0.066 A 
ATOM      3  C8  ZIN A   1      17.789  -0.558   8.859  0.00  0.00     0.032 A 
ATOM      4  C9  ZIN A   1      18.281  -0.780   7.589  0.00  0.00     0.002 A 
ATOM      5  C10 ZIN A   1      18.908   0.240   6.890  0.00  0.00     0.002 A 
ATOM      6  C11 ZIN A   1      19.049   1.489   7.453  0.00  0.00     0.034 A 
ATOM      7  C12 ZIN A   1      18.556   1.731   8.737  0.00  0.00     0.087 A 
ATOM      8  N13 ZIN A   1      18.541   2.826   9.540  0.00  0.00    -0.218 NA
ATOM      9  C14 ZIN A   1      17.947   2.536  10.670  0.00  0.00     0.185 A 
ENDROOT
BRANCH   9  10
ATOM     10  N15 ZIN A   1      17.757   3.415  11.715  0.00  0.00    -0.251 NA
ATOM     11  C23 ZIN A   1      17.020   4.623  11.267  0.00  0.00     0.126 C 
ATOM     12  C22 ZIN A   1      16.372   5.305  12.385  0.00  0.00     0.249 C 
ATOM     13  N19 ZIN A   1      17.328   5.785  13.401  0.00  0.00    -0.074 N 
ATOM     14  C18 ZIN A   1      17.644   4.682  14.277  0.00  0.00     0.235 C 
ATOM     15  H20 ZIN A   1      18.169   6.113  12.949  0.00  0.00     0.279 HD
ATOM     16  C21 ZIN A   1      16.724   6.877  14.177  0.00  0.00     0.269 C 
ATOM     17  C17 ZIN A   1      18.932   3.954  13.843  0.00  0.00     0.042 C 
ATOM     18  C16 ZIN A   1      19.016   3.788  12.312  0.00  0.00     0.100 C 
ENDBRANCH   9  10
BRANCH   1  19
ATOM     19  C5  ZIN A   1      16.853   0.527  11.744  0.00  0.00     0.158 C 
BRANCH  19  20
ATOM     20  C4  ZIN A   1      17.859  -0.295  12.550  0.00  0.00     0.187 C 
BRANCH  20  21
ATOM     21  O3  ZIN A   1      18.409   0.513  13.591  0.00  0.00    -0.390 OA
BRANCH  21  22
ATOM     22  C2  ZIN A   1      19.815   0.340  13.781  0.00  0.00     0.163 C 
ATOM     23  C1  ZIN A   1      20.525   0.410  12.427  0.00  0.00     0.033 C 
ENDBRANCH  21  22
ENDBRANCH  20  21
ENDBRANCH  19  20
ENDBRANCH   1  19
TORSDOF 5
ENDMDL
MODEL 7
REMARK VINA RESULT:      -6.8      2.131      6.183
REMARK  5 active torsions:
REMARK  status: ('A' for Active; 'I' for Inactive)
REMARK    1  A    between atoms: C2_2  and  O3_3 
REMARK    2  A    between atoms: O3_3  and  C4_4 
REMARK    3  A    between atoms: C4_4  and  C5_5 
REMARK    4  A    between atoms: C5_5  and  N6_6 
REMARK    5  A    between atoms: C14_14  and  N15_15 
ROOT
ATOM      1  N6  ZIN A   1      19.109  -2.579  10.192  0.00  0.00    -0.318 N 
ATOM      2  C7  ZIN A   1      18.951  -3.806   9.568  0.00  0.00     0.066 A 
ATOM      3  C8  ZIN A   1      19.285  -5.108   9.909  0.00  0.00     0.032 A 
ATOM      4  C9  ZIN A   1      18.984  -6.142   9.045  0.00  0.00     0.002 A 
ATOM      5  C10 ZIN A   1      18.351  -5.888   7.839  0.00  0.00     0.002 A 
ATOM      6  C11 ZIN A   1      18.013  -4.600   7.484  0.00  0.00     0.034 A 
ATOM      7  C12 ZIN A   1      18.309  -3.543   8.346  0.00  0.00     0.087 A 
ATOM      8  N13 ZIN A   1      18.108  -2.201   8.282  0.00  0.00    -0.218 NA
ATOM      9  C14 ZIN A   1      18.573  -1.634   9.366  0.00  0.00     0.185 A 
ENDROOT
BRANCH   9  10
ATOM     10  N15 ZIN A   1      18.533  -0.281   9.632  0.00  0.00    -0.251 NA
ATOM     11  C23 ZIN A   1      17.321   0.073  10.412  0.00  0.00     0.126 C 
ATOM     12  C22 ZIN A   1      17.491   1.336  11.128  0.00  0.00     0.249 C 
ATOM     13  N19 ZIN A   1      17.726   2.482  10.230  0.00  0.00    -0.074 N 
ATOM     14  C18 ZIN A   1      19.128   2.505   9.888  0.00  0.00     0.235 C 
ATOM     15  H20 ZIN A   1      17.173   2.377   9.392  0.00  0.00     0.279 HD
ATOM     16  C21 ZIN A   1      17.360   3.732  10.910  0.00  0.00     0.269 C 
ATOM     17  C17 ZIN A   1      19.407   1.786   8.553  0.00  0.00     0.042 C 
ATOM     18  C16 ZIN A   1      18.587   0.488   8.412  0.00  0.00     0.100 C 
ENDBRANCH   9  10
BRANCH   1  19
ATOM     19  C5  ZIN A   1      19.730  -2.342  11.498  0.00  0.00     0.158 C 
BRANCH  19  20
ATOM     20  C4  ZIN A   1      18.699  -2.579  12.603  0.00  0.00     0.187 C 
BRANCH  20  21
ATOM     21  O3  ZIN A   1      18.544  -1.386  13.374  0.00  0.00    -0.390 OA
BRANCH  21  22
ATOM     22  C2  ZIN A   1      19.485  -1.257  14.441  0.00  0.00     0.163 C 
ATOM     23  C1  ZIN A   1      18.748  -1.311  15.781  0.00  0.00     0.033 C 
ENDBRANCH  21  22
ENDBRANCH  20  21
ENDBRANCH  19  20
ENDBRANCH   1  19
TORSDOF 5
ENDMDL
MODEL 8
REMARK VINA RESULT:      -6.7      2.081      4.803
REMARK  5 active torsions:
REMARK  status: ('A' for Active; 'I' for Inactive)
REMARK    1  A    between atoms: C2_2  and  O3_3 
REMARK    2  A    between atoms: O3_3  and  C4_4 
REMARK    3  A    between atoms: C4_4  and  C5_5 
REMARK    4  A    between atoms: C5_5  and  N6_6 
REMARK    5  A    between atoms: C14_14  and  N15_15 
ROOT
ATOM      1  N6  ZIN A   1      19.228   0.992  11.831  0.00  0.00    -0.318 N 
ATOM      2  C7  ZIN A   1      18.953   2.349  11.783  0.00  0.00     0.066 A 
ATOM      3  C8  ZIN A   1      19.473   3.460  12.429  0.00  0.00     0.032 A 
ATOM      4  C9  ZIN A   1      18.967   4.714  12.155  0.00  0.00     0.002 A 
ATOM      5  C10 ZIN A   1      17.939   4.871  11.238  0.00  0.00     0.002 A 
ATOM      6  C11 ZIN A   1      17.409   3.779  10.587  0.00  0.00     0.034 A 
ATOM      7  C12 ZIN A   1      17.911   2.503  10.853  0.00  0.00     0.087 A 
ATOM      8  N13 ZIN A   1      17.607   1.264  10.385  0.00  0.00    -0.218 NA
ATOM      9  C14 ZIN A   1      18.382   0.377  10.954  0.00  0.00     0.185 A 
ENDROOT
BRANCH   9  10
ATOM     10  N15 ZIN A   1      18.344  -0.981  10.711  0.00  0.00    -0.251 NA
ATOM     11  C23 ZIN A   1      17.899  -1.261   9.324  0.00  0.00     0.126 C 
ATOM     12  C22 ZIN A   1      18.324  -2.587   8.879  0.00  0.00     0.249 C 
ATOM     13  N19 ZIN A   1      17.760  -3.678   9.697  0.00  0.00    -0.074 N 
ATOM     14  C18 ZIN A   1      18.582  -3.826  10.874  0.00  0.00     0.235 C 
ATOM     15  H20 ZIN A   1      16.816  -3.447   9.968  0.00  0.00     0.279 HD
ATOM     16  C21 ZIN A   1      17.763  -4.930   8.929  0.00  0.00     0.269 C 
ATOM     17  C17 ZIN A   1      18.017  -3.039  12.074  0.00  0.00     0.042 C 
ATOM     18  C16 ZIN A   1      17.487  -1.652  11.658  0.00  0.00     0.100 C 
ENDBRANCH   9  10
BRANCH   1  19
ATOM     19  C5  ZIN A   1      20.244   0.341  12.662  0.00  0.00     0.158 C 
BRANCH  19  20
ATOM     20  C4  ZIN A   1      19.729   0.220  14.097  0.00  0.00     0.187 C 
BRANCH  20  21
ATOM     21  O3  ZIN A   1      19.735  -1.153  14.491  0.00  0.00    -0.390 OA
BRANCH  21  22
ATOM     22  C2  ZIN A   1      19.022  -1.413  15.701  0.00  0.00     0.163 C 
ATOM     23  C1  ZIN A   1      17.720  -0.610  15.711  0.00  0.00     0.033 C 
ENDBRANCH  21  22
ENDBRANCH  20  21
ENDBRANCH  19  20
ENDBRANCH   1  19
TORSDOF 5
ENDMDL
MODEL 9
REMARK VINA RESULT:      -6.7      2.677      4.845
REMARK  5 active torsions:
REMARK  status: ('A' for Active; 'I' for Inactive)
REMARK    1  A    between atoms: C2_2  and  O3_3 
REMARK    2  A    between atoms: O3_3  and  C4_4 
REMARK    3  A    between atoms: C4_4  and  C5_5 
REMARK    4  A    between atoms: C5_5  and  N6_6 
REMARK    5  A    between atoms: C14_14  and  N15_15 
ROOT
ATOM      1  N6  ZIN A   1      19.662   0.607  10.064  0.00  0.00    -0.318 N 
ATOM      2  C7  ZIN A   1      19.397   1.838  10.640  0.00  0.00     0.066 A 
ATOM      3  C8  ZIN A   1      19.803   2.460  11.811  0.00  0.00     0.032 A 
ATOM      4  C9  ZIN A   1      19.348   3.728  12.109  0.00  0.00     0.002 A 
ATOM      5  C10 ZIN A   1      18.486   4.385  11.246  0.00  0.00     0.002 A 
ATOM      6  C11 ZIN A   1      18.071   3.783  10.079  0.00  0.00     0.034 A 
ATOM      7  C12 ZIN A   1      18.523   2.500   9.762  0.00  0.00     0.087 A 
ATOM      8  N13 ZIN A   1      18.300   1.664   8.714  0.00  0.00    -0.218 NA
ATOM      9  C14 ZIN A   1      18.971   0.554   8.887  0.00  0.00     0.185 A 
ENDROOT
BRANCH   9  10
ATOM     10  N15 ZIN A   1      18.975  -0.514   8.014  0.00  0.00    -0.251 NA
ATOM     11  C23 ZIN A   1      18.833  -0.054   6.610  0.00  0.00     0.126 C 
ATOM     12  C22 ZIN A   1      19.331  -1.051   5.664  0.00  0.00     0.249 C 
ATOM     13  N19 ZIN A   1      18.597  -2.330   5.733  0.00  0.00    -0.074 N 
ATOM     14  C18 ZIN A   1      19.149  -3.106   6.817  0.00  0.00     0.235 C 
ATOM     15  H20 ZIN A   1      17.619  -2.152   5.905  0.00  0.00     0.279 HD
ATOM     16  C21 ZIN A   1      18.753  -3.062   4.469  0.00  0.00     0.269 C 
ATOM     17  C17 ZIN A   1      18.349  -2.922   8.122  0.00  0.00     0.042 C 
ATOM     18  C16 ZIN A   1      17.931  -1.454   8.343  0.00  0.00     0.100 C 
ENDBRANCH   9  10
BRANCH   1  19
ATOM     19  C5  ZIN A   1      20.527  -0.441  10.612  0.00  0.00     0.158 C 
BRANCH  19  20
ATOM     20  C4  ZIN A   1      19.914  -0.987  11.902  0.00  0.00     0.187 C 
BRANCH  20  21
ATOM     21  O3  ZIN A   1      18.592  -1.460  11.638  0.00  0.00    -0.390 OA
BRANCH  21  22
ATOM     22  C2  ZIN A   1      17.602  -0.951  12.534  0.00  0.00     0.163 C 
ATOM     23  C1  ZIN A   1      16.604  -0.089  11.758  0.00  0.00     0.033 C 
ENDBRANCH  21  22
ENDBRANCH  20  21
ENDBRANCH  19  20
ENDBRANCH   1  19
TORSDOF 5
ENDMDL
