MODEL 1
REMARK VINA RESULT:      -9.2      0.000      0.000
REMARK  15 active torsions:
REMARK  status: ('A' for Active; 'I' for Inactive)
REMARK    1  A    between atoms: C2_2  and  C3_3 
REMARK    2  A    between atoms: C3_3  and  O5_5 
REMARK    3  A    between atoms: O5_5  and  C6_6 
REMARK    4  A    between atoms: C6_6  and  O8_7 
REMARK    5  A    between atoms: C6_6  and  C40_37 
REMARK    6  A    between atoms: O8_7  and  P9_8 
REMARK    7  A    between atoms: P9_8  and  C11_10 
REMARK    8  A    between atoms: P9_8  and  C21_20 
REMARK    9  A    between atoms: C11_10  and  C12_11 
REMARK   10  A    between atoms: C12_11  and  C13_12 
REMARK   11  A    between atoms: C13_12  and  C14_13 
REMARK   12  A    between atoms: C14_13  and  C15_14 
REMARK   13  A    between atoms: C21_20  and  C22_21 
REMARK       I    between atoms: C22_21  and  N24_23 
REMARK   14  A    between atoms: C26_25  and  C28_26 
REMARK   15  A    between atoms: C35_33  and  C37_34 
ROOT
ATOM      1  P9  ZIN A   1      19.027  -0.191  13.489  0.00  0.00     0.208 P 
ATOM      2  O10 ZIN A   1      20.426   0.196  13.196  0.00  0.00    -0.291 OA
ENDROOT
BRANCH   1   3
ATOM      3  O8  ZIN A   1      18.816  -0.278  15.082  0.00  0.00    -0.301 OA
BRANCH   3   4
ATOM      4  C6  ZIN A   1      18.449   0.849  15.881  0.00  0.00     0.280 C 
BRANCH   4   5
ATOM      5  O5  ZIN A   1      19.614   1.690  16.094  0.00  0.00    -0.289 OA
BRANCH   5   6
ATOM      6  C3  ZIN A   1      19.399   3.011  16.206  0.00  0.00     0.260 C 
ATOM      7  O4  ZIN A   1      20.026   3.658  17.012  0.00  0.00    -0.265 OA
BRANCH   6   8
ATOM      8  C2  ZIN A   1      18.378   3.686  15.328  0.00  0.00     0.107 C 
ATOM      9  C1  ZIN A   1      19.092   4.567  14.301  0.00  0.00     0.015 C 
ENDBRANCH   6   8
ENDBRANCH   5   6
ENDBRANCH   4   5
BRANCH   4  10
ATOM     10  C40 ZIN A   1      17.915   0.365  17.231  0.00  0.00     0.034 C 
ATOM     11  C41 ZIN A   1      16.962  -0.811  17.012  0.00  0.00     0.014 C 
ATOM     12  C42 ZIN A   1      19.084  -0.082  18.111  0.00  0.00     0.014 C 
ENDBRANCH   4  10
ENDBRANCH   3   4
ENDBRANCH   1   3
BRANCH   1  13
ATOM     13  C11 ZIN A   1      18.678  -1.816  12.739  0.00  0.00     0.102 C 
BRANCH  13  14
ATOM     14  C12 ZIN A   1      19.782  -2.164  11.740  0.00  0.00     0.010 C 
BRANCH  14  15
ATOM     15  C13 ZIN A   1      19.933  -3.684  11.655  0.00  0.00     0.005 C 
BRANCH  15  16
ATOM     16  C14 ZIN A   1      18.552  -4.339  11.718  0.00  0.00     0.038 C 
BRANCH  16  17
ATOM     17  C15 ZIN A   1      18.339  -5.181  10.486  0.00  0.00    -0.058 A 
ATOM     18  C20 ZIN A   1      17.176  -5.916  10.344  0.00  0.00     0.007 A 
ATOM     19  C19 ZIN A   1      16.979  -6.685   9.213  0.00  0.00     0.001 A 
ATOM     20  C18 ZIN A   1      17.948  -6.727   8.228  0.00  0.00     0.000 A 
ATOM     21  C17 ZIN A   1      19.113  -5.996   8.372  0.00  0.00     0.001 A 
ATOM     22  C16 ZIN A   1      19.308  -5.224   9.501  0.00  0.00     0.007 A 
ENDBRANCH  16  17
ENDBRANCH  15  16
ENDBRANCH  14  15
ENDBRANCH  13  14
ENDBRANCH   1  13
BRANCH   1  23
ATOM     23  C21 ZIN A   1      17.894   1.055  12.791  0.00  0.00     0.204 C 
BRANCH  23  24
ATOM     24  C22 ZIN A   1      17.198   0.481  11.584  0.00  0.00     0.229 C 
ATOM     25  O23 ZIN A   1      16.103  -0.029  11.701  0.00  0.00    -0.273 OA
ATOM     26  N24 ZIN A   1      17.789   0.534  10.374  0.00  0.00    -0.337 N 
ATOM     27  C35 ZIN A   1      19.108   1.120  10.092  0.00  0.00     0.188 C 
ATOM     28  C25 ZIN A   1      17.222   0.018   9.116  0.00  0.00     0.132 C 
ATOM     29  C34 ZIN A   1      19.358   0.975   8.576  0.00  0.00     0.043 C 
ATOM     30  C26 ZIN A   1      17.923   0.833   8.001  0.00  0.00     0.010 C 
BRANCH  27  31
ATOM     31  C37 ZIN A   1      19.124   2.577  10.476  0.00  0.00     0.197 C 
ATOM     32  O38 ZIN A   1      19.997   3.004  11.214  0.00  0.00    -0.646 OA
ATOM     33  O39 ZIN A   1      18.265   3.330  10.048  0.00  0.00    -0.646 OA
ENDBRANCH  27  31
BRANCH  30  34
ATOM     34  C28 ZIN A   1      17.935   0.059   6.681  0.00  0.00    -0.009 C 
ATOM     35  C33 ZIN A   1      18.292  -1.404   6.950  0.00  0.00     0.005 C 
ATOM     36  C32 ZIN A   1      18.303  -2.177   5.629  0.00  0.00     0.000 C 
ATOM     37  C31 ZIN A   1      19.343  -1.563   4.689  0.00  0.00     0.000 C 
ATOM     38  C30 ZIN A   1      18.986  -0.100   4.420  0.00  0.00     0.000 C 
ATOM     39  C29 ZIN A   1      18.974   0.674   5.740  0.00  0.00     0.005 C 
ENDBRANCH  30  34
ENDBRANCH  23  24
ENDBRANCH   1  23
TORSDOF 15
ENDMDL
MODEL 2
REMARK VINA RESULT:      -8.9      2.780      9.272
REMARK  15 active torsions:
REMARK  status: ('A' for Active; 'I' for Inactive)
REMARK    1  A    between atoms: C2_2  and  C3_3 
REMARK    2  A    between atoms: C3_3  and  O5_5 
REMARK    3  A    between atoms: O5_5  and  C6_6 
REMARK    4  A    between atoms: C6_6  and  O8_7 
REMARK    5  A    between atoms: C6_6  and  C40_37 
REMARK    6  A    between atoms: O8_7  and  P9_8 
REMARK    7  A    between atoms: P9_8  and  C11_10 
REMARK    8  A    between atoms: P9_8  and  C21_20 
REMARK    9  A    between atoms: C11_10  and  C12_11 
REMARK   10  A    between atoms: C12_11  and  C13_12 
REMARK   11  A    between atoms: C13_12  and  C14_13 
REMARK   12  A    between atoms: C14_13  and  C15_14 
REMARK   13  A    between atoms: C21_20  and  C22_21 
REMARK       I    between atoms: C22_21  and  N24_23 
REMARK   14  A    between atoms: C26_25  and  C28_26 
REMARK   15  A    between atoms: C35_33  and  C37_34 
ROOT
ATOM      1  P9  ZIN A   1      19.330  -0.735   8.428  0.00  0.00     0.208 P 
ATOM      2  O10 ZIN A   1      20.495  -0.336   9.250  0.00  0.00    -0.291 OA
ENDROOT
BRANCH   1   3
ATOM      3  O8  ZIN A   1      19.837  -1.572   7.150  0.00  0.00    -0.301 OA
BRANCH   3   4
ATOM      4  C6  ZIN A   1      19.119  -2.684   6.613  0.00  0.00     0.280 C 
BRANCH   4   5
ATOM      5  O5  ZIN A   1      20.044  -3.767   6.330  0.00  0.00    -0.289 OA
BRANCH   5   6
ATOM      6  C3  ZIN A   1      20.032  -4.814   7.170  0.00  0.00     0.260 C 
ATOM      7  O4  ZIN A   1      20.974  -5.571   7.203  0.00  0.00    -0.265 OA
BRANCH   6   8
ATOM      8  C2  ZIN A   1      18.847  -5.045   8.070  0.00  0.00     0.107 C 
ATOM      9  C1  ZIN A   1      19.251  -5.975   9.216  0.00  0.00     0.015 C 
ENDBRANCH   6   8
ENDBRANCH   5   6
ENDBRANCH   4   5
BRANCH   4  10
ATOM     10  C40 ZIN A   1      18.417  -2.262   5.320  0.00  0.00     0.034 C 
ATOM     11  C41 ZIN A   1      19.228  -1.161   4.634  0.00  0.00     0.014 C 
ATOM     12  C42 ZIN A   1      18.301  -3.468   4.386  0.00  0.00     0.014 C 
ENDBRANCH   4  10
ENDBRANCH   3   4
ENDBRANCH   1   3
BRANCH   1  13
ATOM     13  C11 ZIN A   1      18.444   0.756   7.866  0.00  0.00     0.102 C 
BRANCH  13  14
ATOM     14  C12 ZIN A   1      19.220   2.002   8.295  0.00  0.00     0.010 C 
BRANCH  14  15
ATOM     15  C13 ZIN A   1      18.508   2.666   9.476  0.00  0.00     0.005 C 
BRANCH  15  16
ATOM     16  C14 ZIN A   1      19.353   2.501  10.740  0.00  0.00     0.038 C 
BRANCH  16  17
ATOM     17  C15 ZIN A   1      18.906   3.499  11.777  0.00  0.00    -0.058 A 
ATOM     18  C20 ZIN A   1      19.843   4.238  12.476  0.00  0.00     0.007 A 
ATOM     19  C19 ZIN A   1      19.431   5.155  13.424  0.00  0.00     0.001 A 
ATOM     20  C18 ZIN A   1      18.084   5.328  13.681  0.00  0.00     0.000 A 
ATOM     21  C17 ZIN A   1      17.147   4.585  12.986  0.00  0.00     0.001 A 
ATOM     22  C16 ZIN A   1      17.558   3.671  12.034  0.00  0.00     0.007 A 
ENDBRANCH  16  17
ENDBRANCH  15  16
ENDBRANCH  14  15
ENDBRANCH  13  14
ENDBRANCH   1  13
BRANCH   1  23
ATOM     23  C21 ZIN A   1      18.208  -1.768   9.426  0.00  0.00     0.204 C 
BRANCH  23  24
ATOM     24  C22 ZIN A   1      17.501  -0.906  10.440  0.00  0.00     0.229 C 
ATOM     25  O23 ZIN A   1      16.487  -0.314  10.131  0.00  0.00    -0.273 OA
ATOM     26  N24 ZIN A   1      17.992  -0.793  11.690  0.00  0.00    -0.337 N 
ATOM     27  C35 ZIN A   1      19.205  -1.452  12.196  0.00  0.00     0.188 C 
ATOM     28  C25 ZIN A   1      17.400   0.008  12.777  0.00  0.00     0.132 C 
ATOM     29  C34 ZIN A   1      19.359  -1.051  13.678  0.00  0.00     0.043 C 
ATOM     30  C26 ZIN A   1      17.915  -0.651  14.080  0.00  0.00     0.010 C 
BRANCH  27  31
ATOM     31  C37 ZIN A   1      19.072  -2.949  12.082  0.00  0.00     0.197 C 
ATOM     32  O38 ZIN A   1      18.003  -3.486  12.322  0.00  0.00    -0.646 OA
ATOM     33  O39 ZIN A   1      20.032  -3.623  11.748  0.00  0.00    -0.646 OA
ENDBRANCH  27  31
BRANCH  30  34
ATOM     34  C28 ZIN A   1      17.924   0.352  15.236  0.00  0.00    -0.009 C 
ATOM     35  C33 ZIN A   1      19.084   1.332  15.052  0.00  0.00     0.005 C 
ATOM     36  C32 ZIN A   1      19.093   2.334  16.207  0.00  0.00     0.000 C 
ATOM     37  C31 ZIN A   1      19.264   1.585  17.530  0.00  0.00     0.000 C 
ATOM     38  C30 ZIN A   1      18.104   0.605  17.715  0.00  0.00     0.000 C 
ATOM     39  C29 ZIN A   1      18.095  -0.398  16.559  0.00  0.00     0.005 C 
ENDBRANCH  30  34
ENDBRANCH  23  24
ENDBRANCH   1  23
TORSDOF 15
ENDMDL
MODEL 3
REMARK VINA RESULT:      -8.5      2.782      9.370
REMARK  15 active torsions:
REMARK  status: ('A' for Active; 'I' for Inactive)
REMARK    1  A    between atoms: C2_2  and  C3_3 
REMARK    2  A    between atoms: C3_3  and  O5_5 
REMARK    3  A    between atoms: O5_5  and  C6_6 
REMARK    4  A    between atoms: C6_6  and  O8_7 
REMARK    5  A    between atoms: C6_6  and  C40_37 
REMARK    6  A    between atoms: O8_7  and  P9_8 
REMARK    7  A    between atoms: P9_8  and  C11_10 
REMARK    8  A    between atoms: P9_8  and  C21_20 
REMARK    9  A    between atoms: C11_10  and  C12_11 
REMARK   10  A    between atoms: C12_11  and  C13_12 
REMARK   11  A    between atoms: C13_12  and  C14_13 
REMARK   12  A    between atoms: C14_13  and  C15_14 
REMARK   13  A    between atoms: C21_20  and  C22_21 
REMARK       I    between atoms: C22_21  and  N24_23 
REMARK   14  A    between atoms: C26_25  and  C28_26 
REMARK   15  A    between atoms: C35_33  and  C37_34 
ROOT
ATOM      1  P9  ZIN A   1      18.994  -1.024   8.577  0.00  0.00     0.208 P 
ATOM      2  O10 ZIN A   1      20.048  -0.155   8.005  0.00  0.00    -0.291 OA
ENDROOT
BRANCH   1   3
ATOM      3  O8  ZIN A   1      18.572  -2.139   7.496  0.00  0.00    -0.301 OA
BRANCH   3   4
ATOM      4  C6  ZIN A   1      19.495  -3.085   6.954  0.00  0.00     0.280 C 
BRANCH   4   5
ATOM      5  O5  ZIN A   1      19.339  -3.142   5.511  0.00  0.00    -0.289 OA
BRANCH   5   6
ATOM      6  C3  ZIN A   1      19.073  -1.987   4.881  0.00  0.00     0.260 C 
ATOM      7  O4  ZIN A   1      19.941  -1.156   4.751  0.00  0.00    -0.265 OA
BRANCH   6   8
ATOM      8  C2  ZIN A   1      17.693  -1.726   4.336  0.00  0.00     0.107 C 
ATOM      9  C1  ZIN A   1      17.010  -3.058   4.018  0.00  0.00     0.015 C 
ENDBRANCH   6   8
ENDBRANCH   5   6
ENDBRANCH   4   5
BRANCH   4  10
ATOM     10  C40 ZIN A   1      19.218  -4.467   7.551  0.00  0.00     0.034 C 
ATOM     11  C41 ZIN A   1      17.751  -4.555   7.977  0.00  0.00     0.014 C 
ATOM     12  C42 ZIN A   1      19.511  -5.543   6.503  0.00  0.00     0.014 C 
ENDBRANCH   4  10
ENDBRANCH   3   4
ENDBRANCH   1   3
BRANCH   1  13
ATOM     13  C11 ZIN A   1      17.540  -0.011   9.006  0.00  0.00     0.102 C 
BRANCH  13  14
ATOM     14  C12 ZIN A   1      17.951   1.460   9.092  0.00  0.00     0.010 C 
BRANCH  14  15
ATOM     15  C13 ZIN A   1      17.850   1.934  10.543  0.00  0.00     0.005 C 
BRANCH  15  16
ATOM     16  C14 ZIN A   1      18.498   3.314  10.675  0.00  0.00     0.038 C 
BRANCH  16  17
ATOM     17  C15 ZIN A   1      17.875   4.053  11.832  0.00  0.00    -0.058 A 
ATOM     18  C20 ZIN A   1      16.791   4.884  11.618  0.00  0.00     0.007 A 
ATOM     19  C19 ZIN A   1      16.218   5.558  12.680  0.00  0.00     0.001 A 
ATOM     20  C18 ZIN A   1      16.734   5.409  13.953  0.00  0.00     0.000 A 
ATOM     21  C17 ZIN A   1      17.821   4.582  14.167  0.00  0.00     0.001 A 
ATOM     22  C16 ZIN A   1      18.392   3.904  13.106  0.00  0.00     0.007 A 
ENDBRANCH  16  17
ENDBRANCH  15  16
ENDBRANCH  14  15
ENDBRANCH  13  14
ENDBRANCH   1  13
BRANCH   1  23
ATOM     23  C21 ZIN A   1      19.630  -1.840  10.078  0.00  0.00     0.204 C 
BRANCH  23  24
ATOM     24  C22 ZIN A   1      20.045  -0.794  11.081  0.00  0.00     0.229 C 
ATOM     25  O23 ZIN A   1      20.782   0.109  10.745  0.00  0.00    -0.273 OA
ATOM     26  N24 ZIN A   1      19.598  -0.862  12.351  0.00  0.00    -0.337 N 
ATOM     27  C35 ZIN A   1      18.705  -1.898  12.890  0.00  0.00     0.188 C 
ATOM     28  C25 ZIN A   1      19.920   0.092  13.427  0.00  0.00     0.132 C 
ATOM     29  C34 ZIN A   1      18.447  -1.554  14.372  0.00  0.00     0.043 C 
ATOM     30  C26 ZIN A   1      18.747  -0.032  14.431  0.00  0.00     0.010 C 
BRANCH  27  31
ATOM     31  C37 ZIN A   1      17.402  -1.908  12.133  0.00  0.00     0.197 C 
ATOM     32  O38 ZIN A   1      16.702  -0.910  12.109  0.00  0.00    -0.646 OA
ATOM     33  O39 ZIN A   1      17.047  -2.915  11.543  0.00  0.00    -0.646 OA
ENDBRANCH  27  31
BRANCH  30  34
ATOM     34  C28 ZIN A   1      19.181   0.388  15.837  0.00  0.00    -0.009 C 
ATOM     35  C33 ZIN A   1      18.747  -0.678  16.845  0.00  0.00     0.005 C 
ATOM     36  C32 ZIN A   1      19.181  -0.258  18.250  0.00  0.00     0.000 C 
ATOM     37  C31 ZIN A   1      18.527   1.079  18.608  0.00  0.00     0.000 C 
ATOM     38  C30 ZIN A   1      18.962   2.144  17.600  0.00  0.00     0.000 C 
ATOM     39  C29 ZIN A   1      18.528   1.725  16.194  0.00  0.00     0.005 C 
ENDBRANCH  30  34
ENDBRANCH  23  24
ENDBRANCH   1  23
TORSDOF 15
ENDMDL
MODEL 4
REMARK VINA RESULT:      -8.5      2.078      5.791
REMARK  15 active torsions:
REMARK  status: ('A' for Active; 'I' for Inactive)
REMARK    1  A    between atoms: C2_2  and  C3_3 
REMARK    2  A    between atoms: C3_3  and  O5_5 
REMARK    3  A    between atoms: O5_5  and  C6_6 
REMARK    4  A    between atoms: C6_6  and  O8_7 
REMARK    5  A    between atoms: C6_6  and  C40_37 
REMARK    6  A    between atoms: O8_7  and  P9_8 
REMARK    7  A    between atoms: P9_8  and  C11_10 
REMARK    8  A    between atoms: P9_8  and  C21_20 
REMARK    9  A    between atoms: C11_10  and  C12_11 
REMARK   10  A    between atoms: C12_11  and  C13_12 
REMARK   11  A    between atoms: C13_12  and  C14_13 
REMARK   12  A    between atoms: C14_13  and  C15_14 
REMARK   13  A    between atoms: C21_20  and  C22_21 
REMARK       I    between atoms: C22_21  and  N24_23 
REMARK   14  A    between atoms: C26_25  and  C28_26 
REMARK   15  A    between atoms: C35_33  and  C37_34 
ROOT
ATOM      1  P9  ZIN A   1      19.074   2.385  11.772  0.00  0.00     0.208 P 
ATOM      2  O10 ZIN A   1      20.030   3.394  11.260  0.00  0.00    -0.291 OA
ENDROOT
BRANCH   1   3
ATOM      3  O8  ZIN A   1      18.186   3.035  12.947  0.00  0.00    -0.301 OA
BRANCH   3   4
ATOM      4  C6  ZIN A   1      18.146   4.439  13.206  0.00  0.00     0.280 C 
BRANCH   4   5
ATOM      5  O5  ZIN A   1      18.357   4.677  14.623  0.00  0.00    -0.289 OA
BRANCH   5   6
ATOM      6  C3  ZIN A   1      19.589   5.054  15.001  0.00  0.00     0.260 C 
ATOM      7  O4  ZIN A   1      20.212   5.842  14.329  0.00  0.00    -0.265 OA
BRANCH   6   8
ATOM      8  C2  ZIN A   1      20.195   4.495  16.262  0.00  0.00     0.107 C 
ATOM      9  C1  ZIN A   1      19.525   3.163  16.603  0.00  0.00     0.015 C 
ENDBRANCH   6   8
ENDBRANCH   5   6
ENDBRANCH   4   5
BRANCH   4  10
ATOM     10  C40 ZIN A   1      16.781   4.995  12.794  0.00  0.00     0.034 C 
ATOM     11  C41 ZIN A   1      16.511   6.298  13.550  0.00  0.00     0.014 C 
ATOM     12  C42 ZIN A   1      16.774   5.268  11.289  0.00  0.00     0.014 C 
ENDBRANCH   4  10
ENDBRANCH   3   4
ENDBRANCH   1   3
BRANCH   1  13
ATOM     13  C11 ZIN A   1      19.994   0.953  12.425  0.00  0.00     0.102 C 
BRANCH  13  14
ATOM     14  C12 ZIN A   1      19.500   0.630  13.836  0.00  0.00     0.010 C 
BRANCH  14  15
ATOM     15  C13 ZIN A   1      19.591  -0.878  14.076  0.00  0.00     0.005 C 
BRANCH  15  16
ATOM     16  C14 ZIN A   1      18.337  -1.354  14.810  0.00  0.00     0.038 C 
BRANCH  16  17
ATOM     17  C15 ZIN A   1      18.290  -0.731  16.181  0.00  0.00    -0.058 A 
ATOM     18  C20 ZIN A   1      19.339  -0.919  17.063  0.00  0.00     0.007 A 
ATOM     19  C19 ZIN A   1      19.297  -0.344  18.319  0.00  0.00     0.001 A 
ATOM     20  C18 ZIN A   1      18.204   0.412  18.697  0.00  0.00     0.000 A 
ATOM     21  C17 ZIN A   1      17.153   0.597  17.818  0.00  0.00     0.001 A 
ATOM     22  C16 ZIN A   1      17.196   0.025  16.560  0.00  0.00     0.007 A 
ENDBRANCH  16  17
ENDBRANCH  15  16
ENDBRANCH  14  15
ENDBRANCH  13  14
ENDBRANCH   1  13
BRANCH   1  23
ATOM     23  C21 ZIN A   1      17.984   1.840  10.416  0.00  0.00     0.204 C 
BRANCH  23  24
ATOM     24  C22 ZIN A   1      17.459   0.459  10.718  0.00  0.00     0.229 C 
ATOM     25  O23 ZIN A   1      16.598   0.310  11.561  0.00  0.00    -0.273 OA
ATOM     26  N24 ZIN A   1      17.944  -0.608  10.054  0.00  0.00    -0.337 N 
ATOM     27  C35 ZIN A   1      18.983  -0.569   9.014  0.00  0.00     0.188 C 
ATOM     28  C25 ZIN A   1      17.518  -2.006  10.246  0.00  0.00     0.132 C 
ATOM     29  C34 ZIN A   1      19.195  -2.018   8.525  0.00  0.00     0.043 C 
ATOM     30  C26 ZIN A   1      17.861  -2.712   8.910  0.00  0.00     0.010 C 
BRANCH  27  31
ATOM     31  C37 ZIN A   1      18.538   0.298   7.865  0.00  0.00     0.197 C 
ATOM     32  O38 ZIN A   1      19.279   1.167   7.435  0.00  0.00    -0.646 OA
ATOM     33  O39 ZIN A   1      17.439   0.131   7.364  0.00  0.00    -0.646 OA
ENDBRANCH  27  31
BRANCH  30  34
ATOM     34  C28 ZIN A   1      18.065  -4.214   9.120  0.00  0.00    -0.009 C 
ATOM     35  C33 ZIN A   1      17.909  -4.941   7.783  0.00  0.00     0.005 C 
ATOM     36  C32 ZIN A   1      18.112  -6.443   7.993  0.00  0.00     0.000 C 
ATOM     37  C31 ZIN A   1      17.068  -6.965   8.983  0.00  0.00     0.000 C 
ATOM     38  C30 ZIN A   1      17.224  -6.238  10.319  0.00  0.00     0.000 C 
ATOM     39  C29 ZIN A   1      17.021  -4.735  10.110  0.00  0.00     0.005 C 
ENDBRANCH  30  34
ENDBRANCH  23  24
ENDBRANCH   1  23
TORSDOF 15
ENDMDL
MODEL 5
REMARK VINA RESULT:      -8.4      2.573      8.350
REMARK  15 active torsions:
REMARK  status: ('A' for Active; 'I' for Inactive)
REMARK    1  A    between atoms: C2_2  and  C3_3 
REMARK    2  A    between atoms: C3_3  and  O5_5 
REMARK    3  A    between atoms: O5_5  and  C6_6 
REMARK    4  A    between atoms: C6_6  and  O8_7 
REMARK    5  A    between atoms: C6_6  and  C40_37 
REMARK    6  A    between atoms: O8_7  and  P9_8 
REMARK    7  A    between atoms: P9_8  and  C11_10 
REMARK    8  A    between atoms: P9_8  and  C21_20 
REMARK    9  A    between atoms: C11_10  and  C12_11 
REMARK   10  A    between atoms: C12_11  and  C13_12 
REMARK   11  A    between atoms: C13_12  and  C14_13 
REMARK   12  A    between atoms: C14_13  and  C15_14 
REMARK   13  A    between atoms: C21_20  and  C22_21 
REMARK       I    between atoms: C22_21  and  N24_23 
REMARK   14  A    between atoms: C26_25  and  C28_26 
REMARK   15  A    between atoms: C35_33  and  C37_34 
ROOT
ATOM      1  P9  ZIN A   1      18.553  -1.424   9.518  0.00  0.00     0.208 P 
ATOM      2  O10 ZIN A   1      17.885  -2.745   9.556  0.00  0.00    -0.291 OA
ENDROOT
BRANCH   1   3
ATOM      3  O8  ZIN A   1      19.393  -1.286   8.152  0.00  0.00    -0.301 OA
BRANCH   3   4
ATOM      4  C6  ZIN A   1      18.826  -1.521   6.862  0.00  0.00     0.280 C 
BRANCH   4   5
ATOM      5  O5  ZIN A   1      19.728  -2.347   6.079  0.00  0.00    -0.289 OA
BRANCH   5   6
ATOM      6  C3  ZIN A   1      19.719  -3.666   6.329  0.00  0.00     0.260 C 
ATOM      7  O4  ZIN A   1      20.713  -4.206   6.754  0.00  0.00    -0.265 OA
BRANCH   6   8
ATOM      8  C2  ZIN A   1      18.471  -4.472   6.080  0.00  0.00     0.107 C 
ATOM      9  C1  ZIN A   1      18.749  -5.947   6.376  0.00  0.00     0.015 C 
ENDBRANCH   6   8
ENDBRANCH   5   6
ENDBRANCH   4   5
BRANCH   4  10
ATOM     10  C40 ZIN A   1      18.609  -0.185   6.148  0.00  0.00     0.034 C 
ATOM     11  C41 ZIN A   1      19.313  -0.211   4.790  0.00  0.00     0.014 C 
ATOM     12  C42 ZIN A   1      17.111   0.046   5.942  0.00  0.00     0.014 C 
ENDBRANCH   4  10
ENDBRANCH   3   4
ENDBRANCH   1   3
BRANCH   1  13
ATOM     13  C11 ZIN A   1      19.680  -1.272  10.943  0.00  0.00     0.102 C 
BRANCH  13  14
ATOM     14  C12 ZIN A   1      19.625  -2.555  11.774  0.00  0.00     0.010 C 
BRANCH  14  15
ATOM     15  C13 ZIN A   1      18.920  -2.273  13.103  0.00  0.00     0.005 C 
BRANCH  15  16
ATOM     16  C14 ZIN A   1      19.799  -1.366  13.965  0.00  0.00     0.038 C 
BRANCH  16  17
ATOM     17  C15 ZIN A   1      18.972  -0.774  15.077  0.00  0.00    -0.058 A 
ATOM     18  C20 ZIN A   1      19.045   0.581  15.347  0.00  0.00     0.007 A 
ATOM     19  C19 ZIN A   1      18.283   1.124  16.364  0.00  0.00     0.001 A 
ATOM     20  C18 ZIN A   1      17.455   0.313  17.117  0.00  0.00     0.000 A 
ATOM     21  C17 ZIN A   1      17.385  -1.042  16.850  0.00  0.00     0.001 A 
ATOM     22  C16 ZIN A   1      18.144  -1.585  15.831  0.00  0.00     0.007 A 
ENDBRANCH  16  17
ENDBRANCH  15  16
ENDBRANCH  14  15
ENDBRANCH  13  14
ENDBRANCH   1  13
BRANCH   1  23
ATOM     23  C21 ZIN A   1      17.296  -0.106   9.594  0.00  0.00     0.204 C 
BRANCH  23  24
ATOM     24  C22 ZIN A   1      17.149   0.366  11.018  0.00  0.00     0.229 C 
ATOM     25  O23 ZIN A   1      16.805  -0.413  11.883  0.00  0.00    -0.273 OA
ATOM     26  N24 ZIN A   1      17.400   1.652  11.333  0.00  0.00    -0.337 N 
ATOM     27  C35 ZIN A   1      17.822   2.698  10.388  0.00  0.00     0.188 C 
ATOM     28  C25 ZIN A   1      17.301   2.244  12.679  0.00  0.00     0.132 C 
ATOM     29  C34 ZIN A   1      18.011   3.998  11.198  0.00  0.00     0.043 C 
ATOM     30  C26 ZIN A   1      18.241   3.475  12.641  0.00  0.00     0.010 C 
BRANCH  27  31
ATOM     31  C37 ZIN A   1      19.121   2.312   9.729  0.00  0.00     0.197 C 
ATOM     32  O38 ZIN A   1      20.084   2.007  10.411  0.00  0.00    -0.646 OA
ATOM     33  O39 ZIN A   1      19.208   2.302   8.512  0.00  0.00    -0.646 OA
ENDBRANCH  27  31
BRANCH  30  34
ATOM     34  C28 ZIN A   1      17.819   4.519  13.677  0.00  0.00    -0.009 C 
ATOM     35  C33 ZIN A   1      16.667   5.357  13.117  0.00  0.00     0.005 C 
ATOM     36  C32 ZIN A   1      16.246   6.400  14.153  0.00  0.00     0.000 C 
ATOM     37  C31 ZIN A   1      17.433   7.312  14.470  0.00  0.00     0.000 C 
ATOM     38  C30 ZIN A   1      18.584   6.475  15.030  0.00  0.00     0.000 C 
ATOM     39  C29 ZIN A   1      19.006   5.430  13.994  0.00  0.00     0.005 C 
ENDBRANCH  30  34
ENDBRANCH  23  24
ENDBRANCH   1  23
TORSDOF 15
ENDMDL
MODEL 6
REMARK VINA RESULT:      -8.4      1.136      2.467
REMARK  15 active torsions:
REMARK  status: ('A' for Active; 'I' for Inactive)
REMARK    1  A    between atoms: C2_2  and  C3_3 
REMARK    2  A    between atoms: C3_3  and  O5_5 
REMARK    3  A    between atoms: O5_5  and  C6_6 
REMARK    4  A    between atoms: C6_6  and  O8_7 
REMARK    5  A    between atoms: C6_6  and  C40_37 
REMARK    6  A    between atoms: O8_7  and  P9_8 
REMARK    7  A    between atoms: P9_8  and  C11_10 
REMARK    8  A    between atoms: P9_8  and  C21_20 
REMARK    9  A    between atoms: C11_10  and  C12_11 
REMARK   10  A    between atoms: C12_11  and  C13_12 
REMARK   11  A    between atoms: C13_12  and  C14_13 
REMARK   12  A    between atoms: C14_13  and  C15_14 
REMARK   13  A    between atoms: C21_20  and  C22_21 
REMARK       I    between atoms: C22_21  and  N24_23 
REMARK   14  A    between atoms: C26_25  and  C28_26 
REMARK   15  A    between atoms: C35_33  and  C37_34 
ROOT
ATOM      1  P9  ZIN A   1      18.454   0.853  13.805  0.00  0.00     0.208 P 
ATOM      2  O10 ZIN A   1      19.899   0.970  13.503  0.00  0.00    -0.291 OA
ENDROOT
BRANCH   1   3
ATOM      3  O8  ZIN A   1      18.159   1.465  15.264  0.00  0.00    -0.301 OA
BRANCH   3   4
ATOM      4  C6  ZIN A   1      19.113   2.245  15.987  0.00  0.00     0.280 C 
BRANCH   4   5
ATOM      5  O5  ZIN A   1      18.730   2.302  17.387  0.00  0.00    -0.289 OA
BRANCH   5   6
ATOM      6  C3  ZIN A   1      18.390   1.143  17.974  0.00  0.00     0.260 C 
ATOM      7  O4  ZIN A   1      17.246   0.951  18.313  0.00  0.00    -0.265 OA
BRANCH   6   8
ATOM      8  C2  ZIN A   1      19.434   0.082  18.208  0.00  0.00     0.107 C 
ATOM      9  C1  ZIN A   1      19.164  -1.111  17.290  0.00  0.00     0.015 C 
ENDBRANCH   6   8
ENDBRANCH   5   6
ENDBRANCH   4   5
BRANCH   4  10
ATOM     10  C40 ZIN A   1      19.155   3.663  15.413  0.00  0.00     0.034 C 
ATOM     11  C41 ZIN A   1      17.743   4.254  15.408  0.00  0.00     0.014 C 
ATOM     12  C42 ZIN A   1      20.070   4.535  16.274  0.00  0.00     0.014 C 
ENDBRANCH   4  10
ENDBRANCH   3   4
ENDBRANCH   1   3
BRANCH   1  13
ATOM     13  C11 ZIN A   1      17.968  -0.904  13.772  0.00  0.00     0.102 C 
BRANCH  13  14
ATOM     14  C12 ZIN A   1      19.034  -1.714  13.034  0.00  0.00     0.010 C 
BRANCH  14  15
ATOM     15  C13 ZIN A   1      18.366  -2.589  11.971  0.00  0.00     0.005 C 
BRANCH  15  16
ATOM     16  C14 ZIN A   1      19.257  -3.796  11.670  0.00  0.00     0.038 C 
BRANCH  16  17
ATOM     17  C15 ZIN A   1      18.735  -4.513  10.451  0.00  0.00    -0.058 A 
ATOM     18  C20 ZIN A   1      19.564  -5.363   9.741  0.00  0.00     0.007 A 
ATOM     19  C19 ZIN A   1      19.085  -6.023   8.627  0.00  0.00     0.001 A 
ATOM     20  C18 ZIN A   1      17.780  -5.828   8.215  0.00  0.00     0.000 A 
ATOM     21  C17 ZIN A   1      16.952  -4.974   8.921  0.00  0.00     0.001 A 
ATOM     22  C16 ZIN A   1      17.430  -4.317  10.039  0.00  0.00     0.007 A 
ENDBRANCH  16  17
ENDBRANCH  15  16
ENDBRANCH  14  15
ENDBRANCH  13  14
ENDBRANCH   1  13
BRANCH   1  23
ATOM     23  C21 ZIN A   1      17.497   1.771  12.554  0.00  0.00     0.204 C 
BRANCH  23  24
ATOM     24  C22 ZIN A   1      17.122   0.843  11.427  0.00  0.00     0.229 C 
ATOM     25  O23 ZIN A   1      16.083   0.218  11.477  0.00  0.00    -0.273 OA
ATOM     26  N24 ZIN A   1      17.939   0.707  10.364  0.00  0.00    -0.337 N 
ATOM     27  C35 ZIN A   1      19.221   1.401  10.176  0.00  0.00     0.188 C 
ATOM     28  C25 ZIN A   1      17.693  -0.157   9.196  0.00  0.00     0.132 C 
ATOM     29  C34 ZIN A   1      19.788   0.955   8.811  0.00  0.00     0.043 C 
ATOM     30  C26 ZIN A   1      18.521   0.478   8.052  0.00  0.00     0.010 C 
BRANCH  27  31
ATOM     31  C37 ZIN A   1      19.013   2.894  10.180  0.00  0.00     0.197 C 
ATOM     32  O38 ZIN A   1      19.584   3.588  11.005  0.00  0.00    -0.646 OA
ATOM     33  O39 ZIN A   1      18.273   3.408   9.358  0.00  0.00    -0.646 OA
ENDBRANCH  27  31
BRANCH  30  34
ATOM     34  C28 ZIN A   1      18.879  -0.564   6.990  0.00  0.00    -0.009 C 
ATOM     35  C33 ZIN A   1      17.699  -0.744   6.033  0.00  0.00     0.005 C 
ATOM     36  C32 ZIN A   1      18.057  -1.786   4.971  0.00  0.00     0.000 C 
ATOM     37  C31 ZIN A   1      18.370  -3.120   5.652  0.00  0.00     0.000 C 
ATOM     38  C30 ZIN A   1      19.550  -2.940   6.608  0.00  0.00     0.000 C 
ATOM     39  C29 ZIN A   1      19.192  -1.898   7.671  0.00  0.00     0.005 C 
ENDBRANCH  30  34
ENDBRANCH  23  24
ENDBRANCH   1  23
TORSDOF 15
ENDMDL
MODEL 7
REMARK VINA RESULT:      -8.4      2.213      6.400
REMARK  15 active torsions:
REMARK  status: ('A' for Active; 'I' for Inactive)
REMARK    1  A    between atoms: C2_2  and  C3_3 
REMARK    2  A    between atoms: C3_3  and  O5_5 
REMARK    3  A    between atoms: O5_5  and  C6_6 
REMARK    4  A    between atoms: C6_6  and  O8_7 
REMARK    5  A    between atoms: C6_6  and  C40_37 
REMARK    6  A    between atoms: O8_7  and  P9_8 
REMARK    7  A    between atoms: P9_8  and  C11_10 
REMARK    8  A    between atoms: P9_8  and  C21_20 
REMARK    9  A    between atoms: C11_10  and  C12_11 
REMARK   10  A    between atoms: C12_11  and  C13_12 
REMARK   11  A    between atoms: C13_12  and  C14_13 
REMARK   12  A    between atoms: C14_13  and  C15_14 
REMARK   13  A    between atoms: C21_20  and  C22_21 
REMARK       I    between atoms: C22_21  and  N24_23 
REMARK   14  A    between atoms: C26_25  and  C28_26 
REMARK   15  A    between atoms: C35_33  and  C37_34 
ROOT
ATOM      1  P9  ZIN A   1      18.431   0.737  13.867  0.00  0.00     0.208 P 
ATOM      2  O10 ZIN A   1      19.577   1.506  14.404  0.00  0.00    -0.291 OA
ENDROOT
BRANCH   1   3
ATOM      3  O8  ZIN A   1      17.661   1.622  12.765  0.00  0.00    -0.301 OA
BRANCH   3   4
ATOM      4  C6  ZIN A   1      18.214   2.810  12.195  0.00  0.00     0.280 C 
BRANCH   4   5
ATOM      5  O5  ZIN A   1      17.938   3.939  13.066  0.00  0.00    -0.289 OA
BRANCH   5   6
ATOM      6  C3  ZIN A   1      18.968   4.748  13.362  0.00  0.00     0.260 C 
ATOM      7  O4  ZIN A   1      20.008   4.647  12.754  0.00  0.00    -0.265 OA
BRANCH   6   8
ATOM      8  C2  ZIN A   1      18.828   5.781  14.449  0.00  0.00     0.107 C 
ATOM      9  C1  ZIN A   1      20.121   5.843  15.263  0.00  0.00     0.015 C 
ENDBRANCH   6   8
ENDBRANCH   5   6
ENDBRANCH   4   5
BRANCH   4  10
ATOM     10  C40 ZIN A   1      17.585   3.060  10.823  0.00  0.00     0.034 C 
ATOM     11  C41 ZIN A   1      17.016   4.479  10.772  0.00  0.00     0.014 C 
ATOM     12  C42 ZIN A   1      18.650   2.898   9.737  0.00  0.00     0.014 C 
ENDBRANCH   4  10
ENDBRANCH   3   4
ENDBRANCH   1   3
BRANCH   1  13
ATOM     13  C11 ZIN A   1      17.287   0.326  15.225  0.00  0.00     0.102 C 
BRANCH  13  14
ATOM     14  C12 ZIN A   1      17.816  -0.891  15.986  0.00  0.00     0.010 C 
BRANCH  14  15
ATOM     15  C13 ZIN A   1      19.063  -0.493  16.780  0.00  0.00     0.005 C 
BRANCH  15  16
ATOM     16  C14 ZIN A   1      18.671  -0.193  18.228  0.00  0.00     0.038 C 
BRANCH  16  17
ATOM     17  C15 ZIN A   1      18.361   1.275  18.371  0.00  0.00    -0.058 A 
ATOM     18  C20 ZIN A   1      17.211   1.679  19.023  0.00  0.00     0.007 A 
ATOM     19  C19 ZIN A   1      16.929   3.025  19.157  0.00  0.00     0.001 A 
ATOM     20  C18 ZIN A   1      17.793   3.968  18.632  0.00  0.00     0.000 A 
ATOM     21  C17 ZIN A   1      18.941   3.564  17.975  0.00  0.00     0.001 A 
ATOM     22  C16 ZIN A   1      19.225   2.218  17.844  0.00  0.00     0.007 A 
ENDBRANCH  16  17
ENDBRANCH  15  16
ENDBRANCH  14  15
ENDBRANCH  13  14
ENDBRANCH   1  13
BRANCH   1  23
ATOM     23  C21 ZIN A   1      19.039  -0.800  13.097  0.00  0.00     0.204 C 
BRANCH  23  24
ATOM     24  C22 ZIN A   1      19.785  -0.467  11.831  0.00  0.00     0.229 C 
ATOM     25  O23 ZIN A   1      20.863   0.088  11.891  0.00  0.00    -0.273 OA
ATOM     26  N24 ZIN A   1      19.258  -0.785  10.633  0.00  0.00    -0.337 N 
ATOM     27  C35 ZIN A   1      17.967  -1.455  10.416  0.00  0.00     0.188 C 
ATOM     28  C25 ZIN A   1      19.880  -0.523   9.322  0.00  0.00     0.132 C 
ATOM     29  C34 ZIN A   1      17.793  -1.632   8.893  0.00  0.00     0.043 C 
ATOM     30  C26 ZIN A   1      19.252  -1.570   8.369  0.00  0.00     0.010 C 
BRANCH  27  31
ATOM     31  C37 ZIN A   1      17.958  -2.801  11.093  0.00  0.00     0.197 C 
ATOM     32  O38 ZIN A   1      18.931  -3.532  11.009  0.00  0.00    -0.646 OA
ATOM     33  O39 ZIN A   1      16.978  -3.160  11.725  0.00  0.00    -0.646 OA
ENDBRANCH  27  31
BRANCH  30  34
ATOM     34  C28 ZIN A   1      19.294  -1.085   6.918  0.00  0.00    -0.009 C 
ATOM     35  C33 ZIN A   1      18.167  -0.078   6.684  0.00  0.00     0.005 C 
ATOM     36  C32 ZIN A   1      18.210   0.407   5.233  0.00  0.00     0.000 C 
ATOM     37  C31 ZIN A   1      18.031  -0.787   4.292  0.00  0.00     0.000 C 
ATOM     38  C30 ZIN A   1      19.157  -1.795   4.526  0.00  0.00     0.000 C 
ATOM     39  C29 ZIN A   1      19.116  -2.279   5.978  0.00  0.00     0.005 C 
ENDBRANCH  30  34
ENDBRANCH  23  24
ENDBRANCH   1  23
TORSDOF 15
ENDMDL
MODEL 8
REMARK VINA RESULT:      -8.3      2.512      8.296
REMARK  15 active torsions:
REMARK  status: ('A' for Active; 'I' for Inactive)
REMARK    1  A    between atoms: C2_2  and  C3_3 
REMARK    2  A    between atoms: C3_3  and  O5_5 
REMARK    3  A    between atoms: O5_5  and  C6_6 
REMARK    4  A    between atoms: C6_6  and  O8_7 
REMARK    5  A    between atoms: C6_6  and  C40_37 
REMARK    6  A    between atoms: O8_7  and  P9_8 
REMARK    7  A    between atoms: P9_8  and  C11_10 
REMARK    8  A    between atoms: P9_8  and  C21_20 
REMARK    9  A    between atoms: C11_10  and  C12_11 
REMARK   10  A    between atoms: C12_11  and  C13_12 
REMARK   11  A    between atoms: C13_12  and  C14_13 
REMARK   12  A    between atoms: C14_13  and  C15_14 
REMARK   13  A    between atoms: C21_20  and  C22_21 
REMARK       I    between atoms: C22_21  and  N24_23 
REMARK   14  A    between atoms: C26_25  and  C28_26 
REMARK   15  A    between atoms: C35_33  and  C37_34 
ROOT
ATOM      1  P9  ZIN A   1      18.996  -2.504  10.595  0.00  0.00     0.208 P 
ATOM      2  O10 ZIN A   1      17.548  -2.203  10.531  0.00  0.00    -0.291 OA
ENDROOT
BRANCH   1   3
ATOM      3  O8  ZIN A   1      19.280  -3.923   9.892  0.00  0.00    -0.301 OA
BRANCH   3   4
ATOM      4  C6  ZIN A   1      18.612  -4.352   8.705  0.00  0.00     0.280 C 
BRANCH   4   5
ATOM      5  O5  ZIN A   1      18.169  -5.725   8.867  0.00  0.00    -0.289 OA
BRANCH   5   6
ATOM      6  C3  ZIN A   1      17.078  -5.929   9.623  0.00  0.00     0.260 C 
ATOM      7  O4  ZIN A   1      17.194  -6.354  10.749  0.00  0.00    -0.265 OA
BRANCH   6   8
ATOM      8  C2  ZIN A   1      15.709  -5.627   9.070  0.00  0.00     0.107 C 
ATOM      9  C1  ZIN A   1      15.621  -6.128   7.627  0.00  0.00     0.015 C 
ENDBRANCH   6   8
ENDBRANCH   5   6
ENDBRANCH   4   5
BRANCH   4  10
ATOM     10  C40 ZIN A   1      19.572  -4.263   7.517  0.00  0.00     0.034 C 
ATOM     11  C41 ZIN A   1      19.503  -5.559   6.706  0.00  0.00     0.014 C 
ATOM     12  C42 ZIN A   1      19.176  -3.083   6.628  0.00  0.00     0.014 C 
ENDBRANCH   4  10
ENDBRANCH   3   4
ENDBRANCH   1   3
BRANCH   1  13
ATOM     13  C11 ZIN A   1      19.526  -2.571  12.339  0.00  0.00     0.102 C 
BRANCH  13  14
ATOM     14  C12 ZIN A   1      18.418  -2.005  13.230  0.00  0.00     0.010 C 
BRANCH  14  15
ATOM     15  C13 ZIN A   1      18.986  -0.878  14.095  0.00  0.00     0.005 C 
BRANCH  15  16
ATOM     16  C14 ZIN A   1      17.836  -0.080  14.711  0.00  0.00     0.038 C 
BRANCH  16  17
ATOM     17  C15 ZIN A   1      18.256   0.450  16.058  0.00  0.00    -0.058 A 
ATOM     18  C20 ZIN A   1      18.850   1.695  16.157  0.00  0.00     0.007 A 
ATOM     19  C19 ZIN A   1      19.232   2.181  17.393  0.00  0.00     0.001 A 
ATOM     20  C18 ZIN A   1      19.030   1.421  18.529  0.00  0.00     0.000 A 
ATOM     21  C17 ZIN A   1      18.441   0.173  18.429  0.00  0.00     0.001 A 
ATOM     22  C16 ZIN A   1      18.055  -0.312  17.194  0.00  0.00     0.007 A 
ENDBRANCH  16  17
ENDBRANCH  15  16
ENDBRANCH  14  15
ENDBRANCH  13  14
ENDBRANCH   1  13
BRANCH   1  23
ATOM     23  C21 ZIN A   1      19.926  -1.197   9.728  0.00  0.00     0.204 C 
BRANCH  23  24
ATOM     24  C22 ZIN A   1      20.239  -0.080  10.690  0.00  0.00     0.229 C 
ATOM     25  O23 ZIN A   1      21.212  -0.156  11.412  0.00  0.00    -0.273 OA
ATOM     26  N24 ZIN A   1      19.440   1.003  10.750  0.00  0.00    -0.337 N 
ATOM     27  C35 ZIN A   1      18.235   1.223   9.936  0.00  0.00     0.188 C 
ATOM     28  C25 ZIN A   1      19.631   2.165  11.636  0.00  0.00     0.132 C 
ATOM     29  C34 ZIN A   1      17.663   2.602  10.329  0.00  0.00     0.043 C 
ATOM     30  C26 ZIN A   1      18.896   3.330  10.928  0.00  0.00     0.010 C 
BRANCH  27  31
ATOM     31  C37 ZIN A   1      18.585   1.214   8.471  0.00  0.00     0.197 C 
ATOM     32  O38 ZIN A   1      17.932   0.540   7.692  0.00  0.00    -0.646 OA
ATOM     33  O39 ZIN A   1      19.521   1.881   8.063  0.00  0.00    -0.646 OA
ENDBRANCH  27  31
BRANCH  30  34
ATOM     34  C28 ZIN A   1      18.467   4.401  11.933  0.00  0.00    -0.009 C 
ATOM     35  C33 ZIN A   1      18.834   3.950  13.347  0.00  0.00     0.005 C 
ATOM     36  C32 ZIN A   1      18.405   5.021  14.352  0.00  0.00     0.000 C 
ATOM     37  C31 ZIN A   1      16.892   5.229  14.259  0.00  0.00     0.000 C 
ATOM     38  C30 ZIN A   1      16.525   5.681  12.845  0.00  0.00     0.000 C 
ATOM     39  C29 ZIN A   1      16.954   4.610  11.839  0.00  0.00     0.005 C 
ENDBRANCH  30  34
ENDBRANCH  23  24
ENDBRANCH   1  23
TORSDOF 15
ENDMDL
MODEL 9
REMARK VINA RESULT:      -8.3      2.538      7.750
REMARK  15 active torsions:
REMARK  status: ('A' for Active; 'I' for Inactive)
REMARK    1  A    between atoms: C2_2  and  C3_3 
REMARK    2  A    between atoms: C3_3  and  O5_5 
REMARK    3  A    between atoms: O5_5  and  C6_6 
REMARK    4  A    between atoms: C6_6  and  O8_7 
REMARK    5  A    between atoms: C6_6  and  C40_37 
REMARK    6  A    between atoms: O8_7  and  P9_8 
REMARK    7  A    between atoms: P9_8  and  C11_10 
REMARK    8  A    between atoms: P9_8  and  C21_20 
REMARK    9  A    between atoms: C11_10  and  C12_11 
REMARK   10  A    between atoms: C12_11  and  C13_12 
REMARK   11  A    between atoms: C13_12  and  C14_13 
REMARK   12  A    between atoms: C14_13  and  C15_14 
REMARK   13  A    between atoms: C21_20  and  C22_21 
REMARK       I    between atoms: C22_21  and  N24_23 
REMARK   14  A    between atoms: C26_25  and  C28_26 
REMARK   15  A    between atoms: C35_33  and  C37_34 
ROOT
ATOM      1  P9  ZIN A   1      18.477  -1.460   9.032  0.00  0.00     0.208 P 
ATOM      2  O10 ZIN A   1      17.089  -1.089   9.390  0.00  0.00    -0.291 OA
ENDROOT
BRANCH   1   3
ATOM      3  O8  ZIN A   1      18.552  -1.807   7.462  0.00  0.00    -0.301 OA
BRANCH   3   4
ATOM      4  C6  ZIN A   1      19.494  -2.730   6.913  0.00  0.00     0.280 C 
BRANCH   4   5
ATOM      5  O5  ZIN A   1      19.536  -2.578   5.469  0.00  0.00    -0.289 OA
BRANCH   5   6
ATOM      6  C3  ZIN A   1      19.199  -1.377   4.972  0.00  0.00     0.260 C 
ATOM      7  O4  ZIN A   1      20.053  -0.546   4.771  0.00  0.00    -0.265 OA
BRANCH   6   8
ATOM      8  C2  ZIN A   1      17.757  -1.066   4.666  0.00  0.00     0.107 C 
ATOM      9  C1  ZIN A   1      17.119  -2.258   3.951  0.00  0.00     0.015 C 
ENDBRANCH   6   8
ENDBRANCH   5   6
ENDBRANCH   4   5
BRANCH   4  10
ATOM     10  C40 ZIN A   1      19.073  -4.159   7.263  0.00  0.00     0.034 C 
ATOM     11  C41 ZIN A   1      18.060  -4.660   6.232  0.00  0.00     0.014 C 
ATOM     12  C42 ZIN A   1      20.302  -5.069   7.254  0.00  0.00     0.014 C 
ENDBRANCH   4  10
ENDBRANCH   3   4
ENDBRANCH   1   3
BRANCH   1  13
ATOM     13  C11 ZIN A   1      18.986  -2.917  10.002  0.00  0.00     0.102 C 
BRANCH  13  14
ATOM     14  C12 ZIN A   1      18.124  -3.016  11.262  0.00  0.00     0.010 C 
BRANCH  14  15
ATOM     15  C13 ZIN A   1      17.091  -4.132  11.087  0.00  0.00     0.005 C 
BRANCH  15  16
ATOM     16  C14 ZIN A   1      17.790  -5.401  10.597  0.00  0.00     0.038 C 
BRANCH  16  17
ATOM     17  C15 ZIN A   1      16.965  -6.040   9.509  0.00  0.00    -0.058 A 
ATOM     18  C20 ZIN A   1      15.749  -5.488   9.148  0.00  0.00     0.007 A 
ATOM     19  C19 ZIN A   1      14.995  -6.072   8.148  0.00  0.00     0.001 A 
ATOM     20  C18 ZIN A   1      15.451  -7.212   7.514  0.00  0.00     0.000 A 
ATOM     21  C17 ZIN A   1      16.665  -7.767   7.878  0.00  0.00     0.001 A 
ATOM     22  C16 ZIN A   1      17.421  -7.181   8.875  0.00  0.00     0.007 A 
ENDBRANCH  16  17
ENDBRANCH  15  16
ENDBRANCH  14  15
ENDBRANCH  13  14
ENDBRANCH   1  13
BRANCH   1  23
ATOM     23  C21 ZIN A   1      19.592  -0.065   9.401  0.00  0.00     0.204 C 
BRANCH  23  24
ATOM     24  C22 ZIN A   1      20.199  -0.255  10.767  0.00  0.00     0.229 C 
ATOM     25  O23 ZIN A   1      21.297  -0.761  10.877  0.00  0.00    -0.273 OA
ATOM     26  N24 ZIN A   1      19.525   0.135  11.866  0.00  0.00    -0.337 N 
ATOM     27  C35 ZIN A   1      18.192   0.757  11.876  0.00  0.00     0.188 C 
ATOM     28  C25 ZIN A   1      20.000   0.014  13.256  0.00  0.00     0.132 C 
ATOM     29  C34 ZIN A   1      17.836   1.053  13.349  0.00  0.00     0.043 C 
ATOM     30  C26 ZIN A   1      19.226   1.104  14.037  0.00  0.00     0.010 C 
BRANCH  27  31
ATOM     31  C37 ZIN A   1      18.210   2.041  11.087  0.00  0.00     0.197 C 
ATOM     32  O38 ZIN A   1      19.145   2.815  11.203  0.00  0.00    -0.646 OA
ATOM     33  O39 ZIN A   1      17.290   2.305  10.331  0.00  0.00    -0.646 OA
ENDBRANCH  27  31
BRANCH  30  34
ATOM     34  C28 ZIN A   1      19.118   0.745  15.520  0.00  0.00    -0.009 C 
ATOM     35  C33 ZIN A   1      17.800   0.010  15.772  0.00  0.00     0.005 C 
ATOM     36  C32 ZIN A   1      17.693  -0.350  17.256  0.00  0.00     0.000 C 
ATOM     37  C31 ZIN A   1      17.732   0.930  18.094  0.00  0.00     0.000 C 
ATOM     38  C30 ZIN A   1      19.050   1.665  17.842  0.00  0.00     0.000 C 
ATOM     39  C29 ZIN A   1      19.158   2.024  16.358  0.00  0.00     0.005 C 
ENDBRANCH  30  34
ENDBRANCH  23  24
ENDBRANCH   1  23
TORSDOF 15
ENDMDL
