MODEL 1
REMARK VINA RESULT:      -8.4      0.000      0.000
REMARK  10 active torsions:
REMARK  status: ('A' for Active; 'I' for Inactive)
REMARK    1  A    between atoms: O1_1  and  C2_2 
REMARK    2  A    between atoms: C2_2  and  C3_3 
REMARK    3  A    between atoms: C6_5  and  C8_6 
REMARK    4  A    between atoms: C13_11  and  C14_12 
REMARK    5  A    between atoms: C14_12  and  C15_13 
REMARK    6  A    between atoms: C18_16  and  O19_17 
REMARK    7  A    between atoms: O19_17  and  C20_18 
REMARK    8  A    between atoms: C29_26  and  O31_27 
REMARK    9  A    between atoms: C32_28  and  O34_29 
REMARK   10  A    between atoms: C35_30  and  O37_31 
ROOT
ATOM      1  C8  ZIN A   1      18.805   2.529  14.053  0.00  0.00    -0.026 A 
ATOM      2  C9  ZIN A   1      17.947   3.587  14.292  0.00  0.00     0.011 A 
ATOM      3  C10 ZIN A   1      17.514   4.375  13.243  0.00  0.00     0.025 A 
ATOM      4  C11 ZIN A   1      17.939   4.106  11.954  0.00  0.00     0.040 A 
ATOM      5 Cl12 ZIN A   1      17.395   5.097  10.636  0.00  0.00    -0.084 Cl
ATOM      6  C13 ZIN A   1      18.796   3.047  11.716  0.00  0.00    -0.032 A 
ATOM      7  C28 ZIN A   1      19.233   2.262  12.766  0.00  0.00     0.019 A 
ENDROOT
BRANCH   1   8
ATOM      8  C6  ZIN A   1      19.277   1.669  15.197  0.00  0.00     0.186 C 
ATOM      9  O5  ZIN A   1      18.436   0.520  15.309  0.00  0.00    -0.368 OA
ATOM     10  C3  ZIN A   1      18.813  -0.380  16.353  0.00  0.00     0.177 C 
ATOM     11  C35 ZIN A   1      18.733   0.341  17.701  0.00  0.00     0.180 C 
ATOM     12  C32 ZIN A   1      19.640   1.575  17.665  0.00  0.00     0.181 C 
ATOM     13  C29 ZIN A   1      19.216   2.474  16.499  0.00  0.00     0.182 C 
BRANCH  10  14
ATOM     14  C2  ZIN A   1      17.864  -1.580  16.360  0.00  0.00     0.198 C 
BRANCH  14  15
ATOM     15  O1  ZIN A   1      16.661  -1.231  17.049  0.00  0.00    -0.398 OA
ATOM     16  H38 ZIN A   1      16.140  -0.548  16.607  0.00  0.00     0.209 HD
ENDBRANCH  14  15
ENDBRANCH  10  14
BRANCH  11  17
ATOM     17  O37 ZIN A   1      19.165  -0.538  18.742  0.00  0.00    -0.390 OA
ATOM     18  H58 ZIN A   1      18.683  -1.375  18.775  0.00  0.00     0.210 HD
ENDBRANCH  11  17
BRANCH  12  19
ATOM     19  O34 ZIN A   1      19.517   2.297  18.893  0.00  0.00    -0.390 OA
ATOM     20  H57 ZIN A   1      19.228   1.756  19.640  0.00  0.00     0.210 HD
ENDBRANCH  12  19
BRANCH  13  21
ATOM     21  O31 ZIN A   1      20.100   3.593  16.410  0.00  0.00    -0.390 OA
ATOM     22  H56 ZIN A   1      20.416   3.912  17.267  0.00  0.00     0.210 HD
ENDBRANCH  13  21
ENDBRANCH   1   8
BRANCH   6  23
ATOM     23  C14 ZIN A   1      19.259   2.753  10.312  0.00  0.00     0.078 C 
BRANCH  23  24
ATOM     24  C15 ZIN A   1      18.876   1.343   9.943  0.00  0.00    -0.054 A 
ATOM     25  C27 ZIN A   1      19.858   0.393   9.730  0.00  0.00     0.010 A 
ATOM     26  C26 ZIN A   1      19.508  -0.901   9.396  0.00  0.00     0.037 A 
ATOM     27  C18 ZIN A   1      18.170  -1.246   9.265  0.00  0.00     0.069 A 
ATOM     28  C17 ZIN A   1      17.188  -0.289   9.474  0.00  0.00     0.037 A 
ATOM     29  C16 ZIN A   1      17.541   1.002   9.813  0.00  0.00     0.010 A 
BRANCH  27  30
ATOM     30  O19 ZIN A   1      17.824  -2.517   8.932  0.00  0.00    -0.344 OA
BRANCH  30  31
ATOM     31  C20 ZIN A   1      18.207  -3.552   9.838  0.00  0.00     0.154 C 
ATOM     32  C25 ZIN A   1      17.812  -4.939   9.287  0.00  0.00     0.200 C 
ATOM     33  O24 ZIN A   1      17.310  -5.712  10.387  0.00  0.00    -0.389 OA
ATOM     34  C23 ZIN A   1      17.397  -4.951  11.603  0.00  0.00     0.170 C 
ATOM     35  C22 ZIN A   1      17.384  -3.469  11.153  0.00  0.00     0.061 C 
ENDBRANCH  30  31
ENDBRANCH  27  30
ENDBRANCH  23  24
ENDBRANCH   6  23
TORSDOF 10
ENDMDL
MODEL 2
REMARK VINA RESULT:      -8.2      2.416      8.420
REMARK  10 active torsions:
REMARK  status: ('A' for Active; 'I' for Inactive)
REMARK    1  A    between atoms: O1_1  and  C2_2 
REMARK    2  A    between atoms: C2_2  and  C3_3 
REMARK    3  A    between atoms: C6_5  and  C8_6 
REMARK    4  A    between atoms: C13_11  and  C14_12 
REMARK    5  A    between atoms: C14_12  and  C15_13 
REMARK    6  A    between atoms: C18_16  and  O19_17 
REMARK    7  A    between atoms: O19_17  and  C20_18 
REMARK    8  A    between atoms: C29_26  and  O31_27 
REMARK    9  A    between atoms: C32_28  and  O34_29 
REMARK   10  A    between atoms: C35_30  and  O37_31 
ROOT
ATOM      1  C8  ZIN A   1      18.419  -1.886   8.061  0.00  0.00    -0.026 A 
ATOM      2  C9  ZIN A   1      17.691  -0.812   7.585  0.00  0.00     0.011 A 
ATOM      3  C10 ZIN A   1      17.937   0.459   8.070  0.00  0.00     0.025 A 
ATOM      4  C11 ZIN A   1      18.913   0.656   9.030  0.00  0.00     0.040 A 
ATOM      5 Cl12 ZIN A   1      19.222   2.252   9.639  0.00  0.00    -0.084 Cl
ATOM      6  C13 ZIN A   1      19.642  -0.419   9.505  0.00  0.00    -0.032 A 
ATOM      7  C28 ZIN A   1      19.391  -1.690   9.025  0.00  0.00     0.019 A 
ENDROOT
BRANCH   1   8
ATOM      8  C6  ZIN A   1      18.150  -3.271   7.533  0.00  0.00     0.186 C 
ATOM      9  O5  ZIN A   1      17.468  -4.038   8.527  0.00  0.00    -0.368 OA
ATOM     10  C3  ZIN A   1      17.140  -5.367   8.117  0.00  0.00     0.177 C 
ATOM     11  C35 ZIN A   1      18.426  -6.132   7.794  0.00  0.00     0.180 C 
ATOM     12  C32 ZIN A   1      19.198  -5.380   6.705  0.00  0.00     0.181 C 
ATOM     13  C29 ZIN A   1      19.477  -3.953   7.185  0.00  0.00     0.182 C 
BRANCH  10  14
ATOM     14  C2  ZIN A   1      16.393  -6.079   9.245  0.00  0.00     0.198 C 
BRANCH  14  15
ATOM     15  O1  ZIN A   1      17.331  -6.550  10.215  0.00  0.00    -0.398 OA
ATOM     16  H38 ZIN A   1      17.206  -6.177  11.097  0.00  0.00     0.209 HD
ENDBRANCH  14  15
ENDBRANCH  10  14
BRANCH  11  17
ATOM     17  O37 ZIN A   1      18.099  -7.443   7.327  0.00  0.00    -0.390 OA
ATOM     18  H58 ZIN A   1      17.472  -7.454   6.592  0.00  0.00     0.210 HD
ENDBRANCH  11  17
BRANCH  12  19
ATOM     19  O34 ZIN A   1      20.436  -6.047   6.447  0.00  0.00    -0.390 OA
ATOM     20  H57 ZIN A   1      20.779  -5.907   5.554  0.00  0.00     0.210 HD
ENDBRANCH  12  19
BRANCH  13  21
ATOM     21  O31 ZIN A   1      20.134  -3.219   6.150  0.00  0.00    -0.390 OA
ATOM     22  H56 ZIN A   1      21.086  -3.378   6.100  0.00  0.00     0.210 HD
ENDBRANCH  13  21
ENDBRANCH   1   8
BRANCH   6  23
ATOM     23  C14 ZIN A   1      20.705  -0.206  10.552  0.00  0.00     0.078 C 
BRANCH  23  24
ATOM     24  C15 ZIN A   1      20.114  -0.435  11.920  0.00  0.00    -0.054 A 
ATOM     25  C27 ZIN A   1      20.221   0.544  12.891  0.00  0.00     0.010 A 
ATOM     26  C26 ZIN A   1      19.676   0.339  14.144  0.00  0.00     0.037 A 
ATOM     27  C18 ZIN A   1      19.029  -0.855  14.431  0.00  0.00     0.069 A 
ATOM     28  C17 ZIN A   1      18.928  -1.837  13.456  0.00  0.00     0.037 A 
ATOM     29  C16 ZIN A   1      19.469  -1.625  12.203  0.00  0.00     0.010 A 
BRANCH  27  30
ATOM     30  O19 ZIN A   1      18.497  -1.061  15.664  0.00  0.00    -0.344 OA
BRANCH  30  31
ATOM     31  C20 ZIN A   1      18.532   0.036  16.577  0.00  0.00     0.154 C 
ATOM     32  C25 ZIN A   1      19.303  -0.342  17.861  0.00  0.00     0.200 C 
ATOM     33  O24 ZIN A   1      18.589   0.220  18.973  0.00  0.00    -0.389 OA
ATOM     34  C23 ZIN A   1      17.453   0.965  18.501  0.00  0.00     0.170 C 
ATOM     35  C22 ZIN A   1      17.112   0.350  17.121  0.00  0.00     0.061 C 
ENDBRANCH  30  31
ENDBRANCH  27  30
ENDBRANCH  23  24
ENDBRANCH   6  23
TORSDOF 10
ENDMDL
MODEL 3
REMARK VINA RESULT:      -8.1      2.749      8.601
REMARK  10 active torsions:
REMARK  status: ('A' for Active; 'I' for Inactive)
REMARK    1  A    between atoms: O1_1  and  C2_2 
REMARK    2  A    between atoms: C2_2  and  C3_3 
REMARK    3  A    between atoms: C6_5  and  C8_6 
REMARK    4  A    between atoms: C13_11  and  C14_12 
REMARK    5  A    between atoms: C14_12  and  C15_13 
REMARK    6  A    between atoms: C18_16  and  O19_17 
REMARK    7  A    between atoms: O19_17  and  C20_18 
REMARK    8  A    between atoms: C29_26  and  O31_27 
REMARK    9  A    between atoms: C32_28  and  O34_29 
REMARK   10  A    between atoms: C35_30  and  O37_31 
ROOT
ATOM      1  C8  ZIN A   1      18.279  -0.221   8.116  0.00  0.00    -0.026 A 
ATOM      2  C9  ZIN A   1      19.236   0.696   7.724  0.00  0.00     0.011 A 
ATOM      3  C10 ZIN A   1      19.461   1.828   8.485  0.00  0.00     0.025 A 
ATOM      4  C11 ZIN A   1      18.729   2.042   9.639  0.00  0.00     0.040 A 
ATOM      5 Cl12 ZIN A   1      19.011   3.464  10.594  0.00  0.00    -0.084 Cl
ATOM      6  C13 ZIN A   1      17.773   1.123  10.031  0.00  0.00    -0.032 A 
ATOM      7  C28 ZIN A   1      17.545  -0.005   9.267  0.00  0.00     0.019 A 
ENDROOT
BRANCH   1   8
ATOM      8  C6  ZIN A   1      18.035  -1.455   7.286  0.00  0.00     0.186 C 
ATOM      9  O5  ZIN A   1      19.177  -2.310   7.354  0.00  0.00    -0.368 OA
ATOM     10  C3  ZIN A   1      19.040  -3.528   6.619  0.00  0.00     0.177 C 
ATOM     11  C35 ZIN A   1      18.833  -3.206   5.136  0.00  0.00     0.180 C 
ATOM     12  C32 ZIN A   1      17.599  -2.312   4.983  0.00  0.00     0.181 C 
ATOM     13  C29 ZIN A   1      17.787  -1.050   5.830  0.00  0.00     0.182 C 
BRANCH  10  14
ATOM     14  C2  ZIN A   1      20.305  -4.371   6.786  0.00  0.00     0.198 C 
BRANCH  14  15
ATOM     15  O1  ZIN A   1      19.987  -5.751   6.596  0.00  0.00    -0.398 OA
ATOM     16  H38 ZIN A   1      20.194  -6.310   7.356  0.00  0.00     0.209 HD
ENDBRANCH  14  15
ENDBRANCH  10  14
BRANCH  11  17
ATOM     17  O37 ZIN A   1      18.637  -4.419   4.405  0.00  0.00    -0.390 OA
ATOM     18  H58 ZIN A   1      19.416  -4.991   4.377  0.00  0.00     0.210 HD
ENDBRANCH  11  17
BRANCH  12  19
ATOM     19  O34 ZIN A   1      17.438  -1.946   3.611  0.00  0.00    -0.390 OA
ATOM     20  H57 ZIN A   1      18.227  -2.093   3.070  0.00  0.00     0.210 HD
ENDBRANCH  12  19
BRANCH  13  21
ATOM     21  O31 ZIN A   1      16.612  -0.241   5.753  0.00  0.00    -0.390 OA
ATOM     22  H56 ZIN A   1      16.009  -0.353   6.501  0.00  0.00     0.210 HD
ENDBRANCH  13  21
ENDBRANCH   1   8
BRANCH   6  23
ATOM     23  C14 ZIN A   1      16.975   1.355  11.289  0.00  0.00     0.078 C 
BRANCH  23  24
ATOM     24  C15 ZIN A   1      17.648   0.662  12.445  0.00  0.00    -0.054 A 
ATOM     25  C27 ZIN A   1      18.420   1.389  13.331  0.00  0.00     0.010 A 
ATOM     26  C26 ZIN A   1      19.034   0.756  14.395  0.00  0.00     0.037 A 
ATOM     27  C18 ZIN A   1      18.882  -0.612  14.569  0.00  0.00     0.069 A 
ATOM     28  C17 ZIN A   1      18.110  -1.340  13.675  0.00  0.00     0.037 A 
ATOM     29  C16 ZIN A   1      17.494  -0.702  12.616  0.00  0.00     0.010 A 
BRANCH  27  30
ATOM     30  O19 ZIN A   1      19.489  -1.238  15.611  0.00  0.00    -0.344 OA
BRANCH  30  31
ATOM     31  C20 ZIN A   1      18.848  -1.146  16.885  0.00  0.00     0.154 C 
ATOM     32  C25 ZIN A   1      17.394  -0.648  16.733  0.00  0.00     0.200 C 
ATOM     33  O24 ZIN A   1      17.143   0.277  17.802  0.00  0.00    -0.389 OA
ATOM     34  C23 ZIN A   1      18.300   0.375  18.649  0.00  0.00     0.170 C 
ATOM     35  C22 ZIN A   1      19.494  -0.030  17.750  0.00  0.00     0.061 C 
ENDBRANCH  30  31
ENDBRANCH  27  30
ENDBRANCH  23  24
ENDBRANCH   6  23
TORSDOF 10
ENDMDL
MODEL 4
REMARK VINA RESULT:      -8.1      3.410      5.091
REMARK  10 active torsions:
REMARK  status: ('A' for Active; 'I' for Inactive)
REMARK    1  A    between atoms: O1_1  and  C2_2 
REMARK    2  A    between atoms: C2_2  and  C3_3 
REMARK    3  A    between atoms: C6_5  and  C8_6 
REMARK    4  A    between atoms: C13_11  and  C14_12 
REMARK    5  A    between atoms: C14_12  and  C15_13 
REMARK    6  A    between atoms: C18_16  and  O19_17 
REMARK    7  A    between atoms: O19_17  and  C20_18 
REMARK    8  A    between atoms: C29_26  and  O31_27 
REMARK    9  A    between atoms: C32_28  and  O34_29 
REMARK   10  A    between atoms: C35_30  and  O37_31 
ROOT
ATOM      1  C8  ZIN A   1      18.468   2.211  14.939  0.00  0.00    -0.026 A 
ATOM      2  C9  ZIN A   1      17.669   1.173  15.382  0.00  0.00     0.011 A 
ATOM      3  C10 ZIN A   1      17.852  -0.102  14.880  0.00  0.00     0.025 A 
ATOM      4  C11 ZIN A   1      18.836  -0.340  13.937  0.00  0.00     0.040 A 
ATOM      5 Cl12 ZIN A   1      19.066  -1.941  13.308  0.00  0.00    -0.084 Cl
ATOM      6  C13 ZIN A   1      19.636   0.699  13.497  0.00  0.00    -0.032 A 
ATOM      7  C28 ZIN A   1      19.448   1.974  13.993  0.00  0.00     0.019 A 
ENDROOT
BRANCH   1   8
ATOM      8  C6  ZIN A   1      18.268   3.600  15.486  0.00  0.00     0.186 C 
ATOM      9  O5  ZIN A   1      17.551   4.389  14.535  0.00  0.00    -0.368 OA
ATOM     10  C3  ZIN A   1      17.283   5.725  14.967  0.00  0.00     0.177 C 
ATOM     11  C35 ZIN A   1      18.606   6.453  15.217  0.00  0.00     0.180 C 
ATOM     12  C32 ZIN A   1      19.419   5.676  16.257  0.00  0.00     0.181 C 
ATOM     13  C29 ZIN A   1      19.630   4.244  15.758  0.00  0.00     0.182 C 
BRANCH  10  14
ATOM     14  C2  ZIN A   1      16.492   6.462  13.885  0.00  0.00     0.198 C 
BRANCH  14  15
ATOM     15  O1  ZIN A   1      16.557   5.725  12.662  0.00  0.00    -0.398 OA
ATOM     16  H38 ZIN A   1      17.446   5.426  12.430  0.00  0.00     0.209 HD
ENDBRANCH  14  15
ENDBRANCH  10  14
BRANCH  11  17
ATOM     17  O37 ZIN A   1      18.342   7.771  15.705  0.00  0.00    -0.390 OA
ATOM     18  H58 ZIN A   1      17.458   8.099  15.493  0.00  0.00     0.210 HD
ENDBRANCH  11  17
BRANCH  12  19
ATOM     19  O34 ZIN A   1      20.687   6.309  16.445  0.00  0.00    -0.390 OA
ATOM     20  H57 ZIN A   1      20.629   7.213  16.782  0.00  0.00     0.210 HD
ENDBRANCH  12  19
BRANCH  13  21
ATOM     21  O31 ZIN A   1      20.326   3.488  16.752  0.00  0.00    -0.390 OA
ATOM     22  H56 ZIN A   1      20.636   2.626  16.444  0.00  0.00     0.210 HD
ENDBRANCH  13  21
ENDBRANCH   1   8
BRANCH   6  23
ATOM     23  C14 ZIN A   1      20.708   0.441  12.468  0.00  0.00     0.078 C 
BRANCH  23  24
ATOM     24  C15 ZIN A   1      20.127   0.603  11.087  0.00  0.00    -0.054 A 
ATOM     25  C27 ZIN A   1      19.543   1.800  10.719  0.00  0.00     0.010 A 
ATOM     26  C26 ZIN A   1      19.014   1.952   9.452  0.00  0.00     0.037 A 
ATOM     27  C18 ZIN A   1      19.062   0.899   8.550  0.00  0.00     0.069 A 
ATOM     28  C17 ZIN A   1      19.644  -0.304   8.924  0.00  0.00     0.037 A 
ATOM     29  C16 ZIN A   1      20.176  -0.449  10.190  0.00  0.00     0.010 A 
BRANCH  27  30
ATOM     30  O19 ZIN A   1      18.538   1.044   7.305  0.00  0.00    -0.344 OA
BRANCH  30  31
ATOM     31  C20 ZIN A   1      18.634  -0.078   6.426  0.00  0.00     0.154 C 
ATOM     32  C25 ZIN A   1      19.314   0.320   5.099  0.00  0.00     0.200 C 
ATOM     33  O24 ZIN A   1      18.607  -0.341   4.038  0.00  0.00    -0.389 OA
ATOM     34  C23 ZIN A   1      17.564  -1.167   4.583  0.00  0.00     0.170 C 
ATOM     35  C22 ZIN A   1      17.227  -0.536   5.957  0.00  0.00     0.061 C 
ENDBRANCH  30  31
ENDBRANCH  27  30
ENDBRANCH  23  24
ENDBRANCH   6  23
TORSDOF 10
ENDMDL
MODEL 5
REMARK VINA RESULT:      -8.0      3.562      5.518
REMARK  10 active torsions:
REMARK  status: ('A' for Active; 'I' for Inactive)
REMARK    1  A    between atoms: O1_1  and  C2_2 
REMARK    2  A    between atoms: C2_2  and  C3_3 
REMARK    3  A    between atoms: C6_5  and  C8_6 
REMARK    4  A    between atoms: C13_11  and  C14_12 
REMARK    5  A    between atoms: C14_12  and  C15_13 
REMARK    6  A    between atoms: C18_16  and  O19_17 
REMARK    7  A    between atoms: O19_17  and  C20_18 
REMARK    8  A    between atoms: C29_26  and  O31_27 
REMARK    9  A    between atoms: C32_28  and  O34_29 
REMARK   10  A    between atoms: C35_30  and  O37_31 
ROOT
ATOM      1  C8  ZIN A   1      18.832   2.695  16.789  0.00  0.00    -0.026 A 
ATOM      2  C9  ZIN A   1      19.444   2.108  17.881  0.00  0.00     0.011 A 
ATOM      3  C10 ZIN A   1      19.489   0.730  17.989  0.00  0.00     0.025 A 
ATOM      4  C11 ZIN A   1      18.923  -0.060  17.005  0.00  0.00     0.040 A 
ATOM      5 Cl12 ZIN A   1      18.979  -1.789  17.141  0.00  0.00    -0.084 Cl
ATOM      6  C13 ZIN A   1      18.312   0.529  15.913  0.00  0.00    -0.032 A 
ATOM      7  C28 ZIN A   1      18.262   1.906  15.808  0.00  0.00     0.019 A 
ENDROOT
BRANCH   1   8
ATOM      8  C6  ZIN A   1      18.784   4.197  16.672  0.00  0.00     0.186 C 
ATOM      9  O5  ZIN A   1      17.534   4.591  16.103  0.00  0.00    -0.368 OA
ATOM     10  C3  ZIN A   1      17.373   6.005  15.971  0.00  0.00     0.177 C 
ATOM     11  C35 ZIN A   1      18.459   6.557  15.044  0.00  0.00     0.180 C 
ATOM     12  C32 ZIN A   1      19.835   6.196  15.612  0.00  0.00     0.181 C 
ATOM     13  C29 ZIN A   1      19.927   4.677  15.774  0.00  0.00     0.182 C 
BRANCH  10  14
ATOM     14  C2  ZIN A   1      15.995   6.308  15.379  0.00  0.00     0.198 C 
BRANCH  14  15
ATOM     15  O1  ZIN A   1      16.069   6.259  13.952  0.00  0.00    -0.398 OA
ATOM     16  H38 ZIN A   1      15.208   6.264  13.514  0.00  0.00     0.209 HD
ENDBRANCH  14  15
ENDBRANCH  10  14
BRANCH  11  17
ATOM     17  O37 ZIN A   1      18.337   7.978  14.955  0.00  0.00    -0.390 OA
ATOM     18  H58 ZIN A   1      19.152   8.428  14.696  0.00  0.00     0.210 HD
ENDBRANCH  11  17
BRANCH  12  19
ATOM     19  O34 ZIN A   1      20.856   6.644  14.717  0.00  0.00    -0.390 OA
ATOM     20  H57 ZIN A   1      21.655   6.962  15.159  0.00  0.00     0.210 HD
ENDBRANCH  12  19
BRANCH  13  21
ATOM     21  O31 ZIN A   1      21.180   4.333  16.370  0.00  0.00    -0.390 OA
ATOM     22  H56 ZIN A   1      21.174   3.484  16.832  0.00  0.00     0.210 HD
ENDBRANCH  13  21
ENDBRANCH   1   8
BRANCH   6  23
ATOM     23  C14 ZIN A   1      17.694  -0.330  14.840  0.00  0.00     0.078 C 
BRANCH  23  24
ATOM     24  C15 ZIN A   1      18.165   0.139  13.488  0.00  0.00    -0.054 A 
ATOM     25  C27 ZIN A   1      19.499   0.028  13.144  0.00  0.00     0.010 A 
ATOM     26  C26 ZIN A   1      19.932   0.454  11.903  0.00  0.00     0.037 A 
ATOM     27  C18 ZIN A   1      19.028   1.001  11.004  0.00  0.00     0.069 A 
ATOM     28  C17 ZIN A   1      17.690   1.116  11.354  0.00  0.00     0.037 A 
ATOM     29  C16 ZIN A   1      17.261   0.685  12.593  0.00  0.00     0.010 A 
BRANCH  27  30
ATOM     30  O19 ZIN A   1      19.452   1.425   9.785  0.00  0.00    -0.344 OA
BRANCH  30  31
ATOM     31  C20 ZIN A   1      18.749   0.930   8.645  0.00  0.00     0.154 C 
ATOM     32  C25 ZIN A   1      19.201  -0.506   8.302  0.00  0.00     0.200 C 
ATOM     33  O24 ZIN A   1      19.297  -0.597   6.872  0.00  0.00    -0.389 OA
ATOM     34  C23 ZIN A   1      18.898   0.647   6.273  0.00  0.00     0.170 C 
ATOM     35  C22 ZIN A   1      19.142   1.718   7.366  0.00  0.00     0.061 C 
ENDBRANCH  30  31
ENDBRANCH  27  30
ENDBRANCH  23  24
ENDBRANCH   6  23
TORSDOF 10
ENDMDL
MODEL 6
REMARK VINA RESULT:      -7.9      2.578      8.511
REMARK  10 active torsions:
REMARK  status: ('A' for Active; 'I' for Inactive)
REMARK    1  A    between atoms: O1_1  and  C2_2 
REMARK    2  A    between atoms: C2_2  and  C3_3 
REMARK    3  A    between atoms: C6_5  and  C8_6 
REMARK    4  A    between atoms: C13_11  and  C14_12 
REMARK    5  A    between atoms: C14_12  and  C15_13 
REMARK    6  A    between atoms: C18_16  and  O19_17 
REMARK    7  A    between atoms: O19_17  and  C20_18 
REMARK    8  A    between atoms: C29_26  and  O31_27 
REMARK    9  A    between atoms: C32_28  and  O34_29 
REMARK   10  A    between atoms: C35_30  and  O37_31 
ROOT
ATOM      1  C8  ZIN A   1      18.827  -0.737   8.212  0.00  0.00    -0.026 A 
ATOM      2  C9  ZIN A   1      19.333   0.489   7.822  0.00  0.00     0.011 A 
ATOM      3  C10 ZIN A   1      18.966   1.635   8.502  0.00  0.00     0.025 A 
ATOM      4  C11 ZIN A   1      18.093   1.556   9.572  0.00  0.00     0.040 A 
ATOM      5 Cl12 ZIN A   1      17.633   2.996  10.425  0.00  0.00    -0.084 Cl
ATOM      6  C13 ZIN A   1      17.588   0.329   9.962  0.00  0.00    -0.032 A 
ATOM      7  C28 ZIN A   1      17.951  -0.816   9.279  0.00  0.00     0.019 A 
ENDROOT
BRANCH   1   8
ATOM      8  C6  ZIN A   1      19.227  -1.987   7.471  0.00  0.00     0.186 C 
ATOM      9  O5  ZIN A   1      18.452  -2.103   6.277  0.00  0.00    -0.368 OA
ATOM     10  C3  ZIN A   1      18.771  -3.246   5.481  0.00  0.00     0.177 C 
ATOM     11  C35 ZIN A   1      18.505  -4.518   6.290  0.00  0.00     0.180 C 
ATOM     12  C32 ZIN A   1      19.333  -4.478   7.578  0.00  0.00     0.181 C 
ATOM     13  C29 ZIN A   1      18.980  -3.209   8.359  0.00  0.00     0.182 C 
BRANCH  10  14
ATOM     14  C2  ZIN A   1      17.902  -3.251   4.222  0.00  0.00     0.198 C 
BRANCH  14  15
ATOM     15  O1  ZIN A   1      18.568  -3.978   3.187  0.00  0.00    -0.398 OA
ATOM     16  H38 ZIN A   1      19.404  -3.583   2.905  0.00  0.00     0.209 HD
ENDBRANCH  14  15
ENDBRANCH  10  14
BRANCH  11  17
ATOM     17  O37 ZIN A   1      18.879  -5.663   5.519  0.00  0.00    -0.390 OA
ATOM     18  H58 ZIN A   1      19.776  -5.977   5.691  0.00  0.00     0.210 HD
ENDBRANCH  11  17
BRANCH  12  19
ATOM     19  O34 ZIN A   1      19.037  -5.627   8.375  0.00  0.00    -0.390 OA
ATOM     20  H57 ZIN A   1      18.333  -5.487   9.022  0.00  0.00     0.210 HD
ENDBRANCH  12  19
BRANCH  13  21
ATOM     21  O31 ZIN A   1      19.798  -3.123   9.528  0.00  0.00    -0.390 OA
ATOM     22  H56 ZIN A   1      20.237  -3.952   9.762  0.00  0.00     0.210 HD
ENDBRANCH  13  21
ENDBRANCH   1   8
BRANCH   6  23
ATOM     23  C14 ZIN A   1      16.637   0.241  11.127  0.00  0.00     0.078 C 
BRANCH  23  24
ATOM     24  C15 ZIN A   1      17.409  -0.078  12.382  0.00  0.00    -0.054 A 
ATOM     25  C27 ZIN A   1      17.769   0.937  13.248  0.00  0.00     0.010 A 
ATOM     26  C26 ZIN A   1      18.472   0.646  14.401  0.00  0.00     0.037 A 
ATOM     27  C18 ZIN A   1      18.825  -0.665  14.685  0.00  0.00     0.069 A 
ATOM     28  C17 ZIN A   1      18.466  -1.681  13.812  0.00  0.00     0.037 A 
ATOM     29  C16 ZIN A   1      17.759  -1.387  12.663  0.00  0.00     0.010 A 
BRANCH  27  30
ATOM     30  O19 ZIN A   1      19.521  -0.953  15.816  0.00  0.00    -0.344 OA
BRANCH  30  31
ATOM     31  C20 ZIN A   1      18.830  -0.808  17.058  0.00  0.00     0.154 C 
ATOM     32  C25 ZIN A   1      17.326  -0.553  16.823  0.00  0.00     0.200 C 
ATOM     33  O24 ZIN A   1      16.905   0.444  17.766  0.00  0.00    -0.389 OA
ATOM     34  C23 ZIN A   1      18.006   0.811  18.615  0.00  0.00     0.170 C 
ATOM     35  C22 ZIN A   1      19.277   0.485  17.792  0.00  0.00     0.061 C 
ENDBRANCH  30  31
ENDBRANCH  27  30
ENDBRANCH  23  24
ENDBRANCH   6  23
TORSDOF 10
ENDMDL
MODEL 7
REMARK VINA RESULT:      -7.7      3.219      5.681
REMARK  10 active torsions:
REMARK  status: ('A' for Active; 'I' for Inactive)
REMARK    1  A    between atoms: O1_1  and  C2_2 
REMARK    2  A    between atoms: C2_2  and  C3_3 
REMARK    3  A    between atoms: C6_5  and  C8_6 
REMARK    4  A    between atoms: C13_11  and  C14_12 
REMARK    5  A    between atoms: C14_12  and  C15_13 
REMARK    6  A    between atoms: C18_16  and  O19_17 
REMARK    7  A    between atoms: O19_17  and  C20_18 
REMARK    8  A    between atoms: C29_26  and  O31_27 
REMARK    9  A    between atoms: C32_28  and  O34_29 
REMARK   10  A    between atoms: C35_30  and  O37_31 
ROOT
ATOM      1  C8  ZIN A   1      18.783   2.599  15.192  0.00  0.00    -0.026 A 
ATOM      2  C9  ZIN A   1      19.111   2.892  16.503  0.00  0.00     0.011 A 
ATOM      3  C10 ZIN A   1      19.277   1.870  17.418  0.00  0.00     0.025 A 
ATOM      4  C11 ZIN A   1      19.116   0.554  17.023  0.00  0.00     0.040 A 
ATOM      5 Cl12 ZIN A   1      19.324  -0.729  18.173  0.00  0.00    -0.084 Cl
ATOM      6  C13 ZIN A   1      18.790   0.262  15.711  0.00  0.00    -0.032 A 
ATOM      7  C28 ZIN A   1      18.618   1.284  14.797  0.00  0.00     0.019 A 
ENDROOT
BRANCH   1   8
ATOM      8  C6  ZIN A   1      18.602   3.713  14.194  0.00  0.00     0.186 C 
ATOM      9  O5  ZIN A   1      17.334   4.338  14.400  0.00  0.00    -0.368 OA
ATOM     10  C3  ZIN A   1      17.071   5.431  13.518  0.00  0.00     0.177 C 
ATOM     11  C35 ZIN A   1      17.072   4.930  12.072  0.00  0.00     0.180 C 
ATOM     12  C32 ZIN A   1      18.422   4.273  11.769  0.00  0.00     0.181 C 
ATOM     13  C29 ZIN A   1      18.666   3.144  12.774  0.00  0.00     0.182 C 
BRANCH  10  14
ATOM     14  C2  ZIN A   1      15.704   6.035  13.848  0.00  0.00     0.198 C 
BRANCH  14  15
ATOM     15  O1  ZIN A   1      15.208   5.458  15.058  0.00  0.00    -0.398 OA
ATOM     16  H38 ZIN A   1      14.249   5.519  15.158  0.00  0.00     0.209 HD
ENDBRANCH  14  15
ENDBRANCH  10  14
BRANCH  11  17
ATOM     17  O37 ZIN A   1      16.867   6.031  11.183  0.00  0.00    -0.390 OA
ATOM     18  H58 ZIN A   1      17.343   6.833  11.435  0.00  0.00     0.210 HD
ENDBRANCH  11  17
BRANCH  12  19
ATOM     19  O34 ZIN A   1      18.407   3.737  10.443  0.00  0.00    -0.390 OA
ATOM     20  H57 ZIN A   1      19.286   3.548  10.086  0.00  0.00     0.210 HD
ENDBRANCH  12  19
BRANCH  13  21
ATOM     21  O31 ZIN A   1      19.954   2.570  12.547  0.00  0.00    -0.390 OA
ATOM     22  H56 ZIN A   1      19.976   1.927  11.825  0.00  0.00     0.210 HD
ENDBRANCH  13  21
ENDBRANCH   1   8
BRANCH   6  23
ATOM     23  C14 ZIN A   1      18.614  -1.171  15.279  0.00  0.00     0.078 C 
BRANCH  23  24
ATOM     24  C15 ZIN A   1      18.450  -1.227  13.782  0.00  0.00    -0.054 A 
ATOM     25  C27 ZIN A   1      17.374  -0.602  13.181  0.00  0.00     0.010 A 
ATOM     26  C26 ZIN A   1      17.225  -0.648  11.808  0.00  0.00     0.037 A 
ATOM     27  C18 ZIN A   1      18.152  -1.330  11.033  0.00  0.00     0.069 A 
ATOM     28  C17 ZIN A   1      19.228  -1.961  11.640  0.00  0.00     0.037 A 
ATOM     29  C16 ZIN A   1      19.376  -1.908  13.012  0.00  0.00     0.010 A 
BRANCH  27  30
ATOM     30  O19 ZIN A   1      18.005  -1.381   9.683  0.00  0.00    -0.344 OA
BRANCH  30  31
ATOM     31  C20 ZIN A   1      17.898  -0.134   8.995  0.00  0.00     0.154 C 
ATOM     32  C25 ZIN A   1      17.512  -0.354   7.516  0.00  0.00     0.200 C 
ATOM     33  O24 ZIN A   1      18.283   0.566   6.729  0.00  0.00    -0.389 OA
ATOM     34  C23 ZIN A   1      19.093   1.387   7.587  0.00  0.00     0.170 C 
ATOM     35  C22 ZIN A   1      19.284   0.555   8.879  0.00  0.00     0.061 C 
ENDBRANCH  30  31
ENDBRANCH  27  30
ENDBRANCH  23  24
ENDBRANCH   6  23
TORSDOF 10
ENDMDL
MODEL 8
REMARK VINA RESULT:      -7.4      3.319      5.797
REMARK  10 active torsions:
REMARK  status: ('A' for Active; 'I' for Inactive)
REMARK    1  A    between atoms: O1_1  and  C2_2 
REMARK    2  A    between atoms: C2_2  and  C3_3 
REMARK    3  A    between atoms: C6_5  and  C8_6 
REMARK    4  A    between atoms: C13_11  and  C14_12 
REMARK    5  A    between atoms: C14_12  and  C15_13 
REMARK    6  A    between atoms: C18_16  and  O19_17 
REMARK    7  A    between atoms: O19_17  and  C20_18 
REMARK    8  A    between atoms: C29_26  and  O31_27 
REMARK    9  A    between atoms: C32_28  and  O34_29 
REMARK   10  A    between atoms: C35_30  and  O37_31 
ROOT
ATOM      1  C8  ZIN A   1      18.868   1.607  13.632  0.00  0.00    -0.026 A 
ATOM      2  C9  ZIN A   1      19.301   1.867  14.919  0.00  0.00     0.011 A 
ATOM      3  C10 ZIN A   1      19.252   0.873  15.878  0.00  0.00     0.025 A 
ATOM      4  C11 ZIN A   1      18.772  -0.382  15.550  0.00  0.00     0.040 A 
ATOM      5 Cl12 ZIN A   1      18.710  -1.630  16.755  0.00  0.00    -0.084 Cl
ATOM      6  C13 ZIN A   1      18.340  -0.641  14.262  0.00  0.00    -0.032 A 
ATOM      7  C28 ZIN A   1      18.383   0.354  13.305  0.00  0.00     0.019 A 
ENDROOT
BRANCH   1   8
ATOM      8  C6  ZIN A   1      18.921   2.691  12.586  0.00  0.00     0.186 C 
ATOM      9  O5  ZIN A   1      17.778   3.537  12.717  0.00  0.00    -0.368 OA
ATOM     10  C3  ZIN A   1      17.743   4.620  11.786  0.00  0.00     0.177 C 
ATOM     11  C35 ZIN A   1      17.702   4.063  10.360  0.00  0.00     0.180 C 
ATOM     12  C32 ZIN A   1      18.923   3.166  10.136  0.00  0.00     0.181 C 
ATOM     13  C29 ZIN A   1      18.929   2.057  11.192  0.00  0.00     0.182 C 
BRANCH  10  14
ATOM     14  C2  ZIN A   1      16.495   5.469  12.037  0.00  0.00     0.198 C 
BRANCH  14  15
ATOM     15  O1  ZIN A   1      16.614   6.129  13.299  0.00  0.00    -0.398 OA
ATOM     16  H38 ZIN A   1      17.507   6.441  13.496  0.00  0.00     0.209 HD
ENDBRANCH  14  15
ENDBRANCH  10  14
BRANCH  11  17
ATOM     17  O37 ZIN A   1      17.726   5.143   9.423  0.00  0.00    -0.390 OA
ATOM     18  H58 ZIN A   1      18.571   5.610   9.383  0.00  0.00     0.210 HD
ENDBRANCH  11  17
BRANCH  12  19
ATOM     19  O34 ZIN A   1      18.858   2.583   8.833  0.00  0.00    -0.390 OA
ATOM     20  H57 ZIN A   1      18.253   1.831   8.768  0.00  0.00     0.210 HD
ENDBRANCH  12  19
BRANCH  13  21
ATOM     21  O31 ZIN A   1      20.102   1.255  11.039  0.00  0.00    -0.390 OA
ATOM     22  H56 ZIN A   1      20.925   1.719  11.245  0.00  0.00     0.210 HD
ENDBRANCH  13  21
ENDBRANCH   1   8
BRANCH   6  23
ATOM     23  C14 ZIN A   1      17.815  -2.008  13.904  0.00  0.00     0.078 C 
BRANCH  23  24
ATOM     24  C15 ZIN A   1      18.286  -2.379  12.521  0.00  0.00    -0.054 A 
ATOM     25  C27 ZIN A   1      19.631  -2.588  12.282  0.00  0.00     0.010 A 
ATOM     26  C26 ZIN A   1      20.064  -2.933  11.016  0.00  0.00     0.037 A 
ATOM     27  C18 ZIN A   1      19.148  -3.061   9.981  0.00  0.00     0.069 A 
ATOM     28  C17 ZIN A   1      17.799  -2.846  10.223  0.00  0.00     0.037 A 
ATOM     29  C16 ZIN A   1      17.370  -2.506  11.491  0.00  0.00     0.010 A 
BRANCH  27  30
ATOM     30  O19 ZIN A   1      19.572  -3.395   8.734  0.00  0.00    -0.344 OA
BRANCH  30  31
ATOM     31  C20 ZIN A   1      18.918  -2.759   7.635  0.00  0.00     0.154 C 
ATOM     32  C25 ZIN A   1      19.508  -3.239   6.292  0.00  0.00     0.200 C 
ATOM     33  O24 ZIN A   1      19.611  -2.094   5.432  0.00  0.00    -0.389 OA
ATOM     34  C23 ZIN A   1      19.091  -0.932   6.099  0.00  0.00     0.170 C 
ATOM     35  C22 ZIN A   1      19.230  -1.237   7.611  0.00  0.00     0.061 C 
ENDBRANCH  30  31
ENDBRANCH  27  30
ENDBRANCH  23  24
ENDBRANCH   6  23
TORSDOF 10
ENDMDL
MODEL 9
REMARK VINA RESULT:      -7.4      2.986      7.177
REMARK  10 active torsions:
REMARK  status: ('A' for Active; 'I' for Inactive)
REMARK    1  A    between atoms: O1_1  and  C2_2 
REMARK    2  A    between atoms: C2_2  and  C3_3 
REMARK    3  A    between atoms: C6_5  and  C8_6 
REMARK    4  A    between atoms: C13_11  and  C14_12 
REMARK    5  A    between atoms: C14_12  and  C15_13 
REMARK    6  A    between atoms: C18_16  and  O19_17 
REMARK    7  A    between atoms: O19_17  and  C20_18 
REMARK    8  A    between atoms: C29_26  and  O31_27 
REMARK    9  A    between atoms: C32_28  and  O34_29 
REMARK   10  A    between atoms: C35_30  and  O37_31 
ROOT
ATOM      1  C8  ZIN A   1      18.968  -2.617   7.480  0.00  0.00    -0.026 A 
ATOM      2  C9  ZIN A   1      19.162  -2.968   6.156  0.00  0.00     0.011 A 
ATOM      3  C10 ZIN A   1      19.244  -1.986   5.186  0.00  0.00     0.025 A 
ATOM      4  C11 ZIN A   1      19.132  -0.654   5.540  0.00  0.00     0.040 A 
ATOM      5 Cl12 ZIN A   1      19.235   0.579   4.322  0.00  0.00    -0.084 Cl
ATOM      6  C13 ZIN A   1      18.939  -0.304   6.864  0.00  0.00    -0.032 A 
ATOM      7  C28 ZIN A   1      18.851  -1.286   7.832  0.00  0.00     0.019 A 
ENDROOT
BRANCH   1   8
ATOM      8  C6  ZIN A   1      18.878  -3.688   8.536  0.00  0.00     0.186 C 
ATOM      9  O5  ZIN A   1      17.712  -4.483   8.314  0.00  0.00    -0.368 OA
ATOM     10  C3  ZIN A   1      17.545  -5.550   9.249  0.00  0.00     0.177 C 
ATOM     11  C35 ZIN A   1      17.406  -4.972  10.660  0.00  0.00     0.180 C 
ATOM     12  C32 ZIN A   1      18.644  -4.128  10.981  0.00  0.00     0.181 C 
ATOM     13  C29 ZIN A   1      18.794  -3.036   9.919  0.00  0.00     0.182 C 
BRANCH  10  14
ATOM     14  C2  ZIN A   1      16.286  -6.344   8.898  0.00  0.00     0.198 C 
BRANCH  14  15
ATOM     15  O1  ZIN A   1      15.129  -5.583   9.251  0.00  0.00    -0.398 OA
ATOM     16  H38 ZIN A   1      15.013  -5.462  10.202  0.00  0.00     0.209 HD
ENDBRANCH  14  15
ENDBRANCH  10  14
BRANCH  11  17
ATOM     17  O37 ZIN A   1      17.297  -6.038  11.606  0.00  0.00    -0.390 OA
ATOM     18  H58 ZIN A   1      17.143  -6.904  11.206  0.00  0.00     0.210 HD
ENDBRANCH  11  17
BRANCH  12  19
ATOM     19  O34 ZIN A   1      18.492  -3.525  12.268  0.00  0.00    -0.390 OA
ATOM     20  H57 ZIN A   1      17.576  -3.477  12.575  0.00  0.00     0.210 HD
ENDBRANCH  12  19
BRANCH  13  21
ATOM     21  O31 ZIN A   1      19.985  -2.286  10.167  0.00  0.00    -0.390 OA
ATOM     22  H56 ZIN A   1      20.012  -1.432   9.716  0.00  0.00     0.210 HD
ENDBRANCH  13  21
ENDBRANCH   1   8
BRANCH   6  23
ATOM     23  C14 ZIN A   1      18.817   1.148   7.251  0.00  0.00     0.078 C 
BRANCH  23  24
ATOM     24  C15 ZIN A   1      18.514   1.251   8.724  0.00  0.00    -0.054 A 
ATOM     25  C27 ZIN A   1      17.507   0.483   9.276  0.00  0.00     0.010 A 
ATOM     26  C26 ZIN A   1      17.230   0.572  10.627  0.00  0.00     0.037 A 
ATOM     27  C18 ZIN A   1      17.959   1.440  11.428  0.00  0.00     0.069 A 
ATOM     28  C17 ZIN A   1      18.966   2.213  10.869  0.00  0.00     0.037 A 
ATOM     29  C16 ZIN A   1      19.242   2.117   9.519  0.00  0.00     0.010 A 
BRANCH  27  30
ATOM     30  O19 ZIN A   1      17.686   1.533  12.755  0.00  0.00    -0.344 OA
BRANCH  30  31
ATOM     31  C20 ZIN A   1      18.589   0.883  13.651  0.00  0.00     0.154 C 
ATOM     32  C25 ZIN A   1      19.424  -0.184  12.910  0.00  0.00     0.200 C 
ATOM     33  O24 ZIN A   1      19.524  -1.327  13.772  0.00  0.00    -0.389 OA
ATOM     34  C23 ZIN A   1      18.863  -1.060  15.021  0.00  0.00     0.170 C 
ATOM     35  C22 ZIN A   1      17.816   0.034  14.697  0.00  0.00     0.061 C 
ENDBRANCH  30  31
ENDBRANCH  27  30
ENDBRANCH  23  24
ENDBRANCH   6  23
TORSDOF 10
ENDMDL
