MODEL 1
REMARK VINA RESULT:      -9.1      0.000      0.000
REMARK  7 active torsions:
REMARK  status: ('A' for Active; 'I' for Inactive)
REMARK    1  A    between atoms: C4_4  and  C5_5 
REMARK    2  A    between atoms: C16_15  and  C18_16 
REMARK    3  A    between atoms: C18_16  and  C21_18 
REMARK    4  A    between atoms: C22_19  and  C23_20 
REMARK    5  A    between atoms: C23_20  and  C26_22 
REMARK    6  A    between atoms: C30_26  and  O32_27 
REMARK    7  A    between atoms: C34_29  and  O36_30 
ROOT
ATOM      1  C5  ZIN A   1      19.070  -2.338   8.902  0.00  0.00     0.004 C 
ATOM      2  C6  ZIN A   1      19.395  -1.076   8.626  0.00  0.00    -0.075 C 
ATOM      3  C7  ZIN A   1      19.094  -0.431   7.282  0.00  0.00     0.034 C 
ATOM      4  C8  ZIN A   1      18.391   0.912   7.471  0.00  0.00     0.005 C 
ATOM      5  C9  ZIN A   1      19.113   1.794   8.503  0.00  0.00     0.010 C 
ATOM      6  C10 ZIN A   1      19.142   1.035   9.809  0.00  0.00    -0.032 C 
ATOM      7  C11 ZIN A   1      17.736   0.525  10.131  0.00  0.00     0.016 C 
ATOM      8  C12 ZIN A   1      20.078  -0.186   9.623  0.00  0.00     0.023 C 
ATOM      9  C14 ZIN A   1      20.178  -0.708  11.058  0.00  0.00     0.010 C 
ATOM     10  C15 ZIN A   1      20.335   0.597  11.888  0.00  0.00     0.007 C 
ATOM     11  C16 ZIN A   1      19.716   1.730  11.035  0.00  0.00     0.002 C 
ENDROOT
BRANCH   1  12
ATOM     12  C4  ZIN A   1      18.404  -3.160   7.890  0.00  0.00     0.008 C 
ATOM     13  C3  ZIN A   1      18.097  -4.446   8.159  0.00  0.00    -0.048 C 
ATOM     14  C2  ZIN A   1      18.417  -5.061   9.464  0.00  0.00    -0.033 C 
ATOM     15  C29 ZIN A   1      17.407  -5.329   7.139  0.00  0.00     0.071 C 
ATOM     16  C1  ZIN A   1      19.591  -4.859  10.063  0.00  0.00     0.022 C 
ATOM     17  C34 ZIN A   1      17.349  -5.939  10.085  0.00  0.00     0.153 C 
ATOM     18  C33 ZIN A   1      16.806  -6.880   9.011  0.00  0.00     0.068 C 
ATOM     19  C30 ZIN A   1      16.261  -6.068   7.835  0.00  0.00     0.125 C 
BRANCH  17  20
ATOM     20  O36 ZIN A   1      16.291  -5.118  10.585  0.00  0.00    -0.391 OA
ATOM     21  H74 ZIN A   1      15.936  -5.408  11.436  0.00  0.00     0.210 HD
ENDBRANCH  17  20
BRANCH  19  22
ATOM     22  O32 ZIN A   1      15.629  -6.949   6.904  0.00  0.00    -0.395 OA
ATOM     23  H71 ZIN A   1      14.718  -6.706   6.690  0.00  0.00     0.210 HD
ENDBRANCH  19  22
ENDBRANCH   1  12
BRANCH  11  24
ATOM     24  C18 ZIN A   1      18.607   2.437  11.815  0.00  0.00     0.008 C 
ATOM     25  C20 ZIN A   1      18.785   3.952  11.695  0.00  0.00     0.014 C 
BRANCH  24  26
ATOM     26  C21 ZIN A   1      18.679   2.037  13.267  0.00  0.00    -0.026 C 
ATOM     27  C22 ZIN A   1      17.750   1.273  13.783  0.00  0.00    -0.026 C 
BRANCH  27  28
ATOM     28  C23 ZIN A   1      17.822   0.872  15.234  0.00  0.00     0.007 C 
ATOM     29  C25 ZIN A   1      19.107   1.428  15.852  0.00  0.00     0.014 C 
BRANCH  28  30
ATOM     30  C26 ZIN A   1      17.822  -0.653  15.343  0.00  0.00    -0.015 C 
ATOM     31  C27 ZIN A   1      19.222  -1.187  15.031  0.00  0.00     0.010 C 
ATOM     32  C28 ZIN A   1      17.426  -1.063  16.764  0.00  0.00     0.010 C 
ENDBRANCH  28  30
ENDBRANCH  27  28
ENDBRANCH  24  26
ENDBRANCH  11  24
TORSDOF 7
ENDMDL
MODEL 2
REMARK VINA RESULT:      -9.0      2.161      3.035
REMARK  7 active torsions:
REMARK  status: ('A' for Active; 'I' for Inactive)
REMARK    1  A    between atoms: C4_4  and  C5_5 
REMARK    2  A    between atoms: C16_15  and  C18_16 
REMARK    3  A    between atoms: C18_16  and  C21_18 
REMARK    4  A    between atoms: C22_19  and  C23_20 
REMARK    5  A    between atoms: C23_20  and  C26_22 
REMARK    6  A    between atoms: C30_26  and  O32_27 
REMARK    7  A    between atoms: C34_29  and  O36_30 
ROOT
ATOM      1  C5  ZIN A   1      18.726  -1.267   7.750  0.00  0.00     0.004 C 
ATOM      2  C6  ZIN A   1      19.228  -0.197   8.367  0.00  0.00    -0.075 C 
ATOM      3  C7  ZIN A   1      19.311   1.167   7.697  0.00  0.00     0.034 C 
ATOM      4  C8  ZIN A   1      18.717   2.248   8.598  0.00  0.00     0.005 C 
ATOM      5  C9  ZIN A   1      19.263   2.160  10.032  0.00  0.00     0.010 C 
ATOM      6  C10 ZIN A   1      18.915   0.790  10.568  0.00  0.00    -0.032 C 
ATOM      7  C11 ZIN A   1      17.430   0.514  10.326  0.00  0.00     0.016 C 
ATOM      8  C12 ZIN A   1      19.746  -0.250   9.774  0.00  0.00     0.023 C 
ATOM      9  C14 ZIN A   1      19.459  -1.528  10.566  0.00  0.00     0.010 C 
ATOM     10  C15 ZIN A   1      19.546  -1.045  12.041  0.00  0.00     0.007 C 
ATOM     11  C16 ZIN A   1      19.255   0.474  12.017  0.00  0.00     0.002 C 
ENDROOT
BRANCH   1  12
ATOM     12  C4  ZIN A   1      18.236  -1.155   6.375  0.00  0.00     0.008 C 
ATOM     13  C3  ZIN A   1      18.301  -2.218   5.546  0.00  0.00    -0.048 C 
ATOM     14  C2  ZIN A   1      18.860  -3.512   5.990  0.00  0.00    -0.033 C 
ATOM     15  C29 ZIN A   1      17.804  -2.144   4.117  0.00  0.00     0.071 C 
ATOM     16  C1  ZIN A   1      19.976  -3.579   6.718  0.00  0.00     0.022 C 
ATOM     17  C34 ZIN A   1      18.108  -4.760   5.573  0.00  0.00     0.153 C 
ATOM     18  C33 ZIN A   1      17.764  -4.648   4.089  0.00  0.00     0.068 C 
ATOM     19  C30 ZIN A   1      16.945  -3.381   3.839  0.00  0.00     0.125 C 
BRANCH  17  20
ATOM     20  O36 ZIN A   1      16.907  -4.869   6.339  0.00  0.00    -0.391 OA
ATOM     21  H74 ZIN A   1      16.301  -5.553   6.025  0.00  0.00     0.210 HD
ENDBRANCH  17  20
BRANCH  19  22
ATOM     22  O32 ZIN A   1      16.508  -3.360   2.478  0.00  0.00    -0.395 OA
ATOM     23  H71 ZIN A   1      17.207  -3.550   1.838  0.00  0.00     0.210 HD
ENDBRANCH  19  22
ENDBRANCH   1  12
BRANCH  11  24
ATOM     24  C18 ZIN A   1      18.070   0.803  12.926  0.00  0.00     0.008 C 
ATOM     25  C20 ZIN A   1      18.136   2.274  13.341  0.00  0.00     0.014 C 
BRANCH  24  26
ATOM     26  C21 ZIN A   1      18.123  -0.068  14.156  0.00  0.00    -0.026 C 
ATOM     27  C22 ZIN A   1      18.496   0.441  15.303  0.00  0.00    -0.026 C 
BRANCH  27  28
ATOM     28  C23 ZIN A   1      18.549  -0.429  16.533  0.00  0.00     0.007 C 
ATOM     29  C25 ZIN A   1      17.141  -0.926  16.866  0.00  0.00     0.014 C 
BRANCH  28  30
ATOM     30  C26 ZIN A   1      19.096   0.383  17.709  0.00  0.00    -0.015 C 
ATOM     31  C27 ZIN A   1      19.287   1.839  17.278  0.00  0.00     0.010 C 
ATOM     32  C28 ZIN A   1      18.104   0.322  18.874  0.00  0.00     0.010 C 
ENDBRANCH  28  30
ENDBRANCH  27  28
ENDBRANCH  24  26
ENDBRANCH  11  24
TORSDOF 7
ENDMDL
MODEL 3
REMARK VINA RESULT:      -8.9      4.013      9.273
REMARK  7 active torsions:
REMARK  status: ('A' for Active; 'I' for Inactive)
REMARK    1  A    between atoms: C4_4  and  C5_5 
REMARK    2  A    between atoms: C16_15  and  C18_16 
REMARK    3  A    between atoms: C18_16  and  C21_18 
REMARK    4  A    between atoms: C22_19  and  C23_20 
REMARK    5  A    between atoms: C23_20  and  C26_22 
REMARK    6  A    between atoms: C30_26  and  O32_27 
REMARK    7  A    between atoms: C34_29  and  O36_30 
ROOT
ATOM      1  C5  ZIN A   1      19.071   2.727  14.982  0.00  0.00     0.004 C 
ATOM      2  C6  ZIN A   1      19.123   1.417  15.221  0.00  0.00    -0.075 C 
ATOM      3  C7  ZIN A   1      18.598   0.802  16.509  0.00  0.00     0.034 C 
ATOM      4  C8  ZIN A   1      17.664  -0.369  16.207  0.00  0.00     0.005 C 
ATOM      5  C9  ZIN A   1      18.281  -1.343  15.190  0.00  0.00     0.010 C 
ATOM      6  C10 ZIN A   1      18.559  -0.563  13.925  0.00  0.00    -0.032 C 
ATOM      7  C11 ZIN A   1      17.309   0.224  13.529  0.00  0.00     0.016 C 
ATOM      8  C12 ZIN A   1      19.697   0.443  14.235  0.00  0.00     0.023 C 
ATOM      9  C14 ZIN A   1      20.008   0.981  12.836  0.00  0.00     0.010 C 
ATOM     10  C15 ZIN A   1      19.974  -0.303  11.959  0.00  0.00     0.007 C 
ATOM     11  C16 ZIN A   1      19.082  -1.318  12.712  0.00  0.00     0.002 C 
ENDROOT
BRANCH   1  12
ATOM     12  C4  ZIN A   1      18.499   3.631  15.982  0.00  0.00     0.008 C 
ATOM     13  C3  ZIN A   1      18.148   4.887  15.635  0.00  0.00    -0.048 C 
ATOM     14  C2  ZIN A   1      18.325   5.387  14.255  0.00  0.00    -0.033 C 
ATOM     15  C29 ZIN A   1      17.553   5.853  16.639  0.00  0.00     0.071 C 
ATOM     16  C1  ZIN A   1      19.435   5.139  13.559  0.00  0.00     0.022 C 
ATOM     17  C34 ZIN A   1      17.187   6.200  13.672  0.00  0.00     0.153 C 
ATOM     18  C33 ZIN A   1      16.742   7.229  14.710  0.00  0.00     0.068 C 
ATOM     19  C30 ZIN A   1      16.331   6.521  16.002  0.00  0.00     0.125 C 
BRANCH  17  20
ATOM     20  O36 ZIN A   1      16.096   5.333  13.357  0.00  0.00    -0.391 OA
ATOM     21  H74 ZIN A   1      16.342   4.575  12.809  0.00  0.00     0.210 HD
ENDBRANCH  17  20
BRANCH  19  22
ATOM     22  O32 ZIN A   1      15.784   7.477  16.913  0.00  0.00    -0.395 OA
ATOM     23  H71 ZIN A   1      16.395   8.188  17.151  0.00  0.00     0.210 HD
ENDBRANCH  19  22
ENDBRANCH   1  12
BRANCH  11  24
ATOM     24  C18 ZIN A   1      17.922  -1.768  11.823  0.00  0.00     0.008 C 
ATOM     25  C20 ZIN A   1      17.859  -3.296  11.801  0.00  0.00     0.014 C 
BRANCH  24  26
ATOM     26  C21 ZIN A   1      18.134  -1.254  10.422  0.00  0.00    -0.026 C 
ATOM     27  C22 ZIN A   1      17.378  -0.292   9.956  0.00  0.00    -0.026 C 
BRANCH  27  28
ATOM     28  C23 ZIN A   1      17.590   0.222   8.555  0.00  0.00     0.007 C 
ATOM     29  C25 ZIN A   1      17.751  -0.960   7.598  0.00  0.00     0.014 C 
BRANCH  28  30
ATOM     30  C26 ZIN A   1      18.851   1.087   8.514  0.00  0.00    -0.015 C 
ATOM     31  C27 ZIN A   1      19.092   1.569   7.081  0.00  0.00     0.010 C 
ATOM     32  C28 ZIN A   1      18.670   2.297   9.434  0.00  0.00     0.010 C 
ENDBRANCH  28  30
ENDBRANCH  27  28
ENDBRANCH  24  26
ENDBRANCH  11  24
TORSDOF 7
ENDMDL
MODEL 4
REMARK VINA RESULT:      -8.8      2.251      2.924
REMARK  7 active torsions:
REMARK  status: ('A' for Active; 'I' for Inactive)
REMARK    1  A    between atoms: C4_4  and  C5_5 
REMARK    2  A    between atoms: C16_15  and  C18_16 
REMARK    3  A    between atoms: C18_16  and  C21_18 
REMARK    4  A    between atoms: C22_19  and  C23_20 
REMARK    5  A    between atoms: C23_20  and  C26_22 
REMARK    6  A    between atoms: C30_26  and  O32_27 
REMARK    7  A    between atoms: C34_29  and  O36_30 
ROOT
ATOM      1  C5  ZIN A   1      19.267  -1.935   9.510  0.00  0.00     0.004 C 
ATOM      2  C6  ZIN A   1      19.476  -0.780   8.879  0.00  0.00    -0.075 C 
ATOM      3  C7  ZIN A   1      19.330  -0.636   7.372  0.00  0.00     0.034 C 
ATOM      4  C8  ZIN A   1      18.444   0.559   7.026  0.00  0.00     0.005 C 
ATOM      5  C9  ZIN A   1      18.866   1.823   7.793  0.00  0.00     0.010 C 
ATOM      6  C10 ZIN A   1      18.767   1.514   9.269  0.00  0.00    -0.032 C 
ATOM      7  C11 ZIN A   1      17.401   0.893   9.566  0.00  0.00     0.016 C 
ATOM      8  C12 ZIN A   1      19.865   0.473   9.606  0.00  0.00     0.023 C 
ATOM      9  C14 ZIN A   1      19.783   0.437  11.134  0.00  0.00     0.010 C 
ATOM     10  C15 ZIN A   1      19.635   1.940  11.505  0.00  0.00     0.007 C 
ATOM     11  C16 ZIN A   1      19.035   2.636  10.261  0.00  0.00     0.002 C 
ENDROOT
BRANCH   1  12
ATOM     12  C4  ZIN A   1      18.888  -3.127   8.748  0.00  0.00     0.008 C 
ATOM     13  C3  ZIN A   1      18.610  -4.280   9.391  0.00  0.00    -0.048 C 
ATOM     14  C2  ZIN A   1      18.675  -4.379  10.865  0.00  0.00    -0.033 C 
ATOM     15  C29 ZIN A   1      18.214  -5.535   8.640  0.00  0.00     0.071 C 
ATOM     16  C1  ZIN A   1      19.675  -3.836  11.558  0.00  0.00     0.022 C 
ATOM     17  C34 ZIN A   1      17.553  -5.135  11.548  0.00  0.00     0.153 C 
ATOM     18  C33 ZIN A   1      17.315  -6.442  10.794  0.00  0.00     0.068 C 
ATOM     19  C30 ZIN A   1      16.991  -6.146   9.329  0.00  0.00     0.125 C 
BRANCH  17  20
ATOM     20  O36 ZIN A   1      16.363  -4.342  11.524  0.00  0.00    -0.391 OA
ATOM     21  H74 ZIN A   1      16.519  -3.395  11.642  0.00  0.00     0.210 HD
ENDBRANCH  17  20
BRANCH  19  22
ATOM     22  O32 ZIN A   1      16.632  -7.362   8.669  0.00  0.00    -0.395 OA
ATOM     23  H71 ZIN A   1      17.307  -7.694   8.062  0.00  0.00     0.210 HD
ENDBRANCH  19  22
ENDBRANCH   1  12
BRANCH  11  24
ATOM     24  C18 ZIN A   1      17.731   3.346  10.627  0.00  0.00     0.008 C 
ATOM     25  C20 ZIN A   1      17.715   4.741   9.999  0.00  0.00     0.014 C 
BRANCH  24  26
ATOM     26  C21 ZIN A   1      17.629   3.470  12.126  0.00  0.00    -0.026 C 
ATOM     27  C22 ZIN A   1      17.575   4.654  12.683  0.00  0.00    -0.026 C 
BRANCH  27  28
ATOM     28  C23 ZIN A   1      17.473   4.778  14.182  0.00  0.00     0.007 C 
ATOM     29  C25 ZIN A   1      16.240   5.609  14.542  0.00  0.00     0.014 C 
BRANCH  28  30
ATOM     30  C26 ZIN A   1      18.727   5.466  14.723  0.00  0.00    -0.015 C 
ATOM     31  C27 ZIN A   1      19.839   5.398  13.673  0.00  0.00     0.010 C 
ATOM     32  C28 ZIN A   1      18.411   6.931  15.036  0.00  0.00     0.010 C 
ENDBRANCH  28  30
ENDBRANCH  27  28
ENDBRANCH  24  26
ENDBRANCH  11  24
TORSDOF 7
ENDMDL
MODEL 5
REMARK VINA RESULT:      -8.3      3.088      8.196
REMARK  7 active torsions:
REMARK  status: ('A' for Active; 'I' for Inactive)
REMARK    1  A    between atoms: C4_4  and  C5_5 
REMARK    2  A    between atoms: C16_15  and  C18_16 
REMARK    3  A    between atoms: C18_16  and  C21_18 
REMARK    4  A    between atoms: C22_19  and  C23_20 
REMARK    5  A    between atoms: C23_20  and  C26_22 
REMARK    6  A    between atoms: C30_26  and  O32_27 
REMARK    7  A    between atoms: C34_29  and  O36_30 
ROOT
ATOM      1  C5  ZIN A   1      18.432   1.019  13.328  0.00  0.00     0.004 C 
ATOM      2  C6  ZIN A   1      17.921   1.590  12.238  0.00  0.00    -0.075 C 
ATOM      3  C7  ZIN A   1      17.789   3.098  12.092  0.00  0.00     0.034 C 
ATOM      4  C8  ZIN A   1      18.380   3.567  10.763  0.00  0.00     0.005 C 
ATOM      5  C9  ZIN A   1      17.872   2.722   9.584  0.00  0.00     0.010 C 
ATOM      6  C10 ZIN A   1      18.266   1.287   9.849  0.00  0.00    -0.032 C 
ATOM      7  C11 ZIN A   1      19.751   1.229  10.213  0.00  0.00     0.016 C 
ATOM      8  C12 ZIN A   1      17.441   0.790  11.063  0.00  0.00     0.023 C 
ATOM      9  C14 ZIN A   1      17.778  -0.703  11.062  0.00  0.00     0.010 C 
ATOM     10  C15 ZIN A   1      17.717  -1.068   9.551  0.00  0.00     0.007 C 
ATOM     11  C16 ZIN A   1      17.971   0.248   8.778  0.00  0.00     0.002 C 
ENDROOT
BRANCH   1  12
ATOM     12  C4  ZIN A   1      18.885   1.851  14.445  0.00  0.00     0.008 C 
ATOM     13  C3  ZIN A   1      18.519   1.545  15.708  0.00  0.00    -0.048 C 
ATOM     14  C2  ZIN A   1      17.662   0.377  16.003  0.00  0.00    -0.033 C 
ATOM     15  C29 ZIN A   1      18.966   2.380  16.890  0.00  0.00     0.071 C 
ATOM     16  C1  ZIN A   1      16.594   0.088  15.259  0.00  0.00     0.022 C 
ATOM     17  C34 ZIN A   1      18.053  -0.471  17.196  0.00  0.00     0.153 C 
ATOM     18  C33 ZIN A   1      18.360   0.453  18.372  0.00  0.00     0.068 C 
ATOM     19  C30 ZIN A   1      19.468   1.435  17.986  0.00  0.00     0.125 C 
BRANCH  17  20
ATOM     20  O36 ZIN A   1      19.213  -1.241  16.873  0.00  0.00    -0.391 OA
ATOM     21  H74 ZIN A   1      20.025  -0.720  16.811  0.00  0.00     0.210 HD
ENDBRANCH  17  20
BRANCH  19  22
ATOM     22  O32 ZIN A   1      19.846   2.198  19.134  0.00  0.00    -0.395 OA
ATOM     23  H71 ZIN A   1      19.208   2.157  19.860  0.00  0.00     0.210 HD
ENDBRANCH  19  22
ENDBRANCH   1  12
BRANCH  11  24
ATOM     24  C18 ZIN A   1      19.171   0.091   7.842  0.00  0.00     0.008 C 
ATOM     25  C20 ZIN A   1      18.926   0.887   6.559  0.00  0.00     0.014 C 
BRANCH  24  26
ATOM     26  C21 ZIN A   1      19.356  -1.366   7.502  0.00  0.00    -0.026 C 
ATOM     27  C22 ZIN A   1      19.285  -1.761   6.255  0.00  0.00    -0.026 C 
BRANCH  27  28
ATOM     28  C23 ZIN A   1      19.470  -3.218   5.915  0.00  0.00     0.007 C 
ATOM     29  C25 ZIN A   1      18.402  -3.644   4.905  0.00  0.00     0.014 C 
BRANCH  28  30
ATOM     30  C26 ZIN A   1      19.335  -4.060   7.185  0.00  0.00    -0.015 C 
ATOM     31  C27 ZIN A   1      17.943  -4.693   7.231  0.00  0.00     0.010 C 
ATOM     32  C28 ZIN A   1      20.397  -5.163   7.180  0.00  0.00     0.010 C 
ENDBRANCH  28  30
ENDBRANCH  27  28
ENDBRANCH  24  26
ENDBRANCH  11  24
TORSDOF 7
ENDMDL
MODEL 6
REMARK VINA RESULT:      -8.2      3.769      8.065
REMARK  7 active torsions:
REMARK  status: ('A' for Active; 'I' for Inactive)
REMARK    1  A    between atoms: C4_4  and  C5_5 
REMARK    2  A    between atoms: C16_15  and  C18_16 
REMARK    3  A    between atoms: C18_16  and  C21_18 
REMARK    4  A    between atoms: C22_19  and  C23_20 
REMARK    5  A    between atoms: C23_20  and  C26_22 
REMARK    6  A    between atoms: C30_26  and  O32_27 
REMARK    7  A    between atoms: C34_29  and  O36_30 
ROOT
ATOM      1  C5  ZIN A   1      18.954   1.896  11.274  0.00  0.00     0.004 C 
ATOM      2  C6  ZIN A   1      18.600   1.802   9.993  0.00  0.00    -0.075 C 
ATOM      3  C7  ZIN A   1      19.063   2.801   8.943  0.00  0.00     0.034 C 
ATOM      4  C8  ZIN A   1      19.649   2.079   7.731  0.00  0.00     0.005 C 
ATOM      5  C9  ZIN A   1      18.728   0.951   7.238  0.00  0.00     0.010 C 
ATOM      6  C10 ZIN A   1      18.545  -0.020   8.382  0.00  0.00    -0.032 C 
ATOM      7  C11 ZIN A   1      19.914  -0.385   8.959  0.00  0.00     0.016 C 
ATOM      8  C12 ZIN A   1      17.722   0.698   9.481  0.00  0.00     0.023 C 
ATOM      9  C14 ZIN A   1      17.437  -0.458  10.443  0.00  0.00     0.010 C 
ATOM     10  C15 ZIN A   1      17.078  -1.625   9.481  0.00  0.00     0.007 C 
ATOM     11  C16 ZIN A   1      17.752  -1.293   8.128  0.00  0.00     0.002 C 
ENDROOT
BRANCH   1  12
ATOM     12  C4  ZIN A   1      19.813   2.996  11.716  0.00  0.00     0.008 C 
ATOM     13  C3  ZIN A   1      19.276   4.063  12.344  0.00  0.00    -0.048 C 
ATOM     14  C2  ZIN A   1      17.823   4.158  12.603  0.00  0.00    -0.033 C 
ATOM     15  C29 ZIN A   1      20.130   5.221  12.817  0.00  0.00     0.071 C 
ATOM     16  C1  ZIN A   1      16.925   3.818  11.678  0.00  0.00     0.022 C 
ATOM     17  C34 ZIN A   1      17.406   4.666  13.968  0.00  0.00     0.153 C 
ATOM     18  C33 ZIN A   1      18.232   5.907  14.300  0.00  0.00     0.068 C 
ATOM     19  C30 ZIN A   1      19.723   5.568  14.252  0.00  0.00     0.125 C 
BRANCH  17  20
ATOM     20  O36 ZIN A   1      17.645   3.652  14.946  0.00  0.00    -0.391 OA
ATOM     21  H74 ZIN A   1      18.224   2.940  14.641  0.00  0.00     0.210 HD
ENDBRANCH  17  20
BRANCH  19  22
ATOM     22  O32 ZIN A   1      20.479   6.694  14.702  0.00  0.00    -0.395 OA
ATOM     23  H71 ZIN A   1      21.391   6.708  14.381  0.00  0.00     0.210 HD
ENDBRANCH  19  22
ENDBRANCH   1  12
BRANCH  11  24
ATOM     24  C18 ZIN A   1      18.686  -2.428   7.706  0.00  0.00     0.008 C 
ATOM     25  C20 ZIN A   1      18.512  -2.704   6.211  0.00  0.00     0.014 C 
BRANCH  24  26
ATOM     26  C21 ZIN A   1      18.350  -3.673   8.488  0.00  0.00    -0.026 C 
ATOM     27  C22 ZIN A   1      19.177  -4.116   9.401  0.00  0.00    -0.026 C 
BRANCH  27  28
ATOM     28  C23 ZIN A   1      18.840  -5.360  10.183  0.00  0.00     0.007 C 
ATOM     29  C25 ZIN A   1      17.728  -6.128   9.465  0.00  0.00     0.014 C 
BRANCH  28  30
ATOM     30  C26 ZIN A   1      18.368  -4.970  11.584  0.00  0.00    -0.015 C 
ATOM     31  C27 ZIN A   1      18.973  -3.618  11.968  0.00  0.00     0.010 C 
ATOM     32  C28 ZIN A   1      16.840  -4.866  11.597  0.00  0.00     0.010 C 
ENDBRANCH  28  30
ENDBRANCH  27  28
ENDBRANCH  24  26
ENDBRANCH  11  24
TORSDOF 7
ENDMDL
MODEL 7
REMARK VINA RESULT:      -7.9      3.170      9.057
REMARK  7 active torsions:
REMARK  status: ('A' for Active; 'I' for Inactive)
REMARK    1  A    between atoms: C4_4  and  C5_5 
REMARK    2  A    between atoms: C16_15  and  C18_16 
REMARK    3  A    between atoms: C18_16  and  C21_18 
REMARK    4  A    between atoms: C22_19  and  C23_20 
REMARK    5  A    between atoms: C23_20  and  C26_22 
REMARK    6  A    between atoms: C30_26  and  O32_27 
REMARK    7  A    between atoms: C34_29  and  O36_30 
ROOT
ATOM      1  C5  ZIN A   1      18.152  -2.204   9.869  0.00  0.00     0.004 C 
ATOM      2  C6  ZIN A   1      18.213  -3.445  10.351  0.00  0.00    -0.075 C 
ATOM      3  C7  ZIN A   1      17.707  -3.808  11.739  0.00  0.00     0.034 C 
ATOM      4  C8  ZIN A   1      16.775  -5.016  11.677  0.00  0.00     0.005 C 
ATOM      5  C9  ZIN A   1      17.381  -6.163  10.852  0.00  0.00     0.010 C 
ATOM      6  C10 ZIN A   1      17.640  -5.635   9.460  0.00  0.00    -0.032 C 
ATOM      7  C11 ZIN A   1      16.381  -4.939   8.940  0.00  0.00     0.016 C 
ATOM      8  C12 ZIN A   1      18.778  -4.587   9.558  0.00  0.00     0.023 C 
ATOM      9  C14 ZIN A   1      19.068  -4.322   8.079  0.00  0.00     0.010 C 
ATOM     10  C15 ZIN A   1      19.027  -5.748   7.460  0.00  0.00     0.007 C 
ATOM     11  C16 ZIN A   1      18.150  -6.604   8.403  0.00  0.00     0.002 C 
ENDROOT
BRANCH   1  12
ATOM     12  C4  ZIN A   1      17.590  -1.128  10.689  0.00  0.00     0.008 C 
ATOM     13  C3  ZIN A   1      18.167   0.092  10.690  0.00  0.00    -0.048 C 
ATOM     14  C2  ZIN A   1      19.367   0.382   9.877  0.00  0.00    -0.033 C 
ATOM     15  C29 ZIN A   1      17.616   1.231  11.524  0.00  0.00     0.071 C 
ATOM     16  C1  ZIN A   1      20.385  -0.476   9.803  0.00  0.00     0.022 C 
ATOM     17  C34 ZIN A   1      19.386   1.704   9.136  0.00  0.00     0.153 C 
ATOM     18  C33 ZIN A   1      18.939   2.806  10.095  0.00  0.00     0.068 C 
ATOM     19  C30 ZIN A   1      17.549   2.484  10.646  0.00  0.00     0.125 C 
BRANCH  17  20
ATOM     20  O36 ZIN A   1      18.489   1.639   8.025  0.00  0.00    -0.391 OA
ATOM     21  H74 ZIN A   1      18.226   0.741   7.784  0.00  0.00     0.210 HD
ENDBRANCH  17  20
BRANCH  19  22
ATOM     22  O32 ZIN A   1      17.082   3.587  11.427  0.00  0.00    -0.395 OA
ATOM     23  H71 ZIN A   1      16.851   4.367  10.905  0.00  0.00     0.210 HD
ENDBRANCH  19  22
ENDBRANCH   1  12
BRANCH  11  24
ATOM     24  C18 ZIN A   1      16.979  -7.216   7.632  0.00  0.00     0.008 C 
ATOM     25  C20 ZIN A   1      16.982  -8.734   7.819  0.00  0.00     0.014 C 
BRANCH  24  26
ATOM     26  C21 ZIN A   1      17.119  -6.891   6.166  0.00  0.00    -0.026 C 
ATOM     27  C22 ZIN A   1      16.155  -6.265   5.540  0.00  0.00    -0.026 C 
BRANCH  27  28
ATOM     28  C23 ZIN A   1      16.294  -5.940   4.074  0.00  0.00     0.007 C 
ATOM     29  C25 ZIN A   1      17.546  -6.622   3.519  0.00  0.00     0.014 C 
BRANCH  28  30
ATOM     30  C26 ZIN A   1      16.418  -4.426   3.897  0.00  0.00    -0.015 C 
ATOM     31  C27 ZIN A   1      17.856  -3.994   4.189  0.00  0.00     0.010 C 
ATOM     32  C28 ZIN A   1      16.055  -4.049   2.458  0.00  0.00     0.010 C 
ENDBRANCH  28  30
ENDBRANCH  27  28
ENDBRANCH  24  26
ENDBRANCH  11  24
TORSDOF 7
ENDMDL
MODEL 8
REMARK VINA RESULT:      -7.9      1.955      2.885
REMARK  7 active torsions:
REMARK  status: ('A' for Active; 'I' for Inactive)
REMARK    1  A    between atoms: C4_4  and  C5_5 
REMARK    2  A    between atoms: C16_15  and  C18_16 
REMARK    3  A    between atoms: C18_16  and  C21_18 
REMARK    4  A    between atoms: C22_19  and  C23_20 
REMARK    5  A    between atoms: C23_20  and  C26_22 
REMARK    6  A    between atoms: C30_26  and  O32_27 
REMARK    7  A    between atoms: C34_29  and  O36_30 
ROOT
ATOM      1  C5  ZIN A   1      19.567  -5.217   9.334  0.00  0.00     0.004 C 
ATOM      2  C6  ZIN A   1      19.523  -3.895   9.171  0.00  0.00    -0.075 C 
ATOM      3  C7  ZIN A   1      19.110  -3.248   7.857  0.00  0.00     0.034 C 
ATOM      4  C8  ZIN A   1      18.037  -2.186   8.091  0.00  0.00     0.005 C 
ATOM      5  C9  ZIN A   1      18.422  -1.228   9.229  0.00  0.00     0.010 C 
ATOM      6  C10 ZIN A   1      18.610  -2.058  10.479  0.00  0.00    -0.032 C 
ATOM      7  C11 ZIN A   1      17.401  -2.976  10.664  0.00  0.00     0.016 C 
ATOM      8  C12 ZIN A   1      19.870  -2.938  10.273  0.00  0.00     0.023 C 
ATOM      9  C14 ZIN A   1      20.050  -3.532  11.671  0.00  0.00     0.010 C 
ATOM     10  C15 ZIN A   1      19.781  -2.315  12.600  0.00  0.00     0.007 C 
ATOM     11  C16 ZIN A   1      18.899  -1.337  11.787  0.00  0.00     0.002 C 
ENDROOT
BRANCH   1  12
ATOM     12  C4  ZIN A   1      19.218  -6.103   8.222  0.00  0.00     0.008 C 
ATOM     13  C3  ZIN A   1      18.014  -6.714   8.198  0.00  0.00    -0.048 C 
ATOM     14  C2  ZIN A   1      17.022  -6.512   9.275  0.00  0.00    -0.033 C 
ATOM     15  C29 ZIN A   1      17.614  -7.638   7.066  0.00  0.00     0.071 C 
ATOM     16  C1  ZIN A   1      17.377  -6.510  10.560  0.00  0.00     0.022 C 
ATOM     17  C34 ZIN A   1      15.582  -6.315   8.848  0.00  0.00     0.153 C 
ATOM     18  C33 ZIN A   1      15.235  -7.371   7.801  0.00  0.00     0.068 C 
ATOM     19  C30 ZIN A   1      16.198  -7.267   6.617  0.00  0.00     0.125 C 
BRANCH  17  20
ATOM     20  O36 ZIN A   1      15.428  -5.010   8.284  0.00  0.00    -0.391 OA
ATOM     21  H74 ZIN A   1      15.028  -5.006   7.404  0.00  0.00     0.210 HD
ENDBRANCH  17  20
BRANCH  19  22
ATOM     22  O32 ZIN A   1      15.777  -8.161   5.584  0.00  0.00    -0.395 OA
ATOM     23  H71 ZIN A   1      14.953  -7.901   5.150  0.00  0.00     0.210 HD
ENDBRANCH  19  22
ENDBRANCH   1  12
BRANCH  11  24
ATOM     24  C18 ZIN A   1      17.596  -1.049  12.535  0.00  0.00     0.008 C 
ATOM     25  C20 ZIN A   1      17.156   0.390  12.258  0.00  0.00     0.014 C 
BRANCH  24  26
ATOM     26  C21 ZIN A   1      17.817  -1.229  14.016  0.00  0.00    -0.026 C 
ATOM     27  C22 ZIN A   1      18.219  -0.219  14.746  0.00  0.00    -0.026 C 
BRANCH  27  28
ATOM     28  C23 ZIN A   1      18.440  -0.399  16.226  0.00  0.00     0.007 C 
ATOM     29  C25 ZIN A   1      17.292  -1.223  16.815  0.00  0.00     0.014 C 
BRANCH  28  30
ATOM     30  C26 ZIN A   1      18.485   0.971  16.905  0.00  0.00    -0.015 C 
ATOM     31  C27 ZIN A   1      19.251   0.860  18.225  0.00  0.00     0.010 C 
ATOM     32  C28 ZIN A   1      19.192   1.971  15.988  0.00  0.00     0.010 C 
ENDBRANCH  28  30
ENDBRANCH  27  28
ENDBRANCH  24  26
ENDBRANCH  11  24
TORSDOF 7
ENDMDL
MODEL 9
REMARK VINA RESULT:      -7.8      1.523      2.250
REMARK  7 active torsions:
REMARK  status: ('A' for Active; 'I' for Inactive)
REMARK    1  A    between atoms: C4_4  and  C5_5 
REMARK    2  A    between atoms: C16_15  and  C18_16 
REMARK    3  A    between atoms: C18_16  and  C21_18 
REMARK    4  A    between atoms: C22_19  and  C23_20 
REMARK    5  A    between atoms: C23_20  and  C26_22 
REMARK    6  A    between atoms: C30_26  and  O32_27 
REMARK    7  A    between atoms: C34_29  and  O36_30 
ROOT
ATOM      1  C5  ZIN A   1      18.518  -3.051   9.318  0.00  0.00     0.004 C 
ATOM      2  C6  ZIN A   1      19.161  -1.912   9.573  0.00  0.00    -0.075 C 
ATOM      3  C7  ZIN A   1      19.468  -0.888   8.491  0.00  0.00     0.034 C 
ATOM      4  C8  ZIN A   1      19.022   0.507   8.925  0.00  0.00     0.005 C 
ATOM      5  C9  ZIN A   1      19.511   0.847  10.342  0.00  0.00     0.010 C 
ATOM      6  C10 ZIN A   1      18.944  -0.193  11.281  0.00  0.00    -0.032 C 
ATOM      7  C11 ZIN A   1      17.442  -0.334  11.033  0.00  0.00     0.016 C 
ATOM      8  C12 ZIN A   1      19.627  -1.545  10.951  0.00  0.00     0.023 C 
ATOM      9  C14 ZIN A   1      19.128  -2.420  12.103  0.00  0.00     0.010 C 
ATOM     10  C15 ZIN A   1      19.250  -1.473  13.331  0.00  0.00     0.007 C 
ATOM     11  C16 ZIN A   1      19.194  -0.032  12.773  0.00  0.00     0.002 C 
ENDROOT
BRANCH   1  12
ATOM     12  C4  ZIN A   1      18.086  -3.357   7.952  0.00  0.00     0.008 C 
ATOM     13  C3  ZIN A   1      18.147  -4.624   7.492  0.00  0.00    -0.048 C 
ATOM     14  C2  ZIN A   1      18.643  -5.731   8.337  0.00  0.00    -0.033 C 
ATOM     15  C29 ZIN A   1      17.709  -4.982   6.086  0.00  0.00     0.071 C 
ATOM     16  C1  ZIN A   1      19.725  -5.595   9.103  0.00  0.00     0.022 C 
ATOM     17  C34 ZIN A   1      17.864  -7.031   8.285  0.00  0.00     0.153 C 
ATOM     18  C33 ZIN A   1      17.583  -7.372   6.823  0.00  0.00     0.068 C 
ATOM     19  C30 ZIN A   1      16.819  -6.226   6.159  0.00  0.00     0.125 C 
BRANCH  17  20
ATOM     20  O36 ZIN A   1      16.630  -6.874   8.989  0.00  0.00    -0.391 OA
ATOM     21  H74 ZIN A   1      16.022  -6.243   8.581  0.00  0.00     0.210 HD
ENDBRANCH  17  20
BRANCH  19  22
ATOM     22  O32 ZIN A   1      16.437  -6.614   4.837  0.00  0.00    -0.395 OA
ATOM     23  H71 ZIN A   1      17.183  -6.816   4.256  0.00  0.00     0.210 HD
ENDBRANCH  19  22
ENDBRANCH   1  12
BRANCH  11  24
ATOM     24  C18 ZIN A   1      18.049   0.747  13.423  0.00  0.00     0.008 C 
ATOM     25  C20 ZIN A   1      18.428   2.226  13.521  0.00  0.00     0.014 C 
BRANCH  24  26
ATOM     26  C21 ZIN A   1      17.793   0.202  14.806  0.00  0.00    -0.026 C 
ATOM     27  C22 ZIN A   1      18.475   0.658  15.826  0.00  0.00    -0.026 C 
BRANCH  27  28
ATOM     28  C23 ZIN A   1      18.219   0.113  17.208  0.00  0.00     0.007 C 
ATOM     29  C25 ZIN A   1      16.756  -0.318  17.322  0.00  0.00     0.014 C 
BRANCH  28  30
ATOM     30  C26 ZIN A   1      18.514   1.197  18.246  0.00  0.00    -0.015 C 
ATOM     31  C27 ZIN A   1      19.201   2.382  17.565  0.00  0.00     0.010 C 
ATOM     32  C28 ZIN A   1      17.201   1.666  18.881  0.00  0.00     0.010 C 
ENDBRANCH  28  30
ENDBRANCH  27  28
ENDBRANCH  24  26
ENDBRANCH  11  24
TORSDOF 7
ENDMDL
