MODEL 1
REMARK VINA RESULT:      -7.0      0.000      0.000
REMARK  5 active torsions:
REMARK  status: ('A' for Active; 'I' for Inactive)
REMARK    1  A    between atoms: N1_1  and  C2_2 
REMARK    2  A    between atoms: N6_6  and  C7_7 
REMARK    3  A    between atoms: C10_9  and  O12_10 
REMARK    4  A    between atoms: C13_11  and  C15_12 
REMARK    5  A    between atoms: C15_12  and  O16_13 
ROOT
ATOM      1  C2  <0> d   1      19.236   2.127   9.907  0.00  0.00     0.157 A 
ATOM      2  C3  <0> d   1      19.260   1.509  11.169  0.00  0.00     0.149 A 
ATOM      3  N4  <0> d   1      19.884   0.424  11.686  0.00  0.00    -0.236 NA
ATOM      4  C5  <0> d   1      19.555   0.290  12.938  0.00  0.00     0.214 A 
ATOM      5  N6  <0> d   1      18.695   1.284  13.302  0.00  0.00    -0.296 N 
ATOM      6  C18 <0> d   1      18.490   2.074  12.200  0.00  0.00     0.169 A 
ATOM      7  N19 <0> d   1      17.772   3.163  11.947  0.00  0.00    -0.198 NA
ATOM      8  C20 <0> d   1      17.779   3.710  10.747  0.00  0.00     0.227 A 
ATOM      9 Cl21 <0> d   1      16.824   5.133  10.471  0.00  0.00    -0.041 Cl
ATOM     10  N22 <0> d   1      18.493   3.217   9.749  0.00  0.00    -0.199 NA
ENDROOT
BRANCH   5  11
ATOM     11  C7  <0> d   1      18.100   1.474  14.628  0.00  0.00     0.233 C 
ATOM     12  O17 <0> d   1      19.132   1.550  15.635  0.00  0.00    -0.356 OA
ATOM     13  C13 <0> d   1      18.470   1.235  16.880  0.00  0.00     0.176 C 
ATOM     14  C10 <0> d   1      17.503   0.082  16.534  0.00  0.00     0.153 C 
ATOM     15  C9  <0> d   1      17.254   0.243  15.018  0.00  0.00     0.088 C 
BRANCH  13  16
ATOM     16  C15 <0> d   1      19.488   0.780  17.928  0.00  0.00     0.198 C 
BRANCH  16  17
ATOM     17  O16 <0> d   1      19.652   1.806  18.909  0.00  0.00    -0.398 OA
ATOM     18  H31 <0> d   1      19.701   1.477  19.818  0.00  0.00     0.209 HD
ENDBRANCH  16  17
ENDBRANCH  13  16
BRANCH  14  19
ATOM     19  O12 <0> d   1      16.279   0.216  17.260  0.00  0.00    -0.393 OA
ATOM     20  H28 <0> d   1      15.591   0.701  16.783  0.00  0.00     0.210 HD
ENDBRANCH  14  19
ENDBRANCH   5  11
BRANCH   1  21
ATOM     21  N1  <0> d   1      19.975   1.616   8.855  0.00  0.00    -0.382 N 
ATOM     22  H23 <0> d   1      19.626   0.878   8.331  0.00  0.00     0.157 HD
ATOM     23  H24 <0> d   1      20.839   1.998   8.638  0.00  0.00     0.157 HD
ENDBRANCH   1  21
TORSDOF 5
ENDMDL
MODEL 2
REMARK VINA RESULT:      -6.7      4.897      6.663
REMARK  5 active torsions:
REMARK  status: ('A' for Active; 'I' for Inactive)
REMARK    1  A    between atoms: N1_1  and  C2_2 
REMARK    2  A    between atoms: N6_6  and  C7_7 
REMARK    3  A    between atoms: C10_9  and  O12_10 
REMARK    4  A    between atoms: C13_11  and  C15_12 
REMARK    5  A    between atoms: C15_12  and  O16_13 
ROOT
ATOM      1  C2  <0> d   1      19.094  -2.453   5.322  0.00  0.00     0.157 A 
ATOM      2  C3  <0> d   1      18.995  -1.141   5.817  0.00  0.00     0.149 A 
ATOM      3  N4  <0> d   1      18.881   0.084   5.252  0.00  0.00    -0.236 NA
ATOM      4  C5  <0> d   1      18.824   0.989   6.186  0.00  0.00     0.214 A 
ATOM      5  N6  <0> d   1      18.898   0.396   7.412  0.00  0.00    -0.296 N 
ATOM      6  C18 <0> d   1      19.007  -0.956   7.210  0.00  0.00     0.169 A 
ATOM      7  N19 <0> d   1      19.112  -2.017   8.003  0.00  0.00    -0.198 NA
ATOM      8  C20 <0> d   1      19.203  -3.230   7.494  0.00  0.00     0.227 A 
ATOM      9 Cl21 <0> d   1      19.337  -4.582   8.574  0.00  0.00    -0.041 Cl
ATOM     10  N22 <0> d   1      19.190  -3.454   6.191  0.00  0.00    -0.199 NA
ENDROOT
BRANCH   5  11
ATOM     11  C7  <0> d   1      18.867   1.080   8.708  0.00  0.00     0.233 C 
ATOM     12  O17 <0> d   1      19.941   0.609   9.550  0.00  0.00    -0.356 OA
ATOM     13  C13 <0> d   1      19.538   0.938  10.898  0.00  0.00     0.176 C 
ATOM     14  C10 <0> d   1      18.026   0.627  10.948  0.00  0.00     0.153 C 
ATOM     15  C9  <0> d   1      17.575   0.722   9.473  0.00  0.00     0.088 C 
BRANCH  13  16
ATOM     16  C15 <0> d   1      20.293   0.075  11.910  0.00  0.00     0.198 C 
BRANCH  16  17
ATOM     17  O16 <0> d   1      21.603   0.610  12.109  0.00  0.00    -0.398 OA
ATOM     18  H31 <0> d   1      22.157   0.602  11.316  0.00  0.00     0.209 HD
ENDBRANCH  16  17
ENDBRANCH  13  16
BRANCH  14  19
ATOM     19  O12 <0> d   1      17.339   1.594  11.745  0.00  0.00    -0.393 OA
ATOM     20  H28 <0> d   1      17.325   1.386  12.690  0.00  0.00     0.210 HD
ENDBRANCH  14  19
ENDBRANCH   5  11
BRANCH   1  21
ATOM     21  N1  <0> d   1      19.087  -2.697   3.959  0.00  0.00    -0.382 N 
ATOM     22  H23 <0> d   1      19.895  -3.004   3.518  0.00  0.00     0.157 HD
ATOM     23  H24 <0> d   1      18.274  -2.566   3.448  0.00  0.00     0.157 HD
ENDBRANCH   1  21
TORSDOF 5
ENDMDL
MODEL 3
REMARK VINA RESULT:      -6.6      3.899      6.568
REMARK  5 active torsions:
REMARK  status: ('A' for Active; 'I' for Inactive)
REMARK    1  A    between atoms: N1_1  and  C2_2 
REMARK    2  A    between atoms: N6_6  and  C7_7 
REMARK    3  A    between atoms: C10_9  and  O12_10 
REMARK    4  A    between atoms: C13_11  and  C15_12 
REMARK    5  A    between atoms: C15_12  and  O16_13 
ROOT
ATOM      1  C2  <0> d   1      18.984   2.723  18.384  0.00  0.00     0.157 A 
ATOM      2  C3  <0> d   1      18.734   3.238  17.101  0.00  0.00     0.149 A 
ATOM      3  N4  <0> d   1      18.465   4.469  16.605  0.00  0.00    -0.236 NA
ATOM      4  C5  <0> d   1      18.313   4.394  15.315  0.00  0.00     0.214 A 
ATOM      5  N6  <0> d   1      18.476   3.104  14.902  0.00  0.00    -0.296 N 
ATOM      6  C18 <0> d   1      18.745   2.347  16.014  0.00  0.00     0.169 A 
ATOM      7  N19 <0> d   1      18.989   1.060  16.236  0.00  0.00    -0.198 NA
ATOM      8  C20 <0> d   1      19.218   0.620  17.458  0.00  0.00     0.227 A 
ATOM      9 Cl21 <0> d   1      19.532  -1.070  17.693  0.00  0.00    -0.041 Cl
ATOM     10  N22 <0> d   1      19.223   1.422  18.509  0.00  0.00    -0.199 NA
ENDROOT
BRANCH   5  11
ATOM     11  C7  <0> d   1      18.383   2.616  13.523  0.00  0.00     0.233 C 
ATOM     12  O17 <0> d   1      19.041   1.338  13.397  0.00  0.00    -0.356 OA
ATOM     13  C13 <0> d   1      19.328   1.197  11.987  0.00  0.00     0.176 C 
ATOM     14  C10 <0> d   1      19.786   2.600  11.534  0.00  0.00     0.153 C 
ATOM     15  C9  <0> d   1      19.150   3.556  12.568  0.00  0.00     0.088 C 
BRANCH  13  16
ATOM     16  C15 <0> d   1      20.444   0.175  11.767  0.00  0.00     0.198 C 
BRANCH  16  17
ATOM     17  O16 <0> d   1      21.681   0.709  12.243  0.00  0.00    -0.398 OA
ATOM     18  H31 <0> d   1      22.177   1.206  11.578  0.00  0.00     0.209 HD
ENDBRANCH  16  17
ENDBRANCH  13  16
BRANCH  14  19
ATOM     19  O12 <0> d   1      19.301   2.888  10.221  0.00  0.00    -0.393 OA
ATOM     20  H28 <0> d   1      18.709   2.213   9.863  0.00  0.00     0.210 HD
ENDBRANCH  14  19
ENDBRANCH   5  11
BRANCH   1  21
ATOM     21  N1  <0> d   1      18.986   3.553  19.492  0.00  0.00    -0.382 N 
ATOM     22  H23 <0> d   1      18.157   3.954  19.798  0.00  0.00     0.157 HD
ATOM     23  H24 <0> d   1      19.814   3.729  19.964  0.00  0.00     0.157 HD
ENDBRANCH   1  21
TORSDOF 5
ENDMDL
MODEL 4
REMARK VINA RESULT:      -6.6      1.824      3.133
REMARK  5 active torsions:
REMARK  status: ('A' for Active; 'I' for Inactive)
REMARK    1  A    between atoms: N1_1  and  C2_2 
REMARK    2  A    between atoms: N6_6  and  C7_7 
REMARK    3  A    between atoms: C10_9  and  O12_10 
REMARK    4  A    between atoms: C13_11  and  C15_12 
REMARK    5  A    between atoms: C15_12  and  O16_13 
ROOT
ATOM      1  C2  <0> d   1      17.670   4.327  10.872  0.00  0.00     0.157 A 
ATOM      2  C3  <0> d   1      17.795   4.134  12.259  0.00  0.00     0.149 A 
ATOM      3  N4  <0> d   1      17.405   4.826  13.355  0.00  0.00    -0.236 NA
ATOM      4  C5  <0> d   1      17.782   4.190  14.426  0.00  0.00     0.214 A 
ATOM      5  N6  <0> d   1      18.439   3.046  14.080  0.00  0.00    -0.296 N 
ATOM      6  C18 <0> d   1      18.463   2.983  12.711  0.00  0.00     0.169 A 
ATOM      7  N19 <0> d   1      18.949   2.126  11.819  0.00  0.00    -0.198 NA
ATOM      8  C20 <0> d   1      18.809   2.348  10.527  0.00  0.00     0.227 A 
ATOM      9 Cl21 <0> d   1      19.463   1.196   9.405  0.00  0.00    -0.041 Cl
ATOM     10  N22 <0> d   1      18.184   3.413  10.056  0.00  0.00    -0.199 NA
ENDROOT
BRANCH   5  11
ATOM     11  C7  <0> d   1      19.015   2.064  15.004  0.00  0.00     0.233 C 
ATOM     12  O17 <0> d   1      18.138   0.925  15.136  0.00  0.00    -0.356 OA
ATOM     13  C13 <0> d   1      18.517   0.296  16.380  0.00  0.00     0.176 C 
ATOM     14  C10 <0> d   1      18.779   1.467  17.353  0.00  0.00     0.153 C 
ATOM     15  C9  <0> d   1      19.114   2.657  16.426  0.00  0.00     0.088 C 
BRANCH  13  16
ATOM     16  C15 <0> d   1      17.384  -0.588  16.903  0.00  0.00     0.198 C 
BRANCH  16  17
ATOM     17  O16 <0> d   1      16.215   0.208  17.107  0.00  0.00    -0.398 OA
ATOM     18  H31 <0> d   1      15.387  -0.293  17.079  0.00  0.00     0.209 HD
ENDBRANCH  16  17
ENDBRANCH  13  16
BRANCH  14  19
ATOM     19  O12 <0> d   1      19.885   1.173  18.209  0.00  0.00    -0.393 OA
ATOM     20  H28 <0> d   1      19.741   1.415  19.134  0.00  0.00     0.210 HD
ENDBRANCH  14  19
ENDBRANCH   5  11
BRANCH   1  21
ATOM     21  N1  <0> d   1      17.022   5.442  10.369  0.00  0.00    -0.382 N 
ATOM     22  H23 <0> d   1      17.531   6.142   9.931  0.00  0.00     0.157 HD
ATOM     23  H24 <0> d   1      16.059   5.520  10.449  0.00  0.00     0.157 HD
ENDBRANCH   1  21
TORSDOF 5
ENDMDL
MODEL 5
REMARK VINA RESULT:      -6.6      4.921      6.052
REMARK  5 active torsions:
REMARK  status: ('A' for Active; 'I' for Inactive)
REMARK    1  A    between atoms: N1_1  and  C2_2 
REMARK    2  A    between atoms: N6_6  and  C7_7 
REMARK    3  A    between atoms: C10_9  and  O12_10 
REMARK    4  A    between atoms: C13_11  and  C15_12 
REMARK    5  A    between atoms: C15_12  and  O16_13 
ROOT
ATOM      1  C2  <0> d   1      19.167  -3.813   6.344  0.00  0.00     0.157 A 
ATOM      2  C3  <0> d   1      18.834  -3.530   7.680  0.00  0.00     0.149 A 
ATOM      3  N4  <0> d   1      18.559  -4.281   8.773  0.00  0.00    -0.236 NA
ATOM      4  C5  <0> d   1      18.308  -3.501   9.784  0.00  0.00     0.214 A 
ATOM      5  N6  <0> d   1      18.407  -2.196   9.399  0.00  0.00    -0.296 N 
ATOM      6  C18 <0> d   1      18.740  -2.183   8.069  0.00  0.00     0.169 A 
ATOM      7  N19 <0> d   1      18.967  -1.233   7.168  0.00  0.00    -0.198 NA
ATOM      8  C20 <0> d   1      19.277  -1.544   5.926  0.00  0.00     0.227 A 
ATOM      9 Cl21 <0> d   1      19.565  -0.265   4.789  0.00  0.00    -0.041 Cl
ATOM     10  N22 <0> d   1      19.383  -2.797   5.516  0.00  0.00    -0.199 NA
ENDROOT
BRANCH   5  11
ATOM     11  C7  <0> d   1      18.196  -1.023  10.253  0.00  0.00     0.233 C 
ATOM     12  O17 <0> d   1      19.463  -0.455  10.647  0.00  0.00    -0.356 OA
ATOM     13  C13 <0> d   1      19.177   0.327  11.828  0.00  0.00     0.176 C 
ATOM     14  C10 <0> d   1      18.176  -0.527  12.636  0.00  0.00     0.153 C 
ATOM     15  C9  <0> d   1      17.516  -1.436  11.576  0.00  0.00     0.088 C 
BRANCH  13  16
ATOM     16  C15 <0> d   1      20.453   0.562  12.638  0.00  0.00     0.198 C 
BRANCH  16  17
ATOM     17  O16 <0> d   1      21.593   0.295  11.820  0.00  0.00    -0.398 OA
ATOM     18  H31 <0> d   1      22.406   0.720  12.126  0.00  0.00     0.209 HD
ENDBRANCH  16  17
ENDBRANCH  13  16
BRANCH  14  19
ATOM     19  O12 <0> d   1      17.196   0.303  13.264  0.00  0.00    -0.393 OA
ATOM     20  H28 <0> d   1      17.485   1.216  13.402  0.00  0.00     0.210 HD
ENDBRANCH  14  19
ENDBRANCH   5  11
BRANCH   1  21
ATOM     21  N1  <0> d   1      19.275  -5.121   5.904  0.00  0.00    -0.382 N 
ATOM     22  H23 <0> d   1      18.644  -5.466   5.253  0.00  0.00     0.157 HD
ATOM     23  H24 <0> d   1      19.983  -5.690   6.242  0.00  0.00     0.157 HD
ENDBRANCH   1  21
TORSDOF 5
ENDMDL
MODEL 6
REMARK VINA RESULT:      -6.5      3.795      6.019
REMARK  5 active torsions:
REMARK  status: ('A' for Active; 'I' for Inactive)
REMARK    1  A    between atoms: N1_1  and  C2_2 
REMARK    2  A    between atoms: N6_6  and  C7_7 
REMARK    3  A    between atoms: C10_9  and  O12_10 
REMARK    4  A    between atoms: C13_11  and  C15_12 
REMARK    5  A    between atoms: C15_12  and  O16_13 
ROOT
ATOM      1  C2  <0> d   1      19.512   4.543  16.280  0.00  0.00     0.157 A 
ATOM      2  C3  <0> d   1      19.160   4.255  14.950  0.00  0.00     0.149 A 
ATOM      3  N4  <0> d   1      18.994   4.995  13.828  0.00  0.00    -0.236 NA
ATOM      4  C5  <0> d   1      18.659   4.217  12.841  0.00  0.00     0.214 A 
ATOM      5  N6  <0> d   1      18.589   2.925  13.270  0.00  0.00    -0.296 N 
ATOM      6  C18 <0> d   1      18.903   2.917  14.605  0.00  0.00     0.169 A 
ATOM      7  N19 <0> d   1      18.999   1.979  15.542  0.00  0.00    -0.198 NA
ATOM      8  C20 <0> d   1      19.332   2.294  16.777  0.00  0.00     0.227 A 
ATOM      9 Cl21 <0> d   1      19.445   1.030  17.962  0.00  0.00    -0.041 Cl
ATOM     10  N22 <0> d   1      19.589   3.538  17.146  0.00  0.00    -0.199 NA
ENDROOT
BRANCH   5  11
ATOM     11  C7  <0> d   1      18.243   1.757  12.455  0.00  0.00     0.233 C 
ATOM     12  O17 <0> d   1      19.376   0.870  12.341  0.00  0.00    -0.356 OA
ATOM     13  C13 <0> d   1      19.112   0.066  11.169  0.00  0.00     0.176 C 
ATOM     14  C10 <0> d   1      18.513   1.050  10.141  0.00  0.00     0.153 C 
ATOM     15  C9  <0> d   1      17.928   2.188  11.006  0.00  0.00     0.088 C 
BRANCH  13  16
ATOM     16  C15 <0> d   1      20.409  -0.542  10.633  0.00  0.00     0.198 C 
BRANCH  16  17
ATOM     17  O16 <0> d   1      21.515  -0.058  11.398  0.00  0.00    -0.398 OA
ATOM     18  H31 <0> d   1      22.350  -0.508  11.211  0.00  0.00     0.209 HD
ENDBRANCH  16  17
ENDBRANCH  13  16
BRANCH  14  19
ATOM     19  O12 <0> d   1      17.481   0.418   9.381  0.00  0.00    -0.393 OA
ATOM     20  H28 <0> d   1      17.252   0.883   8.565  0.00  0.00     0.210 HD
ENDBRANCH  14  19
ENDBRANCH   5  11
BRANCH   1  21
ATOM     21  N1  <0> d   1      19.778   5.842  16.677  0.00  0.00    -0.382 N 
ATOM     22  H23 <0> d   1      20.073   6.497  16.025  0.00  0.00     0.157 HD
ATOM     23  H24 <0> d   1      19.663   6.098  17.605  0.00  0.00     0.157 HD
ENDBRANCH   1  21
TORSDOF 5
ENDMDL
MODEL 7
REMARK VINA RESULT:      -6.5      5.285      6.977
REMARK  5 active torsions:
REMARK  status: ('A' for Active; 'I' for Inactive)
REMARK    1  A    between atoms: N1_1  and  C2_2 
REMARK    2  A    between atoms: N6_6  and  C7_7 
REMARK    3  A    between atoms: C10_9  and  O12_10 
REMARK    4  A    between atoms: C13_11  and  C15_12 
REMARK    5  A    between atoms: C15_12  and  O16_13 
ROOT
ATOM      1  C2  <0> d   1      19.310  -4.635   7.275  0.00  0.00     0.157 A 
ATOM      2  C3  <0> d   1      19.320  -3.243   7.084  0.00  0.00     0.149 A 
ATOM      3  N4  <0> d   1      19.444  -2.430   6.009  0.00  0.00    -0.236 NA
ATOM      4  C5  <0> d   1      19.385  -1.188   6.394  0.00  0.00     0.214 A 
ATOM      5  N6  <0> d   1      19.218  -1.129   7.746  0.00  0.00    -0.296 N 
ATOM      6  C18 <0> d   1      19.173  -2.418   8.213  0.00  0.00     0.169 A 
ATOM      7  N19 <0> d   1      19.031  -2.979   9.409  0.00  0.00    -0.198 NA
ATOM      8  C20 <0> d   1      19.028  -4.290   9.541  0.00  0.00     0.227 A 
ATOM      9 Cl21 <0> d   1      18.839  -4.971  11.126  0.00  0.00    -0.041 Cl
ATOM     10  N22 <0> d   1      19.157  -5.106   8.508  0.00  0.00    -0.199 NA
ENDROOT
BRANCH   5  11
ATOM     11  C7  <0> d   1      19.107   0.089   8.553  0.00  0.00     0.233 C 
ATOM     12  O17 <0> d   1      20.052   0.057   9.644  0.00  0.00    -0.356 OA
ATOM     13  C13 <0> d   1      19.541   0.996  10.617  0.00  0.00     0.176 C 
ATOM     14  C10 <0> d   1      18.013   0.771  10.619  0.00  0.00     0.153 C 
ATOM     15  C9  <0> d   1      17.721   0.161   9.230  0.00  0.00     0.088 C 
BRANCH  13  16
ATOM     16  C15 <0> d   1      20.124   0.705  12.001  0.00  0.00     0.198 C 
BRANCH  16  17
ATOM     17  O16 <0> d   1      21.522   0.433  11.881  0.00  0.00    -0.398 OA
ATOM     18  H31 <0> d   1      22.083   1.006  12.422  0.00  0.00     0.209 HD
ENDBRANCH  16  17
ENDBRANCH  13  16
BRANCH  14  19
ATOM     19  O12 <0> d   1      17.322   2.012  10.776  0.00  0.00    -0.393 OA
ATOM     20  H28 <0> d   1      17.853   2.789  10.553  0.00  0.00     0.210 HD
ENDBRANCH  14  19
ENDBRANCH   5  11
BRANCH   1  21
ATOM     21  N1  <0> d   1      19.450  -5.497   6.201  0.00  0.00    -0.382 N 
ATOM     22  H23 <0> d   1      18.931  -5.354   5.393  0.00  0.00     0.157 HD
ATOM     23  H24 <0> d   1      20.071  -6.240   6.253  0.00  0.00     0.157 HD
ENDBRANCH   1  21
TORSDOF 5
ENDMDL
MODEL 8
REMARK VINA RESULT:      -6.4      2.870      3.554
REMARK  5 active torsions:
REMARK  status: ('A' for Active; 'I' for Inactive)
REMARK    1  A    between atoms: N1_1  and  C2_2 
REMARK    2  A    between atoms: N6_6  and  C7_7 
REMARK    3  A    between atoms: C10_9  and  O12_10 
REMARK    4  A    between atoms: C13_11  and  C15_12 
REMARK    5  A    between atoms: C15_12  and  O16_13 
ROOT
ATOM      1  C2  <0> d   1      19.548  -1.153  10.495  0.00  0.00     0.157 A 
ATOM      2  C3  <0> d   1      19.443  -0.214  11.535  0.00  0.00     0.149 A 
ATOM      3  N4  <0> d   1      19.849   1.067  11.706  0.00  0.00    -0.236 NA
ATOM      4  C5  <0> d   1      19.485   1.484  12.883  0.00  0.00     0.214 A 
ATOM      5  N6  <0> d   1      18.819   0.493  13.542  0.00  0.00    -0.296 N 
ATOM      6  C18 <0> d   1      18.776  -0.597  12.711  0.00  0.00     0.169 A 
ATOM      7  N19 <0> d   1      18.275  -1.825  12.798  0.00  0.00    -0.198 NA
ATOM      8  C20 <0> d   1      18.398  -2.674  11.798  0.00  0.00     0.227 A 
ATOM      9 Cl21 <0> d   1      17.723  -4.265  11.964  0.00  0.00    -0.041 Cl
ATOM     10  N22 <0> d   1      19.011  -2.356  10.671  0.00  0.00    -0.199 NA
ENDROOT
BRANCH   5  11
ATOM     11  C7  <0> d   1      18.253   0.577  14.892  0.00  0.00     0.233 C 
ATOM     12  O17 <0> d   1      18.556   1.859  15.484  0.00  0.00    -0.356 OA
ATOM     13  C13 <0> d   1      18.415   1.661  16.909  0.00  0.00     0.176 C 
ATOM     14  C10 <0> d   1      19.032   0.271  17.178  0.00  0.00     0.153 C 
ATOM     15  C9  <0> d   1      18.923  -0.459  15.821  0.00  0.00     0.088 C 
BRANCH  13  16
ATOM     16  C15 <0> d   1      19.178   2.741  17.678  0.00  0.00     0.198 C 
BRANCH  16  17
ATOM     17  O16 <0> d   1      19.588   2.223  18.945  0.00  0.00    -0.398 OA
ATOM     18  H31 <0> d   1      20.438   2.565  19.254  0.00  0.00     0.209 HD
ENDBRANCH  16  17
ENDBRANCH  13  16
BRANCH  14  19
ATOM     19  O12 <0> d   1      18.287  -0.424  18.181  0.00  0.00    -0.393 OA
ATOM     20  H28 <0> d   1      17.328  -0.347  18.083  0.00  0.00     0.210 HD
ENDBRANCH  14  19
ENDBRANCH   5  11
BRANCH   1  21
ATOM     21  N1  <0> d   1      20.193  -0.832   9.313  0.00  0.00    -0.382 N 
ATOM     22  H23 <0> d   1      20.669  -1.518   8.819  0.00  0.00     0.157 HD
ATOM     23  H24 <0> d   1      20.164   0.077   8.977  0.00  0.00     0.157 HD
ENDBRANCH   1  21
TORSDOF 5
ENDMDL
MODEL 9
REMARK VINA RESULT:      -6.4      5.362      7.350
REMARK  5 active torsions:
REMARK  status: ('A' for Active; 'I' for Inactive)
REMARK    1  A    between atoms: N1_1  and  C2_2 
REMARK    2  A    between atoms: N6_6  and  C7_7 
REMARK    3  A    between atoms: C10_9  and  O12_10 
REMARK    4  A    between atoms: C13_11  and  C15_12 
REMARK    5  A    between atoms: C15_12  and  O16_13 
ROOT
ATOM      1  C2  <0> d   1      18.226  -2.683   4.821  0.00  0.00     0.157 A 
ATOM      2  C3  <0> d   1      18.199  -1.523   5.614  0.00  0.00     0.149 A 
ATOM      3  N4  <0> d   1      17.648  -0.293   5.483  0.00  0.00    -0.236 NA
ATOM      4  C5  <0> d   1      17.931   0.423   6.532  0.00  0.00     0.214 A 
ATOM      5  N6  <0> d   1      18.684  -0.307   7.404  0.00  0.00    -0.296 N 
ATOM      6  C18 <0> d   1      18.870  -1.547   6.849  0.00  0.00     0.169 A 
ATOM      7  N19 <0> d   1      19.501  -2.656   7.219  0.00  0.00    -0.198 NA
ATOM      8  C20 <0> d   1      19.501  -3.721   6.443  0.00  0.00     0.227 A 
ATOM      9 Cl21 <0> d   1      20.341  -5.144   6.975  0.00  0.00    -0.041 Cl
ATOM     10  N22 <0> d   1      18.879  -3.747   5.276  0.00  0.00    -0.199 NA
ENDROOT
BRANCH   5  11
ATOM     11  C7  <0> d   1      19.199   0.150   8.697  0.00  0.00     0.233 C 
ATOM     12  O17 <0> d   1      18.268  -0.175   9.752  0.00  0.00    -0.356 OA
ATOM     13  C13 <0> d   1      18.599   0.717  10.839  0.00  0.00     0.176 C 
ATOM     14  C10 <0> d   1      18.901   2.072  10.162  0.00  0.00     0.153 C 
ATOM     15  C9  <0> d   1      19.304   1.690   8.720  0.00  0.00     0.088 C 
BRANCH  13  16
ATOM     16  C15 <0> d   1      17.418   0.853  11.801  0.00  0.00     0.198 C 
BRANCH  16  17
ATOM     17  O16 <0> d   1      16.286   0.167  11.265  0.00  0.00    -0.398 OA
ATOM     18  H31 <0> d   1      15.571   0.752  10.977  0.00  0.00     0.209 HD
ENDBRANCH  16  17
ENDBRANCH  13  16
BRANCH  14  19
ATOM     19  O12 <0> d   1      19.979   2.737  10.823  0.00  0.00    -0.393 OA
ATOM     20  H28 <0> d   1      19.698   3.331  11.533  0.00  0.00     0.210 HD
ENDBRANCH  14  19
ENDBRANCH   5  11
BRANCH   1  21
ATOM     21  N1  <0> d   1      17.582  -2.718   3.596  0.00  0.00    -0.382 N 
ATOM     22  H23 <0> d   1      17.722  -3.468   2.996  0.00  0.00     0.157 HD
ATOM     23  H24 <0> d   1      16.988  -1.996   3.340  0.00  0.00     0.157 HD
ENDBRANCH   1  21
TORSDOF 5
ENDMDL
