MODEL 1
REMARK VINA RESULT:      -6.2      0.000      0.000
REMARK  1 active torsions:
REMARK  status: ('A' for Active; 'I' for Inactive)
REMARK    1  A    between atoms: C4_3  and  C6_4 
ROOT
ATOM      1  C1  ZIN A   1      17.916   3.573  10.268  0.00  0.00     0.043 C 
ATOM      2  C2  ZIN A   1      18.302   2.319  11.056  0.00  0.00     0.217 C 
ATOM      3  C4  ZIN A   1      19.357   1.531  10.275  0.00  0.00     0.184 C 
ATOM      4  O12 ZIN A   1      19.756   0.390  11.040  0.00  0.00    -0.377 OA
ATOM      5  C13 ZIN A   1      20.277   0.718  12.331  0.00  0.00     0.196 C 
ATOM      6  C14 ZIN A   1      19.223   1.504  13.115  0.00  0.00     0.261 C 
ATOM      7  N15 ZIN A   1      18.853   2.710  12.361  0.00  0.00    -0.066 N 
ATOM      8  H16 ZIN A   1      19.669   3.285  12.223  0.00  0.00     0.280 HD
ATOM      9  C17 ZIN A   1      17.842   3.466  13.113  0.00  0.00     0.270 C 
ENDROOT
BRANCH   3  10
ATOM     10  C6  ZIN A   1      18.777   1.079   8.960  0.00  0.00    -0.027 A 
ATOM     11  C11 ZIN A   1      19.308   1.546   7.773  0.00  0.00     0.010 A 
ATOM     12  C10 ZIN A   1      18.778   1.127   6.566  0.00  0.00     0.001 A 
ATOM     13  C9  ZIN A   1      17.711   0.250   6.548  0.00  0.00     0.000 A 
ATOM     14  C8  ZIN A   1      17.176  -0.213   7.735  0.00  0.00     0.001 A 
ATOM     15  C7  ZIN A   1      17.708   0.201   8.941  0.00  0.00     0.010 A 
ENDBRANCH   3  10
TORSDOF 1
ENDMDL
MODEL 2
REMARK VINA RESULT:      -6.1      1.354      2.350
REMARK  1 active torsions:
REMARK  status: ('A' for Active; 'I' for Inactive)
REMARK    1  A    between atoms: C4_3  and  C6_4 
ROOT
ATOM      1  C1  ZIN A   1      19.769  -0.863  10.222  0.00  0.00     0.043 C 
ATOM      2  C2  ZIN A   1      19.444   0.611  10.472  0.00  0.00     0.217 C 
ATOM      3  C4  ZIN A   1      18.071   0.938   9.879  0.00  0.00     0.184 C 
ATOM      4  O12 ZIN A   1      17.748   2.302  10.164  0.00  0.00    -0.377 OA
ATOM      5  C13 ZIN A   1      17.740   2.611  11.561  0.00  0.00     0.196 C 
ATOM      6  C14 ZIN A   1      19.113   2.286  12.156  0.00  0.00     0.261 C 
ATOM      7  N15 ZIN A   1      19.425   0.870  11.919  0.00  0.00    -0.066 N 
ATOM      8  H16 ZIN A   1      18.723   0.292  12.355  0.00  0.00     0.280 HD
ATOM      9  C17 ZIN A   1      20.743   0.557  12.490  0.00  0.00     0.270 C 
ENDROOT
BRANCH   3  10
ATOM     10  C6  ZIN A   1      18.104   0.728   8.387  0.00  0.00    -0.027 A 
ATOM     11  C11 ZIN A   1      19.034   1.398   7.615  0.00  0.00     0.010 A 
ATOM     12  C10 ZIN A   1      19.067   1.202   6.247  0.00  0.00     0.001 A 
ATOM     13  C9  ZIN A   1      18.164   0.343   5.651  0.00  0.00     0.000 A 
ATOM     14  C8  ZIN A   1      17.231  -0.323   6.422  0.00  0.00     0.001 A 
ATOM     15  C7  ZIN A   1      17.200  -0.131   7.791  0.00  0.00     0.010 A 
ENDBRANCH   3  10
TORSDOF 1
ENDMDL
MODEL 3
REMARK VINA RESULT:      -5.9      3.016      5.436
REMARK  1 active torsions:
REMARK  status: ('A' for Active; 'I' for Inactive)
REMARK    1  A    between atoms: C4_3  and  C6_4 
ROOT
ATOM      1  C1  ZIN A   1      16.669  -0.062   6.208  0.00  0.00     0.043 C 
ATOM      2  C2  ZIN A   1      17.959  -0.850   6.443  0.00  0.00     0.217 C 
ATOM      3  C4  ZIN A   1      18.136  -1.105   7.942  0.00  0.00     0.184 C 
ATOM      4  O12 ZIN A   1      19.314  -1.890   8.152  0.00  0.00    -0.377 OA
ATOM      5  C13 ZIN A   1      19.299  -3.142   7.463  0.00  0.00     0.196 C 
ATOM      6  C14 ZIN A   1      19.124  -2.891   5.963  0.00  0.00     0.261 C 
ATOM      7  N15 ZIN A   1      17.885  -2.136   5.735  0.00  0.00    -0.066 N 
ATOM      8  H16 ZIN A   1      17.100  -2.665   6.082  0.00  0.00     0.280 HD
ATOM      9  C17 ZIN A   1      17.715  -1.894   4.296  0.00  0.00     0.270 C 
ENDROOT
BRANCH   3  10
ATOM     10  C6  ZIN A   1      18.271   0.211   8.664  0.00  0.00    -0.027 A 
ATOM     11  C11 ZIN A   1      19.142   1.173   8.190  0.00  0.00     0.010 A 
ATOM     12  C10 ZIN A   1      19.262   2.382   8.850  0.00  0.00     0.001 A 
ATOM     13  C9  ZIN A   1      18.518   2.625   9.989  0.00  0.00     0.000 A 
ATOM     14  C8  ZIN A   1      17.650   1.660  10.465  0.00  0.00     0.001 A 
ATOM     15  C7  ZIN A   1      17.526   0.454   9.803  0.00  0.00     0.010 A 
ENDBRANCH   3  10
TORSDOF 1
ENDMDL
MODEL 4
REMARK VINA RESULT:      -5.8      2.937      6.013
REMARK  1 active torsions:
REMARK  status: ('A' for Active; 'I' for Inactive)
REMARK    1  A    between atoms: C4_3  and  C6_4 
ROOT
ATOM      1  C1  ZIN A   1      17.637  -1.585  11.984  0.00  0.00     0.043 C 
ATOM      2  C2  ZIN A   1      17.975  -0.093  12.023  0.00  0.00     0.217 C 
ATOM      3  C4  ZIN A   1      19.101   0.148  13.032  0.00  0.00     0.184 C 
ATOM      4  O12 ZIN A   1      19.452   1.535  13.024  0.00  0.00    -0.377 OA
ATOM      5  C13 ZIN A   1      19.860   2.017  11.741  0.00  0.00     0.196 C 
ATOM      6  C14 ZIN A   1      18.735   1.778  10.730  0.00  0.00     0.261 C 
ATOM      7  N15 ZIN A   1      18.411   0.346  10.690  0.00  0.00    -0.066 N 
ATOM      8  H16 ZIN A   1      19.228  -0.177  10.414  0.00  0.00     0.280 HD
ATOM      9  C17 ZIN A   1      17.331   0.115   9.721  0.00  0.00     0.270 C 
ENDROOT
BRANCH   3  10
ATOM     10  C6  ZIN A   1      18.637  -0.247  14.409  0.00  0.00    -0.027 A 
ATOM     11  C11 ZIN A   1      19.280  -1.263  15.091  0.00  0.00     0.010 A 
ATOM     12  C10 ZIN A   1      18.857  -1.622  16.357  0.00  0.00     0.001 A 
ATOM     13  C9  ZIN A   1      17.784  -0.972  16.937  0.00  0.00     0.000 A 
ATOM     14  C8  ZIN A   1      17.138   0.040  16.253  0.00  0.00     0.001 A 
ATOM     15  C7  ZIN A   1      17.563   0.403  14.990  0.00  0.00     0.010 A 
ENDBRANCH   3  10
TORSDOF 1
ENDMDL
MODEL 5
REMARK VINA RESULT:      -5.8      2.325      3.289
REMARK  1 active torsions:
REMARK  status: ('A' for Active; 'I' for Inactive)
REMARK    1  A    between atoms: C4_3  and  C6_4 
ROOT
ATOM      1  C1  ZIN A   1      18.918  -2.396   9.734  0.00  0.00     0.043 C 
ATOM      2  C2  ZIN A   1      18.572  -1.199  10.623  0.00  0.00     0.217 C 
ATOM      3  C4  ZIN A   1      17.406  -0.424  10.005  0.00  0.00     0.184 C 
ATOM      4  O12 ZIN A   1      17.051   0.660  10.868  0.00  0.00    -0.377 OA
ATOM      5  C13 ZIN A   1      16.690   0.248  12.189  0.00  0.00     0.196 C 
ATOM      6  C14 ZIN A   1      17.855  -0.526  12.811  0.00  0.00     0.261 C 
ATOM      7  N15 ZIN A   1      18.187  -1.677  11.959  0.00  0.00    -0.066 N 
ATOM      8  H16 ZIN A   1      17.384  -2.281  11.882  0.00  0.00     0.280 HD
ATOM      9  C17 ZIN A   1      19.306  -2.421  12.555  0.00  0.00     0.270 C 
ENDROOT
BRANCH   3  10
ATOM     10  C6  ZIN A   1      17.818   0.116   8.660  0.00  0.00    -0.027 A 
ATOM     11  C11 ZIN A   1      18.813   1.070   8.573  0.00  0.00     0.010 A 
ATOM     12  C10 ZIN A   1      19.194   1.562   7.338  0.00  0.00     0.001 A 
ATOM     13  C9  ZIN A   1      18.572   1.105   6.191  0.00  0.00     0.000 A 
ATOM     14  C8  ZIN A   1      17.573   0.154   6.279  0.00  0.00     0.001 A 
ATOM     15  C7  ZIN A   1      17.195  -0.341   7.513  0.00  0.00     0.010 A 
ENDBRANCH   3  10
TORSDOF 1
ENDMDL
MODEL 6
REMARK VINA RESULT:      -5.6      3.258      4.497
REMARK  1 active torsions:
REMARK  status: ('A' for Active; 'I' for Inactive)
REMARK    1  A    between atoms: C4_3  and  C6_4 
ROOT
ATOM      1  C1  ZIN A   1      19.627  -0.746   8.982  0.00  0.00     0.043 C 
ATOM      2  C2  ZIN A   1      19.218  -0.076  10.296  0.00  0.00     0.217 C 
ATOM      3  C4  ZIN A   1      19.796  -0.866  11.473  0.00  0.00     0.184 C 
ATOM      4  O12 ZIN A   1      19.458  -0.205  12.696  0.00  0.00    -0.377 OA
ATOM      5  C13 ZIN A   1      19.922   1.146  12.766  0.00  0.00     0.196 C 
ATOM      6  C14 ZIN A   1      19.344   1.939  11.590  0.00  0.00     0.261 C 
ATOM      7  N15 ZIN A   1      19.738   1.298  10.328  0.00  0.00    -0.066 N 
ATOM      8  H16 ZIN A   1      20.744   1.279  10.260  0.00  0.00     0.280 HD
ATOM      9  C17 ZIN A   1      19.184   2.058   9.199  0.00  0.00     0.270 C 
ENDROOT
BRANCH   3  10
ATOM     10  C6  ZIN A   1      19.220  -2.258  11.476  0.00  0.00    -0.027 A 
ATOM     11  C11 ZIN A   1      17.851  -2.440  11.484  0.00  0.00     0.010 A 
ATOM     12  C10 ZIN A   1      17.323  -3.718  11.482  0.00  0.00     0.001 A 
ATOM     13  C9  ZIN A   1      18.165  -4.813  11.482  0.00  0.00     0.000 A 
ATOM     14  C8  ZIN A   1      19.535  -4.631  11.480  0.00  0.00     0.001 A 
ATOM     15  C7  ZIN A   1      20.063  -3.354  11.477  0.00  0.00     0.010 A 
ENDBRANCH   3  10
TORSDOF 1
ENDMDL
MODEL 7
REMARK VINA RESULT:      -5.5      2.012      4.847
REMARK  1 active torsions:
REMARK  status: ('A' for Active; 'I' for Inactive)
REMARK    1  A    between atoms: C4_3  and  C6_4 
ROOT
ATOM      1  C1  ZIN A   1      18.634   0.230  11.550  0.00  0.00     0.043 C 
ATOM      2  C2  ZIN A   1      18.340   0.714  10.128  0.00  0.00     0.217 C 
ATOM      3  C4  ZIN A   1      19.162   1.973   9.838  0.00  0.00     0.184 C 
ATOM      4  O12 ZIN A   1      18.926   2.389   8.489  0.00  0.00    -0.377 OA
ATOM      5  C13 ZIN A   1      19.242   1.390   7.517  0.00  0.00     0.196 C 
ATOM      6  C14 ZIN A   1      18.421   0.130   7.803  0.00  0.00     0.261 C 
ATOM      7  N15 ZIN A   1      18.703  -0.337   9.167  0.00  0.00    -0.066 N 
ATOM      8  H16 ZIN A   1      19.685  -0.548   9.254  0.00  0.00     0.280 HD
ATOM      9  C17 ZIN A   1      17.915  -1.547   9.444  0.00  0.00     0.270 C 
ENDROOT
BRANCH   3  10
ATOM     10  C6  ZIN A   1      18.751   3.071  10.784  0.00  0.00    -0.027 A 
ATOM     11  C11 ZIN A   1      19.658   3.571  11.699  0.00  0.00     0.010 A 
ATOM     12  C10 ZIN A   1      19.282   4.582  12.564  0.00  0.00     0.001 A 
ATOM     13  C9  ZIN A   1      17.996   5.086  12.520  0.00  0.00     0.000 A 
ATOM     14  C8  ZIN A   1      17.087   4.582  11.609  0.00  0.00     0.001 A 
ATOM     15  C7  ZIN A   1      17.464   3.575  10.741  0.00  0.00     0.010 A 
ENDBRANCH   3  10
TORSDOF 1
ENDMDL
MODEL 8
REMARK VINA RESULT:      -5.5      2.871      6.290
REMARK  1 active torsions:
REMARK  status: ('A' for Active; 'I' for Inactive)
REMARK    1  A    between atoms: C4_3  and  C6_4 
ROOT
ATOM      1  C1  ZIN A   1      20.684   0.503  12.593  0.00  0.00     0.043 C 
ATOM      2  C2  ZIN A   1      19.369  -0.165  12.187  0.00  0.00     0.217 C 
ATOM      3  C4  ZIN A   1      18.227   0.398  13.036  0.00  0.00     0.184 C 
ATOM      4  O12 ZIN A   1      16.992  -0.189  12.615  0.00  0.00    -0.377 OA
ATOM      5  C13 ZIN A   1      16.697   0.025  11.232  0.00  0.00     0.196 C 
ATOM      6  C14 ZIN A   1      17.837  -0.539  10.380  0.00  0.00     0.261 C 
ATOM      7  N15 ZIN A   1      19.100   0.103  10.767  0.00  0.00    -0.066 N 
ATOM      8  H16 ZIN A   1      19.030   1.098  10.621  0.00  0.00     0.280 HD
ATOM      9  C17 ZIN A   1      20.195  -0.438   9.950  0.00  0.00     0.270 C 
ENDROOT
BRANCH   3  10
ATOM     10  C6  ZIN A   1      18.471   0.074  14.487  0.00  0.00    -0.027 A 
ATOM     11  C11 ZIN A   1      18.561  -1.243  14.896  0.00  0.00     0.010 A 
ATOM     12  C10 ZIN A   1      18.789  -1.540  16.226  0.00  0.00     0.001 A 
ATOM     13  C9  ZIN A   1      18.919  -0.520  17.149  0.00  0.00     0.000 A 
ATOM     14  C8  ZIN A   1      18.824   0.797  16.742  0.00  0.00     0.001 A 
ATOM     15  C7  ZIN A   1      18.600   1.094  15.411  0.00  0.00     0.010 A 
ENDBRANCH   3  10
TORSDOF 1
ENDMDL
MODEL 9
REMARK VINA RESULT:      -5.5      2.675      4.129
REMARK  1 active torsions:
REMARK  status: ('A' for Active; 'I' for Inactive)
REMARK    1  A    between atoms: C4_3  and  C6_4 
ROOT
ATOM      1  C1  ZIN A   1      16.676   0.396  11.585  0.00  0.00     0.043 C 
ATOM      2  C2  ZIN A   1      18.171   0.482  11.268  0.00  0.00     0.217 C 
ATOM      3  C4  ZIN A   1      18.792   1.644  12.048  0.00  0.00     0.184 C 
ATOM      4  O12 ZIN A   1      20.199   1.685  11.791  0.00  0.00    -0.377 OA
ATOM      5  C13 ZIN A   1      20.881   0.475  12.131  0.00  0.00     0.196 C 
ATOM      6  C14 ZIN A   1      20.262  -0.689  11.351  0.00  0.00     0.261 C 
ATOM      7  N15 ZIN A   1      18.828  -0.774  11.656  0.00  0.00    -0.066 N 
ATOM      8  H16 ZIN A   1      18.703  -0.927  12.645  0.00  0.00     0.280 HD
ATOM      9  C17 ZIN A   1      18.233  -1.890  10.908  0.00  0.00     0.270 C 
ENDROOT
BRANCH   3  10
ATOM     10  C6  ZIN A   1      18.161   2.940  11.610  0.00  0.00    -0.027 A 
ATOM     11  C11 ZIN A   1      18.315   3.379  10.308  0.00  0.00     0.010 A 
ATOM     12  C10 ZIN A   1      17.732   4.566   9.905  0.00  0.00     0.001 A 
ATOM     13  C9  ZIN A   1      17.002   5.317  10.807  0.00  0.00     0.000 A 
ATOM     14  C8  ZIN A   1      16.852   4.881  12.109  0.00  0.00     0.001 A 
ATOM     15  C7  ZIN A   1      17.431   3.692  12.511  0.00  0.00     0.010 A 
ENDBRANCH   3  10
TORSDOF 1
ENDMDL
