MODEL 1
REMARK VINA RESULT:      -7.1      0.000      0.000
REMARK  10 active torsions:
REMARK  status: ('A' for Active; 'I' for Inactive)
REMARK    1  A    between atoms: C2_2  and  C3_3 
REMARK    2  A    between atoms: C3_3  and  C4_4 
REMARK    3  A    between atoms: C4_4  and  O6_6 
REMARK    4  A    between atoms: O6_6  and  C7_7 
REMARK    5  A    between atoms: C7_7  and  O8_8 
REMARK    6  A    between atoms: O8_8  and  C9_9 
REMARK    7  A    between atoms: C9_9  and  C11_11 
REMARK    8  A    between atoms: C17_17  and  C18_18 
REMARK    9  A    between atoms: C18_18  and  O20_20 
REMARK   10  A    between atoms: C22_22  and  C24_23 
ROOT
ATOM      1  C11 ZIN A   1      18.350   3.140  13.226  0.00  0.00     0.052 C 
ATOM      2  C12 ZIN A   1      19.074   3.881  14.082  0.00  0.00     0.018 C 
ATOM      3  C13 ZIN A   1      19.363   5.324  13.757  0.00  0.00     0.069 C 
ATOM      4  N14 ZIN A   1      19.552   3.341  15.246  0.00  0.00    -0.362 N 
ATOM      5  C15 ZIN A   1      19.020   2.180  15.737  0.00  0.00     0.018 C 
ATOM      6  C16 ZIN A   1      19.252   1.808  17.179  0.00  0.00     0.069 C 
ATOM      7  C17 ZIN A   1      18.294   1.368  14.949  0.00  0.00     0.052 C 
ATOM      8  C22 ZIN A   1      18.040   1.697  13.507  0.00  0.00     0.102 C 
ATOM      9  H44 ZIN A   1      20.270   3.784  15.724  0.00  0.00     0.165 HD
ENDROOT
BRANCH   1  10
ATOM     10  C9  ZIN A   1      17.865   3.732  12.037  0.00  0.00     0.294 C 
ATOM     11  O10 ZIN A   1      16.737   4.189  12.000  0.00  0.00    -0.259 OA
BRANCH  10  12
ATOM     12  O8  ZIN A   1      18.652   3.789  10.942  0.00  0.00    -0.291 OA
BRANCH  12  13
ATOM     13  C7  ZIN A   1      18.130   3.226   9.738  0.00  0.00     0.358 C 
BRANCH  13  14
ATOM     14  O6  ZIN A   1      19.003   2.160   9.282  0.00  0.00    -0.295 OA
BRANCH  14  15
ATOM     15  C4  ZIN A   1      18.526   1.344   8.330  0.00  0.00     0.260 C 
ATOM     16  O5  ZIN A   1      17.567   0.645   8.559  0.00  0.00    -0.265 OA
BRANCH  15  17
ATOM     17  C3  ZIN A   1      19.183   1.301   6.975  0.00  0.00     0.111 C 
BRANCH  17  18
ATOM     18  C2  ZIN A   1      18.911  -0.055   6.319  0.00  0.00     0.005 C 
ATOM     19  C1  ZIN A   1      19.205   0.036   4.820  0.00  0.00     0.005 C 
ENDBRANCH  17  18
ENDBRANCH  15  17
ENDBRANCH  14  15
ENDBRANCH  13  14
ENDBRANCH  12  13
ENDBRANCH  10  12
ENDBRANCH   1  10
BRANCH   8  20
ATOM     20  C24 ZIN A   1      18.919   0.834  12.639  0.00  0.00    -0.021 A 
ATOM     21  C30 ZIN A   1      18.360  -0.177  11.876  0.00  0.00     0.063 A 
ATOM     22  C28 ZIN A   1      19.168  -0.966  11.075  0.00  0.00     0.056 A 
ATOM     23 Cl31 ZIN A   1      16.645  -0.446  11.915  0.00  0.00    -0.082 Cl
ATOM     24  C27 ZIN A   1      20.534  -0.750  11.046  0.00  0.00     0.026 A 
ATOM     25 Cl29 ZIN A   1      18.467  -2.230  10.114  0.00  0.00    -0.083 Cl
ATOM     26  C26 ZIN A   1      21.092   0.257  11.813  0.00  0.00     0.002 A 
ATOM     27  C25 ZIN A   1      20.283   1.048  12.608  0.00  0.00     0.010 A 
ENDBRANCH   8  20
BRANCH   7  28
ATOM     28  C18 ZIN A   1      17.754   0.180  15.492  0.00  0.00     0.291 C 
ATOM     29  O19 ZIN A   1      16.724   0.219  16.139  0.00  0.00    -0.260 OA
BRANCH  28  30
ATOM     30  O20 ZIN A   1      18.381  -0.999  15.294  0.00  0.00    -0.323 OA
ATOM     31  C21 ZIN A   1      18.880  -1.672  16.453  0.00  0.00     0.213 C 
ENDBRANCH  28  30
ENDBRANCH   7  28
TORSDOF 10
ENDMDL
MODEL 2
REMARK VINA RESULT:      -6.7      3.111      7.640
REMARK  10 active torsions:
REMARK  status: ('A' for Active; 'I' for Inactive)
REMARK    1  A    between atoms: C2_2  and  C3_3 
REMARK    2  A    between atoms: C3_3  and  C4_4 
REMARK    3  A    between atoms: C4_4  and  O6_6 
REMARK    4  A    between atoms: O6_6  and  C7_7 
REMARK    5  A    between atoms: C7_7  and  O8_8 
REMARK    6  A    between atoms: O8_8  and  C9_9 
REMARK    7  A    between atoms: C9_9  and  C11_11 
REMARK    8  A    between atoms: C17_17  and  C18_18 
REMARK    9  A    between atoms: C18_18  and  O20_20 
REMARK   10  A    between atoms: C22_22  and  C24_23 
ROOT
ATOM      1  C11 ZIN A   1      18.294  -3.029  10.051  0.00  0.00     0.052 C 
ATOM      2  C12 ZIN A   1      19.027  -3.887   9.321  0.00  0.00     0.018 C 
ATOM      3  C13 ZIN A   1      19.249  -5.291   9.823  0.00  0.00     0.069 C 
ATOM      4  N14 ZIN A   1      19.573  -3.502   8.126  0.00  0.00    -0.362 N 
ATOM      5  C15 ZIN A   1      19.106  -2.391   7.480  0.00  0.00     0.018 C 
ATOM      6  C16 ZIN A   1      19.413  -2.197   6.018  0.00  0.00     0.069 C 
ATOM      7  C17 ZIN A   1      18.377  -1.469   8.134  0.00  0.00     0.052 C 
ATOM      8  C22 ZIN A   1      18.049  -1.619   9.591  0.00  0.00     0.102 C 
ATOM      9  H44 ZIN A   1      20.295  -4.020   7.737  0.00  0.00     0.165 HD
ENDROOT
BRANCH   1  10
ATOM     10  C9  ZIN A   1      17.737  -3.463  11.276  0.00  0.00     0.294 C 
ATOM     11  O10 ZIN A   1      16.624  -3.955  11.299  0.00  0.00    -0.259 OA
BRANCH  10  12
ATOM     12  O8  ZIN A   1      18.439  -3.329  12.421  0.00  0.00    -0.291 OA
BRANCH  12  13
ATOM     13  C7  ZIN A   1      18.083  -2.243  13.278  0.00  0.00     0.358 C 
BRANCH  13  14
ATOM     14  O6  ZIN A   1      19.274  -1.727  13.927  0.00  0.00    -0.295 OA
BRANCH  14  15
ATOM     15  C4  ZIN A   1      19.093  -0.959  15.013  0.00  0.00     0.260 C 
ATOM     16  O5  ZIN A   1      19.440   0.199  14.997  0.00  0.00    -0.265 OA
BRANCH  15  17
ATOM     17  C3  ZIN A   1      18.458  -1.539  16.249  0.00  0.00     0.111 C 
BRANCH  17  18
ATOM     18  C2  ZIN A   1      17.265  -0.675  16.664  0.00  0.00     0.005 C 
ATOM     19  C1  ZIN A   1      17.662   0.209  17.848  0.00  0.00     0.005 C 
ENDBRANCH  17  18
ENDBRANCH  15  17
ENDBRANCH  14  15
ENDBRANCH  13  14
ENDBRANCH  12  13
ENDBRANCH  10  12
ENDBRANCH   1  10
BRANCH   8  20
ATOM     20  C24 ZIN A   1      18.921  -0.689  10.394  0.00  0.00    -0.021 A 
ATOM     21  C30 ZIN A   1      18.356   0.383  11.063  0.00  0.00     0.063 A 
ATOM     22  C28 ZIN A   1      19.157   1.235  11.805  0.00  0.00     0.056 A 
ATOM     23 Cl31 ZIN A   1      16.642   0.651  10.982  0.00  0.00    -0.082 Cl
ATOM     24  C27 ZIN A   1      20.522   1.020  11.868  0.00  0.00     0.026 A 
ATOM     25 Cl29 ZIN A   1      18.449   2.576  12.649  0.00  0.00    -0.083 Cl
ATOM     26  C26 ZIN A   1      21.085  -0.049  11.194  0.00  0.00     0.002 A 
ATOM     27  C25 ZIN A   1      20.284  -0.902  10.458  0.00  0.00     0.010 A 
ENDBRANCH   8  20
BRANCH   7  28
ATOM     28  C18 ZIN A   1      17.904  -0.337   7.433  0.00  0.00     0.291 C 
ATOM     29  O19 ZIN A   1      16.709  -0.178   7.268  0.00  0.00    -0.260 OA
BRANCH  28  30
ATOM     30  O20 ZIN A   1      18.778   0.568   6.945  0.00  0.00    -0.323 OA
ATOM     31  C21 ZIN A   1      19.136   1.653   7.804  0.00  0.00     0.213 C 
ENDBRANCH  28  30
ENDBRANCH   7  28
TORSDOF 10
ENDMDL
MODEL 3
REMARK VINA RESULT:      -6.4      2.603      4.690
REMARK  10 active torsions:
REMARK  status: ('A' for Active; 'I' for Inactive)
REMARK    1  A    between atoms: C2_2  and  C3_3 
REMARK    2  A    between atoms: C3_3  and  C4_4 
REMARK    3  A    between atoms: C4_4  and  O6_6 
REMARK    4  A    between atoms: O6_6  and  C7_7 
REMARK    5  A    between atoms: C7_7  and  O8_8 
REMARK    6  A    between atoms: O8_8  and  C9_9 
REMARK    7  A    between atoms: C9_9  and  C11_11 
REMARK    8  A    between atoms: C17_17  and  C18_18 
REMARK    9  A    between atoms: C18_18  and  O20_20 
REMARK   10  A    between atoms: C22_22  and  C24_23 
ROOT
ATOM      1  C11 ZIN A   1      18.812   1.914  14.378  0.00  0.00     0.052 C 
ATOM      2  C12 ZIN A   1      18.197   1.532  15.512  0.00  0.00     0.018 C 
ATOM      3  C13 ZIN A   1      17.797   0.091  15.693  0.00  0.00     0.069 C 
ATOM      4  N14 ZIN A   1      17.931   2.438  16.503  0.00  0.00    -0.362 N 
ATOM      5  C15 ZIN A   1      18.583   3.640  16.534  0.00  0.00     0.018 C 
ATOM      6  C16 ZIN A   1      18.595   4.447  17.806  0.00  0.00     0.069 C 
ATOM      7  C17 ZIN A   1      19.214   4.109  15.443  0.00  0.00     0.052 C 
ATOM      8  C22 ZIN A   1      19.226   3.341  14.153  0.00  0.00     0.102 C 
ATOM      9  H44 ZIN A   1      17.277   2.225  17.187  0.00  0.00     0.165 HD
ENDROOT
BRANCH   1  10
ATOM     10  C9  ZIN A   1      19.079   0.951  13.378  0.00  0.00     0.294 C 
ATOM     11  O10 ZIN A   1      20.196   0.479  13.270  0.00  0.00    -0.259 OA
BRANCH  10  12
ATOM     12  O8  ZIN A   1      18.096   0.556  12.542  0.00  0.00    -0.291 OA
BRANCH  12  13
ATOM     13  C7  ZIN A   1      18.151  -0.790  12.066  0.00  0.00     0.358 C 
BRANCH  13  14
ATOM     14  O6  ZIN A   1      17.942  -0.805  10.630  0.00  0.00    -0.295 OA
BRANCH  14  15
ATOM     15  C4  ZIN A   1      18.780  -0.067   9.884  0.00  0.00     0.260 C 
ATOM     16  O5  ZIN A   1      19.956  -0.341   9.849  0.00  0.00    -0.265 OA
BRANCH  15  17
ATOM     17  C3  ZIN A   1      18.253   1.100   9.091  0.00  0.00     0.111 C 
BRANCH  17  18
ATOM     18  C2  ZIN A   1      19.322   1.566   8.099  0.00  0.00     0.005 C 
ATOM     19  C1  ZIN A   1      18.922   1.146   6.683  0.00  0.00     0.005 C 
ENDBRANCH  17  18
ENDBRANCH  15  17
ENDBRANCH  14  15
ENDBRANCH  13  14
ENDBRANCH  12  13
ENDBRANCH  10  12
ENDBRANCH   1  10
BRANCH   8  20
ATOM     20  C24 ZIN A   1      18.262   3.978  13.187  0.00  0.00    -0.021 A 
ATOM     21  C30 ZIN A   1      18.567   4.030  11.838  0.00  0.00     0.063 A 
ATOM     22  C28 ZIN A   1      17.679   4.611  10.949  0.00  0.00     0.056 A 
ATOM     23 Cl31 ZIN A   1      20.058   3.353  11.259  0.00  0.00    -0.082 Cl
ATOM     24  C27 ZIN A   1      16.492   5.150  11.412  0.00  0.00     0.026 A 
ATOM     25 Cl29 ZIN A   1      18.058   4.670   9.256  0.00  0.00    -0.083 Cl
ATOM     26  C26 ZIN A   1      16.190   5.103  12.761  0.00  0.00     0.002 A 
ATOM     27  C25 ZIN A   1      17.076   4.517  13.647  0.00  0.00     0.010 A 
ENDBRANCH   8  20
BRANCH   7  28
ATOM     28  C18 ZIN A   1      19.884   5.351  15.513  0.00  0.00     0.291 C 
ATOM     29  O19 ZIN A   1      20.977   5.425  16.043  0.00  0.00    -0.260 OA
BRANCH  28  30
ATOM     30  O20 ZIN A   1      19.312   6.457  14.992  0.00  0.00    -0.323 OA
ATOM     31  C21 ZIN A   1      18.441   7.201  15.846  0.00  0.00     0.213 C 
ENDBRANCH  28  30
ENDBRANCH   7  28
TORSDOF 10
ENDMDL
MODEL 4
REMARK VINA RESULT:      -6.4      3.382      6.319
REMARK  10 active torsions:
REMARK  status: ('A' for Active; 'I' for Inactive)
REMARK    1  A    between atoms: C2_2  and  C3_3 
REMARK    2  A    between atoms: C3_3  and  C4_4 
REMARK    3  A    between atoms: C4_4  and  O6_6 
REMARK    4  A    between atoms: O6_6  and  C7_7 
REMARK    5  A    between atoms: C7_7  and  O8_8 
REMARK    6  A    between atoms: O8_8  and  C9_9 
REMARK    7  A    between atoms: C9_9  and  C11_11 
REMARK    8  A    between atoms: C17_17  and  C18_18 
REMARK    9  A    between atoms: C18_18  and  O20_20 
REMARK   10  A    between atoms: C22_22  and  C24_23 
ROOT
ATOM      1  C11 ZIN A   1      19.148  -0.849   9.749  0.00  0.00     0.052 C 
ATOM      2  C12 ZIN A   1      20.139  -1.150  10.607  0.00  0.00     0.018 C 
ATOM      3  C13 ZIN A   1      21.054  -0.058  11.099  0.00  0.00     0.069 C 
ATOM      4  N14 ZIN A   1      20.325  -2.435  11.040  0.00  0.00    -0.362 N 
ATOM      5  C15 ZIN A   1      19.325  -3.359  10.910  0.00  0.00     0.018 C 
ATOM      6  C16 ZIN A   1      19.372  -4.626  11.724  0.00  0.00     0.069 C 
ATOM      7  C17 ZIN A   1      18.301  -3.151  10.064  0.00  0.00     0.052 C 
ATOM      8  C22 ZIN A   1      18.213  -1.905   9.230  0.00  0.00     0.102 C 
ATOM      9  H44 ZIN A   1      21.170  -2.691  11.440  0.00  0.00     0.165 HD
ENDROOT
BRANCH   1  10
ATOM     10  C9  ZIN A   1      18.978   0.490   9.330  0.00  0.00     0.294 C 
ATOM     11  O10 ZIN A   1      19.779   0.995   8.565  0.00  0.00    -0.259 OA
BRANCH  10  12
ATOM     12  O8  ZIN A   1      17.928   1.210   9.778  0.00  0.00    -0.291 OA
BRANCH  12  13
ATOM     13  C7  ZIN A   1      18.033   1.761  11.092  0.00  0.00     0.358 C 
BRANCH  13  14
ATOM     14  O6  ZIN A   1      16.901   1.328  11.891  0.00  0.00    -0.295 OA
BRANCH  14  15
ATOM     15  C4  ZIN A   1      17.068   0.227  12.639  0.00  0.00     0.260 C 
ATOM     16  O5  ZIN A   1      16.782  -0.857  12.189  0.00  0.00    -0.265 OA
BRANCH  15  17
ATOM     17  C3  ZIN A   1      17.612   0.342  14.040  0.00  0.00     0.111 C 
BRANCH  17  18
ATOM     18  C2  ZIN A   1      19.115   0.053  14.028  0.00  0.00     0.005 C 
ATOM     19  C1  ZIN A   1      19.358  -1.401  14.437  0.00  0.00     0.005 C 
ENDBRANCH  17  18
ENDBRANCH  15  17
ENDBRANCH  14  15
ENDBRANCH  13  14
ENDBRANCH  12  13
ENDBRANCH  10  12
ENDBRANCH   1  10
BRANCH   8  20
ATOM     20  C24 ZIN A   1      18.592  -2.232   7.809  0.00  0.00    -0.021 A 
ATOM     21  C30 ZIN A   1      17.996  -1.552   6.761  0.00  0.00     0.063 A 
ATOM     22  C28 ZIN A   1      18.349  -1.849   5.455  0.00  0.00     0.056 A 
ATOM     23 Cl31 ZIN A   1      16.817  -0.319   7.085  0.00  0.00    -0.082 Cl
ATOM     24  C27 ZIN A   1      19.288  -2.832   5.199  0.00  0.00     0.026 A 
ATOM     25 Cl29 ZIN A   1      17.607  -0.992   4.140  0.00  0.00    -0.083 Cl
ATOM     26  C26 ZIN A   1      19.878  -3.514   6.247  0.00  0.00     0.002 A 
ATOM     27  C25 ZIN A   1      19.530  -3.213   7.551  0.00  0.00     0.010 A 
ENDBRANCH   8  20
BRANCH   7  28
ATOM     28  C18 ZIN A   1      17.281  -4.124   9.960  0.00  0.00     0.291 C 
ATOM     29  O19 ZIN A   1      16.408  -4.185  10.806  0.00  0.00    -0.260 OA
BRANCH  28  30
ATOM     30  O20 ZIN A   1      17.274  -4.987   8.922  0.00  0.00    -0.323 OA
ATOM     31  C21 ZIN A   1      17.012  -6.360   9.222  0.00  0.00     0.213 C 
ENDBRANCH  28  30
ENDBRANCH   7  28
TORSDOF 10
ENDMDL
MODEL 5
REMARK VINA RESULT:      -6.3      3.710      7.262
REMARK  10 active torsions:
REMARK  status: ('A' for Active; 'I' for Inactive)
REMARK    1  A    between atoms: C2_2  and  C3_3 
REMARK    2  A    between atoms: C3_3  and  C4_4 
REMARK    3  A    between atoms: C4_4  and  O6_6 
REMARK    4  A    between atoms: O6_6  and  C7_7 
REMARK    5  A    between atoms: C7_7  and  O8_8 
REMARK    6  A    between atoms: O8_8  and  C9_9 
REMARK    7  A    between atoms: C9_9  and  C11_11 
REMARK    8  A    between atoms: C17_17  and  C18_18 
REMARK    9  A    between atoms: C18_18  and  O20_20 
REMARK   10  A    between atoms: C22_22  and  C24_23 
ROOT
ATOM      1  C11 ZIN A   1      18.736  -0.784   7.592  0.00  0.00     0.052 C 
ATOM      2  C12 ZIN A   1      17.868  -0.823   6.566  0.00  0.00     0.018 C 
ATOM      3  C13 ZIN A   1      17.201   0.448   6.106  0.00  0.00     0.069 C 
ATOM      4  N14 ZIN A   1      17.583  -2.003   5.933  0.00  0.00    -0.362 N 
ATOM      5  C15 ZIN A   1      18.414  -3.081   6.075  0.00  0.00     0.018 C 
ATOM      6  C16 ZIN A   1      18.331  -4.219   5.092  0.00  0.00     0.069 C 
ATOM      7  C17 ZIN A   1      19.304  -3.136   7.082  0.00  0.00     0.052 C 
ATOM      8  C22 ZIN A   1      19.421  -2.027   8.087  0.00  0.00     0.102 C 
ATOM      9  H44 ZIN A   1      16.789  -2.075   5.383  0.00  0.00     0.165 HD
ENDROOT
BRANCH   1  10
ATOM     10  C9  ZIN A   1      19.013   0.453   8.217  0.00  0.00     0.294 C 
ATOM     11  O10 ZIN A   1      20.037   1.055   7.949  0.00  0.00    -0.259 OA
BRANCH  10  12
ATOM     12  O8  ZIN A   1      18.144   0.967   9.113  0.00  0.00    -0.291 OA
BRANCH  12  13
ATOM     13  C7  ZIN A   1      18.651   1.945  10.022  0.00  0.00     0.358 C 
BRANCH  13  14
ATOM     14  O6  ZIN A   1      18.423   3.273   9.482  0.00  0.00    -0.295 OA
BRANCH  14  15
ATOM     15  C4  ZIN A   1      17.800   4.157  10.277  0.00  0.00     0.260 C 
ATOM     16  O5  ZIN A   1      17.468   5.233   9.839  0.00  0.00    -0.265 OA
BRANCH  15  17
ATOM     17  C3  ZIN A   1      17.514   3.807  11.714  0.00  0.00     0.111 C 
BRANCH  17  18
ATOM     18  C2  ZIN A   1      18.059   4.909  12.625  0.00  0.00     0.005 C 
ATOM     19  C1  ZIN A   1      19.572   4.741  12.781  0.00  0.00     0.005 C 
ENDBRANCH  17  18
ENDBRANCH  15  17
ENDBRANCH  14  15
ENDBRANCH  13  14
ENDBRANCH  12  13
ENDBRANCH  10  12
ENDBRANCH   1  10
BRANCH   8  20
ATOM     20  C24 ZIN A   1      18.773  -2.457   9.377  0.00  0.00    -0.021 A 
ATOM     21  C30 ZIN A   1      19.300  -2.040  10.588  0.00  0.00     0.063 A 
ATOM     22  C28 ZIN A   1      18.701  -2.431  11.774  0.00  0.00     0.056 A 
ATOM     23 Cl31 ZIN A   1      20.702  -1.017  10.618  0.00  0.00    -0.082 Cl
ATOM     24  C27 ZIN A   1      17.584  -3.247  11.747  0.00  0.00     0.026 A 
ATOM     25 Cl29 ZIN A   1      19.357  -1.903  13.292  0.00  0.00    -0.083 Cl
ATOM     26  C26 ZIN A   1      17.063  -3.667  10.538  0.00  0.00     0.002 A 
ATOM     27  C25 ZIN A   1      17.658  -3.271   9.354  0.00  0.00     0.010 A 
ENDBRANCH   8  20
BRANCH   7  28
ATOM     28  C18 ZIN A   1      20.153  -4.261   7.193  0.00  0.00     0.291 C 
ATOM     29  O19 ZIN A   1      21.300  -4.201   6.791  0.00  0.00    -0.260 OA
BRANCH  28  30
ATOM     30  O20 ZIN A   1      19.691  -5.402   7.747  0.00  0.00    -0.323 OA
ATOM     31  C21 ZIN A   1      20.265  -5.797   8.994  0.00  0.00     0.213 C 
ENDBRANCH  28  30
ENDBRANCH   7  28
TORSDOF 10
ENDMDL
MODEL 6
REMARK VINA RESULT:      -6.2      2.949      4.704
REMARK  10 active torsions:
REMARK  status: ('A' for Active; 'I' for Inactive)
REMARK    1  A    between atoms: C2_2  and  C3_3 
REMARK    2  A    between atoms: C3_3  and  C4_4 
REMARK    3  A    between atoms: C4_4  and  O6_6 
REMARK    4  A    between atoms: O6_6  and  C7_7 
REMARK    5  A    between atoms: C7_7  and  O8_8 
REMARK    6  A    between atoms: O8_8  and  C9_9 
REMARK    7  A    between atoms: C9_9  and  C11_11 
REMARK    8  A    between atoms: C17_17  and  C18_18 
REMARK    9  A    between atoms: C18_18  and  O20_20 
REMARK   10  A    between atoms: C22_22  and  C24_23 
ROOT
ATOM      1  C11 ZIN A   1      19.254   0.746  14.018  0.00  0.00     0.052 C 
ATOM      2  C12 ZIN A   1      18.376  -0.272  13.972  0.00  0.00     0.018 C 
ATOM      3  C13 ZIN A   1      18.378  -1.204  12.789  0.00  0.00     0.069 C 
ATOM      4  N14 ZIN A   1      17.480  -0.471  14.988  0.00  0.00    -0.362 N 
ATOM      5  C15 ZIN A   1      17.682   0.111  16.210  0.00  0.00     0.018 C 
ATOM      6  C16 ZIN A   1      16.943  -0.412  17.414  0.00  0.00     0.069 C 
ATOM      7  C17 ZIN A   1      18.530   1.145  16.349  0.00  0.00     0.052 C 
ATOM      8  C22 ZIN A   1      19.286   1.702  15.177  0.00  0.00     0.102 C 
ATOM      9  H44 ZIN A   1      16.700  -1.027  14.841  0.00  0.00     0.165 HD
ENDROOT
BRANCH   1  10
ATOM     10  C9  ZIN A   1      20.171   0.917  12.956  0.00  0.00     0.294 C 
ATOM     11  O10 ZIN A   1      21.318   0.529  13.073  0.00  0.00    -0.259 OA
BRANCH  10  12
ATOM     12  O8  ZIN A   1      19.774   1.512  11.811  0.00  0.00    -0.291 OA
BRANCH  12  13
ATOM     13  C7  ZIN A   1      20.191   2.862  11.603  0.00  0.00     0.358 C 
BRANCH  13  14
ATOM     14  O6  ZIN A   1      19.180   3.569  10.838  0.00  0.00    -0.295 OA
BRANCH  14  15
ATOM     15  C4  ZIN A   1      18.365   2.827  10.072  0.00  0.00     0.260 C 
ATOM     16  O5  ZIN A   1      17.238   2.593  10.441  0.00  0.00    -0.265 OA
BRANCH  15  17
ATOM     17  C3  ZIN A   1      18.854   2.287   8.753  0.00  0.00     0.111 C 
BRANCH  17  18
ATOM     18  C2  ZIN A   1      18.394   0.836   8.594  0.00  0.00     0.005 C 
ATOM     19  C1  ZIN A   1      19.582  -0.103   8.810  0.00  0.00     0.005 C 
ENDBRANCH  17  18
ENDBRANCH  15  17
ENDBRANCH  14  15
ENDBRANCH  13  14
ENDBRANCH  12  13
ENDBRANCH  10  12
ENDBRANCH   1  10
BRANCH   8  20
ATOM     20  C24 ZIN A   1      18.652   3.001  14.750  0.00  0.00    -0.021 A 
ATOM     21  C30 ZIN A   1      19.188   4.204  15.175  0.00  0.00     0.063 A 
ATOM     22  C28 ZIN A   1      18.609   5.398  14.779  0.00  0.00     0.056 A 
ATOM     23 Cl31 ZIN A   1      20.595   4.216  16.193  0.00  0.00    -0.082 Cl
ATOM     24  C27 ZIN A   1      17.488   5.386  13.968  0.00  0.00     0.026 A 
ATOM     25 Cl29 ZIN A   1      19.285   6.907  15.305  0.00  0.00    -0.083 Cl
ATOM     26  C26 ZIN A   1      16.950   4.183  13.549  0.00  0.00     0.002 A 
ATOM     27  C25 ZIN A   1      17.533   2.992  13.941  0.00  0.00     0.010 A 
ENDBRANCH   8  20
BRANCH   7  28
ATOM     28  C18 ZIN A   1      18.720   1.718  17.627  0.00  0.00     0.291 C 
ATOM     29  O19 ZIN A   1      19.692   1.414  18.293  0.00  0.00    -0.260 OA
BRANCH  28  30
ATOM     30  O20 ZIN A   1      17.822   2.601  18.111  0.00  0.00    -0.323 OA
ATOM     31  C21 ZIN A   1      18.321   3.632  18.967  0.00  0.00     0.213 C 
ENDBRANCH  28  30
ENDBRANCH   7  28
TORSDOF 10
ENDMDL
MODEL 7
REMARK VINA RESULT:      -6.1      4.162      7.584
REMARK  10 active torsions:
REMARK  status: ('A' for Active; 'I' for Inactive)
REMARK    1  A    between atoms: C2_2  and  C3_3 
REMARK    2  A    between atoms: C3_3  and  C4_4 
REMARK    3  A    between atoms: C4_4  and  O6_6 
REMARK    4  A    between atoms: O6_6  and  C7_7 
REMARK    5  A    between atoms: C7_7  and  O8_8 
REMARK    6  A    between atoms: O8_8  and  C9_9 
REMARK    7  A    between atoms: C9_9  and  C11_11 
REMARK    8  A    between atoms: C17_17  and  C18_18 
REMARK    9  A    between atoms: C18_18  and  O20_20 
REMARK   10  A    between atoms: C22_22  and  C24_23 
ROOT
ATOM      1  C11 ZIN A   1      18.513  -1.722   8.573  0.00  0.00     0.052 C 
ATOM      2  C12 ZIN A   1      17.977  -1.095   7.511  0.00  0.00     0.018 C 
ATOM      3  C13 ZIN A   1      17.460   0.313   7.661  0.00  0.00     0.069 C 
ATOM      4  N14 ZIN A   1      17.895  -1.719   6.296  0.00  0.00    -0.362 N 
ATOM      5  C15 ZIN A   1      18.660  -2.824   6.035  0.00  0.00     0.018 C 
ATOM      6  C16 ZIN A   1      18.872  -3.261   4.609  0.00  0.00     0.069 C 
ATOM      7  C17 ZIN A   1      19.224  -3.523   7.035  0.00  0.00     0.052 C 
ATOM      8  C22 ZIN A   1      19.038  -3.127   8.471  0.00  0.00     0.102 C 
ATOM      9  H44 ZIN A   1      17.293  -1.377   5.618  0.00  0.00     0.165 HD
ENDROOT
BRANCH   1  10
ATOM     10  C9  ZIN A   1      18.589  -1.044   9.812  0.00  0.00     0.294 C 
ATOM     11  O10 ZIN A   1      17.658  -1.097  10.593  0.00  0.00    -0.259 OA
BRANCH  10  12
ATOM     12  O8  ZIN A   1      19.695  -0.337  10.127  0.00  0.00    -0.291 OA
BRANCH  12  13
ATOM     13  C7  ZIN A   1      19.517   0.809  10.959  0.00  0.00     0.358 C 
BRANCH  13  14
ATOM     14  O6  ZIN A   1      19.067   1.929  10.152  0.00  0.00    -0.295 OA
BRANCH  14  15
ATOM     15  C4  ZIN A   1      17.979   2.590  10.577  0.00  0.00     0.260 C 
ATOM     16  O5  ZIN A   1      17.096   1.994  11.148  0.00  0.00    -0.265 OA
BRANCH  15  17
ATOM     17  C3  ZIN A   1      17.859   4.073  10.345  0.00  0.00     0.111 C 
BRANCH  17  18
ATOM     18  C2  ZIN A   1      17.946   4.808  11.685  0.00  0.00     0.005 C 
ATOM     19  C1  ZIN A   1      16.564   5.345  12.062  0.00  0.00     0.005 C 
ENDBRANCH  17  18
ENDBRANCH  15  17
ENDBRANCH  14  15
ENDBRANCH  13  14
ENDBRANCH  12  13
ENDBRANCH  10  12
ENDBRANCH   1  10
BRANCH   8  20
ATOM     20  C24 ZIN A   1      18.050  -4.061   9.120  0.00  0.00    -0.021 A 
ATOM     21  C30 ZIN A   1      18.286  -4.538  10.398  0.00  0.00     0.063 A 
ATOM     22  C28 ZIN A   1      17.376  -5.393  10.996  0.00  0.00     0.056 A 
ATOM     23 Cl31 ZIN A   1      19.716  -4.054  11.255  0.00  0.00    -0.082 Cl
ATOM     24  C27 ZIN A   1      16.237  -5.778  10.311  0.00  0.00     0.026 A 
ATOM     25 Cl29 ZIN A   1      17.667  -5.986  12.601  0.00  0.00    -0.083 Cl
ATOM     26  C26 ZIN A   1      16.006  -5.305   9.033  0.00  0.00     0.002 A 
ATOM     27  C25 ZIN A   1      16.913  -4.447   8.438  0.00  0.00     0.010 A 
ENDBRANCH   8  20
BRANCH   7  28
ATOM     28  C18 ZIN A   1      20.013  -4.655   6.728  0.00  0.00     0.291 C 
ATOM     29  O19 ZIN A   1      19.484  -5.681   6.344  0.00  0.00    -0.260 OA
BRANCH  28  30
ATOM     30  O20 ZIN A   1      21.355  -4.597   6.861  0.00  0.00    -0.323 OA
ATOM     31  C21 ZIN A   1      21.971  -5.600   7.672  0.00  0.00     0.213 C 
ENDBRANCH  28  30
ENDBRANCH   7  28
TORSDOF 10
ENDMDL
MODEL 8
REMARK VINA RESULT:      -6.1      4.247      7.271
REMARK  10 active torsions:
REMARK  status: ('A' for Active; 'I' for Inactive)
REMARK    1  A    between atoms: C2_2  and  C3_3 
REMARK    2  A    between atoms: C3_3  and  C4_4 
REMARK    3  A    between atoms: C4_4  and  O6_6 
REMARK    4  A    between atoms: O6_6  and  C7_7 
REMARK    5  A    between atoms: C7_7  and  O8_8 
REMARK    6  A    between atoms: O8_8  and  C9_9 
REMARK    7  A    between atoms: C9_9  and  C11_11 
REMARK    8  A    between atoms: C17_17  and  C18_18 
REMARK    9  A    between atoms: C18_18  and  O20_20 
REMARK   10  A    between atoms: C22_22  and  C24_23 
ROOT
ATOM      1  C11 ZIN A   1      18.826  -3.129  10.094  0.00  0.00     0.052 C 
ATOM      2  C12 ZIN A   1      19.614  -4.127  10.532  0.00  0.00     0.018 C 
ATOM      3  C13 ZIN A   1      20.612  -3.859  11.630  0.00  0.00     0.069 C 
ATOM      4  N14 ZIN A   1      19.520  -5.382   9.996  0.00  0.00    -0.362 N 
ATOM      5  C15 ZIN A   1      18.413  -5.745   9.279  0.00  0.00     0.018 C 
ATOM      6  C16 ZIN A   1      18.129  -7.205   9.038  0.00  0.00     0.069 C 
ATOM      7  C17 ZIN A   1      17.575  -4.815   8.787  0.00  0.00     0.052 C 
ATOM      8  C22 ZIN A   1      17.820  -3.349   9.000  0.00  0.00     0.102 C 
ATOM      9  H44 ZIN A   1      20.242  -6.017  10.124  0.00  0.00     0.165 HD
ENDROOT
BRANCH   1  10
ATOM     10  C9  ZIN A   1      18.944  -1.847  10.677  0.00  0.00     0.294 C 
ATOM     11  O10 ZIN A   1      19.813  -1.084  10.299  0.00  0.00    -0.259 OA
BRANCH  10  12
ATOM     12  O8  ZIN A   1      18.093  -1.469  11.654  0.00  0.00    -0.291 OA
BRANCH  12  13
ATOM     13  C7  ZIN A   1      18.548  -0.462  12.558  0.00  0.00     0.358 C 
BRANCH  13  14
ATOM     14  O6  ZIN A   1      17.997   0.824  12.170  0.00  0.00    -0.295 OA
BRANCH  14  15
ATOM     15  C4  ZIN A   1      18.782   1.899  12.336  0.00  0.00     0.260 C 
ATOM     16  O5  ZIN A   1      19.114   2.238  13.447  0.00  0.00    -0.265 OA
BRANCH  15  17
ATOM     17  C3  ZIN A   1      19.249   2.684  11.137  0.00  0.00     0.111 C 
BRANCH  17  18
ATOM     18  C2  ZIN A   1      18.392   2.319   9.923  0.00  0.00     0.005 C 
ATOM     19  C1  ZIN A   1      19.301   2.009   8.732  0.00  0.00     0.005 C 
ENDBRANCH  17  18
ENDBRANCH  15  17
ENDBRANCH  14  15
ENDBRANCH  13  14
ENDBRANCH  12  13
ENDBRANCH  10  12
ENDBRANCH   1  10
BRANCH   8  20
ATOM     20  C24 ZIN A   1      18.349  -2.745   7.725  0.00  0.00    -0.021 A 
ATOM     21  C30 ZIN A   1      17.967  -1.467   7.355  0.00  0.00     0.063 A 
ATOM     22  C28 ZIN A   1      18.458  -0.910   6.187  0.00  0.00     0.056 A 
ATOM     23 Cl31 ZIN A   1      16.883  -0.559   8.363  0.00  0.00    -0.082 Cl
ATOM     24  C27 ZIN A   1      19.321  -1.634   5.385  0.00  0.00     0.026 A 
ATOM     25 Cl29 ZIN A   1      17.984   0.695   5.725  0.00  0.00    -0.083 Cl
ATOM     26  C26 ZIN A   1      19.698  -2.913   5.753  0.00  0.00     0.002 A 
ATOM     27  C25 ZIN A   1      19.211  -3.467   6.923  0.00  0.00     0.010 A 
ENDBRANCH   8  20
BRANCH   7  28
ATOM     28  C18 ZIN A   1      16.437  -5.227   8.057  0.00  0.00     0.291 C 
ATOM     29  O19 ZIN A   1      16.517  -5.414   6.858  0.00  0.00    -0.260 OA
BRANCH  28  30
ATOM     30  O20 ZIN A   1      15.260  -5.412   8.691  0.00  0.00    -0.323 OA
ATOM     31  C21 ZIN A   1      14.285  -6.219   8.027  0.00  0.00     0.213 C 
ENDBRANCH  28  30
ENDBRANCH   7  28
TORSDOF 10
ENDMDL
MODEL 9
REMARK VINA RESULT:      -6.0      4.994      7.572
REMARK  10 active torsions:
REMARK  status: ('A' for Active; 'I' for Inactive)
REMARK    1  A    between atoms: C2_2  and  C3_3 
REMARK    2  A    between atoms: C3_3  and  C4_4 
REMARK    3  A    between atoms: C4_4  and  O6_6 
REMARK    4  A    between atoms: O6_6  and  C7_7 
REMARK    5  A    between atoms: C7_7  and  O8_8 
REMARK    6  A    between atoms: O8_8  and  C9_9 
REMARK    7  A    between atoms: C9_9  and  C11_11 
REMARK    8  A    between atoms: C17_17  and  C18_18 
REMARK    9  A    between atoms: C18_18  and  O20_20 
REMARK   10  A    between atoms: C22_22  and  C24_23 
ROOT
ATOM      1  C11 ZIN A   1      18.271  -3.676   9.591  0.00  0.00     0.052 C 
ATOM      2  C12 ZIN A   1      17.413  -3.808  10.617  0.00  0.00     0.018 C 
ATOM      3  C13 ZIN A   1      16.640  -5.091  10.781  0.00  0.00     0.069 C 
ATOM      4  N14 ZIN A   1      17.234  -2.792  11.517  0.00  0.00    -0.362 N 
ATOM      5  C15 ZIN A   1      18.155  -1.785  11.613  0.00  0.00     0.018 C 
ATOM      6  C16 ZIN A   1      18.174  -0.909  12.838  0.00  0.00     0.069 C 
ATOM      7  C17 ZIN A   1      19.044  -1.568  10.627  0.00  0.00     0.052 C 
ATOM      8  C22 ZIN A   1      19.060  -2.414   9.387  0.00  0.00     0.102 C 
ATOM      9  H44 ZIN A   1      16.450  -2.786  12.087  0.00  0.00     0.165 HD
ENDROOT
BRANCH   1  10
ATOM     10  C9  ZIN A   1      18.438  -4.750   8.686  0.00  0.00     0.294 C 
ATOM     11  O10 ZIN A   1      19.359  -5.532   8.832  0.00  0.00    -0.259 OA
BRANCH  10  12
ATOM     12  O8  ZIN A   1      17.576  -4.906   7.659  0.00  0.00    -0.291 OA
BRANCH  12  13
ATOM     13  C7  ZIN A   1      18.062  -5.592   6.503  0.00  0.00     0.358 C 
BRANCH  13  14
ATOM     14  O6  ZIN A   1      17.125  -6.636   6.130  0.00  0.00    -0.295 OA
BRANCH  14  15
ATOM     15  C4  ZIN A   1      17.141  -7.761   6.863  0.00  0.00     0.260 C 
ATOM     16  O5  ZIN A   1      17.938  -8.634   6.610  0.00  0.00    -0.265 OA
BRANCH  15  17
ATOM     17  C3  ZIN A   1      16.167  -7.935   7.999  0.00  0.00     0.111 C 
BRANCH  17  18
ATOM     18  C2  ZIN A   1      14.756  -7.589   7.518  0.00  0.00     0.005 C 
ATOM     19  C1  ZIN A   1      14.352  -6.218   8.064  0.00  0.00     0.005 C 
ENDBRANCH  17  18
ENDBRANCH  15  17
ENDBRANCH  14  15
ENDBRANCH  13  14
ENDBRANCH  12  13
ENDBRANCH  10  12
ENDBRANCH   1  10
BRANCH   8  20
ATOM     20  C24 ZIN A   1      18.448  -1.638   8.249  0.00  0.00    -0.021 A 
ATOM     21  C30 ZIN A   1      18.917  -1.816   6.959  0.00  0.00     0.063 A 
ATOM     22  C28 ZIN A   1      18.352  -1.107   5.913  0.00  0.00     0.056 A 
ATOM     23 Cl31 ZIN A   1      20.206  -2.938   6.652  0.00  0.00    -0.082 Cl
ATOM     24  C27 ZIN A   1      17.325  -0.214   6.160  0.00  0.00     0.026 A 
ATOM     25 Cl29 ZIN A   1      18.935  -1.335   4.294  0.00  0.00    -0.083 Cl
ATOM     26  C26 ZIN A   1      16.861  -0.033   7.450  0.00  0.00     0.002 A 
ATOM     27  C25 ZIN A   1      17.423  -0.745   8.493  0.00  0.00     0.010 A 
ENDBRANCH   8  20
BRANCH   7  28
ATOM     28  C18 ZIN A   1      19.986  -0.524  10.763  0.00  0.00     0.291 C 
ATOM     29  O19 ZIN A   1      21.154  -0.783  10.989  0.00  0.00    -0.260 OA
BRANCH  28  30
ATOM     30  O20 ZIN A   1      19.592   0.762  10.643  0.00  0.00    -0.323 OA
ATOM     31  C21 ZIN A   1      20.068   1.681  11.628  0.00  0.00     0.213 C 
ENDBRANCH  28  30
ENDBRANCH   7  28
TORSDOF 10
ENDMDL
