MODEL 1
REMARK VINA RESULT:      -7.8      0.000      0.000
REMARK  4 active torsions:
REMARK  status: ('A' for Active; 'I' for Inactive)
REMARK    1  A    between atoms: C2_2  and  C3_3 
REMARK    2  A    between atoms: C3_3  and  N4_4 
REMARK    3  A    between atoms: C13_13  and  O14_14 
REMARK    4  A    between atoms: C23_22  and  O24_23 
ROOT
ATOM      1  N4  ZIN A   1      18.666  -1.274   8.884  0.00  0.00    -0.060 N 
ATOM      2  H5  ZIN A   1      18.914  -2.237   9.054  0.00  0.00     0.280 HD
ATOM      3  C6  ZIN A   1      19.878  -0.448   8.934  0.00  0.00     0.237 C 
ATOM      4  C7  ZIN A   1      20.546  -0.580  10.307  0.00  0.00     0.048 C 
ATOM      5  C8  ZIN A   1      19.538  -0.154  11.373  0.00  0.00     0.058 C 
ATOM      6  C9  ZIN A   1      19.072   1.254  11.093  0.00  0.00    -0.001 A 
ATOM      7  C10 ZIN A   1      18.031   1.626  10.274  0.00  0.00    -0.046 A 
ATOM      8  C11 ZIN A   1      17.806   2.988  10.167  0.00  0.00     0.011 A 
ATOM      9  C12 ZIN A   1      18.566   3.881  10.904  0.00  0.00     0.040 A 
ATOM     10  C13 ZIN A   1      19.564   3.483  11.791  0.00  0.00     0.099 A 
ATOM     11  C15 ZIN A   1      19.809   2.110  11.899  0.00  0.00     0.110 A 
ATOM     12  O16 ZIN A   1      20.638   1.404  12.697  0.00  0.00    -0.334 OA
ATOM     13  C17 ZIN A   1      20.185   0.017  12.740  0.00  0.00     0.214 C 
ATOM     14  C19 ZIN A   1      19.204  -0.096  13.870  0.00  0.00     0.157 C 
ATOM     15  O20 ZIN A   1      19.465   0.450  14.915  0.00  0.00    -0.295 OA
ATOM     16  C21 ZIN A   1      17.916  -0.853  13.761  0.00  0.00     0.084 C 
ATOM     17  C22 ZIN A   1      17.279  -0.610  12.391  0.00  0.00     0.048 C 
ATOM     18  C23 ZIN A   1      18.296  -1.027  11.290  0.00  0.00     0.102 C 
ATOM     19  C25 ZIN A   1      17.695  -0.840   9.894  0.00  0.00     0.228 C 
ATOM     20  C27 ZIN A   1      17.213   0.570   9.605  0.00  0.00     0.075 C 
ENDROOT
BRANCH   1  21
ATOM     21  C3  ZIN A   1      18.060  -1.158   7.551  0.00  0.00     0.262 C 
BRANCH  21  22
ATOM     22  C2  ZIN A   1      18.927  -0.288   6.678  0.00  0.00    -0.010 C 
ATOM     23  C1  ZIN A   1      18.378   0.533   5.819  0.00  0.00     0.008 C 
ENDBRANCH  21  22
ENDBRANCH   1  21
BRANCH  18  24
ATOM     24  O24 ZIN A   1      18.663  -2.396  11.471  0.00  0.00    -0.386 OA
ATOM     25  H44 ZIN A   1      19.554  -2.609  11.158  0.00  0.00     0.210 HD
ENDBRANCH  18  24
BRANCH  10  26
ATOM     26  O14 ZIN A   1      20.270   4.391  12.519  0.00  0.00    -0.358 OA
ATOM     27  H39 ZIN A   1      20.237   4.240  13.473  0.00  0.00     0.217 HD
ENDBRANCH  10  26
TORSDOF 4
ENDMDL
MODEL 2
REMARK VINA RESULT:      -7.7      2.274      5.569
REMARK  4 active torsions:
REMARK  status: ('A' for Active; 'I' for Inactive)
REMARK    1  A    between atoms: C2_2  and  C3_3 
REMARK    2  A    between atoms: C3_3  and  N4_4 
REMARK    3  A    between atoms: C13_13  and  O14_14 
REMARK    4  A    between atoms: C23_22  and  O24_23 
ROOT
ATOM      1  N4  ZIN A   1      19.071   1.099  14.123  0.00  0.00    -0.060 N 
ATOM      2  H5  ZIN A   1      19.519   1.991  14.269  0.00  0.00     0.280 HD
ATOM      3  C6  ZIN A   1      20.076   0.119  13.699  0.00  0.00     0.237 C 
ATOM      4  C7  ZIN A   1      20.747   0.584  12.401  0.00  0.00     0.048 C 
ATOM      5  C8  ZIN A   1      19.663   0.764  11.340  0.00  0.00     0.058 C 
ATOM      6  C9  ZIN A   1      18.908  -0.531  11.165  0.00  0.00    -0.001 A 
ATOM      7  C10 ZIN A   1      17.817  -0.950  11.892  0.00  0.00    -0.046 A 
ATOM      8  C11 ZIN A   1      17.306  -2.190  11.551  0.00  0.00     0.011 A 
ATOM      9  C12 ZIN A   1      17.851  -2.903  10.496  0.00  0.00     0.040 A 
ATOM     10  C13 ZIN A   1      18.904  -2.430   9.718  0.00  0.00     0.099 A 
ATOM     11  C15 ZIN A   1      19.437  -1.182  10.060  0.00  0.00     0.110 A 
ATOM     12  O16 ZIN A   1      20.392  -0.423   9.482  0.00  0.00    -0.334 OA
ATOM     13  C17 ZIN A   1      20.248   0.954   9.947  0.00  0.00     0.214 C 
ATOM     14  C19 ZIN A   1      19.305   1.644   9.006  0.00  0.00     0.157 C 
ATOM     15  O20 ZIN A   1      19.434   1.455   7.820  0.00  0.00    -0.295 OA
ATOM     16  C21 ZIN A   1      18.210   2.556   9.469  0.00  0.00     0.084 C 
ATOM     17  C22 ZIN A   1      17.547   1.985  10.723  0.00  0.00     0.048 C 
ATOM     18  C23 ZIN A   1      18.638   1.782  11.814  0.00  0.00     0.102 C 
ATOM     19  C25 ZIN A   1      18.021   1.245  13.109  0.00  0.00     0.228 C 
ATOM     20  C27 ZIN A   1      17.251  -0.052  12.943  0.00  0.00     0.075 C 
ENDROOT
BRANCH   1  21
ATOM     21  C3  ZIN A   1      18.464   0.651  15.384  0.00  0.00     0.262 C 
BRANCH  21  22
ATOM     22  C2  ZIN A   1      19.008  -0.707  15.748  0.00  0.00    -0.010 C 
ATOM     23  C1  ZIN A   1      18.225  -1.599  16.300  0.00  0.00     0.008 C 
ENDBRANCH  21  22
ENDBRANCH   1  21
BRANCH  18  24
ATOM     24  O24 ZIN A   1      19.289   3.026  12.076  0.00  0.00    -0.386 OA
ATOM     25  H44 ZIN A   1      19.688   3.434  11.295  0.00  0.00     0.210 HD
ENDBRANCH  18  24
BRANCH  10  26
ATOM     26  O14 ZIN A   1      19.393  -3.148   8.671  0.00  0.00    -0.358 OA
ATOM     27  H39 ZIN A   1      18.730  -3.690   8.222  0.00  0.00     0.217 HD
ENDBRANCH  10  26
TORSDOF 4
ENDMDL
MODEL 3
REMARK VINA RESULT:      -7.5      2.528      4.583
REMARK  4 active torsions:
REMARK  status: ('A' for Active; 'I' for Inactive)
REMARK    1  A    between atoms: C2_2  and  C3_3 
REMARK    2  A    between atoms: C3_3  and  N4_4 
REMARK    3  A    between atoms: C13_13  and  O14_14 
REMARK    4  A    between atoms: C23_22  and  O24_23 
ROOT
ATOM      1  N4  ZIN A   1      18.404  -2.178  10.932  0.00  0.00    -0.060 N 
ATOM      2  H5  ZIN A   1      18.286  -1.853   9.984  0.00  0.00     0.280 HD
ATOM      3  C6  ZIN A   1      17.185  -1.889  11.695  0.00  0.00     0.237 C 
ATOM      4  C7  ZIN A   1      16.909  -0.381  11.691  0.00  0.00     0.048 C 
ATOM      5  C8  ZIN A   1      18.122   0.329  12.290  0.00  0.00     0.058 C 
ATOM      6  C9  ZIN A   1      18.385  -0.204  13.677  0.00  0.00    -0.001 A 
ATOM      7  C10 ZIN A   1      19.145  -1.305  14.003  0.00  0.00    -0.046 A 
ATOM      8  C11 ZIN A   1      19.225  -1.603  15.352  0.00  0.00     0.011 A 
ATOM      9  C12 ZIN A   1      18.613  -0.782  16.286  0.00  0.00     0.040 A 
ATOM     10  C13 ZIN A   1      17.915   0.374  15.945  0.00  0.00     0.099 A 
ATOM     11  C15 ZIN A   1      17.817   0.679  14.583  0.00  0.00     0.110 A 
ATOM     12  O16 ZIN A   1      17.283   1.736  13.935  0.00  0.00    -0.334 OA
ATOM     13  C17 ZIN A   1      17.840   1.795  12.587  0.00  0.00     0.214 C 
ATOM     14  C19 ZIN A   1      19.087   2.627  12.657  0.00  0.00     0.157 C 
ATOM     15  O20 ZIN A   1      19.064   3.644  13.308  0.00  0.00    -0.295 OA
ATOM     16  C21 ZIN A   1      20.359   2.254  11.959  0.00  0.00     0.084 C 
ATOM     17  C22 ZIN A   1      20.596   0.747  12.071  0.00  0.00     0.048 C 
ATOM     18  C23 ZIN A   1      19.365   0.004  11.477  0.00  0.00     0.102 C 
ATOM     19  C25 ZIN A   1      19.566  -1.513  11.529  0.00  0.00     0.228 C 
ATOM     20  C27 ZIN A   1      19.842  -2.059  12.918  0.00  0.00     0.075 C 
ENDROOT
BRANCH   1  21
ATOM     21  C3  ZIN A   1      18.632  -3.630  10.920  0.00  0.00     0.262 C 
BRANCH  21  22
ATOM     22  C2  ZIN A   1      17.420  -4.333  11.477  0.00  0.00    -0.010 C 
ATOM     23  C1  ZIN A   1      17.347  -5.639  11.440  0.00  0.00     0.008 C 
ENDBRANCH  21  22
ENDBRANCH   1  21
BRANCH  18  24
ATOM     24  O24 ZIN A   1      19.168   0.413  10.122  0.00  0.00    -0.386 OA
ATOM     25  H44 ZIN A   1      18.611  -0.188   9.607  0.00  0.00     0.210 HD
ENDBRANCH  18  24
BRANCH  10  26
ATOM     26  O14 ZIN A   1      17.352   1.170  16.894  0.00  0.00    -0.358 OA
ATOM     27  H39 ZIN A   1      17.976   1.769  17.325  0.00  0.00     0.217 HD
ENDBRANCH  10  26
TORSDOF 4
ENDMDL
MODEL 4
REMARK VINA RESULT:      -7.4      2.104      4.780
REMARK  4 active torsions:
REMARK  status: ('A' for Active; 'I' for Inactive)
REMARK    1  A    between atoms: C2_2  and  C3_3 
REMARK    2  A    between atoms: C3_3  and  N4_4 
REMARK    3  A    between atoms: C13_13  and  O14_14 
REMARK    4  A    between atoms: C23_22  and  O24_23 
ROOT
ATOM      1  N4  ZIN A   1      18.249   2.150  12.063  0.00  0.00    -0.060 N 
ATOM      2  H5  ZIN A   1      18.134   1.823  13.011  0.00  0.00     0.280 HD
ATOM      3  C6  ZIN A   1      17.055   1.801  11.285  0.00  0.00     0.237 C 
ATOM      4  C7  ZIN A   1      16.852   0.282  11.290  0.00  0.00     0.048 C 
ATOM      5  C8  ZIN A   1      18.106  -0.370  10.709  0.00  0.00     0.058 C 
ATOM      6  C9  ZIN A   1      18.361   0.172   9.324  0.00  0.00    -0.001 A 
ATOM      7  C10 ZIN A   1      19.071   1.307   9.004  0.00  0.00    -0.046 A 
ATOM      8  C11 ZIN A   1      19.154   1.605   7.655  0.00  0.00     0.011 A 
ATOM      9  C12 ZIN A   1      18.595   0.753   6.716  0.00  0.00     0.040 A 
ATOM     10  C13 ZIN A   1      17.948  -0.434   7.052  0.00  0.00     0.099 A 
ATOM     11  C15 ZIN A   1      17.848  -0.741   8.413  0.00  0.00     0.110 A 
ATOM     12  O16 ZIN A   1      17.357  -1.821   9.058  0.00  0.00    -0.334 OA
ATOM     13  C17 ZIN A   1      17.900  -1.850  10.413  0.00  0.00     0.214 C 
ATOM     14  C19 ZIN A   1      19.186  -2.620  10.362  0.00  0.00     0.157 C 
ATOM     15  O20 ZIN A   1      19.220  -3.639   9.714  0.00  0.00    -0.295 OA
ATOM     16  C21 ZIN A   1      20.429  -2.185  11.075  0.00  0.00     0.084 C 
ATOM     17  C22 ZIN A   1      20.595  -0.668  10.961  0.00  0.00     0.048 C 
ATOM     18  C23 ZIN A   1      19.321   0.016  11.537  0.00  0.00     0.102 C 
ATOM     19  C25 ZIN A   1      19.450   1.541  11.483  0.00  0.00     0.228 C 
ATOM     20  C27 ZIN A   1      19.717   2.096  10.095  0.00  0.00     0.075 C 
ENDROOT
BRANCH   1  21
ATOM     21  C3  ZIN A   1      18.406   3.611  12.073  0.00  0.00     0.262 C 
BRANCH  21  22
ATOM     22  C2  ZIN A   1      17.250   4.246  11.343  0.00  0.00    -0.010 C 
ATOM     23  C1  ZIN A   1      17.475   5.126  10.400  0.00  0.00     0.008 C 
ENDBRANCH  21  22
ENDBRANCH   1  21
BRANCH  18  24
ATOM     24  O24 ZIN A   1      19.127  -0.398  12.890  0.00  0.00    -0.386 OA
ATOM     25  H44 ZIN A   1      18.485   0.137  13.377  0.00  0.00     0.210 HD
ENDBRANCH  18  24
BRANCH  10  26
ATOM     26  O14 ZIN A   1      17.437  -1.258   6.098  0.00  0.00    -0.358 OA
ATOM     27  H39 ZIN A   1      17.045  -0.794   5.346  0.00  0.00     0.217 HD
ENDBRANCH  10  26
TORSDOF 4
ENDMDL
MODEL 5
REMARK VINA RESULT:      -7.1      2.589      4.342
REMARK  4 active torsions:
REMARK  status: ('A' for Active; 'I' for Inactive)
REMARK    1  A    between atoms: C2_2  and  C3_3 
REMARK    2  A    between atoms: C3_3  and  N4_4 
REMARK    3  A    between atoms: C13_13  and  O14_14 
REMARK    4  A    between atoms: C23_22  and  O24_23 
ROOT
ATOM      1  N4  ZIN A   1      19.248   2.267  11.135  0.00  0.00    -0.060 N 
ATOM      2  H5  ZIN A   1      19.605   2.122  10.202  0.00  0.00     0.280 HD
ATOM      3  C6  ZIN A   1      20.274   1.881  12.109  0.00  0.00     0.237 C 
ATOM      4  C7  ZIN A   1      20.651   0.407  11.917  0.00  0.00     0.048 C 
ATOM      5  C8  ZIN A   1      19.386  -0.435  12.078  0.00  0.00     0.058 C 
ATOM      6  C9  ZIN A   1      18.771  -0.169  13.430  0.00  0.00    -0.001 A 
ATOM      7  C10 ZIN A   1      17.880   0.832  13.745  0.00  0.00    -0.046 A 
ATOM      8  C11 ZIN A   1      17.468   0.879  15.066  0.00  0.00     0.011 A 
ATOM      9  C12 ZIN A   1      17.904  -0.079  15.967  0.00  0.00     0.040 A 
ATOM     10  C13 ZIN A   1      18.743  -1.133  15.614  0.00  0.00     0.099 A 
ATOM     11  C15 ZIN A   1      19.175  -1.185  14.284  0.00  0.00     0.110 A 
ATOM     12  O16 ZIN A   1      19.919  -2.091  13.615  0.00  0.00    -0.334 OA
ATOM     13  C17 ZIN A   1      19.694  -1.922  12.183  0.00  0.00     0.214 C 
ATOM     14  C19 ZIN A   1      18.528  -2.789  11.809  0.00  0.00     0.157 C 
ATOM     15  O20 ZIN A   1      18.472  -3.906  12.265  0.00  0.00    -0.295 OA
ATOM     16  C21 ZIN A   1      17.429  -2.333  10.899  0.00  0.00     0.084 C 
ATOM     17  C22 ZIN A   1      17.065  -0.879  11.203  0.00  0.00     0.048 C 
ATOM     18  C23 ZIN A   1      18.345  -0.005  11.057  0.00  0.00     0.102 C 
ATOM     19  C25 ZIN A   1      18.029   1.471  11.314  0.00  0.00     0.228 C 
ATOM     20  C27 ZIN A   1      17.401   1.749  12.668  0.00  0.00     0.075 C 
ENDROOT
BRANCH   1  21
ATOM     21  C3  ZIN A   1      18.926   3.689  11.314  0.00  0.00     0.262 C 
BRANCH  21  22
ATOM     22  C2  ZIN A   1      17.977   4.130  10.228  0.00  0.00    -0.010 C 
ATOM     23  C1  ZIN A   1      17.023   4.985  10.499  0.00  0.00     0.008 C 
ENDBRANCH  21  22
ENDBRANCH   1  21
BRANCH  18  24
ATOM     24  O24 ZIN A   1      18.879  -0.156   9.741  0.00  0.00    -0.386 OA
ATOM     25  H44 ZIN A   1      18.208  -0.297   9.057  0.00  0.00     0.210 HD
ENDBRANCH  18  24
BRANCH  10  26
ATOM     26  O14 ZIN A   1      19.126  -2.071  16.523  0.00  0.00    -0.358 OA
ATOM     27  H39 ZIN A   1      18.451  -2.275  17.185  0.00  0.00     0.217 HD
ENDBRANCH  10  26
TORSDOF 4
ENDMDL
MODEL 6
REMARK VINA RESULT:      -7.0      2.526      5.997
REMARK  4 active torsions:
REMARK  status: ('A' for Active; 'I' for Inactive)
REMARK    1  A    between atoms: C2_2  and  C3_3 
REMARK    2  A    between atoms: C3_3  and  N4_4 
REMARK    3  A    between atoms: C13_13  and  O14_14 
REMARK    4  A    between atoms: C23_22  and  O24_23 
ROOT
ATOM      1  N4  ZIN A   1      19.238   0.443  12.010  0.00  0.00    -0.060 N 
ATOM      2  H5  ZIN A   1      19.634   1.315  11.694  0.00  0.00     0.280 HD
ATOM      3  C6  ZIN A   1      20.202  -0.638  11.775  0.00  0.00     0.237 C 
ATOM      4  C7  ZIN A   1      20.535  -0.727  10.281  0.00  0.00     0.048 C 
ATOM      5  C8  ZIN A   1      19.235  -0.964   9.514  0.00  0.00     0.058 C 
ATOM      6  C9  ZIN A   1      18.567  -2.214  10.030  0.00  0.00    -0.001 A 
ATOM      7  C10 ZIN A   1      17.696  -2.301  11.093  0.00  0.00    -0.046 A 
ATOM      8  C11 ZIN A   1      17.224  -3.569  11.383  0.00  0.00     0.011 A 
ATOM      9  C12 ZIN A   1      17.582  -4.646  10.588  0.00  0.00     0.040 A 
ATOM     10  C13 ZIN A   1      18.400  -4.529   9.467  0.00  0.00     0.099 A 
ATOM     11  C15 ZIN A   1      18.893  -3.253   9.171  0.00  0.00     0.110 A 
ATOM     12  O16 ZIN A   1      19.636  -2.793   8.141  0.00  0.00    -0.334 OA
ATOM     13  C17 ZIN A   1      19.487  -1.343   8.061  0.00  0.00     0.214 C 
ATOM     14  C19 ZIN A   1      18.311  -1.065   7.173  0.00  0.00     0.157 C 
ATOM     15  O20 ZIN A   1      18.194  -1.706   6.156  0.00  0.00    -0.295 OA
ATOM     16  C21 ZIN A   1      17.273  -0.032   7.489  0.00  0.00     0.084 C 
ATOM     17  C22 ZIN A   1      16.946  -0.057   8.983  0.00  0.00     0.048 C 
ATOM     18  C23 ZIN A   1      18.261   0.171   9.784  0.00  0.00     0.102 C 
ATOM     19  C25 ZIN A   1      17.984   0.193  11.290  0.00  0.00     0.228 C 
ATOM     20  C27 ZIN A   1      17.302  -1.056  11.818  0.00  0.00     0.075 C 
ENDROOT
BRANCH   1  21
ATOM     21  C3  ZIN A   1      18.957   0.533  13.450  0.00  0.00     0.262 C 
BRANCH  21  22
ATOM     22  C2  ZIN A   1      19.652  -0.596  14.168  0.00  0.00    -0.010 C 
ATOM     23  C1  ZIN A   1      19.042  -1.229  15.138  0.00  0.00     0.008 C 
ENDBRANCH  21  22
ENDBRANCH   1  21
BRANCH  18  24
ATOM     24  O24 ZIN A   1      18.852   1.410   9.390  0.00  0.00    -0.386 OA
ATOM     25  H44 ZIN A   1      19.620   1.666   9.920  0.00  0.00     0.210 HD
ENDBRANCH  18  24
BRANCH  10  26
ATOM     26  O14 ZIN A   1      18.705  -5.606   8.695  0.00  0.00    -0.358 OA
ATOM     27  H39 ZIN A   1      19.266  -5.399   7.935  0.00  0.00     0.217 HD
ENDBRANCH  10  26
TORSDOF 4
ENDMDL
MODEL 7
REMARK VINA RESULT:      -6.9      2.467      3.518
REMARK  4 active torsions:
REMARK  status: ('A' for Active; 'I' for Inactive)
REMARK    1  A    between atoms: C2_2  and  C3_3 
REMARK    2  A    between atoms: C3_3  and  N4_4 
REMARK    3  A    between atoms: C13_13  and  O14_14 
REMARK    4  A    between atoms: C23_22  and  O24_23 
ROOT
ATOM      1  N4  ZIN A   1      19.271  -0.035   7.957  0.00  0.00    -0.060 N 
ATOM      2  H5  ZIN A   1      19.893  -0.515   7.323  0.00  0.00     0.280 HD
ATOM      3  C6  ZIN A   1      20.017   0.358   9.157  0.00  0.00     0.237 C 
ATOM      4  C7  ZIN A   1      20.601  -0.885   9.840  0.00  0.00     0.048 C 
ATOM      5  C8  ZIN A   1      19.449  -1.828  10.184  0.00  0.00     0.058 C 
ATOM      6  C9  ZIN A   1      18.451  -1.107  11.056  0.00  0.00    -0.001 A 
ATOM      7  C10 ZIN A   1      17.396  -0.332  10.629  0.00  0.00    -0.046 A 
ATOM      8  C11 ZIN A   1      16.625   0.238  11.626  0.00  0.00     0.011 A 
ATOM      9  C12 ZIN A   1      16.895  -0.032  12.958  0.00  0.00     0.040 A 
ATOM     10  C13 ZIN A   1      17.917  -0.883  13.372  0.00  0.00     0.099 A 
ATOM     11  C15 ZIN A   1      18.711  -1.457  12.373  0.00  0.00     0.110 A 
ATOM     12  O16 ZIN A   1      19.715  -2.359  12.429  0.00  0.00    -0.334 OA
ATOM     13  C17 ZIN A   1      19.887  -2.956  11.108  0.00  0.00     0.214 C 
ATOM     14  C19 ZIN A   1      18.983  -4.152  11.039  0.00  0.00     0.157 C 
ATOM     15  O20 ZIN A   1      18.931  -4.889  11.994  0.00  0.00    -0.295 OA
ATOM     16  C21 ZIN A   1      18.142  -4.473   9.841  0.00  0.00     0.084 C 
ATOM     17  C22 ZIN A   1      17.540  -3.190   9.264  0.00  0.00     0.048 C 
ATOM     18  C23 ZIN A   1      18.698  -2.209   8.919  0.00  0.00     0.102 C 
ATOM     19  C25 ZIN A   1      18.153  -0.919   8.300  0.00  0.00     0.228 C 
ATOM     20  C27 ZIN A   1      17.139  -0.192   9.164  0.00  0.00     0.075 C 
ENDROOT
BRANCH   1  21
ATOM     21  C3  ZIN A   1      18.749   1.171   7.300  0.00  0.00     0.262 C 
BRANCH  21  22
ATOM     22  C2  ZIN A   1      18.388   0.850   5.872  0.00  0.00    -0.010 C 
ATOM     23  C1  ZIN A   1      19.251   0.238   5.100  0.00  0.00     0.008 C 
ENDBRANCH  21  22
ENDBRANCH   1  21
BRANCH  18  24
ATOM     24  O24 ZIN A   1      19.597  -2.835   8.002  0.00  0.00    -0.386 OA
ATOM     25  H44 ZIN A   1      20.410  -2.335   7.845  0.00  0.00     0.210 HD
ENDBRANCH  18  24
BRANCH  10  26
ATOM     26  O14 ZIN A   1      18.133  -1.145  14.690  0.00  0.00    -0.358 OA
ATOM     27  H39 ZIN A   1      17.447  -0.799  15.277  0.00  0.00     0.217 HD
ENDBRANCH  10  26
TORSDOF 4
ENDMDL
MODEL 8
REMARK VINA RESULT:      -6.7      2.557      4.470
REMARK  4 active torsions:
REMARK  status: ('A' for Active; 'I' for Inactive)
REMARK    1  A    between atoms: C2_2  and  C3_3 
REMARK    2  A    between atoms: C3_3  and  N4_4 
REMARK    3  A    between atoms: C13_13  and  O14_14 
REMARK    4  A    between atoms: C23_22  and  O24_23 
ROOT
ATOM      1  N4  ZIN A   1      18.955  -3.609  10.170  0.00  0.00    -0.060 N 
ATOM      2  H5  ZIN A   1      18.694  -3.620   9.196  0.00  0.00     0.280 HD
ATOM      3  C6  ZIN A   1      17.743  -3.543  10.993  0.00  0.00     0.237 C 
ATOM      4  C7  ZIN A   1      16.947  -2.277  10.652  0.00  0.00     0.048 C 
ATOM      5  C8  ZIN A   1      17.849  -1.067  10.891  0.00  0.00     0.058 C 
ATOM      6  C9  ZIN A   1      18.336  -1.074  12.319  0.00  0.00    -0.001 A 
ATOM      7  C10 ZIN A   1      19.450  -1.721  12.804  0.00  0.00    -0.046 A 
ATOM      8  C11 ZIN A   1      19.681  -1.588  14.162  0.00  0.00     0.011 A 
ATOM      9  C12 ZIN A   1      18.852  -0.792  14.936  0.00  0.00     0.040 A 
ATOM     10  C13 ZIN A   1      17.775  -0.078  14.416  0.00  0.00     0.099 A 
ATOM     11  C15 ZIN A   1      17.525  -0.214  13.046  0.00  0.00     0.110 A 
ATOM     12  O16 ZIN A   1      16.625   0.380  12.232  0.00  0.00    -0.334 OA
ATOM     13  C17 ZIN A   1      17.075   0.244  10.850  0.00  0.00     0.214 C 
ATOM     14  C19 ZIN A   1      17.945   1.427  10.546  0.00  0.00     0.157 C 
ATOM     15  O20 ZIN A   1      17.585   2.517  10.922  0.00  0.00    -0.295 OA
ATOM     16  C21 ZIN A   1      19.240   1.321   9.800  0.00  0.00     0.084 C 
ATOM     17  C22 ZIN A   1      20.002   0.073  10.249  0.00  0.00     0.048 C 
ATOM     18  C23 ZIN A   1      19.095  -1.172  10.026  0.00  0.00     0.102 C 
ATOM     19  C25 ZIN A   1      19.826  -2.457  10.425  0.00  0.00     0.228 C 
ATOM     20  C27 ZIN A   1      20.329  -2.471  11.857  0.00  0.00     0.075 C 
ENDROOT
BRANCH   1  21
ATOM     21  C3  ZIN A   1      19.685  -4.845  10.488  0.00  0.00     0.262 C 
BRANCH  21  22
ATOM     22  C2  ZIN A   1      19.864  -5.660   9.233  0.00  0.00    -0.010 C 
ATOM     23  C1  ZIN A   1      18.832  -6.241   8.676  0.00  0.00     0.008 C 
ENDBRANCH  21  22
ENDBRANCH   1  21
BRANCH  18  24
ATOM     24  O24 ZIN A   1      18.716  -1.246   8.651  0.00  0.00    -0.386 OA
ATOM     25  H44 ZIN A   1      17.919  -0.743   8.435  0.00  0.00     0.210 HD
ENDBRANCH  18  24
BRANCH  10  26
ATOM     26  O14 ZIN A   1      17.001   0.716  15.204  0.00  0.00    -0.358 OA
ATOM     27  H39 ZIN A   1      17.397   1.574  15.407  0.00  0.00     0.217 HD
ENDBRANCH  10  26
TORSDOF 4
ENDMDL
MODEL 9
REMARK VINA RESULT:      -6.7      2.212      5.187
REMARK  4 active torsions:
REMARK  status: ('A' for Active; 'I' for Inactive)
REMARK    1  A    between atoms: C2_2  and  C3_3 
REMARK    2  A    between atoms: C3_3  and  N4_4 
REMARK    3  A    between atoms: C13_13  and  O14_14 
REMARK    4  A    between atoms: C23_22  and  O24_23 
ROOT
ATOM      1  N4  ZIN A   1      18.677   0.766  11.430  0.00  0.00    -0.060 N 
ATOM      2  H5  ZIN A   1      18.505   0.735  12.424  0.00  0.00     0.280 HD
ATOM      3  C6  ZIN A   1      17.452   0.385  10.717  0.00  0.00     0.237 C 
ATOM      4  C7  ZIN A   1      17.025  -1.028  11.129  0.00  0.00     0.048 C 
ATOM      5  C8  ZIN A   1      18.173  -1.986  10.814  0.00  0.00     0.058 C 
ATOM      6  C9  ZIN A   1      18.520  -1.893   9.349  0.00  0.00    -0.001 A 
ATOM      7  C10 ZIN A   1      19.395  -1.004   8.766  0.00  0.00    -0.046 A 
ATOM      8  C11 ZIN A   1      19.535  -1.108   7.393  0.00  0.00     0.011 A 
ATOM      9  C12 ZIN A   1      18.865  -2.101   6.697  0.00  0.00     0.040 A 
ATOM     10  C13 ZIN A   1      18.045  -3.045   7.311  0.00  0.00     0.099 A 
ATOM     11  C15 ZIN A   1      17.887  -2.942   8.698  0.00  0.00     0.110 A 
ATOM     12  O16 ZIN A   1      17.233  -3.719   9.588  0.00  0.00    -0.334 OA
ATOM     13  C17 ZIN A   1      17.752  -3.445  10.925  0.00  0.00     0.214 C 
ATOM     14  C19 ZIN A   1      18.909  -4.372  11.153  0.00  0.00     0.157 C 
ATOM     15  O20 ZIN A   1      18.798  -5.525  10.812  0.00  0.00    -0.295 OA
ATOM     16  C21 ZIN A   1      20.196  -3.934  11.782  0.00  0.00     0.084 C 
ATOM     17  C22 ZIN A   1      20.587  -2.548  11.265  0.00  0.00     0.048 C 
ATOM     18  C23 ZIN A   1      19.424  -1.559  11.565  0.00  0.00     0.102 C 
ATOM     19  C25 ZIN A   1      19.779  -0.144  11.101  0.00  0.00     0.228 C 
ATOM     20  C27 ZIN A   1      20.140  -0.040   9.631  0.00  0.00     0.075 C 
ENDROOT
BRANCH   1  21
ATOM     21  C3  ZIN A   1      19.050   2.135  11.047  0.00  0.00     0.262 C 
BRANCH  21  22
ATOM     22  C2  ZIN A   1      17.873   2.813  10.394  0.00  0.00    -0.010 C 
ATOM     23  C1  ZIN A   1      17.891   4.106  10.190  0.00  0.00     0.008 C 
ENDBRANCH  21  22
ENDBRANCH   1  21
BRANCH  18  24
ATOM     24  O24 ZIN A   1      19.156  -1.547  12.968  0.00  0.00    -0.386 OA
ATOM     25  H44 ZIN A   1      19.782  -1.020  13.484  0.00  0.00     0.210 HD
ENDBRANCH  18  24
BRANCH  10  26
ATOM     26  O14 ZIN A   1      17.427  -4.022   6.595  0.00  0.00    -0.358 OA
ATOM     27  H39 ZIN A   1      17.065  -3.721   5.751  0.00  0.00     0.217 HD
ENDBRANCH  10  26
TORSDOF 4
ENDMDL
