MODEL 1
REMARK VINA RESULT:      -9.0      0.000      0.000
REMARK  6 active torsions:
REMARK  status: ('A' for Active; 'I' for Inactive)
REMARK    1  A    between atoms: C8_8  and  O10_9 
REMARK    2  A    between atoms: O10_9  and  C11_10 
REMARK    3  A    between atoms: C11_10  and  C13_12 
REMARK    4  A    between atoms: C13_12  and  O14_13 
REMARK    5  A    between atoms: C13_12  and  C15_14 
REMARK    6  A    between atoms: C13_12  and  C21_20 
ROOT
ATOM      1  C13 <0> d   1      19.126   0.529   9.976  0.00  0.00     0.201 C 
ENDROOT
BRANCH   1   2
ATOM      2  C11 <0> d   1      18.348  -0.493  10.764  0.00  0.00     0.303 C 
ATOM      3  O12 <0> d   1      17.285  -0.195  11.256  0.00  0.00    -0.261 OA
BRANCH   2   4
ATOM      4  O10 <0> d   1      18.835  -1.735  10.917  0.00  0.00    -0.311 OA
BRANCH   4   5
ATOM      5  C8  <0> d   1      17.874  -2.823  10.922  0.00  0.00     0.162 C 
ATOM      6  C5  <0> d   1      18.344  -3.920  11.887  0.00  0.00     0.020 C 
ATOM      7  C4  <0> d   1      17.328  -5.068  11.845  0.00  0.00     0.035 C 
ATOM      8  C6  <0> d   1      19.696  -4.451  11.396  0.00  0.00     0.035 C 
ATOM      9  C3  <0> d   1      17.234  -5.591  10.411  0.00  0.00     0.237 C 
ATOM     10  N2  <0> d   1      18.137  -4.834   9.540  0.00  0.00    -0.068 N 
ATOM     11  C1  <0> d   1      18.013  -5.360   8.174  0.00  0.00     0.272 C 
ATOM     12  C7  <0> d   1      19.526  -4.994   9.974  0.00  0.00     0.237 C 
ATOM     13  C27 <0> d   1      17.758  -3.420   9.528  0.00  0.00     0.269 C 
ENDBRANCH   4   5
ENDBRANCH   2   4
ENDBRANCH   1   2
BRANCH   1  14
ATOM     14  O14 <0> d   1      20.518   0.211  10.027  0.00  0.00    -0.371 OA
ATOM     15  H40 <0> d   1      20.813  -0.382   9.323  0.00  0.00     0.212 HD
ENDBRANCH   1  14
BRANCH   1  16
ATOM     16  C15 <0> d   1      18.661   0.519   8.542  0.00  0.00    -0.009 A 
ATOM     17  C20 <0> d   1      17.517  -0.172   8.191  0.00  0.00     0.011 A 
ATOM     18  C19 <0> d   1      17.089  -0.178   6.877  0.00  0.00     0.001 A 
ATOM     19  C18 <0> d   1      17.809   0.500   5.912  0.00  0.00     0.000 A 
ATOM     20  C17 <0> d   1      18.957   1.187   6.262  0.00  0.00     0.001 A 
ATOM     21  C16 <0> d   1      19.383   1.197   7.577  0.00  0.00     0.011 A 
ENDBRANCH   1  16
BRANCH   1  22
ATOM     22  C21 <0> d   1      18.901   1.897  10.567  0.00  0.00    -0.009 A 
ATOM     23  C26 <0> d   1      19.785   2.399  11.504  0.00  0.00     0.011 A 
ATOM     24  C25 <0> d   1      19.582   3.655  12.043  0.00  0.00     0.001 A 
ATOM     25  C24 <0> d   1      18.490   4.406  11.651  0.00  0.00     0.000 A 
ATOM     26  C23 <0> d   1      17.603   3.902  10.718  0.00  0.00     0.001 A 
ATOM     27  C22 <0> d   1      17.809   2.648  10.176  0.00  0.00     0.011 A 
ENDBRANCH   1  22
TORSDOF 6
ENDMDL
MODEL 2
REMARK VINA RESULT:      -8.8      2.300      3.684
REMARK  6 active torsions:
REMARK  status: ('A' for Active; 'I' for Inactive)
REMARK    1  A    between atoms: C8_8  and  O10_9 
REMARK    2  A    between atoms: O10_9  and  C11_10 
REMARK    3  A    between atoms: C11_10  and  C13_12 
REMARK    4  A    between atoms: C13_12  and  O14_13 
REMARK    5  A    between atoms: C13_12  and  C15_14 
REMARK    6  A    between atoms: C13_12  and  C21_20 
ROOT
ATOM      1  C13 <0> d   1      18.861  -0.437  12.253  0.00  0.00     0.201 C 
ENDROOT
BRANCH   1   2
ATOM      2  C11 <0> d   1      17.805  -1.244  11.542  0.00  0.00     0.303 C 
ATOM      3  O12 <0> d   1      16.648  -1.153  11.877  0.00  0.00    -0.261 OA
BRANCH   2   4
ATOM      4  O10 <0> d   1      18.151  -2.062  10.535  0.00  0.00    -0.311 OA
BRANCH   4   5
ATOM      5  C8  <0> d   1      17.493  -3.355  10.482  0.00  0.00     0.162 C 
ATOM      6  C5  <0> d   1      18.097  -4.284  11.544  0.00  0.00     0.020 C 
ATOM      7  C4  <0> d   1      17.406  -5.649  11.441  0.00  0.00     0.035 C 
ATOM      8  C6  <0> d   1      19.587  -4.470  11.234  0.00  0.00     0.035 C 
ATOM      9  C3  <0> d   1      17.618  -6.204  10.031  0.00  0.00     0.237 C 
ATOM     10  N2  <0> d   1      18.406  -5.261   9.233  0.00  0.00    -0.068 N 
ATOM     11  C1  <0> d   1      18.581  -5.825   7.888  0.00  0.00     0.272 C 
ATOM     12  C7  <0> d   1      19.729  -5.063   9.829  0.00  0.00     0.237 C 
ATOM     13  C27 <0> d   1      17.696  -3.986   9.114  0.00  0.00     0.269 C 
ENDBRANCH   4   5
ENDBRANCH   2   4
ENDBRANCH   1   2
BRANCH   1  14
ATOM     14  O14 <0> d   1      20.148  -0.998  11.987  0.00  0.00    -0.371 OA
ATOM     15  H40 <0> d   1      20.659  -1.204  12.781  0.00  0.00     0.212 HD
ENDBRANCH   1  14
BRANCH   1  16
ATOM     16  C15 <0> d   1      18.822   0.987  11.761  0.00  0.00    -0.009 A 
ATOM     17  C20 <0> d   1      17.743   1.434  11.022  0.00  0.00     0.011 A 
ATOM     18  C19 <0> d   1      17.706   2.741  10.575  0.00  0.00     0.001 A 
ATOM     19  C18 <0> d   1      18.751   3.599  10.859  0.00  0.00     0.000 A 
ATOM     20  C17 <0> d   1      19.833   3.151  11.594  0.00  0.00     0.001 A 
ATOM     21  C16 <0> d   1      19.869   1.845  12.045  0.00  0.00     0.011 A 
ENDBRANCH   1  16
BRANCH   1  22
ATOM     22  C21 <0> d   1      18.599  -0.464  13.737  0.00  0.00    -0.009 A 
ATOM     23  C26 <0> d   1      17.748   0.466  14.305  0.00  0.00     0.011 A 
ATOM     24  C25 <0> d   1      17.503   0.439  15.665  0.00  0.00     0.001 A 
ATOM     25  C24 <0> d   1      18.116  -0.512  16.458  0.00  0.00     0.000 A 
ATOM     26  C23 <0> d   1      18.972  -1.439  15.891  0.00  0.00     0.001 A 
ATOM     27  C22 <0> d   1      19.212  -1.414  14.531  0.00  0.00     0.011 A 
ENDBRANCH   1  22
TORSDOF 6
ENDMDL
MODEL 3
REMARK VINA RESULT:      -8.6      4.015      6.378
REMARK  6 active torsions:
REMARK  status: ('A' for Active; 'I' for Inactive)
REMARK    1  A    between atoms: C8_8  and  O10_9 
REMARK    2  A    between atoms: O10_9  and  C11_10 
REMARK    3  A    between atoms: C11_10  and  C13_12 
REMARK    4  A    between atoms: C13_12  and  O14_13 
REMARK    5  A    between atoms: C13_12  and  C15_14 
REMARK    6  A    between atoms: C13_12  and  C21_20 
ROOT
ATOM      1  C13 <0> d   1      17.998  -0.468  11.777  0.00  0.00     0.201 C 
ENDROOT
BRANCH   1   2
ATOM      2  C11 <0> d   1      18.698   0.091  12.989  0.00  0.00     0.303 C 
ATOM      3  O12 <0> d   1      19.780   0.617  12.873  0.00  0.00    -0.261 OA
BRANCH   2   4
ATOM      4  O10 <0> d   1      18.119   0.005  14.197  0.00  0.00    -0.311 OA
BRANCH   4   5
ATOM      5  C8  <0> d   1      19.003  -0.094  15.346  0.00  0.00     0.162 C 
ATOM      6  C5  <0> d   1      18.535  -1.237  16.257  0.00  0.00     0.020 C 
ATOM      7  C4  <0> d   1      19.466  -1.295  17.475  0.00  0.00     0.035 C 
ATOM      8  C6  <0> d   1      17.117  -0.917  16.746  0.00  0.00     0.035 C 
ATOM      9  C3  <0> d   1      19.415   0.051  18.199  0.00  0.00     0.237 C 
ATOM     10  N2  <0> d   1      18.502   0.962  17.504  0.00  0.00    -0.068 N 
ATOM     11  C1  <0> d   1      18.487   2.243  18.223  0.00  0.00     0.272 C 
ATOM     12  C7  <0> d   1      17.142   0.419  17.494  0.00  0.00     0.237 C 
ATOM     13  C27 <0> d   1      18.973   1.202  16.138  0.00  0.00     0.269 C 
ENDBRANCH   4   5
ENDBRANCH   2   4
ENDBRANCH   1   2
BRANCH   1  14
ATOM     14  O14 <0> d   1      16.585  -0.353  11.949  0.00  0.00    -0.371 OA
ATOM     15  H40 <0> d   1      16.304  -0.292  12.872  0.00  0.00     0.212 HD
ENDBRANCH   1  14
BRANCH   1  16
ATOM     16  C15 <0> d   1      18.420   0.303  10.552  0.00  0.00    -0.009 A 
ATOM     17  C20 <0> d   1      18.098   1.641  10.433  0.00  0.00     0.011 A 
ATOM     18  C19 <0> d   1      18.489   2.349   9.312  0.00  0.00     0.001 A 
ATOM     19  C18 <0> d   1      19.194   1.715   8.306  0.00  0.00     0.000 A 
ATOM     20  C17 <0> d   1      19.512   0.375   8.423  0.00  0.00     0.001 A 
ATOM     21  C16 <0> d   1      19.125  -0.332   9.546  0.00  0.00     0.011 A 
ENDBRANCH   1  16
BRANCH   1  22
ATOM     22  C21 <0> d   1      18.368  -1.920  11.609  0.00  0.00    -0.009 A 
ATOM     23  C26 <0> d   1      17.406  -2.838  11.229  0.00  0.00     0.011 A 
ATOM     24  C25 <0> d   1      17.746  -4.168  11.070  0.00  0.00     0.001 A 
ATOM     25  C24 <0> d   1      19.044  -4.582  11.300  0.00  0.00     0.000 A 
ATOM     26  C23 <0> d   1      20.005  -3.665  11.685  0.00  0.00     0.001 A 
ATOM     27  C22 <0> d   1      19.666  -2.334  11.840  0.00  0.00     0.011 A 
ENDBRANCH   1  22
TORSDOF 6
ENDMDL
MODEL 4
REMARK VINA RESULT:      -8.4      0.787      3.669
REMARK  6 active torsions:
REMARK  status: ('A' for Active; 'I' for Inactive)
REMARK    1  A    between atoms: C8_8  and  O10_9 
REMARK    2  A    between atoms: O10_9  and  C11_10 
REMARK    3  A    between atoms: C11_10  and  C13_12 
REMARK    4  A    between atoms: C13_12  and  O14_13 
REMARK    5  A    between atoms: C13_12  and  C15_14 
REMARK    6  A    between atoms: C13_12  and  C21_20 
ROOT
ATOM      1  C13 <0> d   1      17.844   0.603  10.419  0.00  0.00     0.201 C 
ENDROOT
BRANCH   1   2
ATOM      2  C11 <0> d   1      18.710  -0.472  11.024  0.00  0.00     0.303 C 
ATOM      3  O12 <0> d   1      19.188  -0.316  12.122  0.00  0.00    -0.261 OA
BRANCH   2   4
ATOM      4  O10 <0> d   1      18.948  -1.604  10.342  0.00  0.00    -0.311 OA
BRANCH   4   5
ATOM      5  C8  <0> d   1      18.040  -2.715  10.571  0.00  0.00     0.162 C 
ATOM      6  C5  <0> d   1      18.586  -3.600  11.700  0.00  0.00     0.020 C 
ATOM      7  C4  <0> d   1      17.625  -4.779  11.896  0.00  0.00     0.035 C 
ATOM      8  C6  <0> d   1      19.949  -4.153  11.267  0.00  0.00     0.035 C 
ATOM      9  C3  <0> d   1      17.521  -5.554  10.582  0.00  0.00     0.237 C 
ATOM     10  N2  <0> d   1      18.364  -4.928   9.561  0.00  0.00    -0.068 N 
ATOM     11  C1  <0> d   1      18.232  -5.694   8.315  0.00  0.00     0.272 C 
ATOM     12  C7  <0> d   1      19.770  -4.948   9.971  0.00  0.00     0.237 C 
ATOM     13  C27 <0> d   1      17.919  -3.555   9.311  0.00  0.00     0.269 C 
ENDBRANCH   4   5
ENDBRANCH   2   4
ENDBRANCH   1   2
BRANCH   1  14
ATOM     14  O14 <0> d   1      16.479   0.368  10.768  0.00  0.00    -0.371 OA
ATOM     15  H40 <0> d   1      16.268   0.570  11.690  0.00  0.00     0.212 HD
ENDBRANCH   1  14
BRANCH   1  16
ATOM     16  C15 <0> d   1      18.273   1.949  10.945  0.00  0.00    -0.009 A 
ATOM     17  C20 <0> d   1      17.345   2.962  11.090  0.00  0.00     0.011 A 
ATOM     18  C19 <0> d   1      17.737   4.195  11.576  0.00  0.00     0.001 A 
ATOM     19  C18 <0> d   1      19.060   4.417  11.909  0.00  0.00     0.000 A 
ATOM     20  C17 <0> d   1      19.990   3.405  11.758  0.00  0.00     0.001 A 
ATOM     21  C16 <0> d   1      19.597   2.171  11.276  0.00  0.00     0.011 A 
ENDBRANCH   1  16
BRANCH   1  22
ATOM     22  C21 <0> d   1      17.990   0.580   8.919  0.00  0.00    -0.009 A 
ATOM     23  C26 <0> d   1      17.102  -0.149   8.150  0.00  0.00     0.011 A 
ATOM     24  C25 <0> d   1      17.232  -0.167   6.774  0.00  0.00     0.001 A 
ATOM     25  C24 <0> d   1      18.255   0.538   6.168  0.00  0.00     0.000 A 
ATOM     26  C23 <0> d   1      19.146   1.264   6.938  0.00  0.00     0.001 A 
ATOM     27  C22 <0> d   1      19.012   1.284   8.312  0.00  0.00     0.011 A 
ENDBRANCH   1  22
TORSDOF 6
ENDMDL
MODEL 5
REMARK VINA RESULT:      -8.3      2.283      6.402
REMARK  6 active torsions:
REMARK  status: ('A' for Active; 'I' for Inactive)
REMARK    1  A    between atoms: C8_8  and  O10_9 
REMARK    2  A    between atoms: O10_9  and  C11_10 
REMARK    3  A    between atoms: C11_10  and  C13_12 
REMARK    4  A    between atoms: C13_12  and  O14_13 
REMARK    5  A    between atoms: C13_12  and  C15_14 
REMARK    6  A    between atoms: C13_12  and  C21_20 
ROOT
ATOM      1  C13 <0> d   1      19.203  -0.513  10.254  0.00  0.00     0.201 C 
ENDROOT
BRANCH   1   2
ATOM      2  C11 <0> d   1      18.208  -0.069  11.295  0.00  0.00     0.303 C 
ATOM      3  O12 <0> d   1      17.132  -0.613  11.373  0.00  0.00    -0.261 OA
BRANCH   2   4
ATOM      4  O10 <0> d   1      18.519   0.929  12.137  0.00  0.00    -0.311 OA
BRANCH   4   5
ATOM      5  C8  <0> d   1      17.673   2.109  12.099  0.00  0.00     0.162 C 
ATOM      6  C5  <0> d   1      18.021   2.952  10.865  0.00  0.00     0.020 C 
ATOM      7  C4  <0> d   1      17.137   4.205  10.870  0.00  0.00     0.035 C 
ATOM      8  C6  <0> d   1      19.486   3.393  10.976  0.00  0.00     0.035 C 
ATOM      9  C3  <0> d   1      17.389   4.982  12.164  0.00  0.00     0.237 C 
ATOM     10  N2  <0> d   1      18.387   4.286  12.981  0.00  0.00    -0.068 N 
ATOM     11  C1  <0> d   1      18.597   5.056  14.214  0.00  0.00     0.272 C 
ATOM     12  C7  <0> d   1      19.663   4.195  12.268  0.00  0.00     0.237 C 
ATOM     13  C27 <0> d   1      17.902   2.953  13.343  0.00  0.00     0.269 C 
ENDBRANCH   4   5
ENDBRANCH   2   4
ENDBRANCH   1   2
BRANCH   1  14
ATOM     14  O14 <0> d   1      20.474   0.081  10.526  0.00  0.00    -0.371 OA
ATOM     15  H40 <0> d   1      21.219  -0.374  10.109  0.00  0.00     0.212 HD
ENDBRANCH   1  14
BRANCH   1  16
ATOM     16  C15 <0> d   1      19.333  -2.015  10.290  0.00  0.00    -0.009 A 
ATOM     17  C20 <0> d   1      18.958  -2.767   9.194  0.00  0.00     0.011 A 
ATOM     18  C19 <0> d   1      19.081  -4.143   9.225  0.00  0.00     0.001 A 
ATOM     19  C18 <0> d   1      19.571  -4.768  10.356  0.00  0.00     0.000 A 
ATOM     20  C17 <0> d   1      19.941  -4.015  11.455  0.00  0.00     0.001 A 
ATOM     21  C16 <0> d   1      19.823  -2.639  11.423  0.00  0.00     0.011 A 
ENDBRANCH   1  16
BRANCH   1  22
ATOM     22  C21 <0> d   1      18.729  -0.082   8.890  0.00  0.00    -0.009 A 
ATOM     23  C26 <0> d   1      17.535  -0.566   8.389  0.00  0.00     0.011 A 
ATOM     24  C25 <0> d   1      17.097  -0.167   7.140  0.00  0.00     0.001 A 
ATOM     25  C24 <0> d   1      17.858   0.707   6.388  0.00  0.00     0.000 A 
ATOM     26  C23 <0> d   1      19.055   1.187   6.887  0.00  0.00     0.001 A 
ATOM     27  C22 <0> d   1      19.490   0.792   8.137  0.00  0.00     0.011 A 
ENDBRANCH   1  22
TORSDOF 6
ENDMDL
MODEL 6
REMARK VINA RESULT:      -8.3      3.350      7.799
REMARK  6 active torsions:
REMARK  status: ('A' for Active; 'I' for Inactive)
REMARK    1  A    between atoms: C8_8  and  O10_9 
REMARK    2  A    between atoms: O10_9  and  C11_10 
REMARK    3  A    between atoms: C11_10  and  C13_12 
REMARK    4  A    between atoms: C13_12  and  O14_13 
REMARK    5  A    between atoms: C13_12  and  C15_14 
REMARK    6  A    between atoms: C13_12  and  C21_20 
ROOT
ATOM      1  C13 <0> d   1      19.220  -0.808  12.782  0.00  0.00     0.201 C 
ENDROOT
BRANCH   1   2
ATOM      2  C11 <0> d   1      18.415   0.198  11.999  0.00  0.00     0.303 C 
ATOM      3  O12 <0> d   1      17.407  -0.146  11.429  0.00  0.00    -0.261 OA
BRANCH   2   4
ATOM      4  O10 <0> d   1      18.820   1.477  11.936  0.00  0.00    -0.311 OA
BRANCH   4   5
ATOM      5  C8  <0> d   1      17.786   2.488  11.803  0.00  0.00     0.162 C 
ATOM      6  C5  <0> d   1      18.295   3.629  10.911  0.00  0.00     0.020 C 
ATOM      7  C4  <0> d   1      17.196   4.695  10.816  0.00  0.00     0.035 C 
ATOM      8  C6  <0> d   1      19.523   4.257  11.581  0.00  0.00     0.035 C 
ATOM      9  C3  <0> d   1      16.870   5.193  12.226  0.00  0.00     0.237 C 
ATOM     10  N2  <0> d   1      17.703   4.498  13.210  0.00  0.00    -0.068 N 
ATOM     11  C1  <0> d   1      17.357   4.997  14.547  0.00  0.00     0.272 C 
ATOM     12  C7  <0> d   1      19.122   4.769  12.966  0.00  0.00     0.237 C 
ATOM     13  C27 <0> d   1      17.438   3.058  13.168  0.00  0.00     0.269 C 
ENDBRANCH   4   5
ENDBRANCH   2   4
ENDBRANCH   1   2
BRANCH   1  14
ATOM     14  O14 <0> d   1      20.605  -0.464  12.718  0.00  0.00    -0.371 OA
ATOM     15  H40 <0> d   1      20.822   0.167  12.018  0.00  0.00     0.212 HD
ENDBRANCH   1  14
BRANCH   1  16
ATOM     16  C15 <0> d   1      18.767  -0.804  14.220  0.00  0.00    -0.009 A 
ATOM     17  C20 <0> d   1      19.455  -1.543  15.163  0.00  0.00     0.011 A 
ATOM     18  C19 <0> d   1      19.042  -1.537  16.482  0.00  0.00     0.001 A 
ATOM     19  C18 <0> d   1      17.936  -0.797  16.856  0.00  0.00     0.000 A 
ATOM     20  C17 <0> d   1      17.245  -0.061  15.912  0.00  0.00     0.001 A 
ATOM     21  C16 <0> d   1      17.660  -0.064  14.594  0.00  0.00     0.011 A 
ENDBRANCH   1  16
BRANCH   1  22
ATOM     22  C21 <0> d   1      19.015  -2.180  12.195  0.00  0.00    -0.009 A 
ATOM     23  C26 <0> d   1      17.766  -2.771  12.235  0.00  0.00     0.011 A 
ATOM     24  C25 <0> d   1      17.577  -4.028  11.693  0.00  0.00     0.001 A 
ATOM     25  C24 <0> d   1      18.640  -4.698  11.117  0.00  0.00     0.000 A 
ATOM     26  C23 <0> d   1      19.891  -4.110  11.081  0.00  0.00     0.001 A 
ATOM     27  C22 <0> d   1      20.078  -2.852  11.619  0.00  0.00     0.011 A 
ENDBRANCH   1  22
TORSDOF 6
ENDMDL
MODEL 7
REMARK VINA RESULT:      -8.3      1.779      3.536
REMARK  6 active torsions:
REMARK  status: ('A' for Active; 'I' for Inactive)
REMARK    1  A    between atoms: C8_8  and  O10_9 
REMARK    2  A    between atoms: O10_9  and  C11_10 
REMARK    3  A    between atoms: C11_10  and  C13_12 
REMARK    4  A    between atoms: C13_12  and  O14_13 
REMARK    5  A    between atoms: C13_12  and  C15_14 
REMARK    6  A    between atoms: C13_12  and  C21_20 
ROOT
ATOM      1  C13 <0> d   1      17.335   0.219  11.165  0.00  0.00     0.201 C 
ENDROOT
BRANCH   1   2
ATOM      2  C11 <0> d   1      17.644  -0.748  10.052  0.00  0.00     0.303 C 
ATOM      3  O12 <0> d   1      17.247  -0.528   8.932  0.00  0.00    -0.261 OA
BRANCH   2   4
ATOM      4  O10 <0> d   1      18.362  -1.854  10.304  0.00  0.00    -0.311 OA
BRANCH   4   5
ATOM      5  C8  <0> d   1      17.623  -3.086  10.516  0.00  0.00     0.162 C 
ATOM      6  C5  <0> d   1      18.210  -3.838  11.718  0.00  0.00     0.020 C 
ATOM      7  C4  <0> d   1      17.431  -5.147  11.896  0.00  0.00     0.035 C 
ATOM      8  C6  <0> d   1      19.672  -4.183  11.406  0.00  0.00     0.035 C 
ATOM      9  C3  <0> d   1      17.549  -5.970  10.611  0.00  0.00     0.237 C 
ATOM     10  N2  <0> d   1      18.361  -5.250   9.627  0.00  0.00    -0.068 N 
ATOM     11  C1  <0> d   1      18.445  -6.066   8.408  0.00  0.00     0.272 C 
ATOM     12  C7  <0> d   1      19.718  -5.036  10.136  0.00  0.00     0.237 C 
ATOM     13  C27 <0> d   1      17.729  -3.974   9.287  0.00  0.00     0.269 C 
ENDBRANCH   4   5
ENDBRANCH   2   4
ENDBRANCH   1   2
BRANCH   1  14
ATOM     14  O14 <0> d   1      15.951   0.126  11.506  0.00  0.00    -0.371 OA
ATOM     15  H40 <0> d   1      15.365  -0.001  10.747  0.00  0.00     0.212 HD
ENDBRANCH   1  14
BRANCH   1  16
ATOM     16  C15 <0> d   1      18.174  -0.118  12.372  0.00  0.00    -0.009 A 
ATOM     17  C20 <0> d   1      17.597  -0.740  13.462  0.00  0.00     0.011 A 
ATOM     18  C19 <0> d   1      18.367  -1.053  14.567  0.00  0.00     0.001 A 
ATOM     19  C18 <0> d   1      19.712  -0.736  14.584  0.00  0.00     0.000 A 
ATOM     20  C17 <0> d   1      20.287  -0.108  13.495  0.00  0.00     0.001 A 
ATOM     21  C16 <0> d   1      19.519   0.201  12.389  0.00  0.00     0.011 A 
ENDBRANCH   1  16
BRANCH   1  22
ATOM     22  C21 <0> d   1      17.647   1.622  10.713  0.00  0.00    -0.009 A 
ATOM     23  C26 <0> d   1      17.208   2.702  11.456  0.00  0.00     0.011 A 
ATOM     24  C25 <0> d   1      17.499   3.989  11.044  0.00  0.00     0.001 A 
ATOM     25  C24 <0> d   1      18.220   4.197   9.884  0.00  0.00     0.000 A 
ATOM     26  C23 <0> d   1      18.656   3.117   9.137  0.00  0.00     0.001 A 
ATOM     27  C22 <0> d   1      18.368   1.831   9.552  0.00  0.00     0.011 A 
ENDBRANCH   1  22
TORSDOF 6
ENDMDL
MODEL 8
REMARK VINA RESULT:      -8.1      3.753      6.057
REMARK  6 active torsions:
REMARK  status: ('A' for Active; 'I' for Inactive)
REMARK    1  A    between atoms: C8_8  and  O10_9 
REMARK    2  A    between atoms: O10_9  and  C11_10 
REMARK    3  A    between atoms: C11_10  and  C13_12 
REMARK    4  A    between atoms: C13_12  and  O14_13 
REMARK    5  A    between atoms: C13_12  and  C15_14 
REMARK    6  A    between atoms: C13_12  and  C21_20 
ROOT
ATOM      1  C13 <0> d   1      19.012  -0.809  11.787  0.00  0.00     0.201 C 
ENDROOT
BRANCH   1   2
ATOM      2  C11 <0> d   1      18.021  -0.261  12.781  0.00  0.00     0.303 C 
ATOM      3  O12 <0> d   1      17.411   0.752  12.530  0.00  0.00    -0.261 OA
BRANCH   2   4
ATOM      4  O10 <0> d   1      17.816  -0.898  13.945  0.00  0.00    -0.311 OA
BRANCH   4   5
ATOM      5  C8  <0> d   1      18.818  -0.720  14.980  0.00  0.00     0.162 C 
ATOM      6  C5  <0> d   1      18.493  -1.629  16.173  0.00  0.00     0.020 C 
ATOM      7  C4  <0> d   1      19.549  -1.394  17.261  0.00  0.00     0.035 C 
ATOM      8  C6  <0> d   1      17.124  -1.223  16.732  0.00  0.00     0.035 C 
ATOM      9  C3  <0> d   1      19.524   0.082  17.662  0.00  0.00     0.237 C 
ATOM     10  N2  <0> d   1      18.509   0.797  16.884  0.00  0.00    -0.068 N 
ATOM     11  C1  <0> d   1      18.521   2.208  17.292  0.00  0.00     0.272 C 
ATOM     12  C7  <0> d   1      17.177   0.249  17.149  0.00  0.00     0.237 C 
ATOM     13  C27 <0> d   1      18.823   0.724  15.456  0.00  0.00     0.269 C 
ENDBRANCH   4   5
ENDBRANCH   2   4
ENDBRANCH   1   2
BRANCH   1  14
ATOM     14  O14 <0> d   1      20.340  -0.582  12.263  0.00  0.00    -0.371 OA
ATOM     15  H40 <0> d   1      20.780  -1.376  12.598  0.00  0.00     0.212 HD
ENDBRANCH   1  14
BRANCH   1  16
ATOM     16  C15 <0> d   1      18.786  -2.290  11.617  0.00  0.00    -0.009 A 
ATOM     17  C20 <0> d   1      19.865  -3.142  11.477  0.00  0.00     0.011 A 
ATOM     18  C19 <0> d   1      19.658  -4.500  11.325  0.00  0.00     0.001 A 
ATOM     19  C18 <0> d   1      18.371  -5.005  11.304  0.00  0.00     0.000 A 
ATOM     20  C17 <0> d   1      17.292  -4.152  11.439  0.00  0.00     0.001 A 
ATOM     21  C16 <0> d   1      17.499  -2.794  11.595  0.00  0.00     0.011 A 
ENDBRANCH   1  16
BRANCH   1  22
ATOM     22  C21 <0> d   1      18.829  -0.117  10.461  0.00  0.00    -0.009 A 
ATOM     23  C26 <0> d   1      18.016  -0.680   9.495  0.00  0.00     0.011 A 
ATOM     24  C25 <0> d   1      17.844  -0.043   8.280  0.00  0.00     0.001 A 
ATOM     25  C24 <0> d   1      18.491   1.151   8.028  0.00  0.00     0.000 A 
ATOM     26  C23 <0> d   1      19.309   1.712   8.993  0.00  0.00     0.001 A 
ATOM     27  C22 <0> d   1      19.476   1.077  10.209  0.00  0.00     0.011 A 
ENDBRANCH   1  22
TORSDOF 6
ENDMDL
MODEL 9
REMARK VINA RESULT:      -8.0      3.343      7.117
REMARK  6 active torsions:
REMARK  status: ('A' for Active; 'I' for Inactive)
REMARK    1  A    between atoms: C8_8  and  O10_9 
REMARK    2  A    between atoms: O10_9  and  C11_10 
REMARK    3  A    between atoms: C11_10  and  C13_12 
REMARK    4  A    between atoms: C13_12  and  O14_13 
REMARK    5  A    between atoms: C13_12  and  C15_14 
REMARK    6  A    between atoms: C13_12  and  C21_20 
ROOT
ATOM      1  C13 <0> d   1      17.983  -0.866  12.580  0.00  0.00     0.201 C 
ENDROOT
BRANCH   1   2
ATOM      2  C11 <0> d   1      18.877   0.196  11.995  0.00  0.00     0.303 C 
ATOM      3  O12 <0> d   1      19.457  -0.008  10.954  0.00  0.00    -0.261 OA
BRANCH   2   4
ATOM      4  O10 <0> d   1      19.029   1.370  12.629  0.00  0.00    -0.311 OA
BRANCH   4   5
ATOM      5  C8  <0> d   1      18.090   2.426  12.294  0.00  0.00     0.162 C 
ATOM      6  C5  <0> d   1      18.719   3.360  11.251  0.00  0.00     0.020 C 
ATOM      7  C4  <0> d   1      17.718   4.481  10.942  0.00  0.00     0.035 C 
ATOM      8  C6  <0> d   1      19.978   3.988  11.860  0.00  0.00     0.035 C 
ATOM      9  C3  <0> d   1      17.399   5.228  12.239  0.00  0.00     0.237 C 
ATOM     10  N2  <0> d   1      18.143   4.638  13.355  0.00  0.00    -0.068 N 
ATOM     11  C1  <0> d   1      17.806   5.375  14.580  0.00  0.00     0.272 C 
ATOM     12  C7  <0> d   1      19.586   4.751  13.128  0.00  0.00     0.237 C 
ATOM     13  C27 <0> d   1      17.756   3.237  13.535  0.00  0.00     0.269 C 
ENDBRANCH   4   5
ENDBRANCH   2   4
ENDBRANCH   1   2
BRANCH   1  14
ATOM     14  O14 <0> d   1      16.625  -0.589  12.233  0.00  0.00    -0.371 OA
ATOM     15  H40 <0> d   1      16.276   0.224  12.625  0.00  0.00     0.212 HD
ENDBRANCH   1  14
BRANCH   1  16
ATOM     16  C15 <0> d   1      18.377  -2.214  12.031  0.00  0.00    -0.009 A 
ATOM     17  C20 <0> d   1      19.703  -2.601  12.034  0.00  0.00     0.011 A 
ATOM     18  C19 <0> d   1      20.063  -3.838  11.534  0.00  0.00     0.001 A 
ATOM     19  C18 <0> d   1      19.098  -4.685  11.023  0.00  0.00     0.000 A 
ATOM     20  C17 <0> d   1      17.771  -4.295  11.015  0.00  0.00     0.001 A 
ATOM     21  C16 <0> d   1      17.410  -3.060  11.518  0.00  0.00     0.011 A 
ENDBRANCH   1  16
BRANCH   1  22
ATOM     22  C21 <0> d   1      18.127  -0.874  14.080  0.00  0.00    -0.009 A 
ATOM     23  C26 <0> d   1      17.268  -0.123  14.861  0.00  0.00     0.011 A 
ATOM     24  C25 <0> d   1      17.397  -0.133  16.237  0.00  0.00     0.001 A 
ATOM     25  C24 <0> d   1      18.390  -0.887  16.832  0.00  0.00     0.000 A 
ATOM     26  C23 <0> d   1      19.253  -1.635  16.051  0.00  0.00     0.001 A 
ATOM     27  C22 <0> d   1      19.121  -1.627  14.676  0.00  0.00     0.011 A 
ENDBRANCH   1  22
TORSDOF 6
ENDMDL
