MODEL 1
REMARK VINA RESULT:      -4.0      0.000      0.000
REMARK  9 active torsions:
REMARK  status: ('A' for Active; 'I' for Inactive)
REMARK    1  A    between atoms: N1_1  and  C5_5 
REMARK    2  A    between atoms: C5_5  and  C6_6 
REMARK    3  A    between atoms: C6_6  and  N7_7 
REMARK    4  A    between atoms: N7_7  and  C8_8 
REMARK    5  A    between atoms: C8_8  and  C9_9 
REMARK    6  A    between atoms: C9_9  and  N10_10 
REMARK    7  A    between atoms: N10_10  and  C13_13 
REMARK    8  A    between atoms: C13_13  and  C14_14 
REMARK    9  A    between atoms: C14_14  and  N15_15 
ROOT
ATOM      1  C9  <0> d   1      19.758  -4.459  10.970  0.00  0.00     0.262 C 
ENDROOT
BRANCH   1   2
ATOM      2  C8  <0> d   1      19.661  -3.089  11.644  0.00  0.00     0.297 C 
BRANCH   2   3
ATOM      3  N7  <0> d   1      20.685  -2.195  11.087  0.00  0.00     0.086 N 
ATOM      4  H23 <0> d   1      21.116  -2.605  10.271  0.00  0.00     0.315 HD
BRANCH   3   5
ATOM      5  C6  <0> d   1      20.121  -0.875  10.777  0.00  0.00     0.296 C 
BRANCH   5   6
ATOM      6  C5  <0> d   1      20.191   0.015  12.018  0.00  0.00     0.259 C 
BRANCH   6   7
ATOM      7  N1  <0> d   1      21.537   0.590  12.133  0.00  0.00    -0.078 N 
ATOM      8  H2  <0> d   1      22.022   0.493  11.253  0.00  0.00     0.274 HD
ATOM      9  H3  <0> d   1      22.051   0.105  12.854  0.00  0.00     0.274 HD
ATOM     10  H4  <0> d   1      21.466   1.568  12.372  0.00  0.00     0.274 HD
ENDBRANCH   6   7
ENDBRANCH   5   6
ENDBRANCH   3   5
ENDBRANCH   2   3
ENDBRANCH   1   2
BRANCH   1  11
ATOM     11  N10 <0> d   1      20.103  -4.286   9.554  0.00  0.00    -0.072 N 
ATOM     12  H11 <0> d   1      19.728  -3.411   9.220  0.00  0.00     0.277 HD
ATOM     13  H12 <0> d   1      21.108  -4.281   9.451  0.00  0.00     0.277 HD
BRANCH  11  14
ATOM     14  C13 <0> d   1      19.537  -5.393   8.772  0.00  0.00     0.259 C 
BRANCH  14  15
ATOM     15  C14 <0> d   1      20.104  -5.357   7.351  0.00  0.00     0.257 C 
BRANCH  15  16
ATOM     16  N15 <0> d   1      21.571  -5.321   7.411  0.00  0.00    -0.078 N 
ATOM     17  H16 <0> d   1      21.862  -4.895   8.277  0.00  0.00     0.274 HD
ATOM     18  H17 <0> d   1      21.934  -6.261   7.360  0.00  0.00     0.274 HD
ATOM     19  H18 <0> d   1      21.926  -4.782   6.634  0.00  0.00     0.274 HD
ENDBRANCH  15  16
ENDBRANCH  14  15
ENDBRANCH  11  14
ENDBRANCH   1  11
TORSDOF 9
ENDMDL
MODEL 2
REMARK VINA RESULT:      -3.9      3.542      5.941
REMARK  9 active torsions:
REMARK  status: ('A' for Active; 'I' for Inactive)
REMARK    1  A    between atoms: N1_1  and  C5_5 
REMARK    2  A    between atoms: C5_5  and  C6_6 
REMARK    3  A    between atoms: C6_6  and  N7_7 
REMARK    4  A    between atoms: N7_7  and  C8_8 
REMARK    5  A    between atoms: C8_8  and  C9_9 
REMARK    6  A    between atoms: C9_9  and  N10_10 
REMARK    7  A    between atoms: N10_10  and  C13_13 
REMARK    8  A    between atoms: C13_13  and  C14_14 
REMARK    9  A    between atoms: C14_14  and  N15_15 
ROOT
ATOM      1  C9  <0> d   1      19.416   1.120   8.497  0.00  0.00     0.262 C 
ENDROOT
BRANCH   1   2
ATOM      2  C8  <0> d   1      19.687  -0.307   8.980  0.00  0.00     0.297 C 
BRANCH   2   3
ATOM      3  N7  <0> d   1      20.755  -0.288   9.989  0.00  0.00     0.086 N 
ATOM      4  H23 <0> d   1      20.965   0.657  10.274  0.00  0.00     0.315 HD
BRANCH   3   5
ATOM      5  C6  <0> d   1      20.402  -1.120  11.146  0.00  0.00     0.296 C 
BRANCH   5   6
ATOM      6  C5  <0> d   1      19.798  -0.241  12.242  0.00  0.00     0.259 C 
BRANCH   6   7
ATOM      7  N1  <0> d   1      20.863   0.226  13.138  0.00  0.00    -0.078 N 
ATOM      8  H2  <0> d   1      20.454   0.604  13.980  0.00  0.00     0.274 HD
ATOM      9  H3  <0> d   1      21.403   0.942  12.676  0.00  0.00     0.274 HD
ATOM     10  H4  <0> d   1      21.467  -0.548  13.376  0.00  0.00     0.274 HD
ENDBRANCH   6   7
ENDBRANCH   5   6
ENDBRANCH   3   5
ENDBRANCH   2   3
ENDBRANCH   1   2
BRANCH   1  11
ATOM     11  N10 <0> d   1      19.911   2.077   9.494  0.00  0.00    -0.072 N 
ATOM     12  H11 <0> d   1      20.510   1.600  10.151  0.00  0.00     0.277 HD
ATOM     13  H12 <0> d   1      20.435   2.805   9.030  0.00  0.00     0.277 HD
BRANCH  11  14
ATOM     14  C13 <0> d   1      18.775   2.672  10.209  0.00  0.00     0.259 C 
BRANCH  14  15
ATOM     15  C14 <0> d   1      19.283   3.418  11.445  0.00  0.00     0.257 C 
BRANCH  15  16
ATOM     16  N15 <0> d   1      20.734   3.229  11.568  0.00  0.00    -0.078 N 
ATOM     17  H16 <0> d   1      20.931   2.649  12.369  0.00  0.00     0.274 HD
ATOM     18  H17 <0> d   1      21.088   2.784  10.735  0.00  0.00     0.274 HD
ATOM     19  H18 <0> d   1      21.181   4.127  11.685  0.00  0.00     0.274 HD
ENDBRANCH  15  16
ENDBRANCH  14  15
ENDBRANCH  11  14
ENDBRANCH   1  11
TORSDOF 9
ENDMDL
MODEL 3
REMARK VINA RESULT:      -3.9      1.623      2.006
REMARK  9 active torsions:
REMARK  status: ('A' for Active; 'I' for Inactive)
REMARK    1  A    between atoms: N1_1  and  C5_5 
REMARK    2  A    between atoms: C5_5  and  C6_6 
REMARK    3  A    between atoms: C6_6  and  N7_7 
REMARK    4  A    between atoms: N7_7  and  C8_8 
REMARK    5  A    between atoms: C8_8  and  C9_9 
REMARK    6  A    between atoms: C9_9  and  N10_10 
REMARK    7  A    between atoms: N10_10  and  C13_13 
REMARK    8  A    between atoms: C13_13  and  C14_14 
REMARK    9  A    between atoms: C14_14  and  N15_15 
ROOT
ATOM      1  C9  <0> d   1      18.960  -1.870   8.749  0.00  0.00     0.262 C 
ENDROOT
BRANCH   1   2
ATOM      2  C8  <0> d   1      19.683  -0.524   8.672  0.00  0.00     0.297 C 
BRANCH   2   3
ATOM      3  N7  <0> d   1      20.685  -0.444   9.744  0.00  0.00     0.086 N 
ATOM      4  H23 <0> d   1      21.019   0.503   9.855  0.00  0.00     0.315 HD
BRANCH   3   5
ATOM      5  C6  <0> d   1      20.148  -0.964  11.007  0.00  0.00     0.296 C 
BRANCH   5   6
ATOM      6  C5  <0> d   1      20.226   0.121  12.081  0.00  0.00     0.259 C 
BRANCH   6   7
ATOM      7  N1  <0> d   1      21.597   0.640  12.156  0.00  0.00    -0.078 N 
ATOM      8  H2  <0> d   1      21.575   1.619  12.399  0.00  0.00     0.274 HD
ATOM      9  H3  <0> d   1      22.050   0.525  11.262  0.00  0.00     0.274 HD
ATOM     10  H4  <0> d   1      22.112   0.131  12.860  0.00  0.00     0.274 HD
ENDBRANCH   6   7
ENDBRANCH   5   6
ENDBRANCH   3   5
ENDBRANCH   2   3
ENDBRANCH   1   2
BRANCH   1  11
ATOM     11  N10 <0> d   1      19.724  -2.879   8.005  0.00  0.00    -0.072 N 
ATOM     12  H11 <0> d   1      19.850  -2.571   7.052  0.00  0.00     0.277 HD
ATOM     13  H12 <0> d   1      20.626  -3.006   8.439  0.00  0.00     0.277 HD
BRANCH  11  14
ATOM     14  C13 <0> d   1      18.993  -4.154   8.015  0.00  0.00     0.259 C 
BRANCH  14  15
ATOM     15  C14 <0> d   1      19.924  -5.280   7.561  0.00  0.00     0.257 C 
BRANCH  15  16
ATOM     16  N15 <0> d   1      21.201  -4.709   7.115  0.00  0.00    -0.078 N 
ATOM     17  H16 <0> d   1      21.630  -4.206   7.877  0.00  0.00     0.274 HD
ATOM     18  H17 <0> d   1      21.816  -5.450   6.813  0.00  0.00     0.274 HD
ATOM     19  H18 <0> d   1      21.036  -4.076   6.345  0.00  0.00     0.274 HD
ENDBRANCH  15  16
ENDBRANCH  14  15
ENDBRANCH  11  14
ENDBRANCH   1  11
TORSDOF 9
ENDMDL
MODEL 4
REMARK VINA RESULT:      -3.9      1.505      5.566
REMARK  9 active torsions:
REMARK  status: ('A' for Active; 'I' for Inactive)
REMARK    1  A    between atoms: N1_1  and  C5_5 
REMARK    2  A    between atoms: C5_5  and  C6_6 
REMARK    3  A    between atoms: C6_6  and  N7_7 
REMARK    4  A    between atoms: N7_7  and  C8_8 
REMARK    5  A    between atoms: C8_8  and  C9_9 
REMARK    6  A    between atoms: C9_9  and  N10_10 
REMARK    7  A    between atoms: N10_10  and  C13_13 
REMARK    8  A    between atoms: C13_13  and  C14_14 
REMARK    9  A    between atoms: C14_14  and  N15_15 
ROOT
ATOM      1  C9  <0> d   1      19.768  -0.523   8.786  0.00  0.00     0.262 C 
ENDROOT
BRANCH   1   2
ATOM      2  C8  <0> d   1      18.894  -1.777   8.867  0.00  0.00     0.297 C 
BRANCH   2   3
ATOM      3  N7  <0> d   1      19.501  -2.850   8.068  0.00  0.00     0.086 N 
ATOM      4  H23 <0> d   1      20.500  -2.725   7.996  0.00  0.00     0.315 HD
BRANCH   3   5
ATOM      5  C6  <0> d   1      19.173  -4.169   8.622  0.00  0.00     0.296 C 
BRANCH   5   6
ATOM      6  C5  <0> d   1      19.993  -5.243   7.905  0.00  0.00     0.259 C 
BRANCH   6   7
ATOM      7  N1  <0> d   1      20.950  -4.602   6.995  0.00  0.00    -0.078 N 
ATOM      8  H2  <0> d   1      21.027  -3.622   7.222  0.00  0.00     0.274 HD
ATOM      9  H3  <0> d   1      20.629  -4.702   6.043  0.00  0.00     0.274 HD
ATOM     10  H4  <0> d   1      21.854  -5.041   7.093  0.00  0.00     0.274 HD
ENDBRANCH   6   7
ENDBRANCH   5   6
ENDBRANCH   3   5
ENDBRANCH   2   3
ENDBRANCH   1   2
BRANCH   1  11
ATOM     11  N10 <0> d   1      20.716  -0.512   9.907  0.00  0.00    -0.072 N 
ATOM     12  H11 <0> d   1      21.458  -1.172   9.727  0.00  0.00     0.277 HD
ATOM     13  H12 <0> d   1      21.107   0.413  10.008  0.00  0.00     0.277 HD
BRANCH  11  14
ATOM     14  C13 <0> d   1      20.017  -0.886  11.144  0.00  0.00     0.259 C 
BRANCH  14  15
ATOM     15  C14 <0> d   1      20.215   0.210  12.193  0.00  0.00     0.257 C 
BRANCH  15  16
ATOM     16  N15 <0> d   1      21.606   0.680  12.154  0.00  0.00    -0.078 N 
ATOM     17  H16 <0> d   1      21.633   1.668  12.355  0.00  0.00     0.274 HD
ATOM     18  H17 <0> d   1      22.150   0.181  12.841  0.00  0.00     0.274 HD
ATOM     19  H18 <0> d   1      21.991   0.514  11.235  0.00  0.00     0.274 HD
ENDBRANCH  15  16
ENDBRANCH  14  15
ENDBRANCH  11  14
ENDBRANCH   1  11
TORSDOF 9
ENDMDL
MODEL 5
REMARK VINA RESULT:      -3.8      3.443      3.851
REMARK  9 active torsions:
REMARK  status: ('A' for Active; 'I' for Inactive)
REMARK    1  A    between atoms: N1_1  and  C5_5 
REMARK    2  A    between atoms: C5_5  and  C6_6 
REMARK    3  A    between atoms: C6_6  and  N7_7 
REMARK    4  A    between atoms: N7_7  and  C8_8 
REMARK    5  A    between atoms: C8_8  and  C9_9 
REMARK    6  A    between atoms: C9_9  and  N10_10 
REMARK    7  A    between atoms: N10_10  and  C13_13 
REMARK    8  A    between atoms: C13_13  and  C14_14 
REMARK    9  A    between atoms: C14_14  and  N15_15 
ROOT
ATOM      1  C9  <0> d   1      18.985  -1.507   8.437  0.00  0.00     0.262 C 
ENDROOT
BRANCH   1   2
ATOM      2  C8  <0> d   1      19.642  -0.172   8.793  0.00  0.00     0.297 C 
BRANCH   2   3
ATOM      3  N7  <0> d   1      20.666  -0.389   9.824  0.00  0.00     0.086 N 
ATOM      4  H23 <0> d   1      21.181   0.460  10.004  0.00  0.00     0.315 HD
BRANCH   3   5
ATOM      5  C6  <0> d   1      20.067  -0.912  11.058  0.00  0.00     0.296 C 
BRANCH   5   6
ATOM      6  C5  <0> d   1      20.257   0.101  12.188  0.00  0.00     0.259 C 
BRANCH   6   7
ATOM      7  N1  <0> d   1      21.627   0.627  12.149  0.00  0.00    -0.078 N 
ATOM      8  H2  <0> d   1      21.659   1.519  12.621  0.00  0.00     0.274 HD
ATOM      9  H3  <0> d   1      21.916   0.745  11.190  0.00  0.00     0.274 HD
ATOM     10  H4  <0> d   1      22.249  -0.019  12.611  0.00  0.00     0.274 HD
ENDBRANCH   6   7
ENDBRANCH   5   6
ENDBRANCH   3   5
ENDBRANCH   2   3
ENDBRANCH   1   2
BRANCH   1  11
ATOM     11  N10 <0> d   1      17.935  -1.285   7.435  0.00  0.00    -0.072 N 
ATOM     12  H11 <0> d   1      17.650  -2.171   7.044  0.00  0.00     0.277 HD
ATOM     13  H12 <0> d   1      17.141  -0.841   7.873  0.00  0.00     0.277 HD
BRANCH  11  14
ATOM     14  C13 <0> d   1      18.451  -0.421   6.366  0.00  0.00     0.259 C 
BRANCH  14  15
ATOM     15  C14 <0> d   1      19.122  -1.281   5.293  0.00  0.00     0.257 C 
BRANCH  15  16
ATOM     16  N15 <0> d   1      18.422  -1.103   4.015  0.00  0.00    -0.078 N 
ATOM     17  H16 <0> d   1      17.506  -0.714   4.184  0.00  0.00     0.274 HD
ATOM     18  H17 <0> d   1      18.949  -0.477   3.425  0.00  0.00     0.274 HD
ATOM     19  H18 <0> d   1      18.327  -1.997   3.555  0.00  0.00     0.274 HD
ENDBRANCH  15  16
ENDBRANCH  14  15
ENDBRANCH  11  14
ENDBRANCH   1  11
TORSDOF 9
ENDMDL
MODEL 6
REMARK VINA RESULT:      -3.7      1.233      5.292
REMARK  9 active torsions:
REMARK  status: ('A' for Active; 'I' for Inactive)
REMARK    1  A    between atoms: N1_1  and  C5_5 
REMARK    2  A    between atoms: C5_5  and  C6_6 
REMARK    3  A    between atoms: C6_6  and  N7_7 
REMARK    4  A    between atoms: N7_7  and  C8_8 
REMARK    5  A    between atoms: C8_8  and  C9_9 
REMARK    6  A    between atoms: C9_9  and  N10_10 
REMARK    7  A    between atoms: N10_10  and  C13_13 
REMARK    8  A    between atoms: C13_13  and  C14_14 
REMARK    9  A    between atoms: C14_14  and  N15_15 
ROOT
ATOM      1  C9  <0> d   1      19.713  -2.740  11.704  0.00  0.00     0.262 C 
ENDROOT
BRANCH   1   2
ATOM      2  C8  <0> d   1      19.801  -4.149  11.114  0.00  0.00     0.297 C 
BRANCH   2   3
ATOM      3  N7  <0> d   1      19.627  -4.081   9.657  0.00  0.00     0.086 N 
ATOM      4  H23 <0> d   1      20.455  -3.713   9.211  0.00  0.00     0.315 HD
BRANCH   3   5
ATOM      5  C6  <0> d   1      19.274  -5.397   9.107  0.00  0.00     0.296 C 
BRANCH   5   6
ATOM      6  C5  <0> d   1      18.009  -5.273   8.257  0.00  0.00     0.259 C 
BRANCH   6   7
ATOM      7  N1  <0> d   1      17.512  -3.892   8.316  0.00  0.00    -0.078 N 
ATOM      8  H2  <0> d   1      16.512  -3.900   8.452  0.00  0.00     0.274 HD
ATOM      9  H3  <0> d   1      17.730  -3.418   7.452  0.00  0.00     0.274 HD
ATOM     10  H4  <0> d   1      17.952  -3.409   9.085  0.00  0.00     0.274 HD
ENDBRANCH   6   7
ENDBRANCH   5   6
ENDBRANCH   3   5
ENDBRANCH   2   3
ENDBRANCH   1   2
BRANCH   1  11
ATOM     11  N10 <0> d   1      20.765  -1.898  11.122  0.00  0.00    -0.072 N 
ATOM     12  H11 <0> d   1      21.473  -1.715  11.818  0.00  0.00     0.277 HD
ATOM     13  H12 <0> d   1      21.182  -2.375  10.337  0.00  0.00     0.277 HD
BRANCH  11  14
ATOM     14  C13 <0> d   1      20.183  -0.627  10.670  0.00  0.00     0.259 C 
BRANCH  14  15
ATOM     15  C14 <0> d   1      20.219   0.388  11.815  0.00  0.00     0.257 C 
BRANCH  15  16
ATOM     16  N15 <0> d   1      21.614   0.644  12.198  0.00  0.00    -0.078 N 
ATOM     17  H16 <0> d   1      22.063   1.196  11.483  0.00  0.00     0.274 HD
ATOM     18  H17 <0> d   1      21.636   1.144  13.074  0.00  0.00     0.274 HD
ATOM     19  H18 <0> d   1      22.101  -0.234  12.300  0.00  0.00     0.274 HD
ENDBRANCH  15  16
ENDBRANCH  14  15
ENDBRANCH  11  14
ENDBRANCH   1  11
TORSDOF 9
ENDMDL
MODEL 7
REMARK VINA RESULT:      -3.7      3.961      6.248
REMARK  9 active torsions:
REMARK  status: ('A' for Active; 'I' for Inactive)
REMARK    1  A    between atoms: N1_1  and  C5_5 
REMARK    2  A    between atoms: C5_5  and  C6_6 
REMARK    3  A    between atoms: C6_6  and  N7_7 
REMARK    4  A    between atoms: N7_7  and  C8_8 
REMARK    5  A    between atoms: C8_8  and  C9_9 
REMARK    6  A    between atoms: C9_9  and  N10_10 
REMARK    7  A    between atoms: N10_10  and  C13_13 
REMARK    8  A    between atoms: C13_13  and  C14_14 
REMARK    9  A    between atoms: C14_14  and  N15_15 
ROOT
ATOM      1  C9  <0> d   1      18.990   1.702  13.901  0.00  0.00     0.262 C 
ENDROOT
BRANCH   1   2
ATOM      2  C8  <0> d   1      17.885   0.675  14.160  0.00  0.00     0.297 C 
BRANCH   2   3
ATOM      3  N7  <0> d   1      17.366   0.848  15.524  0.00  0.00     0.086 N 
ATOM      4  H23 <0> d   1      16.718   0.110  15.759  0.00  0.00     0.315 HD
BRANCH   3   5
ATOM      5  C6  <0> d   1      18.461   0.915  16.500  0.00  0.00     0.296 C 
BRANCH   5   6
ATOM      6  C5  <0> d   1      18.619  -0.442  17.186  0.00  0.00     0.259 C 
BRANCH   6   7
ATOM      7  N1  <0> d   1      19.556  -0.319  18.309  0.00  0.00    -0.078 N 
ATOM      8  H2  <0> d   1      20.321  -0.964  18.183  0.00  0.00     0.274 HD
ATOM      9  H3  <0> d   1      19.077  -0.531  19.172  0.00  0.00     0.274 HD
ATOM     10  H4  <0> d   1      19.914   0.624  18.347  0.00  0.00     0.274 HD
ENDBRANCH   6   7
ENDBRANCH   5   6
ENDBRANCH   3   5
ENDBRANCH   2   3
ENDBRANCH   1   2
BRANCH   1  11
ATOM     11  N10 <0> d   1      20.154   1.030  13.310  0.00  0.00    -0.072 N 
ATOM     12  H11 <0> d   1      20.997   1.509  13.590  0.00  0.00     0.277 HD
ATOM     13  H12 <0> d   1      20.189   0.074  13.631  0.00  0.00     0.277 HD
BRANCH  11  14
ATOM     14  C13 <0> d   1      20.042   1.052  11.846  0.00  0.00     0.259 C 
BRANCH  14  15
ATOM     15  C14 <0> d   1      20.187  -0.371  11.301  0.00  0.00     0.257 C 
BRANCH  15  16
ATOM     16  N15 <0> d   1      21.586  -0.610  10.923  0.00  0.00    -0.078 N 
ATOM     17  H16 <0> d   1      21.712  -1.585  10.699  0.00  0.00     0.274 HD
ATOM     18  H17 <0> d   1      21.818  -0.047  10.119  0.00  0.00     0.274 HD
ATOM     19  H18 <0> d   1      22.190  -0.361  11.693  0.00  0.00     0.274 HD
ENDBRANCH  15  16
ENDBRANCH  14  15
ENDBRANCH  11  14
ENDBRANCH   1  11
TORSDOF 9
ENDMDL
MODEL 8
REMARK VINA RESULT:      -3.7      4.571      7.790
REMARK  9 active torsions:
REMARK  status: ('A' for Active; 'I' for Inactive)
REMARK    1  A    between atoms: N1_1  and  C5_5 
REMARK    2  A    between atoms: C5_5  and  C6_6 
REMARK    3  A    between atoms: C6_6  and  N7_7 
REMARK    4  A    between atoms: N7_7  and  C8_8 
REMARK    5  A    between atoms: C8_8  and  C9_9 
REMARK    6  A    between atoms: C9_9  and  N10_10 
REMARK    7  A    between atoms: N10_10  and  C13_13 
REMARK    8  A    between atoms: C13_13  and  C14_14 
REMARK    9  A    between atoms: C14_14  and  N15_15 
ROOT
ATOM      1  C9  <0> d   1      18.888   0.818  15.068  0.00  0.00     0.262 C 
ENDROOT
BRANCH   1   2
ATOM      2  C8  <0> d   1      19.227  -0.672  14.984  0.00  0.00     0.297 C 
BRANCH   2   3
ATOM      3  N7  <0> d   1      20.008  -0.929  13.766  0.00  0.00     0.086 N 
ATOM      4  H23 <0> d   1      20.187  -1.916  13.654  0.00  0.00     0.315 HD
BRANCH   3   5
ATOM      5  C6  <0> d   1      19.336  -0.378  12.583  0.00  0.00     0.296 C 
BRANCH   5   6
ATOM      6  C5  <0> d   1      20.380  -0.008  11.529  0.00  0.00     0.259 C 
BRANCH   6   7
ATOM      7  N1  <0> d   1      21.547   0.596  12.184  0.00  0.00    -0.078 N 
ATOM      8  H2  <0> d   1      22.357   0.495  11.591  0.00  0.00     0.274 HD
ATOM      9  H3  <0> d   1      21.715   0.134  13.065  0.00  0.00     0.274 HD
ATOM     10  H4  <0> d   1      21.371   1.577  12.347  0.00  0.00     0.274 HD
ENDBRANCH   6   7
ENDBRANCH   5   6
ENDBRANCH   3   5
ENDBRANCH   2   3
ENDBRANCH   1   2
BRANCH   1  11
ATOM     11  N10 <0> d   1      17.695   1.003  15.904  0.00  0.00    -0.072 N 
ATOM     12  H11 <0> d   1      17.611   1.975  16.160  0.00  0.00     0.277 HD
ATOM     13  H12 <0> d   1      16.876   0.718  15.388  0.00  0.00     0.277 HD
BRANCH  11  14
ATOM     14  C13 <0> d   1      17.816   0.186  17.119  0.00  0.00     0.259 C 
BRANCH  14  15
ATOM     15  C14 <0> d   1      17.625   1.072  18.352  0.00  0.00     0.257 C 
BRANCH  15  16
ATOM     16  N15 <0> d   1      18.928   1.593  18.786  0.00  0.00    -0.078 N 
ATOM     17  H16 <0> d   1      19.262   2.267  18.114  0.00  0.00     0.274 HD
ATOM     18  H17 <0> d   1      18.831   2.036  19.687  0.00  0.00     0.274 HD
ATOM     19  H18 <0> d   1      19.588   0.832  18.855  0.00  0.00     0.274 HD
ENDBRANCH  15  16
ENDBRANCH  14  15
ENDBRANCH  11  14
ENDBRANCH   1  11
TORSDOF 9
ENDMDL
MODEL 9
REMARK VINA RESULT:      -3.7      3.929      5.603
REMARK  9 active torsions:
REMARK  status: ('A' for Active; 'I' for Inactive)
REMARK    1  A    between atoms: N1_1  and  C5_5 
REMARK    2  A    between atoms: C5_5  and  C6_6 
REMARK    3  A    between atoms: C6_6  and  N7_7 
REMARK    4  A    between atoms: N7_7  and  C8_8 
REMARK    5  A    between atoms: C8_8  and  C9_9 
REMARK    6  A    between atoms: C9_9  and  N10_10 
REMARK    7  A    between atoms: N10_10  and  C13_13 
REMARK    8  A    between atoms: C13_13  and  C14_14 
REMARK    9  A    between atoms: C14_14  and  N15_15 
ROOT
ATOM      1  C9  <0> d   1      19.057   0.883   9.095  0.00  0.00     0.262 C 
ENDROOT
BRANCH   1   2
ATOM      2  C8  <0> d   1      18.931   2.383   9.369  0.00  0.00     0.297 C 
BRANCH   2   3
ATOM      3  N7  <0> d   1      17.708   2.640  10.141  0.00  0.00     0.086 N 
ATOM      4  H23 <0> d   1      17.074   1.856  10.084  0.00  0.00     0.315 HD
BRANCH   3   5
ATOM      5  C6  <0> d   1      18.025   2.959  11.539  0.00  0.00     0.296 C 
BRANCH   5   6
ATOM      6  C5  <0> d   1      18.991   4.144  11.586  0.00  0.00     0.259 C 
BRANCH   6   7
ATOM      7  N1  <0> d   1      19.971   3.935  12.659  0.00  0.00    -0.078 N 
ATOM      8  H2  <0> d   1      19.520   3.492  13.446  0.00  0.00     0.274 HD
ATOM      9  H3  <0> d   1      20.351   4.825  12.946  0.00  0.00     0.274 HD
ATOM     10  H4  <0> d   1      20.717   3.344  12.323  0.00  0.00     0.274 HD
ENDBRANCH   6   7
ENDBRANCH   5   6
ENDBRANCH   3   5
ENDBRANCH   2   3
ENDBRANCH   1   2
BRANCH   1  11
ATOM     11  N10 <0> d   1      20.313   0.384   9.667  0.00  0.00    -0.072 N 
ATOM     12  H11 <0> d   1      20.851  -0.077   8.948  0.00  0.00     0.277 HD
ATOM     13  H12 <0> d   1      20.845   1.158  10.039  0.00  0.00     0.277 HD
BRANCH  11  14
ATOM     14  C13 <0> d   1      20.018  -0.569  10.745  0.00  0.00     0.259 C 
BRANCH  14  15
ATOM     15  C14 <0> d   1      20.216   0.114  12.099  0.00  0.00     0.257 C 
BRANCH  15  16
ATOM     16  N15 <0> d   1      21.571   0.676  12.170  0.00  0.00    -0.078 N 
ATOM     17  H16 <0> d   1      22.146   0.259  11.454  0.00  0.00     0.274 HD
ATOM     18  H17 <0> d   1      21.529   1.675  12.029  0.00  0.00     0.274 HD
ATOM     19  H18 <0> d   1      21.969   0.481  13.077  0.00  0.00     0.274 HD
ENDBRANCH  15  16
ENDBRANCH  14  15
ENDBRANCH  11  14
ENDBRANCH   1  11
TORSDOF 9
ENDMDL
