MODEL 1
REMARK VINA RESULT:      -7.6      0.000      0.000
REMARK  9 active torsions:
REMARK  status: ('A' for Active; 'I' for Inactive)
REMARK    1  A    between atoms: O1_1  and  C2_2 
REMARK    2  A    between atoms: C2_2  and  C3_3 
REMARK    3  A    between atoms: C3_3  and  O4_4 
REMARK    4  A    between atoms: O4_4  and  C5_5 
REMARK    5  A    between atoms: C5_5  and  C6_6 
REMARK    6  A    between atoms: C6_6  and  N7_7 
REMARK    7  A    between atoms: N11_11  and  C12_12 
REMARK    8  A    between atoms: C12_12  and  C14_13 
REMARK    9  A    between atoms: C12_12  and  C20_19 
ROOT
ATOM      1  N7  ZIN A   1      18.961  -0.275   7.357  0.00  0.00    -0.066 N 
ATOM      2  H8  ZIN A   1      19.565  -0.991   6.984  0.00  0.00     0.280 HD
ATOM      3  C9  ZIN A   1      17.760  -0.897   7.930  0.00  0.00     0.265 C 
ATOM      4  C10 ZIN A   1      18.168  -1.869   9.038  0.00  0.00     0.301 C 
ATOM      5  N11 ZIN A   1      18.905  -1.139  10.079  0.00  0.00     0.105 N 
ATOM      6  C27 ZIN A   1      20.098  -0.490   9.516  0.00  0.00     0.301 C 
ATOM      7  C28 ZIN A   1      19.674   0.471   8.403  0.00  0.00     0.265 C 
ENDROOT
BRANCH   5   8
ATOM      8  C12 ZIN A   1      19.266  -2.028  11.191  0.00  0.00     0.289 C 
BRANCH   8   9
ATOM      9  C14 ZIN A   1      18.589  -3.362  11.008  0.00  0.00    -0.021 A 
ATOM     10  C19 ZIN A   1      19.254  -4.395  10.374  0.00  0.00     0.010 A 
ATOM     11  C18 ZIN A   1      18.634  -5.619  10.211  0.00  0.00     0.001 A 
ATOM     12  C17 ZIN A   1      17.345  -5.808  10.673  0.00  0.00     0.000 A 
ATOM     13  C16 ZIN A   1      16.677  -4.774  11.302  0.00  0.00     0.001 A 
ATOM     14  C15 ZIN A   1      17.299  -3.550  11.469  0.00  0.00     0.010 A 
ENDBRANCH   8   9
BRANCH   8  15
ATOM     15  C20 ZIN A   1      18.822  -1.413  12.492  0.00  0.00    -0.021 A 
ATOM     16  C26 ZIN A   1      19.354  -1.862  13.687  0.00  0.00     0.011 A 
ATOM     17  C25 ZIN A   1      18.949  -1.293  14.880  0.00  0.00     0.024 A 
ATOM     18  C23 ZIN A   1      18.004  -0.283  14.880  0.00  0.00     0.034 A 
ATOM     19  C22 ZIN A   1      17.468   0.162  13.685  0.00  0.00     0.024 A 
ATOM     20 Cl24 ZIN A   1      17.491   0.426  16.380  0.00  0.00    -0.084 Cl
ATOM     21  C21 ZIN A   1      17.877  -0.403  12.492  0.00  0.00     0.011 A 
ENDBRANCH   8  15
ENDBRANCH   5   8
BRANCH   1  22
ATOM     22  C6  ZIN A   1      18.570   0.646   6.281  0.00  0.00     0.261 C 
BRANCH  22  23
ATOM     23  C5  ZIN A   1      18.862  -0.003   4.926  0.00  0.00     0.195 C 
BRANCH  23  24
ATOM     24  O4  ZIN A   1      19.695  -1.148   5.114  0.00  0.00    -0.387 OA
BRANCH  24  25
ATOM     25  C3  ZIN A   1      19.151  -2.357   4.579  0.00  0.00     0.193 C 
BRANCH  25  26
ATOM     26  C2  ZIN A   1      19.227  -3.461   5.635  0.00  0.00     0.190 C 
BRANCH  26  27
ATOM     27  O1  ZIN A   1      20.255  -3.149   6.578  0.00  0.00    -0.399 OA
ATOM     28  H29 ZIN A   1      21.025  -3.732   6.526  0.00  0.00     0.209 HD
ENDBRANCH  26  27
ENDBRANCH  25  26
ENDBRANCH  24  25
ENDBRANCH  23  24
ENDBRANCH  22  23
ENDBRANCH   1  22
TORSDOF 9
ENDMDL
MODEL 2
REMARK VINA RESULT:      -7.6      4.626      8.141
REMARK  9 active torsions:
REMARK  status: ('A' for Active; 'I' for Inactive)
REMARK    1  A    between atoms: O1_1  and  C2_2 
REMARK    2  A    between atoms: C2_2  and  C3_3 
REMARK    3  A    between atoms: C3_3  and  O4_4 
REMARK    4  A    between atoms: O4_4  and  C5_5 
REMARK    5  A    between atoms: C5_5  and  C6_6 
REMARK    6  A    between atoms: C6_6  and  N7_7 
REMARK    7  A    between atoms: N11_11  and  C12_12 
REMARK    8  A    between atoms: C12_12  and  C14_13 
REMARK    9  A    between atoms: C12_12  and  C20_19 
ROOT
ATOM      1  N7  ZIN A   1      19.001   0.062  15.992  0.00  0.00    -0.066 N 
ATOM      2  H8  ZIN A   1      19.939  -0.244  16.202  0.00  0.00     0.280 HD
ATOM      3  C9  ZIN A   1      19.050   1.148  15.006  0.00  0.00     0.265 C 
ATOM      4  C10 ZIN A   1      19.736   0.651  13.732  0.00  0.00     0.301 C 
ATOM      5  N11 ZIN A   1      18.988  -0.492  13.190  0.00  0.00     0.105 N 
ATOM      6  C27 ZIN A   1      18.909  -1.579  14.177  0.00  0.00     0.301 C 
ATOM      7  C28 ZIN A   1      18.230  -1.063  15.448  0.00  0.00     0.265 C 
ENDROOT
BRANCH   5   8
ATOM      8  C12 ZIN A   1      19.583  -0.965  11.934  0.00  0.00     0.289 C 
BRANCH   8   9
ATOM      9  C14 ZIN A   1      19.263   0.008  10.829  0.00  0.00    -0.021 A 
ATOM     10  C19 ZIN A   1      18.307   0.988  11.026  0.00  0.00     0.010 A 
ATOM     11  C18 ZIN A   1      18.017   1.883  10.014  0.00  0.00     0.001 A 
ATOM     12  C17 ZIN A   1      18.675   1.793   8.801  0.00  0.00     0.000 A 
ATOM     13  C16 ZIN A   1      19.626   0.811   8.602  0.00  0.00     0.001 A 
ATOM     14  C15 ZIN A   1      19.920  -0.083   9.616  0.00  0.00     0.010 A 
ENDBRANCH   8   9
BRANCH   8  15
ATOM     15  C20 ZIN A   1      19.022  -2.319  11.589  0.00  0.00    -0.021 A 
ATOM     16  C26 ZIN A   1      19.873  -3.393  11.402  0.00  0.00     0.011 A 
ATOM     17  C25 ZIN A   1      19.357  -4.637  11.091  0.00  0.00     0.024 A 
ATOM     18  C23 ZIN A   1      17.990  -4.805  10.955  0.00  0.00     0.034 A 
ATOM     19  C22 ZIN A   1      17.140  -3.729  11.136  0.00  0.00     0.024 A 
ATOM     20 Cl24 ZIN A   1      17.343  -6.367  10.557  0.00  0.00    -0.084 Cl
ATOM     21  C21 ZIN A   1      17.656  -2.488  11.453  0.00  0.00     0.011 A 
ENDBRANCH   8  15
ENDBRANCH   5   8
BRANCH   1  22
ATOM     22  C6  ZIN A   1      18.358   0.545  17.222  0.00  0.00     0.261 C 
BRANCH  22  23
ATOM     23  C5  ZIN A   1      19.399   0.633  18.340  0.00  0.00     0.195 C 
BRANCH  23  24
ATOM     24  O4  ZIN A   1      19.769   1.998  18.543  0.00  0.00    -0.387 OA
BRANCH  24  25
ATOM     25  C3  ZIN A   1      18.674   2.914  18.472  0.00  0.00     0.193 C 
BRANCH  25  26
ATOM     26  C2  ZIN A   1      18.970   3.982  17.419  0.00  0.00     0.190 C 
BRANCH  26  27
ATOM     27  O1  ZIN A   1      20.305   3.817  16.935  0.00  0.00    -0.399 OA
ATOM     28  H29 ZIN A   1      20.855   4.608  17.023  0.00  0.00     0.209 HD
ENDBRANCH  26  27
ENDBRANCH  25  26
ENDBRANCH  24  25
ENDBRANCH  23  24
ENDBRANCH  22  23
ENDBRANCH   1  22
TORSDOF 9
ENDMDL
MODEL 3
REMARK VINA RESULT:      -7.5      5.178      8.739
REMARK  9 active torsions:
REMARK  status: ('A' for Active; 'I' for Inactive)
REMARK    1  A    between atoms: O1_1  and  C2_2 
REMARK    2  A    between atoms: C2_2  and  C3_3 
REMARK    3  A    between atoms: C3_3  and  O4_4 
REMARK    4  A    between atoms: O4_4  and  C5_5 
REMARK    5  A    between atoms: C5_5  and  C6_6 
REMARK    6  A    between atoms: C6_6  and  N7_7 
REMARK    7  A    between atoms: N11_11  and  C12_12 
REMARK    8  A    between atoms: C12_12  and  C14_13 
REMARK    9  A    between atoms: C12_12  and  C20_19 
ROOT
ATOM      1  N7  ZIN A   1      18.920  -0.218  14.848  0.00  0.00    -0.066 N 
ATOM      2  H8  ZIN A   1      19.406   0.532  15.317  0.00  0.00     0.280 HD
ATOM      3  C9  ZIN A   1      17.689   0.302  14.240  0.00  0.00     0.265 C 
ATOM      4  C10 ZIN A   1      18.041   1.404  13.239  0.00  0.00     0.301 C 
ATOM      5  N11 ZIN A   1      18.926   0.857  12.202  0.00  0.00     0.105 N 
ATOM      6  C27 ZIN A   1      20.153   0.310  12.799  0.00  0.00     0.301 C 
ATOM      7  C28 ZIN A   1      19.784  -0.784  13.804  0.00  0.00     0.265 C 
ENDROOT
BRANCH   5   8
ATOM      8  C12 ZIN A   1      19.242   1.872  11.188  0.00  0.00     0.289 C 
BRANCH   8   9
ATOM      9  C14 ZIN A   1      18.512   3.150  11.513  0.00  0.00    -0.021 A 
ATOM     10  C19 ZIN A   1      17.372   3.493  10.810  0.00  0.00     0.010 A 
ATOM     11  C18 ZIN A   1      16.700   4.662  11.112  0.00  0.00     0.001 A 
ATOM     12  C17 ZIN A   1      17.175   5.495  12.108  0.00  0.00     0.000 A 
ATOM     13  C16 ZIN A   1      18.318   5.156  12.806  0.00  0.00     0.001 A 
ATOM     14  C15 ZIN A   1      18.988   3.983  12.508  0.00  0.00     0.010 A 
ENDBRANCH   8   9
BRANCH   8  15
ATOM     15  C20 ZIN A   1      18.813   1.379   9.832  0.00  0.00    -0.021 A 
ATOM     16  C26 ZIN A   1      19.397   1.897   8.691  0.00  0.00     0.011 A 
ATOM     17  C25 ZIN A   1      19.006   1.440   7.446  0.00  0.00     0.024 A 
ATOM     18  C23 ZIN A   1      18.023   0.473   7.341  0.00  0.00     0.034 A 
ATOM     19  C22 ZIN A   1      17.435  -0.042   8.482  0.00  0.00     0.024 A 
ATOM     20 Cl24 ZIN A   1      17.528  -0.096   5.777  0.00  0.00    -0.084 Cl
ATOM     21  C21 ZIN A   1      17.831   0.411   9.727  0.00  0.00     0.011 A 
ENDBRANCH   8  15
ENDBRANCH   5   8
BRANCH   1  22
ATOM     22  C6  ZIN A   1      18.581  -1.264  15.822  0.00  0.00     0.261 C 
BRANCH  22  23
ATOM     23  C5  ZIN A   1      17.421  -0.788  16.699  0.00  0.00     0.195 C 
BRANCH  23  24
ATOM     24  O4  ZIN A   1      17.934  -0.243  17.916  0.00  0.00    -0.387 OA
BRANCH  24  25
ATOM     25  C3  ZIN A   1      17.623   1.138  18.111  0.00  0.00     0.193 C 
BRANCH  25  26
ATOM     26  C2  ZIN A   1      18.855   1.987  17.791  0.00  0.00     0.190 C 
BRANCH  26  27
ATOM     27  O1  ZIN A   1      19.709   2.038  18.936  0.00  0.00    -0.399 OA
ATOM     28  H29 ZIN A   1      19.247   2.236  19.762  0.00  0.00     0.209 HD
ENDBRANCH  26  27
ENDBRANCH  25  26
ENDBRANCH  24  25
ENDBRANCH  23  24
ENDBRANCH  22  23
ENDBRANCH   1  22
TORSDOF 9
ENDMDL
MODEL 4
REMARK VINA RESULT:      -7.1      2.312      4.565
REMARK  9 active torsions:
REMARK  status: ('A' for Active; 'I' for Inactive)
REMARK    1  A    between atoms: O1_1  and  C2_2 
REMARK    2  A    between atoms: C2_2  and  C3_3 
REMARK    3  A    between atoms: C3_3  and  O4_4 
REMARK    4  A    between atoms: O4_4  and  C5_5 
REMARK    5  A    between atoms: C5_5  and  C6_6 
REMARK    6  A    between atoms: C6_6  and  N7_7 
REMARK    7  A    between atoms: N11_11  and  C12_12 
REMARK    8  A    between atoms: C12_12  and  C14_13 
REMARK    9  A    between atoms: C12_12  and  C20_19 
ROOT
ATOM      1  N7  ZIN A   1      19.265  -3.861  10.306  0.00  0.00    -0.066 N 
ATOM      2  H8  ZIN A   1      19.105  -3.280   9.497  0.00  0.00     0.280 HD
ATOM      3  C9  ZIN A   1      20.170  -3.169  11.234  0.00  0.00     0.265 C 
ATOM      4  C10 ZIN A   1      19.545  -1.839  11.659  0.00  0.00     0.301 C 
ATOM      5  N11 ZIN A   1      18.251  -2.093  12.307  0.00  0.00     0.105 N 
ATOM      6  C27 ZIN A   1      17.343  -2.808  11.398  0.00  0.00     0.301 C 
ATOM      7  C28 ZIN A   1      17.986  -4.130  10.975  0.00  0.00     0.265 C 
ENDROOT
BRANCH   5   8
ATOM      8  C12 ZIN A   1      17.643  -0.843  12.782  0.00  0.00     0.289 C 
BRANCH   8   9
ATOM      9  C14 ZIN A   1      18.175   0.312  11.973  0.00  0.00    -0.021 A 
ATOM     10  C19 ZIN A   1      19.374   0.907  12.322  0.00  0.00     0.010 A 
ATOM     11  C18 ZIN A   1      19.864   1.963  11.577  0.00  0.00     0.001 A 
ATOM     12  C17 ZIN A   1      19.150   2.431  10.489  0.00  0.00     0.000 A 
ATOM     13  C16 ZIN A   1      17.949   1.841  10.144  0.00  0.00     0.001 A 
ATOM     14  C15 ZIN A   1      17.461   0.781  10.886  0.00  0.00     0.010 A 
ENDBRANCH   8   9
BRANCH   8  15
ATOM     15  C20 ZIN A   1      17.983  -0.638  14.235  0.00  0.00    -0.021 A 
ATOM     16  C26 ZIN A   1      18.746  -1.576  14.905  0.00  0.00     0.011 A 
ATOM     17  C25 ZIN A   1      19.062  -1.385  16.237  0.00  0.00     0.024 A 
ATOM     18  C23 ZIN A   1      18.606  -0.261  16.902  0.00  0.00     0.034 A 
ATOM     19  C22 ZIN A   1      17.838   0.675  16.232  0.00  0.00     0.024 A 
ATOM     20 Cl24 ZIN A   1      18.998  -0.024  18.577  0.00  0.00    -0.084 Cl
ATOM     21  C21 ZIN A   1      17.528   0.486  14.899  0.00  0.00     0.011 A 
ENDBRANCH   8  15
ENDBRANCH   5   8
BRANCH   1  22
ATOM     22  C6  ZIN A   1      19.874  -5.130   9.884  0.00  0.00     0.261 C 
BRANCH  22  23
ATOM     23  C5  ZIN A   1      18.892  -5.894   8.993  0.00  0.00     0.195 C 
BRANCH  23  24
ATOM     24  O4  ZIN A   1      19.517  -6.198   7.745  0.00  0.00    -0.387 OA
BRANCH  24  25
ATOM     25  C3  ZIN A   1      20.482  -5.230   7.327  0.00  0.00     0.193 C 
BRANCH  25  26
ATOM     26  C2  ZIN A   1      19.780  -4.115   6.549  0.00  0.00     0.190 C 
BRANCH  26  27
ATOM     27  O1  ZIN A   1      19.864  -2.894   7.287  0.00  0.00    -0.399 OA
ATOM     28  H29 ZIN A   1      19.009  -2.477   7.453  0.00  0.00     0.209 HD
ENDBRANCH  26  27
ENDBRANCH  25  26
ENDBRANCH  24  25
ENDBRANCH  23  24
ENDBRANCH  22  23
ENDBRANCH   1  22
TORSDOF 9
ENDMDL
MODEL 5
REMARK VINA RESULT:      -7.1      4.309      7.329
REMARK  9 active torsions:
REMARK  status: ('A' for Active; 'I' for Inactive)
REMARK    1  A    between atoms: O1_1  and  C2_2 
REMARK    2  A    between atoms: C2_2  and  C3_3 
REMARK    3  A    between atoms: C3_3  and  O4_4 
REMARK    4  A    between atoms: O4_4  and  C5_5 
REMARK    5  A    between atoms: C5_5  and  C6_6 
REMARK    6  A    between atoms: C6_6  and  N7_7 
REMARK    7  A    between atoms: N11_11  and  C12_12 
REMARK    8  A    between atoms: C12_12  and  C14_13 
REMARK    9  A    between atoms: C12_12  and  C20_19 
ROOT
ATOM      1  N7  ZIN A   1      18.594   1.582  14.524  0.00  0.00    -0.066 N 
ATOM      2  H8  ZIN A   1      17.775   1.184  14.957  0.00  0.00     0.280 HD
ATOM      3  C9  ZIN A   1      19.520   0.506  14.146  0.00  0.00     0.265 C 
ATOM      4  C10 ZIN A   1      18.824  -0.447  13.173  0.00  0.00     0.301 C 
ATOM      5  N11 ZIN A   1      18.398   0.298  11.980  0.00  0.00     0.105 N 
ATOM      6  C27 ZIN A   1      17.490   1.394  12.346  0.00  0.00     0.301 C 
ATOM      7  C28 ZIN A   1      18.197   2.333  13.326  0.00  0.00     0.265 C 
ENDROOT
BRANCH   5   8
ATOM      8  C12 ZIN A   1      17.775  -0.595  10.995  0.00  0.00     0.289 C 
BRANCH   8   9
ATOM      9  C14 ZIN A   1      18.266  -2.003  11.211  0.00  0.00    -0.021 A 
ATOM     10  C19 ZIN A   1      19.616  -2.287  11.113  0.00  0.00     0.010 A 
ATOM     11  C18 ZIN A   1      20.067  -3.578  11.317  0.00  0.00     0.001 A 
ATOM     12  C17 ZIN A   1      19.167  -4.587  11.607  0.00  0.00     0.000 A 
ATOM     13  C16 ZIN A   1      17.817  -4.304  11.699  0.00  0.00     0.001 A 
ATOM     14  C15 ZIN A   1      17.366  -3.012  11.500  0.00  0.00     0.010 A 
ENDBRANCH   8   9
BRANCH   8  15
ATOM     15  C20 ZIN A   1      18.139  -0.144   9.605  0.00  0.00    -0.021 A 
ATOM     16  C26 ZIN A   1      17.517  -0.711   8.508  0.00  0.00     0.011 A 
ATOM     17  C25 ZIN A   1      17.847  -0.293   7.233  0.00  0.00     0.024 A 
ATOM     18  C23 ZIN A   1      18.809   0.686   7.053  0.00  0.00     0.034 A 
ATOM     19  C22 ZIN A   1      19.435   1.249   8.150  0.00  0.00     0.024 A 
ATOM     20 Cl24 ZIN A   1      19.229   1.206   5.451  0.00  0.00    -0.084 Cl
ATOM     21  C21 ZIN A   1      19.099   0.834   9.425  0.00  0.00     0.011 A 
ENDBRANCH   8  15
ENDBRANCH   5   8
BRANCH   1  22
ATOM     22  C6  ZIN A   1      19.257   2.488  15.472  0.00  0.00     0.261 C 
BRANCH  22  23
ATOM     23  C5  ZIN A   1      18.709   2.243  16.879  0.00  0.00     0.195 C 
BRANCH  23  24
ATOM     24  O4  ZIN A   1      19.657   1.487  17.635  0.00  0.00    -0.387 OA
BRANCH  24  25
ATOM     25  C3  ZIN A   1      19.075   0.444  18.421  0.00  0.00     0.193 C 
BRANCH  25  26
ATOM     26  C2  ZIN A   1      18.334  -0.531  17.505  0.00  0.00     0.190 C 
BRANCH  26  27
ATOM     27  O1  ZIN A   1      19.265  -1.459  16.944  0.00  0.00    -0.399 OA
ATOM     28  H29 ZIN A   1      19.710  -2.013  17.600  0.00  0.00     0.209 HD
ENDBRANCH  26  27
ENDBRANCH  25  26
ENDBRANCH  24  25
ENDBRANCH  23  24
ENDBRANCH  22  23
ENDBRANCH   1  22
TORSDOF 9
ENDMDL
MODEL 6
REMARK VINA RESULT:      -7.1      4.792      7.444
REMARK  9 active torsions:
REMARK  status: ('A' for Active; 'I' for Inactive)
REMARK    1  A    between atoms: O1_1  and  C2_2 
REMARK    2  A    between atoms: C2_2  and  C3_3 
REMARK    3  A    between atoms: C3_3  and  O4_4 
REMARK    4  A    between atoms: O4_4  and  C5_5 
REMARK    5  A    between atoms: C5_5  and  C6_6 
REMARK    6  A    between atoms: C6_6  and  N7_7 
REMARK    7  A    between atoms: N11_11  and  C12_12 
REMARK    8  A    between atoms: C12_12  and  C14_13 
REMARK    9  A    between atoms: C12_12  and  C20_19 
ROOT
ATOM      1  N7  ZIN A   1      19.250   3.923  12.480  0.00  0.00    -0.066 N 
ATOM      2  H8  ZIN A   1      18.857   3.478  13.296  0.00  0.00     0.280 HD
ATOM      3  C9  ZIN A   1      20.199   3.009  11.833  0.00  0.00     0.265 C 
ATOM      4  C10 ZIN A   1      19.476   1.723  11.430  0.00  0.00     0.301 C 
ATOM      5  N11 ZIN A   1      18.378   2.048  10.509  0.00  0.00     0.105 N 
ATOM      6  C27 ZIN A   1      17.432   2.983  11.136  0.00  0.00     0.301 C 
ATOM      7  C28 ZIN A   1      18.172   4.259  11.541  0.00  0.00     0.265 C 
ENDROOT
BRANCH   5   8
ATOM      8  C12 ZIN A   1      17.693   0.832  10.054  0.00  0.00     0.289 C 
BRANCH   8   9
ATOM      9  C14 ZIN A   1      18.220  -0.357  10.815  0.00  0.00    -0.021 A 
ATOM     10  C19 ZIN A   1      17.516  -0.855  11.896  0.00  0.00     0.010 A 
ATOM     11  C18 ZIN A   1      17.998  -1.948  12.591  0.00  0.00     0.001 A 
ATOM     12  C17 ZIN A   1      19.190  -2.537  12.212  0.00  0.00     0.000 A 
ATOM     13  C16 ZIN A   1      19.897  -2.036  11.136  0.00  0.00     0.001 A 
ATOM     14  C15 ZIN A   1      19.413  -0.945  10.437  0.00  0.00     0.010 A 
ENDBRANCH   8   9
BRANCH   8  15
ATOM     15  C20 ZIN A   1      17.941   0.636   8.581  0.00  0.00    -0.021 A 
ATOM     16  C26 ZIN A   1      17.232  -0.325   7.883  0.00  0.00     0.011 A 
ATOM     17  C25 ZIN A   1      17.456  -0.501   6.530  0.00  0.00     0.024 A 
ATOM     18  C23 ZIN A   1      18.397   0.276   5.878  0.00  0.00     0.034 A 
ATOM     19  C22 ZIN A   1      19.109   1.233   6.578  0.00  0.00     0.024 A 
ATOM     20 Cl24 ZIN A   1      18.683   0.050   4.180  0.00  0.00    -0.084 Cl
ATOM     21  C21 ZIN A   1      18.880   1.412   7.929  0.00  0.00     0.011 A 
ENDBRANCH   8  15
ENDBRANCH   5   8
BRANCH   1  22
ATOM     22  C6  ZIN A   1      19.948   5.151  12.883  0.00  0.00     0.261 C 
BRANCH  22  23
ATOM     23  C5  ZIN A   1      19.662   5.440  14.358  0.00  0.00     0.195 C 
BRANCH  23  24
ATOM     24  O4  ZIN A   1      18.871   4.385  14.906  0.00  0.00    -0.387 OA
BRANCH  24  25
ATOM     25  C3  ZIN A   1      19.290   3.957  16.203  0.00  0.00     0.193 C 
BRANCH  25  26
ATOM     26  C2  ZIN A   1      19.294   2.428  16.260  0.00  0.00     0.190 C 
BRANCH  26  27
ATOM     27  O1  ZIN A   1      19.574   1.904  14.960  0.00  0.00    -0.399 OA
ATOM     28  H29 ZIN A   1      19.809   0.966  14.957  0.00  0.00     0.209 HD
ENDBRANCH  26  27
ENDBRANCH  25  26
ENDBRANCH  24  25
ENDBRANCH  23  24
ENDBRANCH  22  23
ENDBRANCH   1  22
TORSDOF 9
ENDMDL
MODEL 7
REMARK VINA RESULT:      -7.1      4.820      7.414
REMARK  9 active torsions:
REMARK  status: ('A' for Active; 'I' for Inactive)
REMARK    1  A    between atoms: O1_1  and  C2_2 
REMARK    2  A    between atoms: C2_2  and  C3_3 
REMARK    3  A    between atoms: C3_3  and  O4_4 
REMARK    4  A    between atoms: O4_4  and  C5_5 
REMARK    5  A    between atoms: C5_5  and  C6_6 
REMARK    6  A    between atoms: C6_6  and  N7_7 
REMARK    7  A    between atoms: N11_11  and  C12_12 
REMARK    8  A    between atoms: C12_12  and  C14_13 
REMARK    9  A    between atoms: C12_12  and  C20_19 
ROOT
ATOM      1  N7  ZIN A   1      18.224   1.326  14.836  0.00  0.00    -0.066 N 
ATOM      2  H8  ZIN A   1      17.261   1.155  15.086  0.00  0.00     0.280 HD
ATOM      3  C9  ZIN A   1      18.928   0.044  14.700  0.00  0.00     0.265 C 
ATOM      4  C10 ZIN A   1      18.249  -0.800  13.621  0.00  0.00     0.301 C 
ATOM      5  N11 ZIN A   1      18.272  -0.071  12.345  0.00  0.00     0.105 N 
ATOM      6  C27 ZIN A   1      17.591   1.226  12.472  0.00  0.00     0.301 C 
ATOM      7  C28 ZIN A   1      18.277   2.053  13.562  0.00  0.00     0.265 C 
ENDROOT
BRANCH   5   8
ATOM      8  C12 ZIN A   1      17.678  -0.874  11.268  0.00  0.00     0.289 C 
BRANCH   8   9
ATOM      9  C14 ZIN A   1      18.191  -2.288  11.354  0.00  0.00    -0.021 A 
ATOM     10  C19 ZIN A   1      19.552  -2.532  11.343  0.00  0.00     0.010 A 
ATOM     11  C18 ZIN A   1      20.022  -3.829  11.427  0.00  0.00     0.001 A 
ATOM     12  C17 ZIN A   1      19.131  -4.883  11.511  0.00  0.00     0.000 A 
ATOM     13  C16 ZIN A   1      17.771  -4.640  11.516  0.00  0.00     0.001 A 
ATOM     14  C15 ZIN A   1      17.300  -3.342  11.437  0.00  0.00     0.010 A 
ENDBRANCH   8   9
BRANCH   8  15
ATOM     15  C20 ZIN A   1      18.054  -0.283   9.934  0.00  0.00    -0.021 A 
ATOM     16  C26 ZIN A   1      17.306  -0.583   8.810  0.00  0.00     0.011 A 
ATOM     17  C25 ZIN A   1      17.649  -0.036   7.587  0.00  0.00     0.024 A 
ATOM     18  C23 ZIN A   1      18.745   0.801   7.486  0.00  0.00     0.034 A 
ATOM     19  C22 ZIN A   1      19.496   1.096   8.610  0.00  0.00     0.024 A 
ATOM     20 Cl24 ZIN A   1      19.179   1.482   5.949  0.00  0.00    -0.084 Cl
ATOM     21  C21 ZIN A   1      19.150   0.554   9.833  0.00  0.00     0.011 A 
ENDBRANCH   8  15
ENDBRANCH   5   8
BRANCH   1  22
ATOM     22  C6  ZIN A   1      18.866   2.129  15.885  0.00  0.00     0.261 C 
BRANCH  22  23
ATOM     23  C5  ZIN A   1      19.049   3.564  15.387  0.00  0.00     0.195 C 
BRANCH  23  24
ATOM     24  O4  ZIN A   1      19.765   4.321  16.365  0.00  0.00    -0.387 OA
BRANCH  24  25
ATOM     25  C3  ZIN A   1      19.819   5.723  16.090  0.00  0.00     0.193 C 
BRANCH  25  26
ATOM     26  C2  ZIN A   1      20.956   6.007  15.107  0.00  0.00     0.190 C 
BRANCH  26  27
ATOM     27  O1  ZIN A   1      22.201   5.622  15.694  0.00  0.00    -0.399 OA
ATOM     28  H29 ZIN A   1      22.576   4.812  15.325  0.00  0.00     0.209 HD
ENDBRANCH  26  27
ENDBRANCH  25  26
ENDBRANCH  24  25
ENDBRANCH  23  24
ENDBRANCH  22  23
ENDBRANCH   1  22
TORSDOF 9
ENDMDL
MODEL 8
REMARK VINA RESULT:      -7.0      2.437      4.506
REMARK  9 active torsions:
REMARK  status: ('A' for Active; 'I' for Inactive)
REMARK    1  A    between atoms: O1_1  and  C2_2 
REMARK    2  A    between atoms: C2_2  and  C3_3 
REMARK    3  A    between atoms: C3_3  and  O4_4 
REMARK    4  A    between atoms: O4_4  and  C5_5 
REMARK    5  A    between atoms: C5_5  and  C6_6 
REMARK    6  A    between atoms: C6_6  and  N7_7 
REMARK    7  A    between atoms: N11_11  and  C12_12 
REMARK    8  A    between atoms: C12_12  and  C14_13 
REMARK    9  A    between atoms: C12_12  and  C20_19 
ROOT
ATOM      1  N7  ZIN A   1      18.581  -1.428   8.074  0.00  0.00    -0.066 N 
ATOM      2  H8  ZIN A   1      17.617  -1.315   7.797  0.00  0.00     0.280 HD
ATOM      3  C9  ZIN A   1      19.189  -0.107   8.277  0.00  0.00     0.265 C 
ATOM      4  C10 ZIN A   1      18.417   0.649   9.360  0.00  0.00     0.301 C 
ATOM      5  N11 ZIN A   1      18.451  -0.122  10.611  0.00  0.00     0.105 N 
ATOM      6  C27 ZIN A   1      17.867  -1.457  10.416  0.00  0.00     0.301 C 
ATOM      7  C28 ZIN A   1      18.644  -2.196   9.324  0.00  0.00     0.265 C 
ENDROOT
BRANCH   5   8
ATOM      8  C12 ZIN A   1      17.767   0.598  11.693  0.00  0.00     0.289 C 
BRANCH   8   9
ATOM      9  C14 ZIN A   1      18.159   2.053  11.654  0.00  0.00    -0.021 A 
ATOM     10  C19 ZIN A   1      19.444   2.433  11.994  0.00  0.00     0.010 A 
ATOM     11  C18 ZIN A   1      19.804   3.767  11.953  0.00  0.00     0.001 A 
ATOM     12  C17 ZIN A   1      18.876   4.722  11.583  0.00  0.00     0.000 A 
ATOM     13  C16 ZIN A   1      17.590   4.344  11.248  0.00  0.00     0.001 A 
ATOM     14  C15 ZIN A   1      17.230   3.009  11.285  0.00  0.00     0.010 A 
ENDBRANCH   8   9
BRANCH   8  15
ATOM     15  C20 ZIN A   1      18.164   0.007  13.020  0.00  0.00    -0.021 A 
ATOM     16  C26 ZIN A   1      17.445   0.320  14.159  0.00  0.00     0.011 A 
ATOM     17  C25 ZIN A   1      17.807  -0.227  15.376  0.00  0.00     0.024 A 
ATOM     18  C23 ZIN A   1      18.894  -1.079  15.457  0.00  0.00     0.034 A 
ATOM     19  C22 ZIN A   1      19.616  -1.388  14.318  0.00  0.00     0.024 A 
ATOM     20 Cl24 ZIN A   1      19.352  -1.761  16.986  0.00  0.00    -0.084 Cl
ATOM     21  C21 ZIN A   1      19.251  -0.845  13.101  0.00  0.00     0.011 A 
ENDBRANCH   8  15
ENDBRANCH   5   8
BRANCH   1  22
ATOM     22  C6  ZIN A   1      19.311  -2.147   7.021  0.00  0.00     0.261 C 
BRANCH  22  23
ATOM     23  C5  ZIN A   1      19.323  -1.305   5.744  0.00  0.00     0.195 C 
BRANCH  23  24
ATOM     24  O4  ZIN A   1      19.653  -2.135   4.628  0.00  0.00    -0.387 OA
BRANCH  24  25
ATOM     25  C3  ZIN A   1      18.609  -3.030   4.241  0.00  0.00     0.193 C 
BRANCH  25  26
ATOM     26  C2  ZIN A   1      17.299  -2.253   4.094  0.00  0.00     0.190 C 
BRANCH  26  27
ATOM     27  O1  ZIN A   1      16.194  -3.142   4.277  0.00  0.00    -0.399 OA
ATOM     28  H29 ZIN A   1      15.931  -3.256   5.200  0.00  0.00     0.209 HD
ENDBRANCH  26  27
ENDBRANCH  25  26
ENDBRANCH  24  25
ENDBRANCH  23  24
ENDBRANCH  22  23
ENDBRANCH   1  22
TORSDOF 9
ENDMDL
MODEL 9
REMARK VINA RESULT:      -7.0      4.613      7.213
REMARK  9 active torsions:
REMARK  status: ('A' for Active; 'I' for Inactive)
REMARK    1  A    between atoms: O1_1  and  C2_2 
REMARK    2  A    between atoms: C2_2  and  C3_3 
REMARK    3  A    between atoms: C3_3  and  O4_4 
REMARK    4  A    between atoms: O4_4  and  C5_5 
REMARK    5  A    between atoms: C5_5  and  C6_6 
REMARK    6  A    between atoms: C6_6  and  N7_7 
REMARK    7  A    between atoms: N11_11  and  C12_12 
REMARK    8  A    between atoms: C12_12  and  C14_13 
REMARK    9  A    between atoms: C12_12  and  C20_19 
ROOT
ATOM      1  N7  ZIN A   1      17.955   3.854  12.266  0.00  0.00    -0.066 N 
ATOM      2  H8  ZIN A   1      18.898   4.203  12.176  0.00  0.00     0.280 HD
ATOM      3  C9  ZIN A   1      17.369   3.680  10.931  0.00  0.00     0.265 C 
ATOM      4  C10 ZIN A   1      18.217   2.694  10.126  0.00  0.00     0.301 C 
ATOM      5  N11 ZIN A   1      18.268   1.405  10.830  0.00  0.00     0.105 N 
ATOM      6  C27 ZIN A   1      18.830   1.569  12.178  0.00  0.00     0.301 C 
ATOM      7  C28 ZIN A   1      17.976   2.564  12.967  0.00  0.00     0.265 C 
ENDROOT
BRANCH   5   8
ATOM      8  C12 ZIN A   1      19.028   0.413  10.059  0.00  0.00     0.289 C 
BRANCH   8   9
ATOM      9  C14 ZIN A   1      18.617   0.479   8.611  0.00  0.00    -0.021 A 
ATOM     10  C19 ZIN A   1      17.455  -0.143   8.193  0.00  0.00     0.010 A 
ATOM     11  C18 ZIN A   1      17.076  -0.077   6.865  0.00  0.00     0.001 A 
ATOM     12  C17 ZIN A   1      17.864   0.600   5.954  0.00  0.00     0.000 A 
ATOM     13  C16 ZIN A   1      19.029   1.216   6.370  0.00  0.00     0.001 A 
ATOM     14  C15 ZIN A   1      19.406   1.155   7.699  0.00  0.00     0.010 A 
ENDBRANCH   8   9
BRANCH   8  15
ATOM     15  C20 ZIN A   1      18.748  -0.965  10.599  0.00  0.00    -0.021 A 
ATOM     16  C26 ZIN A   1      19.710  -1.954  10.502  0.00  0.00     0.011 A 
ATOM     17  C25 ZIN A   1      19.454  -3.217  11.002  0.00  0.00     0.024 A 
ATOM     18  C23 ZIN A   1      18.232  -3.495  11.589  0.00  0.00     0.034 A 
ATOM     19  C22 ZIN A   1      17.268  -2.507  11.681  0.00  0.00     0.024 A 
ATOM     20 Cl24 ZIN A   1      17.909  -5.084  12.211  0.00  0.00    -0.084 Cl
ATOM     21  C21 ZIN A   1      17.527  -1.243  11.186  0.00  0.00     0.011 A 
ENDBRANCH   8  15
ENDBRANCH   5   8
BRANCH   1  22
ATOM     22  C6  ZIN A   1      17.150   4.814  13.034  0.00  0.00     0.261 C 
BRANCH  22  23
ATOM     23  C5  ZIN A   1      17.806   5.057  14.394  0.00  0.00     0.195 C 
BRANCH  23  24
ATOM     24  O4  ZIN A   1      18.728   6.144  14.293  0.00  0.00    -0.387 OA
BRANCH  24  25
ATOM     25  C3  ZIN A   1      20.037   5.844  14.782  0.00  0.00     0.193 C 
BRANCH  25  26
ATOM     26  C2  ZIN A   1      19.925   5.050  16.084  0.00  0.00     0.190 C 
BRANCH  26  27
ATOM     27  O1  ZIN A   1      21.144   4.342  16.317  0.00  0.00    -0.399 OA
ATOM     28  H29 ZIN A   1      21.153   3.446  15.954  0.00  0.00     0.209 HD
ENDBRANCH  26  27
ENDBRANCH  25  26
ENDBRANCH  24  25
ENDBRANCH  23  24
ENDBRANCH  22  23
ENDBRANCH   1  22
TORSDOF 9
ENDMDL
