MODEL 1
REMARK VINA RESULT:      -7.5      0.000      0.000
REMARK  3 active torsions:
REMARK  status: ('A' for Active; 'I' for Inactive)
REMARK    1  A    between atoms: N2_2  and  C5_5 
REMARK    2  A    between atoms: C5_5  and  C6_6 
REMARK    3  A    between atoms: C6_6  and  C7_7 
ROOT
ATOM      1  C7  <0> d   1      18.090   3.239  11.440  0.00  0.00    -0.012 C 
ATOM      2  C8  <0> d   1      18.391   1.970  11.146  0.00  0.00    -0.018 C 
ATOM      3  C9  <0> d   1      18.375   1.466   9.744  0.00  0.00    -0.019 A 
ATOM      4  C10 <0> d   1      19.154   2.138   8.801  0.00  0.00     0.013 A 
ATOM      5  C11 <0> d   1      19.197   1.704   7.494  0.00  0.00     0.001 A 
ATOM      6  C12 <0> d   1      18.461   0.592   7.129  0.00  0.00     0.001 A 
ATOM      7  C13 <0> d   1      17.685  -0.066   8.056  0.00  0.00     0.008 A 
ATOM      8  C14 <0> d   1      17.612   0.360   9.383  0.00  0.00    -0.047 A 
ATOM      9  C15 <0> d   1      16.666  -0.440  10.248  0.00  0.00     0.044 C 
ATOM     10  C16 <0> d   1      16.553   0.076  11.667  0.00  0.00     0.044 C 
ATOM     11  C17 <0> d   1      17.855  -0.027  12.417  0.00  0.00    -0.047 A 
ATOM     12  C18 <0> d   1      18.147  -1.057  13.278  0.00  0.00     0.008 A 
ATOM     13  C19 <0> d   1      19.359  -1.035  13.956  0.00  0.00     0.001 A 
ATOM     14  C20 <0> d   1      20.253   0.004  13.773  0.00  0.00     0.001 A 
ATOM     15  C21 <0> d   1      19.961   1.034  12.892  0.00  0.00     0.013 A 
ATOM     16  C22 <0> d   1      18.764   0.990  12.203  0.00  0.00    -0.019 A 
ENDROOT
BRANCH   1  17
ATOM     17  C6  <0> d   1      17.717   4.200  10.339  0.00  0.00     0.055 C 
BRANCH  17  18
ATOM     18  C5  <0> d   1      16.919   5.365  10.929  0.00  0.00     0.235 C 
BRANCH  18  19
ATOM     19  N2  <0> d   1      16.522   5.039  12.306  0.00  0.00    -0.079 N 
ATOM     20  C1  <0> d   1      16.690   6.224  13.157  0.00  0.00     0.266 C 
ATOM     21  H3  <0> d   1      17.101   4.289  12.655  0.00  0.00     0.276 HD
ATOM     22  H4  <0> d   1      15.555   4.751  12.318  0.00  0.00     0.276 HD
ENDBRANCH  18  19
ENDBRANCH  17  18
ENDBRANCH   1  17
TORSDOF 3
ENDMDL
MODEL 2
REMARK VINA RESULT:      -7.4      3.017      5.277
REMARK  3 active torsions:
REMARK  status: ('A' for Active; 'I' for Inactive)
REMARK    1  A    between atoms: N2_2  and  C5_5 
REMARK    2  A    between atoms: C5_5  and  C6_6 
REMARK    3  A    between atoms: C6_6  and  C7_7 
ROOT
ATOM      1  C7  <0> d   1      20.122   0.236  13.463  0.00  0.00    -0.012 C 
ATOM      2  C8  <0> d   1      19.097   0.936  13.962  0.00  0.00    -0.018 C 
ATOM      3  C9  <0> d   1      18.488   2.073  13.216  0.00  0.00    -0.019 A 
ATOM      4  C10 <0> d   1      18.025   1.831  11.923  0.00  0.00     0.013 A 
ATOM      5  C11 <0> d   1      17.432   2.838  11.193  0.00  0.00     0.001 A 
ATOM      6  C12 <0> d   1      17.299   4.092  11.761  0.00  0.00     0.001 A 
ATOM      7  C13 <0> d   1      17.764   4.335  13.033  0.00  0.00     0.008 A 
ATOM      8  C14 <0> d   1      18.381   3.337  13.789  0.00  0.00    -0.047 A 
ATOM      9  C15 <0> d   1      18.886   3.793  15.138  0.00  0.00     0.044 C 
ATOM     10  C16 <0> d   1      19.607   2.712  15.916  0.00  0.00     0.044 C 
ATOM     11  C17 <0> d   1      18.701   1.564  16.273  0.00  0.00    -0.047 A 
ATOM     12  C18 <0> d   1      18.096   1.436  17.499  0.00  0.00     0.008 A 
ATOM     13  C19 <0> d   1      17.314   0.314  17.743  0.00  0.00     0.001 A 
ATOM     14  C20 <0> d   1      17.149  -0.657  16.773  0.00  0.00     0.001 A 
ATOM     15  C21 <0> d   1      17.749  -0.516  15.531  0.00  0.00     0.013 A 
ATOM     16  C22 <0> d   1      18.504   0.614  15.290  0.00  0.00    -0.019 A 
ENDROOT
BRANCH   1  17
ATOM     17  C6  <0> d   1      20.693   0.595  12.115  0.00  0.00     0.055 C 
BRANCH  17  18
ATOM     18  C5  <0> d   1      20.656  -0.634  11.203  0.00  0.00     0.235 C 
BRANCH  18  19
ATOM     19  N2  <0> d   1      20.850  -0.214   9.808  0.00  0.00    -0.079 N 
ATOM     20  C1  <0> d   1      19.558  -0.223   9.109  0.00  0.00     0.266 C 
ATOM     21  H3  <0> d   1      21.485  -0.851   9.350  0.00  0.00     0.276 HD
ATOM     22  H4  <0> d   1      21.237   0.718   9.788  0.00  0.00     0.276 HD
ENDBRANCH  18  19
ENDBRANCH  17  18
ENDBRANCH   1  17
TORSDOF 3
ENDMDL
MODEL 3
REMARK VINA RESULT:      -7.3      2.654      4.981
REMARK  3 active torsions:
REMARK  status: ('A' for Active; 'I' for Inactive)
REMARK    1  A    between atoms: N2_2  and  C5_5 
REMARK    2  A    between atoms: C5_5  and  C6_6 
REMARK    3  A    between atoms: C6_6  and  C7_7 
ROOT
ATOM      1  C7  <0> d   1      19.068   0.015   8.280  0.00  0.00    -0.012 C 
ATOM      2  C8  <0> d   1      18.874   0.103   9.600  0.00  0.00    -0.018 C 
ATOM      3  C9  <0> d   1      18.839   1.418  10.300  0.00  0.00    -0.019 A 
ATOM      4  C10 <0> d   1      17.933   2.376   9.844  0.00  0.00     0.013 A 
ATOM      5  C11 <0> d   1      17.839   3.602  10.466  0.00  0.00     0.001 A 
ATOM      6  C12 <0> d   1      18.654   3.870  11.551  0.00  0.00     0.001 A 
ATOM      7  C13 <0> d   1      19.555   2.930  11.996  0.00  0.00     0.008 A 
ATOM      8  C14 <0> d   1      19.680   1.686  11.376  0.00  0.00    -0.047 A 
ATOM      9  C15 <0> d   1      20.759   0.801  11.955  0.00  0.00     0.044 C 
ATOM     10  C16 <0> d   1      20.921  -0.518  11.229  0.00  0.00     0.044 C 
ATOM     11  C17 <0> d   1      19.693  -1.382  11.335  0.00  0.00    -0.047 A 
ATOM     12  C18 <0> d   1      19.565  -2.400  12.250  0.00  0.00     0.008 A 
ATOM     13  C19 <0> d   1      18.409  -3.168  12.235  0.00  0.00     0.001 A 
ATOM     14  C20 <0> d   1      17.406  -2.919  11.316  0.00  0.00     0.001 A 
ATOM     15  C21 <0> d   1      17.532  -1.882  10.405  0.00  0.00     0.013 A 
ATOM     16  C22 <0> d   1      18.675  -1.108  10.444  0.00  0.00    -0.019 A 
ENDROOT
BRANCH   1  17
ATOM     17  C6  <0> d   1      19.266   1.266   7.462  0.00  0.00     0.055 C 
BRANCH  17  18
ATOM     18  C5  <0> d   1      18.616   1.084   6.089  0.00  0.00     0.235 C 
BRANCH  18  19
ATOM     19  N2  <0> d   1      19.619   0.593   5.133  0.00  0.00    -0.079 N 
ATOM     20  C1  <0> d   1      19.255  -0.760   4.692  0.00  0.00     0.266 C 
ATOM     21  H3  <0> d   1      20.524   0.569   5.579  0.00  0.00     0.276 HD
ATOM     22  H4  <0> d   1      19.653   1.210   4.335  0.00  0.00     0.276 HD
ENDBRANCH  18  19
ENDBRANCH  17  18
ENDBRANCH   1  17
TORSDOF 3
ENDMDL
MODEL 4
REMARK VINA RESULT:      -7.2      3.313      6.114
REMARK  3 active torsions:
REMARK  status: ('A' for Active; 'I' for Inactive)
REMARK    1  A    between atoms: N2_2  and  C5_5 
REMARK    2  A    between atoms: C5_5  and  C6_6 
REMARK    3  A    between atoms: C6_6  and  C7_7 
ROOT
ATOM      1  C7  <0> d   1      19.974  -0.473   9.480  0.00  0.00    -0.012 C 
ATOM      2  C8  <0> d   1      19.046  -1.282   8.956  0.00  0.00    -0.018 C 
ATOM      3  C9  <0> d   1      18.498  -2.440   9.716  0.00  0.00    -0.019 A 
ATOM      4  C10 <0> d   1      17.939  -2.190  10.970  0.00  0.00     0.013 A 
ATOM      5  C11 <0> d   1      17.395  -3.217  11.710  0.00  0.00     0.001 A 
ATOM      6  C12 <0> d   1      17.408  -4.500  11.193  0.00  0.00     0.001 A 
ATOM      7  C13 <0> d   1      17.967  -4.749   9.960  0.00  0.00     0.008 A 
ATOM      8  C14 <0> d   1      18.537  -3.729   9.196  0.00  0.00    -0.047 A 
ATOM      9  C15 <0> d   1      19.159  -4.190   7.898  0.00  0.00     0.044 C 
ATOM     10  C16 <0> d   1      19.826  -3.080   7.114  0.00  0.00     0.044 C 
ATOM     11  C17 <0> d   1      18.845  -2.034   6.657  0.00  0.00    -0.047 A 
ATOM     12  C18 <0> d   1      18.304  -2.009   5.394  0.00  0.00     0.008 A 
ATOM     13  C19 <0> d   1      17.442  -0.974   5.058  0.00  0.00     0.001 A 
ATOM     14  C20 <0> d   1      17.135   0.016   5.973  0.00  0.00     0.001 A 
ATOM     15  C21 <0> d   1      17.670  -0.021   7.252  0.00  0.00     0.013 A 
ATOM     16  C22 <0> d   1      18.507  -1.068   7.584  0.00  0.00    -0.019 A 
ENDROOT
BRANCH   1  17
ATOM     17  C6  <0> d   1      20.494  -0.725  10.872  0.00  0.00     0.055 C 
BRANCH  17  18
ATOM     18  C5  <0> d   1      20.337   0.545  11.711  0.00  0.00     0.235 C 
BRANCH  18  19
ATOM     19  N2  <0> d   1      20.845   0.300  13.068  0.00  0.00    -0.079 N 
ATOM     20  C1  <0> d   1      19.754   0.468  14.037  0.00  0.00     0.266 C 
ATOM     21  H3  <0> d   1      21.583   0.957  13.276  0.00  0.00     0.276 HD
ATOM     22  H4  <0> d   1      21.206  -0.641  13.128  0.00  0.00     0.276 HD
ENDBRANCH  18  19
ENDBRANCH  17  18
ENDBRANCH   1  17
TORSDOF 3
ENDMDL
MODEL 5
REMARK VINA RESULT:      -7.1      3.030      5.773
REMARK  3 active torsions:
REMARK  status: ('A' for Active; 'I' for Inactive)
REMARK    1  A    between atoms: N2_2  and  C5_5 
REMARK    2  A    between atoms: C5_5  and  C6_6 
REMARK    3  A    between atoms: C6_6  and  C7_7 
ROOT
ATOM      1  C7  <0> d   1      19.003   3.784  15.199  0.00  0.00    -0.012 C 
ATOM      2  C8  <0> d   1      18.543   3.157  14.110  0.00  0.00    -0.018 C 
ATOM      3  C9  <0> d   1      18.511   1.671  14.018  0.00  0.00    -0.019 A 
ATOM      4  C10 <0> d   1      17.839   0.969  15.019  0.00  0.00     0.013 A 
ATOM      5  C11 <0> d   1      17.758  -0.406  14.974  0.00  0.00     0.001 A 
ATOM      6  C12 <0> d   1      18.348  -1.082  13.921  0.00  0.00     0.001 A 
ATOM      7  C13 <0> d   1      19.019  -0.391  12.938  0.00  0.00     0.008 A 
ATOM      8  C14 <0> d   1      19.129   1.000  12.966  0.00  0.00    -0.047 A 
ATOM      9  C15 <0> d   1      19.951   1.588  11.843  0.00  0.00     0.044 C 
ATOM     10  C16 <0> d   1      20.110   3.092  11.926  0.00  0.00     0.044 C 
ATOM     11  C17 <0> d   1      18.797   3.813  11.788  0.00  0.00    -0.047 A 
ATOM     12  C18 <0> d   1      18.361   4.363  10.607  0.00  0.00     0.008 A 
ATOM     13  C19 <0> d   1      17.153   5.048  10.596  0.00  0.00     0.001 A 
ATOM     14  C20 <0> d   1      16.405   5.181  11.750  0.00  0.00     0.001 A 
ATOM     15  C21 <0> d   1      16.840   4.612  12.938  0.00  0.00     0.013 A 
ATOM     16  C22 <0> d   1      18.030   3.911  12.933  0.00  0.00    -0.019 A 
ENDROOT
BRANCH   1  17
ATOM     17  C6  <0> d   1      19.512   2.983  16.370  0.00  0.00     0.055 C 
BRANCH  17  18
ATOM     18  C5  <0> d   1      18.899   3.525  17.663  0.00  0.00     0.235 C 
BRANCH  18  19
ATOM     19  N2  <0> d   1      19.131   2.568  18.754  0.00  0.00    -0.079 N 
ATOM     20  C1  <0> d   1      19.318   1.223  18.194  0.00  0.00     0.266 C 
ATOM     21  H3  <0> d   1      18.336   2.566  19.376  0.00  0.00     0.276 HD
ATOM     22  H4  <0> d   1      19.959   2.837  19.266  0.00  0.00     0.276 HD
ENDBRANCH  18  19
ENDBRANCH  17  18
ENDBRANCH   1  17
TORSDOF 3
ENDMDL
MODEL 6
REMARK VINA RESULT:      -6.9      3.538      5.924
REMARK  3 active torsions:
REMARK  status: ('A' for Active; 'I' for Inactive)
REMARK    1  A    between atoms: N2_2  and  C5_5 
REMARK    2  A    between atoms: C5_5  and  C6_6 
REMARK    3  A    between atoms: C6_6  and  C7_7 
ROOT
ATOM      1  C7  <0> d   1      19.037  -1.804   8.656  0.00  0.00    -0.012 C 
ATOM      2  C8  <0> d   1      18.392  -2.196   9.760  0.00  0.00    -0.018 C 
ATOM      3  C9  <0> d   1      18.036  -1.234  10.841  0.00  0.00    -0.019 A 
ATOM      4  C10 <0> d   1      17.287  -0.110  10.493  0.00  0.00     0.013 A 
ATOM      5  C11 <0> d   1      16.909   0.802  11.454  0.00  0.00     0.001 A 
ATOM      6  C12 <0> d   1      17.279   0.588  12.770  0.00  0.00     0.001 A 
ATOM      7  C13 <0> d   1      18.025  -0.517  13.113  0.00  0.00     0.008 A 
ATOM      8  C14 <0> d   1      18.433  -1.449  12.157  0.00  0.00    -0.047 A 
ATOM      9  C15 <0> d   1      19.297  -2.565  12.698  0.00  0.00     0.044 C 
ATOM     10  C16 <0> d   1      19.780  -3.531  11.637  0.00  0.00     0.044 C 
ATOM     11  C17 <0> d   1      18.647  -4.276  10.983  0.00  0.00    -0.047 A 
ATOM     12  C18 <0> d   1      18.272  -5.546  11.349  0.00  0.00     0.008 A 
ATOM     13  C19 <0> d   1      17.242  -6.164  10.652  0.00  0.00     0.001 A 
ATOM     14  C20 <0> d   1      16.607  -5.517   9.608  0.00  0.00     0.001 A 
ATOM     15  C21 <0> d   1      16.978  -4.229   9.252  0.00  0.00     0.013 A 
ATOM     16  C22 <0> d   1      17.987  -3.614   9.967  0.00  0.00    -0.019 A 
ENDROOT
BRANCH   1  17
ATOM     17  C6  <0> d   1      19.429  -0.359   8.485  0.00  0.00     0.055 C 
BRANCH  17  18
ATOM     18  C5  <0> d   1      18.897   0.158   7.147  0.00  0.00     0.235 C 
BRANCH  18  19
ATOM     19  N2  <0> d   1      19.005  -0.902   6.135  0.00  0.00    -0.079 N 
ATOM     20  C1  <0> d   1      19.377  -0.310   4.843  0.00  0.00     0.266 C 
ATOM     21  H3  <0> d   1      18.117  -1.373   6.045  0.00  0.00     0.276 HD
ATOM     22  H4  <0> d   1      19.711  -1.566   6.416  0.00  0.00     0.276 HD
ENDBRANCH  18  19
ENDBRANCH  17  18
ENDBRANCH   1  17
TORSDOF 3
ENDMDL
MODEL 7
REMARK VINA RESULT:      -6.7      2.688      4.311
REMARK  3 active torsions:
REMARK  status: ('A' for Active; 'I' for Inactive)
REMARK    1  A    between atoms: N2_2  and  C5_5 
REMARK    2  A    between atoms: C5_5  and  C6_6 
REMARK    3  A    between atoms: C6_6  and  C7_7 
ROOT
ATOM      1  C7  <0> d   1      19.112  -0.374  14.252  0.00  0.00    -0.012 C 
ATOM      2  C8  <0> d   1      19.026  -0.506  12.924  0.00  0.00    -0.018 C 
ATOM      3  C9  <0> d   1      18.972   0.679  12.022  0.00  0.00    -0.019 A 
ATOM      4  C10 <0> d   1      19.999   1.619  12.119  0.00  0.00     0.013 A 
ATOM      5  C11 <0> d   1      20.014   2.723  11.295  0.00  0.00     0.001 A 
ATOM      6  C12 <0> d   1      19.000   2.886  10.368  0.00  0.00     0.001 A 
ATOM      7  C13 <0> d   1      17.983   1.964  10.277  0.00  0.00     0.008 A 
ATOM      8  C14 <0> d   1      17.935   0.844  11.109  0.00  0.00    -0.047 A 
ATOM      9  C15 <0> d   1      16.717  -0.029  10.917  0.00  0.00     0.044 C 
ATOM     10  C16 <0> d   1      16.652  -1.204  11.870  0.00  0.00     0.044 C 
ATOM     11  C17 <0> d   1      17.788  -2.170  11.664  0.00  0.00    -0.047 A 
ATOM     12  C18 <0> d   1      17.671  -3.323  10.926  0.00  0.00     0.008 A 
ATOM     13  C19 <0> d   1      18.767  -4.170  10.834  0.00  0.00     0.001 A 
ATOM     14  C20 <0> d   1      19.953  -3.864  11.477  0.00  0.00     0.001 A 
ATOM     15  C21 <0> d   1      20.072  -2.692  12.208  0.00  0.00     0.013 A 
ATOM     16  C22 <0> d   1      18.984  -1.844  12.272  0.00  0.00    -0.019 A 
ENDROOT
BRANCH   1  17
ATOM     17  C6  <0> d   1      19.152   0.999  14.873  0.00  0.00     0.055 C 
BRANCH  17  18
ATOM     18  C5  <0> d   1      18.340   0.996  16.170  0.00  0.00     0.235 C 
BRANCH  18  19
ATOM     19  N2  <0> d   1      19.219   1.333  17.298  0.00  0.00    -0.079 N 
ATOM     20  C1  <0> d   1      19.265   0.205  18.237  0.00  0.00     0.266 C 
ATOM     21  H3  <0> d   1      18.861   2.150  17.771  0.00  0.00     0.276 HD
ATOM     22  H4  <0> d   1      20.149   1.523  16.955  0.00  0.00     0.276 HD
ENDBRANCH  18  19
ENDBRANCH  17  18
ENDBRANCH   1  17
TORSDOF 3
ENDMDL
MODEL 8
REMARK VINA RESULT:      -6.7      3.052      5.658
REMARK  3 active torsions:
REMARK  status: ('A' for Active; 'I' for Inactive)
REMARK    1  A    between atoms: N2_2  and  C5_5 
REMARK    2  A    between atoms: C5_5  and  C6_6 
REMARK    3  A    between atoms: C6_6  and  C7_7 
ROOT
ATOM      1  C7  <0> d   1      19.307   3.564  14.899  0.00  0.00    -0.012 C 
ATOM      2  C8  <0> d   1      18.880   2.634  14.038  0.00  0.00    -0.018 C 
ATOM      3  C9  <0> d   1      18.657   1.222  14.457  0.00  0.00    -0.019 A 
ATOM      4  C10 <0> d   1      17.797   0.989  15.531  0.00  0.00     0.013 A 
ATOM      5  C11 <0> d   1      17.535  -0.297  15.949  0.00  0.00     0.001 A 
ATOM      6  C12 <0> d   1      18.133  -1.356  15.289  0.00  0.00     0.001 A 
ATOM      7  C13 <0> d   1      18.988  -1.126  14.235  0.00  0.00     0.008 A 
ATOM      8  C14 <0> d   1      19.282   0.167  13.800  0.00  0.00    -0.047 A 
ATOM      9  C15 <0> d   1      20.287   0.237  12.674  0.00  0.00     0.044 C 
ATOM     10  C16 <0> d   1      20.640   1.650  12.258  0.00  0.00     0.044 C 
ATOM     11  C17 <0> d   1      19.457   2.390  11.693  0.00  0.00    -0.047 A 
ATOM     12  C18 <0> d   1      19.223   2.518  10.346  0.00  0.00     0.008 A 
ATOM     13  C19 <0> d   1      18.127   3.260   9.927  0.00  0.00     0.001 A 
ATOM     14  C20 <0> d   1      17.290   3.865  10.845  0.00  0.00     0.001 A 
ATOM     15  C21 <0> d   1      17.520   3.721  12.205  0.00  0.00     0.013 A 
ATOM     16  C22 <0> d   1      18.598   2.960  12.612  0.00  0.00    -0.019 A 
ENDROOT
BRANCH   1  17
ATOM     17  C6  <0> d   1      19.581   3.193  16.334  0.00  0.00     0.055 C 
BRANCH  17  18
ATOM     18  C5  <0> d   1      18.768   4.102  17.259  0.00  0.00     0.235 C 
BRANCH  18  19
ATOM     19  N2  <0> d   1      18.877   3.616  18.642  0.00  0.00    -0.079 N 
ATOM     20  C1  <0> d   1      17.683   4.017  19.398  0.00  0.00     0.266 C 
ATOM     21  H3  <0> d   1      19.698   4.013  19.075  0.00  0.00     0.276 HD
ATOM     22  H4  <0> d   1      18.951   2.609  18.640  0.00  0.00     0.276 HD
ENDBRANCH  18  19
ENDBRANCH  17  18
ENDBRANCH   1  17
TORSDOF 3
ENDMDL
MODEL 9
REMARK VINA RESULT:      -6.7      3.178      6.507
REMARK  3 active torsions:
REMARK  status: ('A' for Active; 'I' for Inactive)
REMARK    1  A    between atoms: N2_2  and  C5_5 
REMARK    2  A    between atoms: C5_5  and  C6_6 
REMARK    3  A    between atoms: C6_6  and  C7_7 
ROOT
ATOM      1  C7  <0> d   1      18.004  -2.783  10.817  0.00  0.00    -0.012 C 
ATOM      2  C8  <0> d   1      18.405  -1.564  11.196  0.00  0.00    -0.018 C 
ATOM      3  C9  <0> d   1      18.572  -1.207  12.632  0.00  0.00    -0.019 A 
ATOM      4  C10 <0> d   1      19.413  -2.005  13.409  0.00  0.00     0.013 A 
ATOM      5  C11 <0> d   1      19.625  -1.709  14.738  0.00  0.00     0.001 A 
ATOM      6  C12 <0> d   1      18.994  -0.610  15.293  0.00  0.00     0.001 A 
ATOM      7  C13 <0> d   1      18.158   0.173  14.530  0.00  0.00     0.008 A 
ATOM      8  C14 <0> d   1      17.915  -0.112  13.185  0.00  0.00    -0.047 A 
ATOM      9  C15 <0> d   1      16.924   0.812  12.517  0.00  0.00     0.044 C 
ATOM     10  C16 <0> d   1      16.627   0.450  11.077  0.00  0.00     0.044 C 
ATOM     11  C17 <0> d   1      17.840   0.573  10.195  0.00  0.00    -0.047 A 
ATOM     12  C18 <0> d   1      18.091   1.673   9.410  0.00  0.00     0.008 A 
ATOM     13  C19 <0> d   1      19.217   1.668   8.597  0.00  0.00     0.001 A 
ATOM     14  C20 <0> d   1      20.068   0.579   8.574  0.00  0.00     0.001 A 
ATOM     15  C21 <0> d   1      19.820  -0.522   9.379  0.00  0.00     0.013 A 
ATOM     16  C22 <0> d   1      18.711  -0.498  10.202  0.00  0.00    -0.019 A 
ENDROOT
BRANCH   1  17
ATOM     17  C6  <0> d   1      17.704  -3.834  11.855  0.00  0.00     0.055 C 
BRANCH  17  18
ATOM     18  C5  <0> d   1      16.835  -4.930  11.234  0.00  0.00     0.235 C 
BRANCH  18  19
ATOM     19  N2  <0> d   1      17.197  -5.098   9.819  0.00  0.00    -0.079 N 
ATOM     20  C1  <0> d   1      15.988  -5.386   9.035  0.00  0.00     0.266 C 
ATOM     21  H3  <0> d   1      17.848  -5.864   9.727  0.00  0.00     0.276 HD
ATOM     22  H4  <0> d   1      17.625  -4.250   9.478  0.00  0.00     0.276 HD
ENDBRANCH  18  19
ENDBRANCH  17  18
ENDBRANCH   1  17
TORSDOF 3
ENDMDL
