MODEL 1
REMARK VINA RESULT:      -9.6      0.000      0.000
REMARK  8 active torsions:
REMARK  status: ('A' for Active; 'I' for Inactive)
REMARK    1  A    between atoms: O2_2  and  C3_3 
REMARK    2  A    between atoms: C9_9  and  C10_10 
REMARK       I    between atoms: C10_10  and  N12_12 
REMARK    3  A    between atoms: N12_12  and  C13_13 
REMARK    4  A    between atoms: C13_13  and  C14_14 
REMARK    5  A    between atoms: C14_14  and  C15_15 
REMARK    6  A    between atoms: C18_18  and  S19_19 
REMARK    7  A    between atoms: S19_19  and  N22_22 
REMARK       I    between atoms: N22_22  and  C23_23 
REMARK       I    between atoms: C23_23  and  N25_25 
REMARK    8  A    between atoms: N25_25  and  C26_26 
ROOT
ATOM      1  C15 ZIN A   1      18.148   0.027   6.318  0.00  0.00    -0.057 A 
ATOM      2  C16 ZIN A   1      17.280  -0.351   7.324  0.00  0.00     0.009 A 
ATOM      3  C17 ZIN A   1      17.370   0.236   8.573  0.00  0.00     0.026 A 
ATOM      4  C18 ZIN A   1      18.329   1.202   8.814  0.00  0.00     0.081 A 
ATOM      5  C32 ZIN A   1      19.200   1.579   7.808  0.00  0.00     0.026 A 
ATOM      6  C33 ZIN A   1      19.111   0.989   6.561  0.00  0.00     0.009 A 
ENDROOT
BRANCH   1   7
ATOM      7  C14 ZIN A   1      18.050  -0.614   4.958  0.00  0.00     0.058 C 
BRANCH   7   8
ATOM      8  C13 ZIN A   1      18.841  -1.923   4.952  0.00  0.00     0.127 C 
BRANCH   8   9
ATOM      9  N12 ZIN A   1      18.265  -2.846   5.933  0.00  0.00    -0.356 N 
ATOM     10  C10 ZIN A   1      19.073  -3.615   6.690  0.00  0.00     0.254 C 
ATOM     11  O11 ZIN A   1      20.279  -3.544   6.557  0.00  0.00    -0.268 OA
ATOM     12  H40 ZIN A   1      17.302  -2.902   6.040  0.00  0.00     0.162 HD
BRANCH  10  13
ATOM     13  C9  ZIN A   1      18.492  -4.544   7.678  0.00  0.00     0.066 A 
ATOM     14  C3  ZIN A   1      18.426  -5.917   7.400  0.00  0.00     0.084 A 
ATOM     15  C4  ZIN A   1      17.880  -6.782   8.336  0.00  0.00     0.039 A 
ATOM     16  C5  ZIN A   1      17.397  -6.292   9.533  0.00  0.00     0.026 A 
ATOM     17  C6  ZIN A   1      17.456  -4.935   9.810  0.00  0.00     0.035 A 
ATOM     18 Cl7  ZIN A   1      16.846  -4.334  11.320  0.00  0.00    -0.084 Cl
ATOM     19  C8  ZIN A   1      17.997  -4.060   8.891  0.00  0.00     0.043 A 
BRANCH  14  20
ATOM     20  O2  ZIN A   1      18.900  -6.397   6.224  0.00  0.00    -0.355 OA
ATOM     21  C1  ZIN A   1      17.935  -6.737   5.226  0.00  0.00     0.210 C 
ENDBRANCH  14  20
ENDBRANCH  10  13
ENDBRANCH   8   9
ENDBRANCH   7   8
ENDBRANCH   1   7
BRANCH   4  22
ATOM     22  S19 ZIN A   1      18.444   1.951  10.405  0.00  0.00     0.287 S 
ATOM     23  O20 ZIN A   1      19.549   2.923  10.410  0.00  0.00    -0.198 OA
ATOM     24  O21 ZIN A   1      17.182   2.640  10.715  0.00  0.00    -0.198 OA
BRANCH  22  25
ATOM     25  N22 ZIN A   1      18.704   0.898  11.433  0.00  0.00    -0.102 NA
ATOM     26  C23 ZIN A   1      18.322   1.093  12.697  0.00  0.00     0.353 C 
ATOM     27  O24 ZIN A   1      17.763   2.128  13.012  0.00  0.00    -0.244 OA
ATOM     28  N25 ZIN A   1      18.555   0.144  13.625  0.00  0.00    -0.336 N 
ATOM     29  H47 ZIN A   1      19.000  -0.681  13.374  0.00  0.00     0.164 HD
BRANCH  28  30
ATOM     30  C26 ZIN A   1      18.136   0.357  15.012  0.00  0.00     0.086 C 
ATOM     31  C31 ZIN A   1      19.238   1.104  15.768  0.00  0.00     0.025 C 
ATOM     32  C30 ZIN A   1      18.800   1.327  17.217  0.00  0.00     0.002 C 
ATOM     33  C29 ZIN A   1      18.550  -0.025  17.887  0.00  0.00     0.000 C 
ATOM     34  C28 ZIN A   1      17.450  -0.773  17.132  0.00  0.00     0.002 C 
ATOM     35  C27 ZIN A   1      17.886  -0.996  15.683  0.00  0.00     0.025 C 
ENDBRANCH  28  30
ENDBRANCH  22  25
ENDBRANCH   4  22
TORSDOF 8
ENDMDL
MODEL 2
REMARK VINA RESULT:      -9.6      3.105      9.340
REMARK  8 active torsions:
REMARK  status: ('A' for Active; 'I' for Inactive)
REMARK    1  A    between atoms: O2_2  and  C3_3 
REMARK    2  A    between atoms: C9_9  and  C10_10 
REMARK       I    between atoms: C10_10  and  N12_12 
REMARK    3  A    between atoms: N12_12  and  C13_13 
REMARK    4  A    between atoms: C13_13  and  C14_14 
REMARK    5  A    between atoms: C14_14  and  C15_15 
REMARK    6  A    between atoms: C18_18  and  S19_19 
REMARK    7  A    between atoms: S19_19  and  N22_22 
REMARK       I    between atoms: N22_22  and  C23_23 
REMARK       I    between atoms: C23_23  and  N25_25 
REMARK    8  A    between atoms: N25_25  and  C26_26 
ROOT
ATOM      1  C15 ZIN A   1      18.973   1.216   8.344  0.00  0.00    -0.057 A 
ATOM      2  C16 ZIN A   1      18.950   1.434   6.980  0.00  0.00     0.009 A 
ATOM      3  C17 ZIN A   1      18.975   0.362   6.107  0.00  0.00     0.026 A 
ATOM      4  C18 ZIN A   1      19.021  -0.928   6.599  0.00  0.00     0.081 A 
ATOM      5  C32 ZIN A   1      19.045  -1.148   7.964  0.00  0.00     0.026 A 
ATOM      6  C33 ZIN A   1      19.025  -0.075   8.837  0.00  0.00     0.009 A 
ENDROOT
BRANCH   1   7
ATOM      7  C14 ZIN A   1      18.947   2.385   9.295  0.00  0.00     0.058 C 
BRANCH   7   8
ATOM      8  C13 ZIN A   1      17.781   2.223  10.271  0.00  0.00     0.127 C 
BRANCH   8   9
ATOM      9  N12 ZIN A   1      18.261   1.599  11.507  0.00  0.00    -0.356 N 
ATOM     10  C10 ZIN A   1      17.516   0.656  12.119  0.00  0.00     0.254 C 
ATOM     11  O11 ZIN A   1      16.447   0.325  11.647  0.00  0.00    -0.268 OA
ATOM     12  H40 ZIN A   1      19.115   1.863  11.884  0.00  0.00     0.162 HD
BRANCH  10  13
ATOM     13  C9  ZIN A   1      18.001   0.028  13.363  0.00  0.00     0.066 A 
ATOM     14  C3  ZIN A   1      19.072  -0.876  13.325  0.00  0.00     0.084 A 
ATOM     15  C4  ZIN A   1      19.520  -1.460  14.500  0.00  0.00     0.039 A 
ATOM     16  C5  ZIN A   1      18.910  -1.157  15.701  0.00  0.00     0.026 A 
ATOM     17  C6  ZIN A   1      17.848  -0.267  15.743  0.00  0.00     0.035 A 
ATOM     18 Cl7  ZIN A   1      17.092   0.105  17.261  0.00  0.00    -0.084 Cl
ATOM     19  C8  ZIN A   1      17.390   0.324  14.584  0.00  0.00     0.043 A 
BRANCH  14  20
ATOM     20  O2  ZIN A   1      19.670  -1.174  12.145  0.00  0.00    -0.355 OA
ATOM     21  C1  ZIN A   1      19.376  -2.450  11.572  0.00  0.00     0.210 C 
ENDBRANCH  14  20
ENDBRANCH  10  13
ENDBRANCH   8   9
ENDBRANCH   7   8
ENDBRANCH   1   7
BRANCH   4  22
ATOM     22  S19 ZIN A   1      19.052  -2.295   5.487  0.00  0.00     0.287 S 
ATOM     23  O20 ZIN A   1      19.538  -1.847   4.173  0.00  0.00    -0.198 OA
ATOM     24  O21 ZIN A   1      19.947  -3.336   6.014  0.00  0.00    -0.198 OA
BRANCH  22  25
ATOM     25  N22 ZIN A   1      17.672  -2.850   5.344  0.00  0.00    -0.102 NA
ATOM     26  C23 ZIN A   1      17.409  -3.743   4.387  0.00  0.00     0.353 C 
ATOM     27  O24 ZIN A   1      18.294  -4.105   3.632  0.00  0.00    -0.244 OA
ATOM     28  N25 ZIN A   1      16.166  -4.245   4.257  0.00  0.00    -0.336 N 
ATOM     29  H47 ZIN A   1      15.461  -3.957   4.859  0.00  0.00     0.164 HD
BRANCH  28  30
ATOM     30  C26 ZIN A   1      15.877  -5.224   3.208  0.00  0.00     0.086 C 
ATOM     31  C31 ZIN A   1      15.092  -4.548   2.080  0.00  0.00     0.025 C 
ATOM     32  C30 ZIN A   1      14.791  -5.571   0.984  0.00  0.00     0.002 C 
ATOM     33  C29 ZIN A   1      13.959  -6.714   1.569  0.00  0.00     0.000 C 
ATOM     34  C28 ZIN A   1      14.742  -7.390   2.696  0.00  0.00     0.002 C 
ATOM     35  C27 ZIN A   1      15.044  -6.368   3.792  0.00  0.00     0.025 C 
ENDBRANCH  28  30
ENDBRANCH  22  25
ENDBRANCH   4  22
TORSDOF 8
ENDMDL
MODEL 3
REMARK VINA RESULT:      -9.4      2.486      7.635
REMARK  8 active torsions:
REMARK  status: ('A' for Active; 'I' for Inactive)
REMARK    1  A    between atoms: O2_2  and  C3_3 
REMARK    2  A    between atoms: C9_9  and  C10_10 
REMARK       I    between atoms: C10_10  and  N12_12 
REMARK    3  A    between atoms: N12_12  and  C13_13 
REMARK    4  A    between atoms: C13_13  and  C14_14 
REMARK    5  A    between atoms: C14_14  and  C15_15 
REMARK    6  A    between atoms: C18_18  and  S19_19 
REMARK    7  A    between atoms: S19_19  and  N22_22 
REMARK       I    between atoms: N22_22  and  C23_23 
REMARK       I    between atoms: C23_23  and  N25_25 
REMARK    8  A    between atoms: N25_25  and  C26_26 
ROOT
ATOM      1  C15 ZIN A   1      18.978   1.646   8.628  0.00  0.00    -0.057 A 
ATOM      2  C16 ZIN A   1      19.189   0.339   9.026  0.00  0.00     0.009 A 
ATOM      3  C17 ZIN A   1      19.241  -0.671   8.084  0.00  0.00     0.026 A 
ATOM      4  C18 ZIN A   1      19.082  -0.375   6.744  0.00  0.00     0.081 A 
ATOM      5  C32 ZIN A   1      18.869   0.932   6.345  0.00  0.00     0.026 A 
ATOM      6  C33 ZIN A   1      18.813   1.942   7.288  0.00  0.00     0.009 A 
ENDROOT
BRANCH   1   7
ATOM      7  C14 ZIN A   1      18.920   2.747   9.656  0.00  0.00     0.058 C 
BRANCH   7   8
ATOM      8  C13 ZIN A   1      17.731   2.512  10.589  0.00  0.00     0.127 C 
BRANCH   8   9
ATOM      9  N12 ZIN A   1      18.187   1.818  11.796  0.00  0.00    -0.356 N 
ATOM     10  C10 ZIN A   1      17.469   0.792  12.296  0.00  0.00     0.254 C 
ATOM     11  O11 ZIN A   1      16.442   0.444  11.745  0.00  0.00    -0.268 OA
ATOM     12  H40 ZIN A   1      19.006   2.096  12.235  0.00  0.00     0.162 HD
BRANCH  10  13
ATOM     13  C9  ZIN A   1      17.928   0.094  13.511  0.00  0.00     0.066 A 
ATOM     14  C3  ZIN A   1      18.940  -0.873  13.428  0.00  0.00     0.084 A 
ATOM     15  C4  ZIN A   1      19.366  -1.522  14.576  0.00  0.00     0.039 A 
ATOM     16  C5  ZIN A   1      18.791  -1.223  15.795  0.00  0.00     0.026 A 
ATOM     17  C6  ZIN A   1      17.787  -0.271  15.882  0.00  0.00     0.035 A 
ATOM     18 Cl7  ZIN A   1      17.075   0.096  17.422  0.00  0.00    -0.084 Cl
ATOM     19  C8  ZIN A   1      17.352   0.386  14.749  0.00  0.00     0.043 A 
BRANCH  14  20
ATOM     20  O2  ZIN A   1      19.504  -1.167  12.230  0.00  0.00    -0.355 OA
ATOM     21  C1  ZIN A   1      19.573  -2.548  11.866  0.00  0.00     0.210 C 
ENDBRANCH  14  20
ENDBRANCH  10  13
ENDBRANCH   8   9
ENDBRANCH   7   8
ENDBRANCH   1   7
BRANCH   4  22
ATOM     22  S19 ZIN A   1      19.149  -1.662   5.543  0.00  0.00     0.287 S 
ATOM     23  O20 ZIN A   1      17.782  -2.060   5.174  0.00  0.00    -0.198 OA
ATOM     24  O21 ZIN A   1      19.860  -1.181   4.347  0.00  0.00    -0.198 OA
BRANCH  22  25
ATOM     25  N22 ZIN A   1      19.873  -2.837   6.113  0.00  0.00    -0.102 NA
ATOM     26  C23 ZIN A   1      19.192  -3.799   6.740  0.00  0.00     0.353 C 
ATOM     27  O24 ZIN A   1      17.981  -3.718   6.847  0.00  0.00    -0.244 OA
ATOM     28  N25 ZIN A   1      19.844  -4.860   7.255  0.00  0.00    -0.336 N 
ATOM     29  H47 ZIN A   1      20.808  -4.925   7.170  0.00  0.00     0.164 HD
BRANCH  28  30
ATOM     30  C26 ZIN A   1      19.097  -5.915   7.943  0.00  0.00     0.086 C 
ATOM     31  C31 ZIN A   1      18.165  -6.614   6.949  0.00  0.00     0.025 C 
ATOM     32  C30 ZIN A   1      17.386  -7.716   7.668  0.00  0.00     0.002 C 
ATOM     33  C29 ZIN A   1      16.556  -7.099   8.796  0.00  0.00     0.000 C 
ATOM     34  C28 ZIN A   1      17.486  -6.401   9.790  0.00  0.00     0.002 C 
ATOM     35  C27 ZIN A   1      18.266  -5.299   9.072  0.00  0.00     0.025 C 
ENDBRANCH  28  30
ENDBRANCH  22  25
ENDBRANCH   4  22
TORSDOF 8
ENDMDL
MODEL 4
REMARK VINA RESULT:      -9.4      1.449      2.015
REMARK  8 active torsions:
REMARK  status: ('A' for Active; 'I' for Inactive)
REMARK    1  A    between atoms: O2_2  and  C3_3 
REMARK    2  A    between atoms: C9_9  and  C10_10 
REMARK       I    between atoms: C10_10  and  N12_12 
REMARK    3  A    between atoms: N12_12  and  C13_13 
REMARK    4  A    between atoms: C13_13  and  C14_14 
REMARK    5  A    between atoms: C14_14  and  C15_15 
REMARK    6  A    between atoms: C18_18  and  S19_19 
REMARK    7  A    between atoms: S19_19  and  N22_22 
REMARK       I    between atoms: N22_22  and  C23_23 
REMARK       I    between atoms: C23_23  and  N25_25 
REMARK    8  A    between atoms: N25_25  and  C26_26 
ROOT
ATOM      1  C15 ZIN A   1      18.129   0.245   6.721  0.00  0.00    -0.057 A 
ATOM      2  C16 ZIN A   1      17.319  -0.199   7.750  0.00  0.00     0.009 A 
ATOM      3  C17 ZIN A   1      17.382   0.406   8.991  0.00  0.00     0.026 A 
ATOM      4  C18 ZIN A   1      18.255   1.457   9.203  0.00  0.00     0.081 A 
ATOM      5  C32 ZIN A   1      19.067   1.900   8.176  0.00  0.00     0.026 A 
ATOM      6  C33 ZIN A   1      19.006   1.291   6.935  0.00  0.00     0.009 A 
ENDROOT
BRANCH   1   7
ATOM      7  C14 ZIN A   1      18.061  -0.417   5.369  0.00  0.00     0.058 C 
BRANCH   7   8
ATOM      8  C13 ZIN A   1      18.953  -1.659   5.363  0.00  0.00     0.127 C 
BRANCH   8   9
ATOM      9  N12 ZIN A   1      18.276  -2.749   6.071  0.00  0.00    -0.356 N 
ATOM     10  C10 ZIN A   1      18.997  -3.757   6.603  0.00  0.00     0.254 C 
ATOM     11  O11 ZIN A   1      20.207  -3.762   6.493  0.00  0.00    -0.268 OA
ATOM     12  H40 ZIN A   1      17.310  -2.745   6.159  0.00  0.00     0.162 HD
BRANCH  10  13
ATOM     13  C9  ZIN A   1      18.315  -4.854   7.315  0.00  0.00     0.066 A 
ATOM     14  C3  ZIN A   1      17.753  -4.630   8.580  0.00  0.00     0.084 A 
ATOM     15  C4  ZIN A   1      17.113  -5.668   9.241  0.00  0.00     0.039 A 
ATOM     16  C5  ZIN A   1      17.036  -6.917   8.659  0.00  0.00     0.026 A 
ATOM     17  C6  ZIN A   1      17.594  -7.144   7.411  0.00  0.00     0.035 A 
ATOM     18 Cl7  ZIN A   1      17.488  -8.721   6.690  0.00  0.00    -0.084 Cl
ATOM     19  C8  ZIN A   1      18.233  -6.123   6.738  0.00  0.00     0.043 A 
BRANCH  14  20
ATOM     20  O2  ZIN A   1      17.830  -3.403   9.152  0.00  0.00    -0.355 OA
ATOM     21  C1  ZIN A   1      18.714  -3.260  10.265  0.00  0.00     0.210 C 
ENDBRANCH  14  20
ENDBRANCH  10  13
ENDBRANCH   8   9
ENDBRANCH   7   8
ENDBRANCH   1   7
BRANCH   4  22
ATOM     22  S19 ZIN A   1      18.335   2.230  10.785  0.00  0.00     0.287 S 
ATOM     23  O20 ZIN A   1      19.562   3.035  10.875  0.00  0.00    -0.198 OA
ATOM     24  O21 ZIN A   1      17.162   3.100  10.965  0.00  0.00    -0.198 OA
BRANCH  22  25
ATOM     25  N22 ZIN A   1      18.347   1.183  11.850  0.00  0.00    -0.102 NA
ATOM     26  C23 ZIN A   1      18.165   1.528  13.126  0.00  0.00     0.353 C 
ATOM     27  O24 ZIN A   1      17.988   2.697  13.422  0.00  0.00    -0.244 OA
ATOM     28  N25 ZIN A   1      18.175   0.585  14.088  0.00  0.00    -0.336 N 
ATOM     29  H47 ZIN A   1      18.315  -0.347  13.853  0.00  0.00     0.164 HD
BRANCH  28  30
ATOM     30  C26 ZIN A   1      17.975   0.964  15.488  0.00  0.00     0.086 C 
ATOM     31  C31 ZIN A   1      19.309   1.409  16.092  0.00  0.00     0.025 C 
ATOM     32  C30 ZIN A   1      19.100   1.805  17.555  0.00  0.00     0.002 C 
ATOM     33  C29 ZIN A   1      18.564   0.604  18.336  0.00  0.00     0.000 C 
ATOM     34  C28 ZIN A   1      17.231   0.157  17.733  0.00  0.00     0.002 C 
ATOM     35  C27 ZIN A   1      17.439  -0.238  16.271  0.00  0.00     0.025 C 
ENDBRANCH  28  30
ENDBRANCH  22  25
ENDBRANCH   4  22
TORSDOF 8
ENDMDL
MODEL 5
REMARK VINA RESULT:      -9.3      3.547     10.835
REMARK  8 active torsions:
REMARK  status: ('A' for Active; 'I' for Inactive)
REMARK    1  A    between atoms: O2_2  and  C3_3 
REMARK    2  A    between atoms: C9_9  and  C10_10 
REMARK       I    between atoms: C10_10  and  N12_12 
REMARK    3  A    between atoms: N12_12  and  C13_13 
REMARK    4  A    between atoms: C13_13  and  C14_14 
REMARK    5  A    between atoms: C14_14  and  C15_15 
REMARK    6  A    between atoms: C18_18  and  S19_19 
REMARK    7  A    between atoms: S19_19  and  N22_22 
REMARK       I    between atoms: N22_22  and  C23_23 
REMARK       I    between atoms: C23_23  and  N25_25 
REMARK    8  A    between atoms: N25_25  and  C26_26 
ROOT
ATOM      1  C15 ZIN A   1      17.837  -0.522  15.674  0.00  0.00    -0.057 A 
ATOM      2  C16 ZIN A   1      17.350   0.496  14.876  0.00  0.00     0.009 A 
ATOM      3  C17 ZIN A   1      17.915   0.735  13.637  0.00  0.00     0.026 A 
ATOM      4  C18 ZIN A   1      18.966  -0.046  13.195  0.00  0.00     0.081 A 
ATOM      5  C32 ZIN A   1      19.455  -1.064  13.993  0.00  0.00     0.026 A 
ATOM      6  C33 ZIN A   1      18.892  -1.299  15.234  0.00  0.00     0.009 A 
ENDROOT
BRANCH   1   7
ATOM      7  C14 ZIN A   1      17.222  -0.781  17.025  0.00  0.00     0.058 C 
BRANCH   7   8
ATOM      8  C13 ZIN A   1      17.891   0.115  18.070  0.00  0.00     0.127 C 
BRANCH   8   9
ATOM      9  N12 ZIN A   1      17.893   1.501  17.595  0.00  0.00    -0.356 N 
ATOM     10  C10 ZIN A   1      18.910   2.323  17.922  0.00  0.00     0.254 C 
ATOM     11  O11 ZIN A   1      19.825   1.914  18.610  0.00  0.00    -0.268 OA
ATOM     12  H40 ZIN A   1      17.163   1.827  17.045  0.00  0.00     0.162 HD
BRANCH  10  13
ATOM     13  C9  ZIN A   1      18.912   3.719  17.444  0.00  0.00     0.066 A 
ATOM     14  C3  ZIN A   1      17.918   4.611  17.872  0.00  0.00     0.084 A 
ATOM     15  C4  ZIN A   1      17.929   5.921  17.418  0.00  0.00     0.039 A 
ATOM     16  C5  ZIN A   1      18.910   6.343  16.543  0.00  0.00     0.026 A 
ATOM     17  C6  ZIN A   1      19.891   5.463  16.113  0.00  0.00     0.035 A 
ATOM     18 Cl7  ZIN A   1      21.119   6.008  15.013  0.00  0.00    -0.084 Cl
ATOM     19  C8  ZIN A   1      19.896   4.156  16.555  0.00  0.00     0.043 A 
BRANCH  14  20
ATOM     20  O2  ZIN A   1      16.955   4.196  18.732  0.00  0.00    -0.355 OA
ATOM     21  C1  ZIN A   1      17.058   4.640  20.086  0.00  0.00     0.210 C 
ENDBRANCH  14  20
ENDBRANCH  10  13
ENDBRANCH   8   9
ENDBRANCH   7   8
ENDBRANCH   1   7
BRANCH   4  22
ATOM     22  S19 ZIN A   1      19.685   0.257  11.615  0.00  0.00     0.287 S 
ATOM     23  O20 ZIN A   1      19.395   1.638  11.201  0.00  0.00    -0.198 OA
ATOM     24  O21 ZIN A   1      21.142   0.064  11.694  0.00  0.00    -0.198 OA
BRANCH  22  25
ATOM     25  N22 ZIN A   1      19.110  -0.693  10.616  0.00  0.00    -0.102 NA
ATOM     26  C23 ZIN A   1      19.294  -0.481   9.312  0.00  0.00     0.353 C 
ATOM     27  O24 ZIN A   1      19.932   0.486   8.936  0.00  0.00    -0.244 OA
ATOM     28  N25 ZIN A   1      18.776  -1.338   8.410  0.00  0.00    -0.336 N 
ATOM     29  H47 ZIN A   1      18.269  -2.109   8.709  0.00  0.00     0.164 HD
BRANCH  28  30
ATOM     30  C26 ZIN A   1      18.978  -1.105   6.978  0.00  0.00     0.086 C 
ATOM     31  C31 ZIN A   1      17.848  -0.224   6.440  0.00  0.00     0.025 C 
ATOM     32  C30 ZIN A   1      18.060   0.018   4.944  0.00  0.00     0.002 C 
ATOM     33  C29 ZIN A   1      18.057  -1.321   4.205  0.00  0.00     0.000 C 
ATOM     34  C28 ZIN A   1      19.186  -2.202   4.743  0.00  0.00     0.002 C 
ATOM     35  C27 ZIN A   1      18.976  -2.445   6.238  0.00  0.00     0.025 C 
ENDBRANCH  28  30
ENDBRANCH  22  25
ENDBRANCH   4  22
TORSDOF 8
ENDMDL
MODEL 6
REMARK VINA RESULT:      -9.3      2.856      3.963
REMARK  8 active torsions:
REMARK  status: ('A' for Active; 'I' for Inactive)
REMARK    1  A    between atoms: O2_2  and  C3_3 
REMARK    2  A    between atoms: C9_9  and  C10_10 
REMARK       I    between atoms: C10_10  and  N12_12 
REMARK    3  A    between atoms: N12_12  and  C13_13 
REMARK    4  A    between atoms: C13_13  and  C14_14 
REMARK    5  A    between atoms: C14_14  and  C15_15 
REMARK    6  A    between atoms: C18_18  and  S19_19 
REMARK    7  A    between atoms: S19_19  and  N22_22 
REMARK       I    between atoms: N22_22  and  C23_23 
REMARK       I    between atoms: C23_23  and  N25_25 
REMARK    8  A    between atoms: N25_25  and  C26_26 
ROOT
ATOM      1  C15 ZIN A   1      18.784   0.593   8.665  0.00  0.00    -0.057 A 
ATOM      2  C16 ZIN A   1      19.933  -0.017   9.131  0.00  0.00     0.009 A 
ATOM      3  C17 ZIN A   1      19.848  -1.023  10.076  0.00  0.00     0.026 A 
ATOM      4  C18 ZIN A   1      18.612  -1.419  10.553  0.00  0.00     0.081 A 
ATOM      5  C32 ZIN A   1      17.462  -0.807  10.088  0.00  0.00     0.026 A 
ATOM      6  C33 ZIN A   1      17.549   0.202   9.146  0.00  0.00     0.009 A 
ENDROOT
BRANCH   1   7
ATOM      7  C14 ZIN A   1      18.878   1.690   7.636  0.00  0.00     0.058 C 
BRANCH   7   8
ATOM      8  C13 ZIN A   1      19.208   1.083   6.271  0.00  0.00     0.127 C 
BRANCH   8   9
ATOM      9  N12 ZIN A   1      18.527  -0.206   6.133  0.00  0.00    -0.356 N 
ATOM     10  C10 ZIN A   1      18.987  -1.121   5.256  0.00  0.00     0.254 C 
ATOM     11  O11 ZIN A   1      19.968  -0.876   4.581  0.00  0.00    -0.268 OA
ATOM     12  H40 ZIN A   1      17.745  -0.402   6.672  0.00  0.00     0.162 HD
BRANCH  10  13
ATOM     13  C9  ZIN A   1      18.301  -2.419   5.117  0.00  0.00     0.066 A 
ATOM     14  C3  ZIN A   1      18.492  -3.424   6.077  0.00  0.00     0.084 A 
ATOM     15  C4  ZIN A   1      17.841  -4.640   5.938  0.00  0.00     0.039 A 
ATOM     16  C5  ZIN A   1      17.013  -4.863   4.855  0.00  0.00     0.026 A 
ATOM     17  C6  ZIN A   1      16.825  -3.874   3.902  0.00  0.00     0.035 A 
ATOM     18 Cl7  ZIN A   1      15.780  -4.169   2.547  0.00  0.00    -0.084 Cl
ATOM     19  C8  ZIN A   1      17.464  -2.658   4.025  0.00  0.00     0.043 A 
BRANCH  14  20
ATOM     20  O2  ZIN A   1      19.306  -3.204   7.139  0.00  0.00    -0.355 OA
ATOM     21  C1  ZIN A   1      19.340  -4.214   8.150  0.00  0.00     0.210 C 
ENDBRANCH  14  20
ENDBRANCH  10  13
ENDBRANCH   8   9
ENDBRANCH   7   8
ENDBRANCH   1   7
BRANCH   4  22
ATOM     22  S19 ZIN A   1      18.502  -2.701  11.756  0.00  0.00     0.287 S 
ATOM     23  O20 ZIN A   1      17.672  -3.797  11.231  0.00  0.00    -0.198 OA
ATOM     24  O21 ZIN A   1      19.850  -3.208  12.058  0.00  0.00    -0.198 OA
BRANCH  22  25
ATOM     25  N22 ZIN A   1      17.882  -2.162  13.003  0.00  0.00    -0.102 NA
ATOM     26  C23 ZIN A   1      18.599  -1.394  13.826  0.00  0.00     0.353 C 
ATOM     27  O24 ZIN A   1      19.759  -1.133  13.560  0.00  0.00    -0.244 OA
ATOM     28  N25 ZIN A   1      18.040  -0.906  14.951  0.00  0.00    -0.336 N 
ATOM     29  H47 ZIN A   1      17.116  -1.113  15.163  0.00  0.00     0.164 HD
BRANCH  28  30
ATOM     30  C26 ZIN A   1      18.827  -0.063  15.854  0.00  0.00     0.086 C 
ATOM     31  C31 ZIN A   1      18.612  -0.523  17.298  0.00  0.00     0.025 C 
ATOM     32  C30 ZIN A   1      19.435   0.356  18.241  0.00  0.00     0.002 C 
ATOM     33  C29 ZIN A   1      18.987   1.813  18.099  0.00  0.00     0.000 C 
ATOM     34  C28 ZIN A   1      19.201   2.273  16.656  0.00  0.00     0.002 C 
ATOM     35  C27 ZIN A   1      18.380   1.394  15.713  0.00  0.00     0.025 C 
ENDBRANCH  28  30
ENDBRANCH  22  25
ENDBRANCH   4  22
TORSDOF 8
ENDMDL
MODEL 7
REMARK VINA RESULT:      -9.2      3.724      5.876
REMARK  8 active torsions:
REMARK  status: ('A' for Active; 'I' for Inactive)
REMARK    1  A    between atoms: O2_2  and  C3_3 
REMARK    2  A    between atoms: C9_9  and  C10_10 
REMARK       I    between atoms: C10_10  and  N12_12 
REMARK    3  A    between atoms: N12_12  and  C13_13 
REMARK    4  A    between atoms: C13_13  and  C14_14 
REMARK    5  A    between atoms: C14_14  and  C15_15 
REMARK    6  A    between atoms: C18_18  and  S19_19 
REMARK    7  A    between atoms: S19_19  and  N22_22 
REMARK       I    between atoms: N22_22  and  C23_23 
REMARK       I    between atoms: C23_23  and  N25_25 
REMARK    8  A    between atoms: N25_25  and  C26_26 
ROOT
ATOM      1  C15 ZIN A   1      17.974   4.602  11.738  0.00  0.00    -0.057 A 
ATOM      2  C16 ZIN A   1      19.318   4.627  12.059  0.00  0.00     0.009 A 
ATOM      3  C17 ZIN A   1      19.716   4.895  13.356  0.00  0.00     0.026 A 
ATOM      4  C18 ZIN A   1      18.768   5.136  14.332  0.00  0.00     0.081 A 
ATOM      5  C32 ZIN A   1      17.423   5.112  14.012  0.00  0.00     0.026 A 
ATOM      6  C33 ZIN A   1      17.026   4.849  12.714  0.00  0.00     0.009 A 
ENDROOT
BRANCH   1   7
ATOM      7  C14 ZIN A   1      17.542   4.311  10.324  0.00  0.00     0.058 C 
BRANCH   7   8
ATOM      8  C13 ZIN A   1      18.428   3.213   9.735  0.00  0.00     0.127 C 
BRANCH   8   9
ATOM      9  N12 ZIN A   1      18.079   1.926  10.342  0.00  0.00    -0.356 N 
ATOM     10  C10 ZIN A   1      18.780   0.819  10.024  0.00  0.00     0.254 C 
ATOM     11  O11 ZIN A   1      19.701   0.889   9.233  0.00  0.00    -0.268 OA
ATOM     12  H40 ZIN A   1      17.345   1.870  10.973  0.00  0.00     0.162 HD
BRANCH  10  13
ATOM     13  C9  ZIN A   1      18.428  -0.477  10.635  0.00  0.00     0.066 A 
ATOM     14  C3  ZIN A   1      18.445  -0.625  12.029  0.00  0.00     0.084 A 
ATOM     15  C4  ZIN A   1      18.111  -1.847  12.594  0.00  0.00     0.039 A 
ATOM     16  C5  ZIN A   1      17.771  -2.914  11.786  0.00  0.00     0.026 A 
ATOM     17  C6  ZIN A   1      17.758  -2.773  10.407  0.00  0.00     0.035 A 
ATOM     18 Cl7  ZIN A   1      17.327  -4.123   9.405  0.00  0.00    -0.084 Cl
ATOM     19  C8  ZIN A   1      18.086  -1.564   9.829  0.00  0.00     0.043 A 
BRANCH  14  20
ATOM     20  O2  ZIN A   1      18.780   0.423  12.822  0.00  0.00    -0.355 OA
ATOM     21  C1  ZIN A   1      20.083   0.403  13.408  0.00  0.00     0.210 C 
ENDBRANCH  14  20
ENDBRANCH  10  13
ENDBRANCH   8   9
ENDBRANCH   7   8
ENDBRANCH   1   7
BRANCH   4  22
ATOM     22  S19 ZIN A   1      19.273   5.476  15.986  0.00  0.00     0.287 S 
ATOM     23  O20 ZIN A   1      20.702   5.159  16.137  0.00  0.00    -0.198 OA
ATOM     24  O21 ZIN A   1      19.052   6.899  16.284  0.00  0.00    -0.198 OA
BRANCH  22  25
ATOM     25  N22 ZIN A   1      18.476   4.638  16.932  0.00  0.00    -0.102 NA
ATOM     26  C23 ZIN A   1      18.563   3.308  16.880  0.00  0.00     0.353 C 
ATOM     27  O24 ZIN A   1      19.292   2.777  16.062  0.00  0.00    -0.244 OA
ATOM     28  N25 ZIN A   1      17.845   2.552  17.733  0.00  0.00    -0.336 N 
ATOM     29  H47 ZIN A   1      17.264   2.975  18.385  0.00  0.00     0.164 HD
BRANCH  28  30
ATOM     30  C26 ZIN A   1      17.939   1.091  17.676  0.00  0.00     0.086 C 
ATOM     31  C31 ZIN A   1      19.370   0.659  18.007  0.00  0.00     0.025 C 
ATOM     32  C30 ZIN A   1      19.468  -0.866  17.948  0.00  0.00     0.002 C 
ATOM     33  C29 ZIN A   1      19.105  -1.346  16.541  0.00  0.00     0.000 C 
ATOM     34  C28 ZIN A   1      17.676  -0.914  16.209  0.00  0.00     0.002 C 
ATOM     35  C27 ZIN A   1      17.576   0.611  16.269  0.00  0.00     0.025 C 
ENDBRANCH  28  30
ENDBRANCH  22  25
ENDBRANCH   4  22
TORSDOF 8
ENDMDL
MODEL 8
REMARK VINA RESULT:      -9.2      2.502      3.358
REMARK  8 active torsions:
REMARK  status: ('A' for Active; 'I' for Inactive)
REMARK    1  A    between atoms: O2_2  and  C3_3 
REMARK    2  A    between atoms: C9_9  and  C10_10 
REMARK       I    between atoms: C10_10  and  N12_12 
REMARK    3  A    between atoms: N12_12  and  C13_13 
REMARK    4  A    between atoms: C13_13  and  C14_14 
REMARK    5  A    between atoms: C14_14  and  C15_15 
REMARK    6  A    between atoms: C18_18  and  S19_19 
REMARK    7  A    between atoms: S19_19  and  N22_22 
REMARK       I    between atoms: N22_22  and  C23_23 
REMARK       I    between atoms: C23_23  and  N25_25 
REMARK    8  A    between atoms: N25_25  and  C26_26 
ROOT
ATOM      1  C15 ZIN A   1      18.823   0.477   8.575  0.00  0.00    -0.057 A 
ATOM      2  C16 ZIN A   1      17.846   0.233   9.522  0.00  0.00     0.009 A 
ATOM      3  C17 ZIN A   1      17.511   1.212  10.439  0.00  0.00     0.026 A 
ATOM      4  C18 ZIN A   1      18.152   2.436  10.408  0.00  0.00     0.081 A 
ATOM      5  C32 ZIN A   1      19.131   2.681   9.462  0.00  0.00     0.026 A 
ATOM      6  C33 ZIN A   1      19.468   1.699   8.547  0.00  0.00     0.009 A 
ENDROOT
BRANCH   1   7
ATOM      7  C14 ZIN A   1      19.188  -0.591   7.577  0.00  0.00     0.058 C 
BRANCH   7   8
ATOM      8  C13 ZIN A   1      18.313  -0.445   6.331  0.00  0.00     0.127 C 
BRANCH   8   9
ATOM      9  N12 ZIN A   1      17.852  -1.768   5.901  0.00  0.00    -0.356 N 
ATOM     10  C10 ZIN A   1      18.571  -2.474   5.006  0.00  0.00     0.254 C 
ATOM     11  O11 ZIN A   1      19.601  -2.013   4.554  0.00  0.00    -0.268 OA
ATOM     12  H40 ZIN A   1      17.030  -2.136   6.262  0.00  0.00     0.162 HD
BRANCH  10  13
ATOM     13  C9  ZIN A   1      18.106  -3.806   4.573  0.00  0.00     0.066 A 
ATOM     14  C3  ZIN A   1      18.019  -4.856   5.499  0.00  0.00     0.084 A 
ATOM     15  C4  ZIN A   1      17.580  -6.103   5.082  0.00  0.00     0.039 A 
ATOM     16  C5  ZIN A   1      17.236  -6.312   3.762  0.00  0.00     0.026 A 
ATOM     17  C6  ZIN A   1      17.325  -5.278   2.843  0.00  0.00     0.035 A 
ATOM     18 Cl7  ZIN A   1      16.887  -5.555   1.185  0.00  0.00    -0.084 Cl
ATOM     19  C8  ZIN A   1      17.759  -4.030   3.239  0.00  0.00     0.043 A 
BRANCH  14  20
ATOM     20  O2  ZIN A   1      18.358  -4.651   6.796  0.00  0.00    -0.355 OA
ATOM     21  C1  ZIN A   1      19.649  -5.102   7.208  0.00  0.00     0.210 C 
ENDBRANCH  14  20
ENDBRANCH  10  13
ENDBRANCH   8   9
ENDBRANCH   7   8
ENDBRANCH   1   7
BRANCH   4  22
ATOM     22  S19 ZIN A   1      17.725   3.684  11.575  0.00  0.00     0.287 S 
ATOM     23  O20 ZIN A   1      18.911   4.502  11.875  0.00  0.00    -0.198 OA
ATOM     24  O21 ZIN A   1      16.668   4.540  11.014  0.00  0.00    -0.198 OA
BRANCH  22  25
ATOM     25  N22 ZIN A   1      17.233   3.043  12.832  0.00  0.00    -0.102 NA
ATOM     26  C23 ZIN A   1      18.077   2.355  13.604  0.00  0.00     0.353 C 
ATOM     27  O24 ZIN A   1      19.247   2.250  13.283  0.00  0.00    -0.244 OA
ATOM     28  N25 ZIN A   1      17.634   1.777  14.737  0.00  0.00    -0.336 N 
ATOM     29  H47 ZIN A   1      16.701   1.861  14.993  0.00  0.00     0.164 HD
BRANCH  28  30
ATOM     30  C26 ZIN A   1      18.560   1.021  15.584  0.00  0.00     0.086 C 
ATOM     31  C31 ZIN A   1      18.127  -0.447  15.629  0.00  0.00     0.025 C 
ATOM     32  C30 ZIN A   1      19.095  -1.236  16.514  0.00  0.00     0.002 C 
ATOM     33  C29 ZIN A   1      19.078  -0.656  17.930  0.00  0.00     0.000 C 
ATOM     34  C28 ZIN A   1      19.510   0.811  17.885  0.00  0.00     0.002 C 
ATOM     35  C27 ZIN A   1      18.543   1.600  17.001  0.00  0.00     0.025 C 
ENDBRANCH  28  30
ENDBRANCH  22  25
ENDBRANCH   4  22
TORSDOF 8
ENDMDL
MODEL 9
REMARK VINA RESULT:      -9.1      5.946      9.665
REMARK  8 active torsions:
REMARK  status: ('A' for Active; 'I' for Inactive)
REMARK    1  A    between atoms: O2_2  and  C3_3 
REMARK    2  A    between atoms: C9_9  and  C10_10 
REMARK       I    between atoms: C10_10  and  N12_12 
REMARK    3  A    between atoms: N12_12  and  C13_13 
REMARK    4  A    between atoms: C13_13  and  C14_14 
REMARK    5  A    between atoms: C14_14  and  C15_15 
REMARK    6  A    between atoms: C18_18  and  S19_19 
REMARK    7  A    between atoms: S19_19  and  N22_22 
REMARK       I    between atoms: N22_22  and  C23_23 
REMARK       I    between atoms: C23_23  and  N25_25 
REMARK    8  A    between atoms: N25_25  and  C26_26 
ROOT
ATOM      1  C15 ZIN A   1      18.937  -0.422  14.421  0.00  0.00    -0.057 A 
ATOM      2  C16 ZIN A   1      17.644  -0.154  14.012  0.00  0.00     0.009 A 
ATOM      3  C17 ZIN A   1      17.415   0.739  12.981  0.00  0.00     0.026 A 
ATOM      4  C18 ZIN A   1      18.481   1.363  12.359  0.00  0.00     0.081 A 
ATOM      5  C32 ZIN A   1      19.774   1.097  12.769  0.00  0.00     0.026 A 
ATOM      6  C33 ZIN A   1      20.002   0.207  13.803  0.00  0.00     0.009 A 
ENDROOT
BRANCH   1   7
ATOM      7  C14 ZIN A   1      19.185  -1.394  15.545  0.00  0.00     0.058 C 
BRANCH   7   8
ATOM      8  C13 ZIN A   1      18.587  -0.842  16.839  0.00  0.00     0.127 C 
BRANCH   8   9
ATOM      9  N12 ZIN A   1      18.416   0.609  16.718  0.00  0.00    -0.356 N 
ATOM     10  C10 ZIN A   1      19.175   1.440  17.460  0.00  0.00     0.254 C 
ATOM     11  O11 ZIN A   1      19.999   0.987  18.230  0.00  0.00    -0.268 OA
ATOM     12  H40 ZIN A   1      17.759   0.971  16.103  0.00  0.00     0.162 HD
BRANCH  10  13
ATOM     13  C9  ZIN A   1      19.003   2.901  17.338  0.00  0.00     0.066 A 
ATOM     14  C3  ZIN A   1      18.050   3.566  18.123  0.00  0.00     0.084 A 
ATOM     15  C4  ZIN A   1      17.898   4.938  18.001  0.00  0.00     0.039 A 
ATOM     16  C5  ZIN A   1      18.676   5.646  17.106  0.00  0.00     0.026 A 
ATOM     17  C6  ZIN A   1      19.616   4.991  16.325  0.00  0.00     0.035 A 
ATOM     18 Cl7  ZIN A   1      20.588   5.894  15.205  0.00  0.00    -0.084 Cl
ATOM     19  C8  ZIN A   1      19.782   3.626  16.434  0.00  0.00     0.043 A 
BRANCH  14  20
ATOM     20  O2  ZIN A   1      17.286   2.870  19.001  0.00  0.00    -0.355 OA
ATOM     21  C1  ZIN A   1      16.338   3.616  19.769  0.00  0.00     0.210 C 
ENDBRANCH  14  20
ENDBRANCH  10  13
ENDBRANCH   8   9
ENDBRANCH   7   8
ENDBRANCH   1   7
BRANCH   4  22
ATOM     22  S19 ZIN A   1      18.190   2.501  11.045  0.00  0.00     0.287 S 
ATOM     23  O20 ZIN A   1      19.430   3.237  10.751  0.00  0.00    -0.198 OA
ATOM     24  O21 ZIN A   1      17.760   1.766   9.846  0.00  0.00    -0.198 OA
BRANCH  22  25
ATOM     25  N22 ZIN A   1      17.123   3.465  11.449  0.00  0.00    -0.102 NA
ATOM     26  C23 ZIN A   1      17.284   4.222  12.536  0.00  0.00     0.353 C 
ATOM     27  O24 ZIN A   1      18.302   4.126  13.199  0.00  0.00    -0.244 OA
ATOM     28  N25 ZIN A   1      16.323   5.092  12.900  0.00  0.00    -0.336 N 
ATOM     29  H47 ZIN A   1      15.512   5.169  12.372  0.00  0.00     0.164 HD
BRANCH  28  30
ATOM     30  C26 ZIN A   1      16.500   5.922  14.094  0.00  0.00     0.086 C 
ATOM     31  C31 ZIN A   1      15.159   6.067  14.819  0.00  0.00     0.025 C 
ATOM     32  C30 ZIN A   1      15.345   6.934  16.065  0.00  0.00     0.002 C 
ATOM     33  C29 ZIN A   1      15.852   8.317  15.652  0.00  0.00     0.000 C 
ATOM     34  C28 ZIN A   1      17.192   8.174  14.928  0.00  0.00     0.002 C 
ATOM     35  C27 ZIN A   1      17.007   7.307  13.682  0.00  0.00     0.025 C 
ENDBRANCH  28  30
ENDBRANCH  22  25
ENDBRANCH   4  22
TORSDOF 8
ENDMDL
