MODEL 1
REMARK VINA RESULT:      -6.0      0.000      0.000
REMARK  5 active torsions:
REMARK  status: ('A' for Active; 'I' for Inactive)
REMARK    1  A    between atoms: C2_2  and  N3_3 
REMARK    2  A    between atoms: C2_2  and  C7_7 
REMARK    3  A    between atoms: C2_2  and  C15_15 
REMARK    4  A    between atoms: C7_7  and  C8_8 
REMARK    5  A    between atoms: C11_11  and  O12_12 
ROOT
ATOM      1  C1  ZIN A   1      17.295  -0.032   6.399  0.00  0.00     0.058 C 
ATOM      2  C2  ZIN A   1      18.433  -1.048   6.284  0.00  0.00     0.210 C 
ENDROOT
BRANCH   2   3
ATOM      3  N3  ZIN A   1      17.872  -2.393   6.095  0.00  0.00    -0.060 N 
ATOM      4  H4  ZIN A   1      17.804  -2.857   6.989  0.00  0.00     0.275 HD
ATOM      5  H5  ZIN A   1      16.954  -2.320   5.683  0.00  0.00     0.275 HD
ATOM      6  H6  ZIN A   1      18.475  -2.925   5.485  0.00  0.00     0.275 HD
ENDBRANCH   2   3
BRANCH   2   7
ATOM      7  C7  ZIN A   1      19.272  -1.021   7.563  0.00  0.00     0.088 C 
BRANCH   7   8
ATOM      8  C8  ZIN A   1      18.736   0.038   8.492  0.00  0.00    -0.055 A 
ATOM      9  C14 ZIN A   1      19.238   1.326   8.434  0.00  0.00     0.010 A 
ATOM     10  C13 ZIN A   1      18.745   2.299   9.281  0.00  0.00     0.037 A 
ATOM     11  C11 ZIN A   1      17.754   1.983  10.197  0.00  0.00     0.065 A 
ATOM     12  C10 ZIN A   1      17.255   0.689  10.257  0.00  0.00     0.037 A 
ATOM     13  C9  ZIN A   1      17.748  -0.280   9.405  0.00  0.00     0.010 A 
BRANCH  11  14
ATOM     14  O12 ZIN A   1      17.271   2.937  11.035  0.00  0.00    -0.361 OA
ATOM     15  H25 ZIN A   1      16.390   3.260  10.797  0.00  0.00     0.217 HD
ENDBRANCH  11  14
ENDBRANCH   7   8
ENDBRANCH   2   7
BRANCH   2  16
ATOM     16  C15 ZIN A   1      19.304  -0.696   5.105  0.00  0.00     0.210 C 
ATOM     17  O16 ZIN A   1      19.533   0.473   4.845  0.00  0.00    -0.646 OA
ATOM     18  O17 ZIN A   1      19.778  -1.580   4.412  0.00  0.00    -0.646 OA
ENDBRANCH   2  16
TORSDOF 5
ENDMDL
MODEL 2
REMARK VINA RESULT:      -5.9      1.755      5.245
REMARK  5 active torsions:
REMARK  status: ('A' for Active; 'I' for Inactive)
REMARK    1  A    between atoms: C2_2  and  N3_3 
REMARK    2  A    between atoms: C2_2  and  C7_7 
REMARK    3  A    between atoms: C2_2  and  C15_15 
REMARK    4  A    between atoms: C7_7  and  C8_8 
REMARK    5  A    between atoms: C11_11  and  O12_12 
ROOT
ATOM      1  C1  ZIN A   1      19.176   1.921   8.436  0.00  0.00     0.058 C 
ATOM      2  C2  ZIN A   1      18.466   1.123   9.532  0.00  0.00     0.210 C 
ENDROOT
BRANCH   2   3
ATOM      3  N3  ZIN A   1      19.456   0.350  10.294  0.00  0.00    -0.060 N 
ATOM      4  H4  ZIN A   1      19.661  -0.508   9.803  0.00  0.00     0.275 HD
ATOM      5  H5  ZIN A   1      20.302   0.890  10.393  0.00  0.00     0.275 HD
ATOM      6  H6  ZIN A   1      19.084   0.134  11.206  0.00  0.00     0.275 HD
ENDBRANCH   2   3
BRANCH   2   7
ATOM      7  C7  ZIN A   1      17.455   0.169   8.894  0.00  0.00     0.088 C 
BRANCH   7   8
ATOM      8  C8  ZIN A   1      18.019  -0.371   7.605  0.00  0.00    -0.055 A 
ATOM      9  C14 ZIN A   1      17.649   0.195   6.398  0.00  0.00     0.010 A 
ATOM     10  C13 ZIN A   1      18.169  -0.296   5.216  0.00  0.00     0.037 A 
ATOM     11  C11 ZIN A   1      19.054  -1.363   5.238  0.00  0.00     0.065 A 
ATOM     12  C10 ZIN A   1      19.419  -1.933   6.450  0.00  0.00     0.037 A 
ATOM     13  C9  ZIN A   1      18.900  -1.436   7.630  0.00  0.00     0.010 A 
BRANCH  11  14
ATOM     14  O12 ZIN A   1      19.562  -1.851   4.077  0.00  0.00    -0.361 OA
ATOM     15  H25 ZIN A   1      19.499  -2.812   3.992  0.00  0.00     0.217 HD
ENDBRANCH  11  14
ENDBRANCH   7   8
ENDBRANCH   2   7
BRANCH   2  16
ATOM     16  C15 ZIN A   1      17.748   2.070  10.459  0.00  0.00     0.210 C 
ATOM     17  O16 ZIN A   1      17.843   3.275  10.292  0.00  0.00    -0.646 OA
ATOM     18  O17 ZIN A   1      17.073   1.633  11.374  0.00  0.00    -0.646 OA
ENDBRANCH   2  16
TORSDOF 5
ENDMDL
MODEL 3
REMARK VINA RESULT:      -5.7      6.377      9.088
REMARK  5 active torsions:
REMARK  status: ('A' for Active; 'I' for Inactive)
REMARK    1  A    between atoms: C2_2  and  N3_3 
REMARK    2  A    between atoms: C2_2  and  C7_7 
REMARK    3  A    between atoms: C2_2  and  C15_15 
REMARK    4  A    between atoms: C7_7  and  C8_8 
REMARK    5  A    between atoms: C11_11  and  O12_12 
ROOT
ATOM      1  C1  ZIN A   1      17.294  -0.050  16.555  0.00  0.00     0.058 C 
ATOM      2  C2  ZIN A   1      18.395   0.987  16.790  0.00  0.00     0.210 C 
ENDROOT
BRANCH   2   3
ATOM      3  N3  ZIN A   1      17.790   2.261  17.200  0.00  0.00    -0.060 N 
ATOM      4  H4  ZIN A   1      17.490   2.197  18.161  0.00  0.00     0.275 HD
ATOM      5  H5  ZIN A   1      18.469   3.002  17.108  0.00  0.00     0.275 HD
ATOM      6  H6  ZIN A   1      16.994   2.459  16.613  0.00  0.00     0.275 HD
ENDBRANCH   2   3
BRANCH   2   7
ATOM      7  C7  ZIN A   1      19.188   1.190  15.498  0.00  0.00     0.088 C 
BRANCH   7   8
ATOM      8  C8  ZIN A   1      18.643   0.282  14.426  0.00  0.00    -0.055 A 
ATOM      9  C14 ZIN A   1      19.099  -1.020  14.326  0.00  0.00     0.010 A 
ATOM     10  C13 ZIN A   1      18.597  -1.856  13.348  0.00  0.00     0.037 A 
ATOM     11  C11 ZIN A   1      17.642  -1.387  12.458  0.00  0.00     0.065 A 
ATOM     12  C10 ZIN A   1      17.189  -0.078  12.558  0.00  0.00     0.037 A 
ATOM     13  C9  ZIN A   1      17.691   0.753  13.541  0.00  0.00     0.010 A 
BRANCH  11  14
ATOM     14  O12 ZIN A   1      17.151  -2.205  11.492  0.00  0.00    -0.361 OA
ATOM     15  H25 ZIN A   1      17.002  -3.115  11.786  0.00  0.00     0.217 HD
ENDBRANCH  11  14
ENDBRANCH   7   8
ENDBRANCH   2   7
BRANCH   2  16
ATOM     16  C15 ZIN A   1      19.320   0.499  17.876  0.00  0.00     0.210 C 
ATOM     17  O16 ZIN A   1      19.498  -0.698  18.031  0.00  0.00    -0.646 OA
ATOM     18  O17 ZIN A   1      19.890   1.299  18.597  0.00  0.00    -0.646 OA
ENDBRANCH   2  16
TORSDOF 5
ENDMDL
MODEL 4
REMARK VINA RESULT:      -5.5      5.918      7.607
REMARK  5 active torsions:
REMARK  status: ('A' for Active; 'I' for Inactive)
REMARK    1  A    between atoms: C2_2  and  N3_3 
REMARK    2  A    between atoms: C2_2  and  C7_7 
REMARK    3  A    between atoms: C2_2  and  C15_15 
REMARK    4  A    between atoms: C7_7  and  C8_8 
REMARK    5  A    between atoms: C11_11  and  O12_12 
ROOT
ATOM      1  C1  ZIN A   1      19.207  -2.157  12.459  0.00  0.00     0.058 C 
ATOM      2  C2  ZIN A   1      19.038  -0.875  13.278  0.00  0.00     0.210 C 
ENDROOT
BRANCH   2   3
ATOM      3  N3  ZIN A   1      20.341  -0.464  13.819  0.00  0.00    -0.060 N 
ATOM      4  H4  ZIN A   1      20.783   0.178  13.177  0.00  0.00     0.275 HD
ATOM      5  H5  ZIN A   1      20.207  -0.009  14.710  0.00  0.00     0.275 HD
ATOM      6  H6  ZIN A   1      20.927  -1.276  13.940  0.00  0.00     0.275 HD
ENDBRANCH   2   3
BRANCH   2   7
ATOM      7  C7  ZIN A   1      18.066  -1.132  14.431  0.00  0.00     0.088 C 
BRANCH   7   8
ATOM      8  C8  ZIN A   1      18.490  -0.329  15.634  0.00  0.00    -0.055 A 
ATOM      9  C14 ZIN A   1      18.945  -0.975  16.770  0.00  0.00     0.010 A 
ATOM     10  C13 ZIN A   1      19.340  -0.240  17.872  0.00  0.00     0.037 A 
ATOM     11  C11 ZIN A   1      19.269   1.144  17.843  0.00  0.00     0.065 A 
ATOM     12  C10 ZIN A   1      18.807   1.789  16.704  0.00  0.00     0.037 A 
ATOM     13  C9  ZIN A   1      18.418   1.051  15.603  0.00  0.00     0.010 A 
BRANCH  11  14
ATOM     14  O12 ZIN A   1      19.651   1.868  18.927  0.00  0.00    -0.361 OA
ATOM     15  H25 ZIN A   1      19.343   2.785  18.916  0.00  0.00     0.217 HD
ENDBRANCH  11  14
ENDBRANCH   7   8
ENDBRANCH   2   7
BRANCH   2  16
ATOM     16  C15 ZIN A   1      18.493   0.218  12.395  0.00  0.00     0.210 C 
ATOM     17  O16 ZIN A   1      19.248   1.046  11.916  0.00  0.00    -0.646 OA
ATOM     18  O17 ZIN A   1      17.299   0.273  12.161  0.00  0.00    -0.646 OA
ENDBRANCH   2  16
TORSDOF 5
ENDMDL
MODEL 5
REMARK VINA RESULT:      -5.3      2.795      5.344
REMARK  5 active torsions:
REMARK  status: ('A' for Active; 'I' for Inactive)
REMARK    1  A    between atoms: C2_2  and  N3_3 
REMARK    2  A    between atoms: C2_2  and  C7_7 
REMARK    3  A    between atoms: C2_2  and  C15_15 
REMARK    4  A    between atoms: C7_7  and  C8_8 
REMARK    5  A    between atoms: C11_11  and  O12_12 
ROOT
ATOM      1  C1  ZIN A   1      19.253   1.020  11.123  0.00  0.00     0.058 C 
ATOM      2  C2  ZIN A   1      19.411  -0.328  10.416  0.00  0.00     0.210 C 
ENDROOT
BRANCH   2   3
ATOM      3  N3  ZIN A   1      20.593  -0.289   9.545  0.00  0.00    -0.060 N 
ATOM      4  H4  ZIN A   1      20.836  -1.229   9.268  0.00  0.00     0.275 HD
ATOM      5  H5  ZIN A   1      20.390   0.262   8.725  0.00  0.00     0.275 HD
ATOM      6  H6  ZIN A   1      21.366   0.123  10.046  0.00  0.00     0.275 HD
ENDBRANCH   2   3
BRANCH   2   7
ATOM      7  C7  ZIN A   1      18.166  -0.609   9.573  0.00  0.00     0.088 C 
BRANCH   7   8
ATOM      8  C8  ZIN A   1      18.568  -0.808   8.134  0.00  0.00    -0.055 A 
ATOM      9  C14 ZIN A   1      18.957  -2.060   7.693  0.00  0.00     0.010 A 
ATOM     10  C13 ZIN A   1      19.321  -2.246   6.373  0.00  0.00     0.037 A 
ATOM     11  C11 ZIN A   1      19.307  -1.174   5.493  0.00  0.00     0.065 A 
ATOM     12  C10 ZIN A   1      18.921   0.082   5.940  0.00  0.00     0.037 A 
ATOM     13  C9  ZIN A   1      18.553   0.262   7.259  0.00  0.00     0.010 A 
BRANCH  11  14
ATOM     14  O12 ZIN A   1      19.669  -1.353   4.196  0.00  0.00    -0.361 OA
ATOM     15  H25 ZIN A   1      20.408  -1.966   4.075  0.00  0.00     0.217 HD
ENDBRANCH  11  14
ENDBRANCH   7   8
ENDBRANCH   2   7
BRANCH   2  16
ATOM     16  C15 ZIN A   1      19.578  -1.418  11.444  0.00  0.00     0.210 C 
ATOM     17  O16 ZIN A   1      19.432  -1.166  12.628  0.00  0.00    -0.646 OA
ATOM     18  O17 ZIN A   1      19.861  -2.549  11.091  0.00  0.00    -0.646 OA
ENDBRANCH   2  16
TORSDOF 5
ENDMDL
MODEL 6
REMARK VINA RESULT:      -5.3      2.606      3.648
REMARK  5 active torsions:
REMARK  status: ('A' for Active; 'I' for Inactive)
REMARK    1  A    between atoms: C2_2  and  N3_3 
REMARK    2  A    between atoms: C2_2  and  C7_7 
REMARK    3  A    between atoms: C2_2  and  C15_15 
REMARK    4  A    between atoms: C7_7  and  C8_8 
REMARK    5  A    between atoms: C11_11  and  O12_12 
ROOT
ATOM      1  C1  ZIN A   1      17.825   0.536   9.971  0.00  0.00     0.058 C 
ATOM      2  C2  ZIN A   1      19.035   0.877   9.099  0.00  0.00     0.210 C 
ENDROOT
BRANCH   2   3
ATOM      3  N3  ZIN A   1      20.258   0.373   9.739  0.00  0.00    -0.060 N 
ATOM      4  H4  ZIN A   1      20.421  -0.579   9.446  0.00  0.00     0.275 HD
ATOM      5  H5  ZIN A   1      21.041   0.948   9.466  0.00  0.00     0.275 HD
ATOM      6  H6  ZIN A   1      20.150   0.402  10.741  0.00  0.00     0.275 HD
ENDBRANCH   2   3
BRANCH   2   7
ATOM      7  C7  ZIN A   1      19.133   2.395   8.936  0.00  0.00     0.088 C 
BRANCH   7   8
ATOM      8  C8  ZIN A   1      18.791   3.064  10.243  0.00  0.00    -0.055 A 
ATOM      9  C14 ZIN A   1      17.554   3.660  10.411  0.00  0.00     0.010 A 
ATOM     10  C13 ZIN A   1      17.237   4.268  11.610  0.00  0.00     0.037 A 
ATOM     11  C11 ZIN A   1      18.163   4.290  12.642  0.00  0.00     0.065 A 
ATOM     12  C10 ZIN A   1      19.405   3.695  12.469  0.00  0.00     0.037 A 
ATOM     13  C9  ZIN A   1      19.716   3.084  11.270  0.00  0.00     0.010 A 
BRANCH  11  14
ATOM     14  O12 ZIN A   1      17.855   4.893  13.820  0.00  0.00    -0.361 OA
ATOM     15  H25 ZIN A   1      16.957   4.710  14.133  0.00  0.00     0.217 HD
ENDBRANCH  11  14
ENDBRANCH   7   8
ENDBRANCH   2   7
BRANCH   2  16
ATOM     16  C15 ZIN A   1      18.876   0.236   7.744  0.00  0.00     0.210 C 
ATOM     17  O16 ZIN A   1      18.819   0.932   6.744  0.00  0.00    -0.646 OA
ATOM     18  O17 ZIN A   1      18.803  -0.977   7.649  0.00  0.00    -0.646 OA
ENDBRANCH   2  16
TORSDOF 5
ENDMDL
MODEL 7
REMARK VINA RESULT:      -5.3      4.494      6.314
REMARK  5 active torsions:
REMARK  status: ('A' for Active; 'I' for Inactive)
REMARK    1  A    between atoms: C2_2  and  N3_3 
REMARK    2  A    between atoms: C2_2  and  C7_7 
REMARK    3  A    between atoms: C2_2  and  C15_15 
REMARK    4  A    between atoms: C7_7  and  C8_8 
REMARK    5  A    between atoms: C11_11  and  O12_12 
ROOT
ATOM      1  C1  ZIN A   1      20.182  -0.592  10.422  0.00  0.00     0.058 C 
ATOM      2  C2  ZIN A   1      20.149   0.128  11.772  0.00  0.00     0.210 C 
ENDROOT
BRANCH   2   3
ATOM      3  N3  ZIN A   1      21.508   0.553  12.135  0.00  0.00    -0.060 N 
ATOM      4  H4  ZIN A   1      21.909   1.081  11.373  0.00  0.00     0.275 HD
ATOM      5  H5  ZIN A   1      21.471   1.130  12.961  0.00  0.00     0.275 HD
ATOM      6  H6  ZIN A   1      22.077  -0.260  12.315  0.00  0.00     0.275 HD
ENDBRANCH   2   3
BRANCH   2   7
ATOM      7  C7  ZIN A   1      19.608  -0.821  12.843  0.00  0.00     0.088 C 
BRANCH   7   8
ATOM      8  C8  ZIN A   1      19.132  -2.094  12.191  0.00  0.00    -0.055 A 
ATOM      9  C14 ZIN A   1      17.806  -2.225  11.819  0.00  0.00     0.010 A 
ATOM     10  C13 ZIN A   1      17.368  -3.389  11.216  0.00  0.00     0.037 A 
ATOM     11  C11 ZIN A   1      18.257  -4.430  10.995  0.00  0.00     0.065 A 
ATOM     12  C10 ZIN A   1      19.585  -4.298  11.374  0.00  0.00     0.037 A 
ATOM     13  C9  ZIN A   1      20.019  -3.131  11.971  0.00  0.00     0.010 A 
BRANCH  11  14
ATOM     14  O12 ZIN A   1      17.828  -5.577  10.408  0.00  0.00    -0.361 OA
ATOM     15  H25 ZIN A   1      18.529  -6.085   9.976  0.00  0.00     0.217 HD
ENDBRANCH  11  14
ENDBRANCH   7   8
ENDBRANCH   2   7
BRANCH   2  16
ATOM     16  C15 ZIN A   1      19.254   1.338  11.674  0.00  0.00     0.210 C 
ATOM     17  O16 ZIN A   1      18.232   1.394  12.337  0.00  0.00    -0.646 OA
ATOM     18  O17 ZIN A   1      19.552   2.258  10.933  0.00  0.00    -0.646 OA
ENDBRANCH   2  16
TORSDOF 5
ENDMDL
MODEL 8
REMARK VINA RESULT:      -5.3      5.138      6.792
REMARK  5 active torsions:
REMARK  status: ('A' for Active; 'I' for Inactive)
REMARK    1  A    between atoms: C2_2  and  N3_3 
REMARK    2  A    between atoms: C2_2  and  C7_7 
REMARK    3  A    between atoms: C2_2  and  C15_15 
REMARK    4  A    between atoms: C7_7  and  C8_8 
REMARK    5  A    between atoms: C11_11  and  O12_12 
ROOT
ATOM      1  C1  ZIN A   1      20.415  -0.569  10.945  0.00  0.00     0.058 C 
ATOM      2  C2  ZIN A   1      19.737   0.091  12.147  0.00  0.00     0.210 C 
ENDROOT
BRANCH   2   3
ATOM      3  N3  ZIN A   1      20.730   0.324  13.205  0.00  0.00    -0.060 N 
ATOM      4  H4  ZIN A   1      20.735  -0.461  13.839  0.00  0.00     0.275 HD
ATOM      5  H5  ZIN A   1      21.645   0.427  12.791  0.00  0.00     0.275 HD
ATOM      6  H6  ZIN A   1      20.492   1.163  13.711  0.00  0.00     0.275 HD
ENDBRANCH   2   3
BRANCH   2   7
ATOM      7  C7  ZIN A   1      18.634  -0.827  12.678  0.00  0.00     0.088 C 
BRANCH   7   8
ATOM      8  C8  ZIN A   1      18.526  -0.670  14.173  0.00  0.00    -0.055 A 
ATOM      9  C14 ZIN A   1      17.740   0.335  14.707  0.00  0.00     0.010 A 
ATOM     10  C13 ZIN A   1      17.636   0.477  16.078  0.00  0.00     0.037 A 
ATOM     11  C11 ZIN A   1      18.327  -0.383  16.917  0.00  0.00     0.065 A 
ATOM     12  C10 ZIN A   1      19.118  -1.388  16.378  0.00  0.00     0.037 A 
ATOM     13  C9  ZIN A   1      19.216  -1.529  15.008  0.00  0.00     0.010 A 
BRANCH  11  14
ATOM     14  O12 ZIN A   1      18.230  -0.243  18.265  0.00  0.00    -0.361 OA
ATOM     15  H25 ZIN A   1      18.467   0.639  18.587  0.00  0.00     0.217 HD
ENDBRANCH  11  14
ENDBRANCH   7   8
ENDBRANCH   2   7
BRANCH   2  16
ATOM     16  C15 ZIN A   1      19.136   1.407  11.725  0.00  0.00     0.210 C 
ATOM     17  O16 ZIN A   1      18.011   1.440  11.255  0.00  0.00    -0.646 OA
ATOM     18  O17 ZIN A   1      19.774   2.438  11.852  0.00  0.00    -0.646 OA
ENDBRANCH   2  16
TORSDOF 5
ENDMDL
MODEL 9
REMARK VINA RESULT:      -5.3      2.794      5.614
REMARK  5 active torsions:
REMARK  status: ('A' for Active; 'I' for Inactive)
REMARK    1  A    between atoms: C2_2  and  N3_3 
REMARK    2  A    between atoms: C2_2  and  C7_7 
REMARK    3  A    between atoms: C2_2  and  C15_15 
REMARK    4  A    between atoms: C7_7  and  C8_8 
REMARK    5  A    between atoms: C11_11  and  O12_12 
ROOT
ATOM      1  C1  ZIN A   1      18.593   3.280   9.824  0.00  0.00     0.058 C 
ATOM      2  C2  ZIN A   1      19.166   2.530  11.029  0.00  0.00     0.210 C 
ENDROOT
BRANCH   2   3
ATOM      3  N3  ZIN A   1      20.322   3.265  11.560  0.00  0.00    -0.060 N 
ATOM      4  H4  ZIN A   1      20.934   3.522  10.799  0.00  0.00     0.275 HD
ATOM      5  H5  ZIN A   1      20.003   4.099  12.031  0.00  0.00     0.275 HD
ATOM      6  H6  ZIN A   1      20.822   2.680  12.211  0.00  0.00     0.275 HD
ENDBRANCH   2   3
BRANCH   2   7
ATOM      7  C7  ZIN A   1      19.607   1.131  10.595  0.00  0.00     0.088 C 
BRANCH   7   8
ATOM      8  C8  ZIN A   1      18.887   0.747   9.328  0.00  0.00    -0.055 A 
ATOM      9  C14 ZIN A   1      17.743  -0.028   9.392  0.00  0.00     0.010 A 
ATOM     10  C13 ZIN A   1      17.077  -0.376   8.232  0.00  0.00     0.037 A 
ATOM     11  C11 ZIN A   1      17.563   0.042   7.003  0.00  0.00     0.065 A 
ATOM     12  C10 ZIN A   1      18.714   0.815   6.941  0.00  0.00     0.037 A 
ATOM     13  C9  ZIN A   1      19.374   1.165   8.104  0.00  0.00     0.010 A 
BRANCH  11  14
ATOM     14  O12 ZIN A   1      16.914  -0.304   5.861  0.00  0.00    -0.361 OA
ATOM     15  H25 ZIN A   1      17.498  -0.439   5.102  0.00  0.00     0.217 HD
ENDBRANCH  11  14
ENDBRANCH   7   8
ENDBRANCH   2   7
BRANCH   2  16
ATOM     16  C15 ZIN A   1      18.109   2.415  12.097  0.00  0.00     0.210 C 
ATOM     17  O16 ZIN A   1      17.171   3.193  12.112  0.00  0.00    -0.646 OA
ATOM     18  O17 ZIN A   1      18.194   1.544  12.946  0.00  0.00    -0.646 OA
ENDBRANCH   2  16
TORSDOF 5
ENDMDL
