MODEL 1
REMARK VINA RESULT:     -10.8      0.000      0.000
REMARK  12 active torsions:
REMARK  status: ('A' for Active; 'I' for Inactive)
REMARK    1  A    between atoms: C3_3  and  O4_4 
REMARK    2  A    between atoms: C8_8  and  C9_9 
REMARK       I    between atoms: C9_9  and  N11_11 
REMARK    3  A    between atoms: N11_11  and  C12_12 
REMARK    4  A    between atoms: C12_12  and  C14_13 
REMARK    5  A    between atoms: C12_12  and  C22_21 
REMARK    6  A    between atoms: C14_13  and  S15_14 
REMARK    7  A    between atoms: S15_14  and  C16_15 
REMARK    8  A    between atoms: C22_21  and  O24_22 
REMARK    9  A    between atoms: C22_21  and  C25_23 
REMARK   10  A    between atoms: C25_23  and  N26_24 
REMARK   11  A    between atoms: C38_34  and  C40_35 
REMARK       I    between atoms: C40_35  and  N42_37 
REMARK   12  A    between atoms: N42_37  and  C43_38 
ROOT
ATOM      1  C22 ZIN A   1      20.456   0.036  11.142  0.00  0.00     0.167 C 
ENDROOT
BRANCH   1   2
ATOM      2  C12 ZIN A   1      19.434  -1.049  10.791  0.00  0.00     0.124 C 
BRANCH   2   3
ATOM      3  N11 ZIN A   1      19.598  -1.436   9.388  0.00  0.00    -0.349 N 
ATOM      4  C9  ZIN A   1      18.538  -1.417   8.556  0.00  0.00     0.252 C 
ATOM      5  O10 ZIN A   1      17.446  -1.077   8.970  0.00  0.00    -0.268 OA
ATOM      6  H54 ZIN A   1      20.469  -1.707   9.058  0.00  0.00     0.163 HD
BRANCH   4   7
ATOM      7  C8  ZIN A   1      18.703  -1.808   7.139  0.00  0.00     0.040 A 
ATOM      8  C2  ZIN A   1      18.784  -0.830   6.148  0.00  0.00    -0.013 A 
ATOM      9  C1  ZIN A   1      18.711   0.629   6.517  0.00  0.00     0.052 C 
ATOM     10  C3  ZIN A   1      18.938  -1.204   4.823  0.00  0.00     0.072 A 
ATOM     11  C5  ZIN A   1      19.005  -2.549   4.485  0.00  0.00     0.037 A 
ATOM     12  C6  ZIN A   1      18.920  -3.519   5.466  0.00  0.00     0.004 A 
ATOM     13  C7  ZIN A   1      18.766  -3.157   6.789  0.00  0.00     0.018 A 
BRANCH  10  14
ATOM     14  O4  ZIN A   1      19.023  -0.255   3.855  0.00  0.00    -0.360 OA
ATOM     15  H50 ZIN A   1      18.398   0.476   3.963  0.00  0.00     0.217 HD
ENDBRANCH  10  14
ENDBRANCH   4   7
ENDBRANCH   2   3
BRANCH   2  16
ATOM     16  C14 ZIN A   1      19.657  -2.268  11.687  0.00  0.00     0.107 C 
BRANCH  16  17
ATOM     17  S15 ZIN A   1      18.102  -3.187  11.855  0.00  0.00    -0.128 SA
BRANCH  17  18
ATOM     18  C16 ZIN A   1      18.248  -4.441  10.625  0.00  0.00     0.000 A 
ATOM     19  C21 ZIN A   1      19.505  -4.846  10.190  0.00  0.00     0.018 A 
ATOM     20  C20 ZIN A   1      19.616  -5.834   9.231  0.00  0.00     0.001 A 
ATOM     21  C19 ZIN A   1      18.478  -6.409   8.695  0.00  0.00     0.000 A 
ATOM     22  C18 ZIN A   1      17.227  -6.004   9.120  0.00  0.00     0.001 A 
ATOM     23  C17 ZIN A   1      17.108  -5.022  10.084  0.00  0.00     0.018 A 
ENDBRANCH  17  18
ENDBRANCH  16  17
ENDBRANCH   2  16
ENDBRANCH   1   2
BRANCH   1  24
ATOM     24  O24 ZIN A   1      21.775  -0.502  11.039  0.00  0.00    -0.392 OA
ATOM     25  H62 ZIN A   1      21.813  -1.466  11.094  0.00  0.00     0.210 HD
ENDBRANCH   1  24
BRANCH   1  26
ATOM     26  C25 ZIN A   1      20.213   0.520  12.573  0.00  0.00     0.269 C 
BRANCH  26  27
ATOM     27  N26 ZIN A   1      19.337   1.699  12.549  0.00  0.00    -0.055 N 
ATOM     28  H27 ZIN A   1      18.449   1.448  12.144  0.00  0.00     0.281 HD
ATOM     29  C38 ZIN A   1      19.129   2.179  13.921  0.00  0.00     0.279 C 
ATOM     30  C37 ZIN A   1      18.160   3.349  13.897  0.00  0.00     0.048 C 
ATOM     31  C35 ZIN A   1      18.742   4.485  13.054  0.00  0.00    -0.006 C 
ATOM     32  C29 ZIN A   1      19.012   3.952  11.645  0.00  0.00     0.016 C 
ATOM     33  C34 ZIN A   1      17.749   5.644  12.990  0.00  0.00     0.005 C 
ATOM     34  C28 ZIN A   1      19.961   2.754  11.741  0.00  0.00     0.241 C 
ATOM     35  C31 ZIN A   1      17.701   3.499  10.996  0.00  0.00     0.007 C 
ATOM     36  C32 ZIN A   1      16.729   4.678  10.926  0.00  0.00     0.000 C 
ATOM     37  C33 ZIN A   1      16.442   5.184  12.341  0.00  0.00     0.000 C 
BRANCH  29  38
ATOM     38  C40 ZIN A   1      18.546   1.061  14.746  0.00  0.00     0.249 C 
ATOM     39  O41 ZIN A   1      17.608   0.421  14.322  0.00  0.00    -0.271 OA
ATOM     40  N42 ZIN A   1      19.067   0.773  15.955  0.00  0.00    -0.351 N 
ATOM     41  H77 ZIN A   1      19.817   1.286  16.294  0.00  0.00     0.163 HD
BRANCH  40  42
ATOM     42  C43 ZIN A   1      18.500  -0.313  16.757  0.00  0.00     0.022 C 
ATOM     43  C44 ZIN A   1      17.001  -0.077  16.947  0.00  0.00     0.037 C 
ATOM     44  C45 ZIN A   1      18.718  -1.646  16.037  0.00  0.00     0.037 C 
ATOM     45  C46 ZIN A   1      19.188  -0.353  18.122  0.00  0.00     0.037 C 
ENDBRANCH  40  42
ENDBRANCH  29  38
ENDBRANCH  26  27
ENDBRANCH   1  26
TORSDOF 12
ENDMDL
MODEL 2
REMARK VINA RESULT:     -10.4      1.877      9.555
REMARK  12 active torsions:
REMARK  status: ('A' for Active; 'I' for Inactive)
REMARK    1  A    between atoms: C3_3  and  O4_4 
REMARK    2  A    between atoms: C8_8  and  C9_9 
REMARK       I    between atoms: C9_9  and  N11_11 
REMARK    3  A    between atoms: N11_11  and  C12_12 
REMARK    4  A    between atoms: C12_12  and  C14_13 
REMARK    5  A    between atoms: C12_12  and  C22_21 
REMARK    6  A    between atoms: C14_13  and  S15_14 
REMARK    7  A    between atoms: S15_14  and  C16_15 
REMARK    8  A    between atoms: C22_21  and  O24_22 
REMARK    9  A    between atoms: C22_21  and  C25_23 
REMARK   10  A    between atoms: C25_23  and  N26_24 
REMARK   11  A    between atoms: C38_34  and  C40_35 
REMARK       I    between atoms: C40_35  and  N42_37 
REMARK   12  A    between atoms: N42_37  and  C43_38 
ROOT
ATOM      1  C22 ZIN A   1      20.456  -0.155  11.746  0.00  0.00     0.167 C 
ENDROOT
BRANCH   1   2
ATOM      2  C12 ZIN A   1      19.532   0.994  12.158  0.00  0.00     0.124 C 
BRANCH   2   3
ATOM      3  N11 ZIN A   1      19.714   1.279  13.582  0.00  0.00    -0.349 N 
ATOM      4  C9  ZIN A   1      18.650   1.284  14.409  0.00  0.00     0.252 C 
ATOM      5  O10 ZIN A   1      17.539   1.051  13.972  0.00  0.00    -0.268 OA
ATOM      6  H54 ZIN A   1      20.600   1.465  13.931  0.00  0.00     0.163 HD
BRANCH   4   7
ATOM      7  C8  ZIN A   1      18.833   1.573  15.848  0.00  0.00     0.040 A 
ATOM      8  C2  ZIN A   1      18.975   0.526  16.760  0.00  0.00    -0.013 A 
ATOM      9  C1  ZIN A   1      18.949  -0.902  16.280  0.00  0.00     0.052 C 
ATOM     10  C3  ZIN A   1      19.145   0.803  18.105  0.00  0.00     0.072 A 
ATOM     11  C5  ZIN A   1      19.169   2.120  18.546  0.00  0.00     0.037 A 
ATOM     12  C6  ZIN A   1      19.024   3.158  17.644  0.00  0.00     0.004 A 
ATOM     13  C7  ZIN A   1      18.852   2.892  16.301  0.00  0.00     0.018 A 
BRANCH  10  14
ATOM     14  O4  ZIN A   1      19.290  -0.213  18.995  0.00  0.00    -0.360 OA
ATOM     15  H50 ZIN A   1      18.767  -0.107  19.802  0.00  0.00     0.217 HD
ENDBRANCH  10  14
ENDBRANCH   4   7
ENDBRANCH   2   3
BRANCH   2  16
ATOM     16  C14 ZIN A   1      19.874   2.240  11.339  0.00  0.00     0.107 C 
BRANCH  16  17
ATOM     17  S15 ZIN A   1      18.365   3.202  11.045  0.00  0.00    -0.128 SA
BRANCH  17  18
ATOM     18  C16 ZIN A   1      18.353   4.342  12.388  0.00  0.00     0.000 A 
ATOM     19  C21 ZIN A   1      17.145   4.797  12.904  0.00  0.00     0.018 A 
ATOM     20  C20 ZIN A   1      17.139   5.686  13.962  0.00  0.00     0.001 A 
ATOM     21  C19 ZIN A   1      18.333   6.131  14.498  0.00  0.00     0.000 A 
ATOM     22  C18 ZIN A   1      19.536   5.686  13.984  0.00  0.00     0.001 A 
ATOM     23  C17 ZIN A   1      19.550   4.793  12.931  0.00  0.00     0.018 A 
ENDBRANCH  17  18
ENDBRANCH  16  17
ENDBRANCH   2  16
ENDBRANCH   1   2
BRANCH   1  24
ATOM     24  O24 ZIN A   1      21.817   0.271  11.841  0.00  0.00    -0.392 OA
ATOM     25  H62 ZIN A   1      22.397  -0.360  12.288  0.00  0.00     0.210 HD
ENDBRANCH   1  24
BRANCH   1  26
ATOM     26  C25 ZIN A   1      20.150  -0.565  10.304  0.00  0.00     0.269 C 
BRANCH  26  27
ATOM     27  N26 ZIN A   1      19.375  -1.813  10.304  0.00  0.00    -0.055 N 
ATOM     28  H27 ZIN A   1      18.451  -1.633  10.668  0.00  0.00     0.281 HD
ATOM     29  C38 ZIN A   1      19.267  -2.319   8.931  0.00  0.00     0.279 C 
ATOM     30  C37 ZIN A   1      18.399  -3.565   8.926  0.00  0.00     0.048 C 
ATOM     31  C35 ZIN A   1      19.036  -4.642   9.806  0.00  0.00    -0.006 C 
ATOM     32  C29 ZIN A   1      19.198  -4.077  11.219  0.00  0.00     0.016 C 
ATOM     33  C34 ZIN A   1      18.140  -5.880   9.841  0.00  0.00     0.005 C 
ATOM     34  C28 ZIN A   1      20.048  -2.805  11.151  0.00  0.00     0.241 C 
ATOM     35  C31 ZIN A   1      17.827  -3.730  11.806  0.00  0.00     0.007 C 
ATOM     36  C32 ZIN A   1      16.955  -4.986  11.848  0.00  0.00     0.000 C 
ATOM     37  C33 ZIN A   1      16.772  -5.525  10.428  0.00  0.00     0.000 C 
BRANCH  29  38
ATOM     38  C40 ZIN A   1      18.630  -1.261   8.069  0.00  0.00     0.249 C 
ATOM     39  O41 ZIN A   1      17.620  -0.702   8.441  0.00  0.00    -0.271 OA
ATOM     40  N42 ZIN A   1      19.182  -0.934   6.883  0.00  0.00    -0.351 N 
ATOM     41  H77 ZIN A   1      19.989  -1.381   6.585  0.00  0.00     0.163 HD
BRANCH  40  42
ATOM     42  C43 ZIN A   1      18.562   0.095   6.045  0.00  0.00     0.022 C 
ATOM     43  C44 ZIN A   1      18.797   1.471   6.670  0.00  0.00     0.037 C 
ATOM     44  C45 ZIN A   1      19.184   0.057   4.647  0.00  0.00     0.037 C 
ATOM     45  C46 ZIN A   1      17.059  -0.169   5.941  0.00  0.00     0.037 C 
ENDBRANCH  40  42
ENDBRANCH  29  38
ENDBRANCH  26  27
ENDBRANCH   1  26
TORSDOF 12
ENDMDL
MODEL 3
REMARK VINA RESULT:     -10.4      1.781      9.461
REMARK  12 active torsions:
REMARK  status: ('A' for Active; 'I' for Inactive)
REMARK    1  A    between atoms: C3_3  and  O4_4 
REMARK    2  A    between atoms: C8_8  and  C9_9 
REMARK       I    between atoms: C9_9  and  N11_11 
REMARK    3  A    between atoms: N11_11  and  C12_12 
REMARK    4  A    between atoms: C12_12  and  C14_13 
REMARK    5  A    between atoms: C12_12  and  C22_21 
REMARK    6  A    between atoms: C14_13  and  S15_14 
REMARK    7  A    between atoms: S15_14  and  C16_15 
REMARK    8  A    between atoms: C22_21  and  O24_22 
REMARK    9  A    between atoms: C22_21  and  C25_23 
REMARK   10  A    between atoms: C25_23  and  N26_24 
REMARK   11  A    between atoms: C38_34  and  C40_35 
REMARK       I    between atoms: C40_35  and  N42_37 
REMARK   12  A    between atoms: N42_37  and  C43_38 
ROOT
ATOM      1  C22 ZIN A   1      20.415  -0.368  11.602  0.00  0.00     0.167 C 
ENDROOT
BRANCH   1   2
ATOM      2  C12 ZIN A   1      19.592   0.727  12.286  0.00  0.00     0.124 C 
BRANCH   2   3
ATOM      3  N11 ZIN A   1      19.618   0.522  13.735  0.00  0.00    -0.349 N 
ATOM      4  C9  ZIN A   1      18.555   0.874  14.484  0.00  0.00     0.252 C 
ATOM      5  O10 ZIN A   1      17.574   1.362  13.957  0.00  0.00    -0.268 OA
ATOM      6  H54 ZIN A   1      20.401   0.133  14.157  0.00  0.00     0.163 HD
BRANCH   4   7
ATOM      7  C8  ZIN A   1      18.581   0.668  15.949  0.00  0.00     0.040 A 
ATOM      8  C2  ZIN A   1      19.053   1.676  16.790  0.00  0.00    -0.013 A 
ATOM      9  C1  ZIN A   1      19.532   2.982  16.209  0.00  0.00     0.052 C 
ATOM     10  C3  ZIN A   1      19.075   1.476  18.159  0.00  0.00     0.072 A 
ATOM     11  C5  ZIN A   1      18.632   0.272  18.693  0.00  0.00     0.037 A 
ATOM     12  C6  ZIN A   1      18.169  -0.730  17.860  0.00  0.00     0.004 A 
ATOM     13  C7  ZIN A   1      18.144  -0.540  16.493  0.00  0.00     0.018 A 
BRANCH  10  14
ATOM     14  O4  ZIN A   1      19.528   2.457  18.982  0.00  0.00    -0.360 OA
ATOM     15  H50 ZIN A   1      20.226   2.172  19.588  0.00  0.00     0.217 HD
ENDBRANCH  10  14
ENDBRANCH   4   7
ENDBRANCH   2   3
BRANCH   2  16
ATOM     16  C14 ZIN A   1      20.189   2.095  11.952  0.00  0.00     0.107 C 
BRANCH  16  17
ATOM     17  S15 ZIN A   1      19.086   2.973  10.811  0.00  0.00    -0.128 SA
BRANCH  17  18
ATOM     18  C16 ZIN A   1      18.280   4.139  11.857  0.00  0.00     0.000 A 
ATOM     19  C21 ZIN A   1      16.990   4.565  11.562  0.00  0.00     0.018 A 
ATOM     20  C20 ZIN A   1      16.358   5.474  12.387  0.00  0.00     0.001 A 
ATOM     21  C19 ZIN A   1      17.013   5.970  13.499  0.00  0.00     0.000 A 
ATOM     22  C18 ZIN A   1      18.298   5.554  13.793  0.00  0.00     0.001 A 
ATOM     23  C17 ZIN A   1      18.934   4.641  12.976  0.00  0.00     0.018 A 
ENDBRANCH  17  18
ENDBRANCH  16  17
ENDBRANCH   2  16
ENDBRANCH   1   2
BRANCH   1  24
ATOM     24  O24 ZIN A   1      21.781   0.042  11.523  0.00  0.00    -0.392 OA
ATOM     25  H62 ZIN A   1      22.234   0.070  12.376  0.00  0.00     0.210 HD
ENDBRANCH   1  24
BRANCH   1  26
ATOM     26  C25 ZIN A   1      19.872  -0.607  10.191  0.00  0.00     0.269 C 
BRANCH  26  27
ATOM     27  N26 ZIN A   1      19.120  -1.868  10.163  0.00  0.00    -0.055 N 
ATOM     28  H27 ZIN A   1      18.178  -1.703  10.484  0.00  0.00     0.281 HD
ATOM     29  C38 ZIN A   1      19.083  -2.383   8.789  0.00  0.00     0.279 C 
ATOM     30  C37 ZIN A   1      18.237  -3.644   8.752  0.00  0.00     0.048 C 
ATOM     31  C35 ZIN A   1      18.853  -4.706   9.666  0.00  0.00    -0.006 C 
ATOM     32  C29 ZIN A   1      18.941  -4.131  11.082  0.00  0.00     0.016 C 
ATOM     33  C34 ZIN A   1      17.978  -5.959   9.667  0.00  0.00     0.005 C 
ATOM     34  C28 ZIN A   1      19.771  -2.844  11.045  0.00  0.00     0.241 C 
ATOM     35  C31 ZIN A   1      17.539  -3.805  11.604  0.00  0.00     0.007 C 
ATOM     36  C32 ZIN A   1      16.688  -5.076  11.613  0.00  0.00     0.000 C 
ATOM     37  C33 ZIN A   1      16.579  -5.625  10.189  0.00  0.00     0.000 C 
BRANCH  29  38
ATOM     38  C40 ZIN A   1      18.468  -1.340   7.893  0.00  0.00     0.249 C 
ATOM     39  O41 ZIN A   1      17.381  -0.874   8.163  0.00  0.00    -0.271 OA
ATOM     40  N42 ZIN A   1      19.124  -0.925   6.791  0.00  0.00    -0.351 N 
ATOM     41  H77 ZIN A   1      19.992  -1.299   6.574  0.00  0.00     0.163 HD
BRANCH  40  42
ATOM     42  C43 ZIN A   1      18.525   0.088   5.920  0.00  0.00     0.022 C 
ATOM     43  C44 ZIN A   1      19.173   0.019   4.536  0.00  0.00     0.037 C 
ATOM     44  C45 ZIN A   1      17.022  -0.172   5.793  0.00  0.00     0.037 C 
ATOM     45  C46 ZIN A   1      18.751   1.477   6.521  0.00  0.00     0.037 C 
ENDBRANCH  40  42
ENDBRANCH  29  38
ENDBRANCH  26  27
ENDBRANCH   1  26
TORSDOF 12
ENDMDL
MODEL 4
REMARK VINA RESULT:      -9.8      1.752      8.558
REMARK  12 active torsions:
REMARK  status: ('A' for Active; 'I' for Inactive)
REMARK    1  A    between atoms: C3_3  and  O4_4 
REMARK    2  A    between atoms: C8_8  and  C9_9 
REMARK       I    between atoms: C9_9  and  N11_11 
REMARK    3  A    between atoms: N11_11  and  C12_12 
REMARK    4  A    between atoms: C12_12  and  C14_13 
REMARK    5  A    between atoms: C12_12  and  C22_21 
REMARK    6  A    between atoms: C14_13  and  S15_14 
REMARK    7  A    between atoms: S15_14  and  C16_15 
REMARK    8  A    between atoms: C22_21  and  O24_22 
REMARK    9  A    between atoms: C22_21  and  C25_23 
REMARK   10  A    between atoms: C25_23  and  N26_24 
REMARK   11  A    between atoms: C38_34  and  C40_35 
REMARK       I    between atoms: C40_35  and  N42_37 
REMARK   12  A    between atoms: N42_37  and  C43_38 
ROOT
ATOM      1  C22 ZIN A   1      20.324  -0.898  11.533  0.00  0.00     0.167 C 
ENDROOT
BRANCH   1   2
ATOM      2  C12 ZIN A   1      20.134   0.047  12.723  0.00  0.00     0.124 C 
BRANCH   2   3
ATOM      3  N11 ZIN A   1      19.168   1.089  12.368  0.00  0.00    -0.349 N 
ATOM      4  C9  ZIN A   1      19.601   2.305  11.980  0.00  0.00     0.252 C 
ATOM      5  O10 ZIN A   1      20.793   2.536  11.924  0.00  0.00    -0.268 OA
ATOM      6  H54 ZIN A   1      18.217   0.904  12.413  0.00  0.00     0.163 HD
BRANCH   4   7
ATOM      7  C8  ZIN A   1      18.626   3.358  11.622  0.00  0.00     0.040 A 
ATOM      8  C2  ZIN A   1      17.909   4.017  12.622  0.00  0.00    -0.013 A 
ATOM      9  C1  ZIN A   1      18.131   3.662  14.069  0.00  0.00     0.052 C 
ATOM     10  C3  ZIN A   1      16.998   5.001  12.280  0.00  0.00     0.072 A 
ATOM     11  C5  ZIN A   1      16.795   5.326  10.945  0.00  0.00     0.037 A 
ATOM     12  C6  ZIN A   1      17.501   4.670   9.953  0.00  0.00     0.004 A 
ATOM     13  C7  ZIN A   1      18.411   3.687  10.284  0.00  0.00     0.018 A 
BRANCH  10  14
ATOM     14  O4  ZIN A   1      16.301   5.649  13.250  0.00  0.00    -0.360 OA
ATOM     15  H50 ZIN A   1      16.568   5.414  14.149  0.00  0.00     0.217 HD
ENDBRANCH  10  14
ENDBRANCH   4   7
ENDBRANCH   2   3
BRANCH   2  16
ATOM     16  C14 ZIN A   1      19.614  -0.744  13.924  0.00  0.00     0.107 C 
BRANCH  16  17
ATOM     17  S15 ZIN A   1      17.918  -0.225  14.302  0.00  0.00    -0.128 SA
BRANCH  17  18
ATOM     18  C16 ZIN A   1      18.034   0.327  15.971  0.00  0.00     0.000 A 
ATOM     19  C21 ZIN A   1      19.139   1.062  16.386  0.00  0.00     0.018 A 
ATOM     20  C20 ZIN A   1      19.224   1.498  17.693  0.00  0.00     0.001 A 
ATOM     21  C19 ZIN A   1      18.219   1.193  18.592  0.00  0.00     0.000 A 
ATOM     22  C18 ZIN A   1      17.121   0.457  18.185  0.00  0.00     0.001 A 
ATOM     23  C17 ZIN A   1      17.026   0.023  16.878  0.00  0.00     0.018 A 
ENDBRANCH  17  18
ENDBRANCH  16  17
ENDBRANCH   2  16
ENDBRANCH   1   2
BRANCH   1  24
ATOM     24  O24 ZIN A   1      21.440  -0.465  10.754  0.00  0.00    -0.392 OA
ATOM     25  H62 ZIN A   1      21.524  -0.913   9.902  0.00  0.00     0.210 HD
ENDBRANCH   1  24
BRANCH   1  26
ATOM     26  C25 ZIN A   1      19.063  -0.886  10.666  0.00  0.00     0.269 C 
BRANCH  26  27
ATOM     27  N26 ZIN A   1      18.750  -2.256  10.239  0.00  0.00    -0.055 N 
ATOM     28  H27 ZIN A   1      17.753  -2.401  10.283  0.00  0.00     0.281 HD
ATOM     29  C38 ZIN A   1      19.211  -2.452   8.859  0.00  0.00     0.279 C 
ATOM     30  C37 ZIN A   1      18.814  -3.843   8.395  0.00  0.00     0.048 C 
ATOM     31  C35 ZIN A   1      19.470  -4.894   9.293  0.00  0.00    -0.006 C 
ATOM     32  C29 ZIN A   1      19.029  -4.638  10.736  0.00  0.00     0.016 C 
ATOM     33  C34 ZIN A   1      19.035  -6.293   8.858  0.00  0.00     0.005 C 
ATOM     34  C28 ZIN A   1      19.421  -3.210  11.130  0.00  0.00     0.241 C 
ATOM     35  C31 ZIN A   1      17.510  -4.788  10.855  0.00  0.00     0.007 C 
ATOM     36  C32 ZIN A   1      17.100  -6.199  10.432  0.00  0.00     0.000 C 
ATOM     37  C33 ZIN A   1      17.516  -6.435   8.979  0.00  0.00     0.000 C 
BRANCH  29  38
ATOM     38  C40 ZIN A   1      18.556  -1.423   7.975  0.00  0.00     0.249 C 
ATOM     39  O41 ZIN A   1      17.436  -1.033   8.226  0.00  0.00    -0.271 OA
ATOM     40  N42 ZIN A   1      19.215  -0.936   6.905  0.00  0.00    -0.351 N 
ATOM     41  H77 ZIN A   1      20.111  -1.249   6.704  0.00  0.00     0.163 HD
BRANCH  40  42
ATOM     42  C43 ZIN A   1      18.578   0.064   6.045  0.00  0.00     0.022 C 
ATOM     43  C44 ZIN A   1      17.090  -0.261   5.901  0.00  0.00     0.037 C 
ATOM     44  C45 ZIN A   1      18.738   1.451   6.672  0.00  0.00     0.037 C 
ATOM     45  C46 ZIN A   1      19.241   0.049   4.666  0.00  0.00     0.037 C 
ENDBRANCH  40  42
ENDBRANCH  29  38
ENDBRANCH  26  27
ENDBRANCH   1  26
TORSDOF 12
ENDMDL
MODEL 5
REMARK VINA RESULT:      -9.7      1.847      3.759
REMARK  12 active torsions:
REMARK  status: ('A' for Active; 'I' for Inactive)
REMARK    1  A    between atoms: C3_3  and  O4_4 
REMARK    2  A    between atoms: C8_8  and  C9_9 
REMARK       I    between atoms: C9_9  and  N11_11 
REMARK    3  A    between atoms: N11_11  and  C12_12 
REMARK    4  A    between atoms: C12_12  and  C14_13 
REMARK    5  A    between atoms: C12_12  and  C22_21 
REMARK    6  A    between atoms: C14_13  and  S15_14 
REMARK    7  A    between atoms: S15_14  and  C16_15 
REMARK    8  A    between atoms: C22_21  and  O24_22 
REMARK    9  A    between atoms: C22_21  and  C25_23 
REMARK   10  A    between atoms: C25_23  and  N26_24 
REMARK   11  A    between atoms: C38_34  and  C40_35 
REMARK       I    between atoms: C40_35  and  N42_37 
REMARK   12  A    between atoms: N42_37  and  C43_38 
ROOT
ATOM      1  C22 ZIN A   1      19.263  -0.216  11.618  0.00  0.00     0.167 C 
ENDROOT
BRANCH   1   2
ATOM      2  C12 ZIN A   1      19.610   0.142  10.170  0.00  0.00     0.124 C 
BRANCH   2   3
ATOM      3  N11 ZIN A   1      19.923  -1.080   9.427  0.00  0.00    -0.349 N 
ATOM      4  C9  ZIN A   1      18.944  -1.957   9.129  0.00  0.00     0.252 C 
ATOM      5  O10 ZIN A   1      17.801  -1.732   9.475  0.00  0.00    -0.268 OA
ATOM      6  H54 ZIN A   1      20.836  -1.260   9.151  0.00  0.00     0.163 HD
BRANCH   4   7
ATOM      7  C8  ZIN A   1      19.260  -3.192   8.378  0.00  0.00     0.040 A 
ATOM      8  C2  ZIN A   1      19.534  -4.376   9.063  0.00  0.00    -0.013 A 
ATOM      9  C1  ZIN A   1      19.501  -4.403  10.570  0.00  0.00     0.052 C 
ATOM     10  C3  ZIN A   1      19.830  -5.528   8.355  0.00  0.00     0.072 A 
ATOM     11  C5  ZIN A   1      19.859  -5.502   6.967  0.00  0.00     0.037 A 
ATOM     12  C6  ZIN A   1      19.593  -4.327   6.287  0.00  0.00     0.004 A 
ATOM     13  C7  ZIN A   1      19.298  -3.173   6.984  0.00  0.00     0.018 A 
BRANCH  10  14
ATOM     14  O4  ZIN A   1      20.091  -6.685   9.018  0.00  0.00    -0.360 OA
ATOM     15  H50 ZIN A   1      20.767  -7.235   8.598  0.00  0.00     0.217 HD
ENDBRANCH  10  14
ENDBRANCH   4   7
ENDBRANCH   2   3
BRANCH   2  16
ATOM     16  C14 ZIN A   1      18.417   0.844   9.519  0.00  0.00     0.107 C 
BRANCH  16  17
ATOM     17  S15 ZIN A   1      18.993   1.845   8.121  0.00  0.00    -0.128 SA
BRANCH  17  18
ATOM     18  C16 ZIN A   1      18.603   0.840   6.727  0.00  0.00     0.000 A 
ATOM     19  C21 ZIN A   1      19.513   0.713   5.684  0.00  0.00     0.018 A 
ATOM     20  C20 ZIN A   1      19.207  -0.080   4.595  0.00  0.00     0.001 A 
ATOM     21  C19 ZIN A   1      17.992  -0.737   4.538  0.00  0.00     0.000 A 
ATOM     22  C18 ZIN A   1      17.082  -0.609   5.571  0.00  0.00     0.001 A 
ATOM     23  C17 ZIN A   1      17.384   0.177   6.665  0.00  0.00     0.018 A 
ENDBRANCH  17  18
ENDBRANCH  16  17
ENDBRANCH   2  16
ENDBRANCH   1   2
BRANCH   1  24
ATOM     24  O24 ZIN A   1      17.847  -0.158  11.796  0.00  0.00    -0.392 OA
ATOM     25  H62 ZIN A   1      17.529  -0.628  12.578  0.00  0.00     0.210 HD
ENDBRANCH   1  24
BRANCH   1  26
ATOM     26  C25 ZIN A   1      19.937   0.779  12.565  0.00  0.00     0.269 C 
BRANCH  26  27
ATOM     27  N26 ZIN A   1      19.103   1.982  12.686  0.00  0.00    -0.055 N 
ATOM     28  H27 ZIN A   1      18.179   1.784  12.333  0.00  0.00     0.281 HD
ATOM     29  C38 ZIN A   1      19.013   2.371  14.098  0.00  0.00     0.279 C 
ATOM     30  C37 ZIN A   1      18.085   3.567  14.226  0.00  0.00     0.048 C 
ATOM     31  C35 ZIN A   1      18.642   4.742  13.419  0.00  0.00    -0.006 C 
ATOM     32  C29 ZIN A   1      18.788   4.300  11.961  0.00  0.00     0.016 C 
ATOM     33  C34 ZIN A   1      17.686   5.931  13.508  0.00  0.00     0.005 C 
ATOM     34  C28 ZIN A   1      19.701   3.071  11.904  0.00  0.00     0.241 C 
ATOM     35  C31 ZIN A   1      17.418   3.930  11.385  0.00  0.00     0.007 C 
ATOM     36  C32 ZIN A   1      16.485   5.139  11.468  0.00  0.00     0.000 C 
ATOM     37  C33 ZIN A   1      16.320   5.554  12.931  0.00  0.00     0.000 C 
BRANCH  29  38
ATOM     38  C40 ZIN A   1      18.455   1.217  14.889  0.00  0.00     0.249 C 
ATOM     39  O41 ZIN A   1      17.453   0.650  14.508  0.00  0.00    -0.271 OA
ATOM     40  N42 ZIN A   1      19.069   0.814  16.019  0.00  0.00    -0.351 N 
ATOM     41  H77 ZIN A   1      19.870   1.269  16.323  0.00  0.00     0.163 HD
BRANCH  40  42
ATOM     42  C43 ZIN A   1      18.526  -0.308  16.787  0.00  0.00     0.022 C 
ATOM     43  C44 ZIN A   1      18.764  -1.611  16.023  0.00  0.00     0.037 C 
ATOM     44  C45 ZIN A   1      19.224  -0.380  18.148  0.00  0.00     0.037 C 
ATOM     45  C46 ZIN A   1      17.024  -0.105  16.996  0.00  0.00     0.037 C 
ENDBRANCH  40  42
ENDBRANCH  29  38
ENDBRANCH  26  27
ENDBRANCH   1  26
TORSDOF 12
ENDMDL
MODEL 6
REMARK VINA RESULT:      -9.6      1.419      4.308
REMARK  12 active torsions:
REMARK  status: ('A' for Active; 'I' for Inactive)
REMARK    1  A    between atoms: C3_3  and  O4_4 
REMARK    2  A    between atoms: C8_8  and  C9_9 
REMARK       I    between atoms: C9_9  and  N11_11 
REMARK    3  A    between atoms: N11_11  and  C12_12 
REMARK    4  A    between atoms: C12_12  and  C14_13 
REMARK    5  A    between atoms: C12_12  and  C22_21 
REMARK    6  A    between atoms: C14_13  and  S15_14 
REMARK    7  A    between atoms: S15_14  and  C16_15 
REMARK    8  A    between atoms: C22_21  and  O24_22 
REMARK    9  A    between atoms: C22_21  and  C25_23 
REMARK   10  A    between atoms: C25_23  and  N26_24 
REMARK   11  A    between atoms: C38_34  and  C40_35 
REMARK       I    between atoms: C40_35  and  N42_37 
REMARK   12  A    between atoms: N42_37  and  C43_38 
ROOT
ATOM      1  C22 ZIN A   1      19.383  -1.430  12.015  0.00  0.00     0.167 C 
ENDROOT
BRANCH   1   2
ATOM      2  C12 ZIN A   1      19.065  -2.421  10.893  0.00  0.00     0.124 C 
BRANCH   2   3
ATOM      3  N11 ZIN A   1      19.391  -1.816   9.600  0.00  0.00    -0.349 N 
ATOM      4  C9  ZIN A   1      18.405  -1.509   8.734  0.00  0.00     0.252 C 
ATOM      5  O10 ZIN A   1      17.247  -1.734   9.025  0.00  0.00    -0.268 OA
ATOM      6  H54 ZIN A   1      20.315  -1.636   9.368  0.00  0.00     0.163 HD
BRANCH   4   7
ATOM      7  C8  ZIN A   1      18.734  -0.897   7.427  0.00  0.00     0.040 A 
ATOM      8  C2  ZIN A   1      19.012  -1.707   6.325  0.00  0.00    -0.013 A 
ATOM      9  C1  ZIN A   1      18.972  -3.207   6.461  0.00  0.00     0.052 C 
ATOM     10  C3  ZIN A   1      19.319  -1.128   5.106  0.00  0.00     0.072 A 
ATOM     11  C5  ZIN A   1      19.355   0.255   4.983  0.00  0.00     0.037 A 
ATOM     12  C6  ZIN A   1      19.085   1.058   6.076  0.00  0.00     0.004 A 
ATOM     13  C7  ZIN A   1      18.779   0.491   7.296  0.00  0.00     0.018 A 
BRANCH  10  14
ATOM     14  O4  ZIN A   1      19.585  -1.913   4.029  0.00  0.00    -0.360 OA
ATOM     15  H50 ZIN A   1      18.887  -2.551   3.825  0.00  0.00     0.217 HD
ENDBRANCH  10  14
ENDBRANCH   4   7
ENDBRANCH   2   3
BRANCH   2  16
ATOM     16  C14 ZIN A   1      19.894  -3.692  11.086  0.00  0.00     0.107 C 
BRANCH  16  17
ATOM     17  S15 ZIN A   1      18.811  -5.046  11.620  0.00  0.00    -0.128 SA
BRANCH  17  18
ATOM     18  C16 ZIN A   1      17.937  -5.460  10.148  0.00  0.00     0.000 A 
ATOM     19  C21 ZIN A   1      18.607  -6.053   9.084  0.00  0.00     0.018 A 
ATOM     20  C20 ZIN A   1      17.918  -6.382   7.933  0.00  0.00     0.001 A 
ATOM     21  C19 ZIN A   1      16.566  -6.110   7.834  0.00  0.00     0.000 A 
ATOM     22  C18 ZIN A   1      15.897  -5.515   8.888  0.00  0.00     0.001 A 
ATOM     23  C17 ZIN A   1      16.578  -5.189  10.044  0.00  0.00     0.018 A 
ENDBRANCH  17  18
ENDBRANCH  16  17
ENDBRANCH   2  16
ENDBRANCH   1   2
BRANCH   1  24
ATOM     24  O24 ZIN A   1      20.086  -2.104  13.061  0.00  0.00    -0.392 OA
ATOM     25  H62 ZIN A   1      20.131  -1.607  13.889  0.00  0.00     0.210 HD
ENDBRANCH   1  24
BRANCH   1  26
ATOM     26  C25 ZIN A   1      18.080  -0.850  12.568  0.00  0.00     0.269 C 
BRANCH  26  27
ATOM     27  N26 ZIN A   1      18.277  -0.450  13.968  0.00  0.00    -0.055 N 
ATOM     28  H27 ZIN A   1      19.263  -0.456  14.182  0.00  0.00     0.281 HD
ATOM     29  C38 ZIN A   1      17.743   0.902  14.168  0.00  0.00     0.279 C 
ATOM     30  C37 ZIN A   1      18.021   1.341  15.595  0.00  0.00     0.048 C 
ATOM     31  C35 ZIN A   1      17.336   0.384  16.573  0.00  0.00    -0.006 C 
ATOM     32  C29 ZIN A   1      17.857  -1.030  16.310  0.00  0.00     0.016 C 
ATOM     33  C34 ZIN A   1      17.653   0.796  18.010  0.00  0.00     0.005 C 
ATOM     34  C28 ZIN A   1      17.582  -1.397  14.848  0.00  0.00     0.241 C 
ATOM     35  C31 ZIN A   1      19.366  -1.089  16.563  0.00  0.00     0.007 C 
ATOM     36  C32 ZIN A   1      19.659  -0.690  18.011  0.00  0.00     0.000 C 
ATOM     37  C33 ZIN A   1      19.162   0.736  18.255  0.00  0.00     0.000 C 
BRANCH  29  38
ATOM     38  C40 ZIN A   1      18.427   1.844  13.212  0.00  0.00     0.249 C 
ATOM     39  O41 ZIN A   1      19.638   1.890  13.168  0.00  0.00    -0.271 OA
ATOM     40  N42 ZIN A   1      17.694   2.636  12.404  0.00  0.00    -0.351 N 
ATOM     41  H77 ZIN A   1      16.725   2.599  12.440  0.00  0.00     0.163 HD
BRANCH  40  42
ATOM     42  C43 ZIN A   1      18.359   3.551  11.475  0.00  0.00     0.022 C 
ATOM     43  C44 ZIN A   1      17.309   4.400  10.756  0.00  0.00     0.037 C 
ATOM     44  C45 ZIN A   1      19.309   4.466  12.252  0.00  0.00     0.037 C 
ATOM     45  C46 ZIN A   1      19.156   2.745  10.447  0.00  0.00     0.037 C 
ENDBRANCH  40  42
ENDBRANCH  29  38
ENDBRANCH  26  27
ENDBRANCH   1  26
TORSDOF 12
ENDMDL
MODEL 7
REMARK VINA RESULT:      -9.3      1.502      2.144
REMARK  12 active torsions:
REMARK  status: ('A' for Active; 'I' for Inactive)
REMARK    1  A    between atoms: C3_3  and  O4_4 
REMARK    2  A    between atoms: C8_8  and  C9_9 
REMARK       I    between atoms: C9_9  and  N11_11 
REMARK    3  A    between atoms: N11_11  and  C12_12 
REMARK    4  A    between atoms: C12_12  and  C14_13 
REMARK    5  A    between atoms: C12_12  and  C22_21 
REMARK    6  A    between atoms: C14_13  and  S15_14 
REMARK    7  A    between atoms: S15_14  and  C16_15 
REMARK    8  A    between atoms: C22_21  and  O24_22 
REMARK    9  A    between atoms: C22_21  and  C25_23 
REMARK   10  A    between atoms: C25_23  and  N26_24 
REMARK   11  A    between atoms: C38_34  and  C40_35 
REMARK       I    between atoms: C40_35  and  N42_37 
REMARK   12  A    between atoms: N42_37  and  C43_38 
ROOT
ATOM      1  C22 ZIN A   1      19.828   1.047  12.424  0.00  0.00     0.167 C 
ENDROOT
BRANCH   1   2
ATOM      2  C12 ZIN A   1      19.133  -0.096  11.680  0.00  0.00     0.124 C 
BRANCH   2   3
ATOM      3  N11 ZIN A   1      19.438  -0.005  10.251  0.00  0.00    -0.349 N 
ATOM      4  C9  ZIN A   1      18.460  -0.177   9.341  0.00  0.00     0.252 C 
ATOM      5  O10 ZIN A   1      17.323  -0.408   9.706  0.00  0.00    -0.268 OA
ATOM      6  H54 ZIN A   1      20.345   0.179   9.959  0.00  0.00     0.163 HD
BRANCH   4   7
ATOM      7  C8  ZIN A   1      18.768  -0.085   7.897  0.00  0.00     0.040 A 
ATOM      8  C2  ZIN A   1      18.938  -1.247   7.142  0.00  0.00    -0.013 A 
ATOM      9  C1  ZIN A   1      18.803  -2.598   7.794  0.00  0.00     0.052 C 
ATOM     10  C3  ZIN A   1      19.227  -1.154   5.792  0.00  0.00     0.072 A 
ATOM     11  C5  ZIN A   1      19.351   0.094   5.192  0.00  0.00     0.037 A 
ATOM     12  C6  ZIN A   1      19.188   1.245   5.940  0.00  0.00     0.004 A 
ATOM     13  C7  ZIN A   1      18.900   1.162   7.288  0.00  0.00     0.018 A 
BRANCH  10  14
ATOM     14  O4  ZIN A   1      19.388  -2.281   5.052  0.00  0.00    -0.360 OA
ATOM     15  H50 ZIN A   1      19.427  -2.125   4.098  0.00  0.00     0.217 HD
ENDBRANCH  10  14
ENDBRANCH   4   7
ENDBRANCH   2   3
BRANCH   2  16
ATOM     16  C14 ZIN A   1      19.631  -1.436  12.224  0.00  0.00     0.107 C 
BRANCH  16  17
ATOM     17  S15 ZIN A   1      18.213  -2.512  12.573  0.00  0.00    -0.128 SA
BRANCH  17  18
ATOM     18  C16 ZIN A   1      18.385  -3.794  11.376  0.00  0.00     0.000 A 
ATOM     19  C21 ZIN A   1      19.649  -4.171  10.936  0.00  0.00     0.018 A 
ATOM     20  C20 ZIN A   1      19.780  -5.180  10.003  0.00  0.00     0.001 A 
ATOM     21  C19 ZIN A   1      18.656  -5.807   9.498  0.00  0.00     0.000 A 
ATOM     22  C18 ZIN A   1      17.397  -5.432   9.929  0.00  0.00     0.001 A 
ATOM     23  C17 ZIN A   1      17.258  -4.428  10.866  0.00  0.00     0.018 A 
ENDBRANCH  17  18
ENDBRANCH  16  17
ENDBRANCH   2  16
ENDBRANCH   1   2
BRANCH   1  24
ATOM     24  O24 ZIN A   1      21.219   0.748  12.562  0.00  0.00    -0.392 OA
ATOM     25  H62 ZIN A   1      21.549   0.821  13.468  0.00  0.00     0.210 HD
ENDBRANCH   1  24
BRANCH   1  26
ATOM     26  C25 ZIN A   1      19.202   1.208  13.811  0.00  0.00     0.269 C 
BRANCH  26  27
ATOM     27  N26 ZIN A   1      18.788   2.605  14.001  0.00  0.00    -0.055 N 
ATOM     28  H27 ZIN A   1      17.788   2.644  14.125  0.00  0.00     0.281 HD
ATOM     29  C38 ZIN A   1      19.449   3.151  15.192  0.00  0.00     0.279 C 
ATOM     30  C37 ZIN A   1      18.957   4.568  15.429  0.00  0.00     0.048 C 
ATOM     31  C35 ZIN A   1      19.302   5.443  14.222  0.00  0.00    -0.006 C 
ATOM     32  C29 ZIN A   1      18.657   4.827  12.979  0.00  0.00     0.016 C 
ATOM     33  C34 ZIN A   1      18.767   6.858  14.438  0.00  0.00     0.005 C 
ATOM     34  C28 ZIN A   1      19.163   3.390  12.818  0.00  0.00     0.241 C 
ATOM     35  C31 ZIN A   1      17.135   4.805  13.134  0.00  0.00     0.007 C 
ATOM     36  C32 ZIN A   1      16.619   6.232  13.331  0.00  0.00     0.000 C 
ATOM     37  C33 ZIN A   1      17.245   6.828  14.593  0.00  0.00     0.000 C 
BRANCH  29  38
ATOM     38  C40 ZIN A   1      19.100   2.293  16.380  0.00  0.00     0.249 C 
ATOM     39  O41 ZIN A   1      19.721   2.410  17.416  0.00  0.00    -0.271 OA
ATOM     40  N42 ZIN A   1      18.098   1.396  16.293  0.00  0.00    -0.351 N 
ATOM     41  H77 ZIN A   1      17.603   1.302  15.465  0.00  0.00     0.163 HD
BRANCH  40  42
ATOM     42  C43 ZIN A   1      17.759   0.562  17.449  0.00  0.00     0.022 C 
ATOM     43  C44 ZIN A   1      16.681  -0.447  17.051  0.00  0.00     0.037 C 
ATOM     44  C45 ZIN A   1      19.008  -0.187  17.921  0.00  0.00     0.037 C 
ATOM     45  C46 ZIN A   1      17.238   1.448  18.582  0.00  0.00     0.037 C 
ENDBRANCH  40  42
ENDBRANCH  29  38
ENDBRANCH  26  27
ENDBRANCH   1  26
TORSDOF 12
ENDMDL
MODEL 8
REMARK VINA RESULT:      -9.3      2.165      8.833
REMARK  12 active torsions:
REMARK  status: ('A' for Active; 'I' for Inactive)
REMARK    1  A    between atoms: C3_3  and  O4_4 
REMARK    2  A    between atoms: C8_8  and  C9_9 
REMARK       I    between atoms: C9_9  and  N11_11 
REMARK    3  A    between atoms: N11_11  and  C12_12 
REMARK    4  A    between atoms: C12_12  and  C14_13 
REMARK    5  A    between atoms: C12_12  and  C22_21 
REMARK    6  A    between atoms: C14_13  and  S15_14 
REMARK    7  A    between atoms: S15_14  and  C16_15 
REMARK    8  A    between atoms: C22_21  and  O24_22 
REMARK    9  A    between atoms: C22_21  and  C25_23 
REMARK   10  A    between atoms: C25_23  and  N26_24 
REMARK   11  A    between atoms: C38_34  and  C40_35 
REMARK       I    between atoms: C40_35  and  N42_37 
REMARK   12  A    between atoms: N42_37  and  C43_38 
ROOT
ATOM      1  C22 ZIN A   1      17.577   0.232  10.929  0.00  0.00     0.167 C 
ENDROOT
BRANCH   1   2
ATOM      2  C12 ZIN A   1      17.991   1.336  11.906  0.00  0.00     0.124 C 
BRANCH   2   3
ATOM      3  N11 ZIN A   1      18.402   0.734  13.176  0.00  0.00    -0.349 N 
ATOM      4  C9  ZIN A   1      18.056   1.317  14.341  0.00  0.00     0.252 C 
ATOM      5  O10 ZIN A   1      17.402   2.342  14.337  0.00  0.00    -0.268 OA
ATOM      6  H54 ZIN A   1      18.924  -0.084  13.179  0.00  0.00     0.163 HD
BRANCH   4   7
ATOM      7  C8  ZIN A   1      18.471   0.709  15.624  0.00  0.00     0.040 A 
ATOM      8  C2  ZIN A   1      18.941   1.516  16.661  0.00  0.00    -0.013 A 
ATOM      9  C1  ZIN A   1      19.022   3.010  16.479  0.00  0.00     0.052 C 
ATOM     10  C3  ZIN A   1      19.329   0.941  17.859  0.00  0.00     0.072 A 
ATOM     11  C5  ZIN A   1      19.254  -0.436  18.025  0.00  0.00     0.037 A 
ATOM     12  C6  ZIN A   1      18.793  -1.237  16.996  0.00  0.00     0.004 A 
ATOM     13  C7  ZIN A   1      18.405  -0.673  15.798  0.00  0.00     0.018 A 
BRANCH  10  14
ATOM     14  O4  ZIN A   1      19.783   1.723  18.873  0.00  0.00    -0.360 OA
ATOM     15  H50 ZIN A   1      19.975   1.239  19.687  0.00  0.00     0.217 HD
ENDBRANCH  10  14
ENDBRANCH   4   7
ENDBRANCH   2   3
BRANCH   2  16
ATOM     16  C14 ZIN A   1      19.157   2.129  11.315  0.00  0.00     0.107 C 
BRANCH  16  17
ATOM     17  S15 ZIN A   1      18.530   3.656  10.561  0.00  0.00    -0.128 SA
BRANCH  17  18
ATOM     18  C16 ZIN A   1      18.120   4.648  11.958  0.00  0.00     0.000 A 
ATOM     19  C21 ZIN A   1      16.836   5.164  12.092  0.00  0.00     0.018 A 
ATOM     20  C20 ZIN A   1      16.516   5.936  13.192  0.00  0.00     0.001 A 
ATOM     21  C19 ZIN A   1      17.474   6.205  14.152  0.00  0.00     0.000 A 
ATOM     22  C18 ZIN A   1      18.753   5.698  14.019  0.00  0.00     0.001 A 
ATOM     23  C17 ZIN A   1      19.079   4.920  12.926  0.00  0.00     0.018 A 
ENDBRANCH  17  18
ENDBRANCH  16  17
ENDBRANCH   2  16
ENDBRANCH   1   2
BRANCH   1  24
ATOM     24  O24 ZIN A   1      16.787  -0.740  11.616  0.00  0.00    -0.392 OA
ATOM     25  H62 ZIN A   1      17.301  -1.358  12.153  0.00  0.00     0.210 HD
ENDBRANCH   1  24
BRANCH   1  26
ATOM     26  C25 ZIN A   1      18.829  -0.439  10.360  0.00  0.00     0.269 C 
BRANCH  26  27
ATOM     27  N26 ZIN A   1      18.698  -0.560   8.901  0.00  0.00    -0.055 N 
ATOM     28  H27 ZIN A   1      19.608  -0.719   8.496  0.00  0.00     0.281 HD
ATOM     29  C38 ZIN A   1      17.820  -1.693   8.584  0.00  0.00     0.279 C 
ATOM     30  C37 ZIN A   1      17.752  -1.862   7.076  0.00  0.00     0.048 C 
ATOM     31  C35 ZIN A   1      17.182  -0.593   6.438  0.00  0.00    -0.006 C 
ATOM     32  C29 ZIN A   1      18.074   0.587   6.830  0.00  0.00     0.016 C 
ATOM     33  C34 ZIN A   1      17.156  -0.743   4.918  0.00  0.00     0.005 C 
ATOM     34  C28 ZIN A   1      18.132   0.680   8.358  0.00  0.00     0.241 C 
ATOM     35  C31 ZIN A   1      19.490   0.376   6.289  0.00  0.00     0.007 C 
ATOM     36  C32 ZIN A   1      19.443   0.246   4.766  0.00  0.00     0.000 C 
ATOM     37  C33 ZIN A   1      18.575  -0.955   4.385  0.00  0.00     0.000 C 
BRANCH  29  38
ATOM     38  C40 ZIN A   1      18.389  -2.942   9.204  0.00  0.00     0.249 C 
ATOM     39  O41 ZIN A   1      19.402  -3.435   8.754  0.00  0.00    -0.271 OA
ATOM     40  N42 ZIN A   1      17.774  -3.512  10.258  0.00  0.00    -0.351 N 
ATOM     41  H77 ZIN A   1      16.964  -3.118  10.618  0.00  0.00     0.163 HD
BRANCH  40  42
ATOM     42  C43 ZIN A   1      18.328  -4.727  10.861  0.00  0.00     0.022 C 
ATOM     43  C44 ZIN A   1      18.398  -5.832   9.806  0.00  0.00     0.037 C 
ATOM     44  C45 ZIN A   1      19.734  -4.438  11.390  0.00  0.00     0.037 C 
ATOM     45  C46 ZIN A   1      17.432  -5.179  12.016  0.00  0.00     0.037 C 
ENDBRANCH  40  42
ENDBRANCH  29  38
ENDBRANCH  26  27
ENDBRANCH   1  26
TORSDOF 12
ENDMDL
MODEL 9
REMARK VINA RESULT:      -8.7      2.017      4.240
REMARK  12 active torsions:
REMARK  status: ('A' for Active; 'I' for Inactive)
REMARK    1  A    between atoms: C3_3  and  O4_4 
REMARK    2  A    between atoms: C8_8  and  C9_9 
REMARK       I    between atoms: C9_9  and  N11_11 
REMARK    3  A    between atoms: N11_11  and  C12_12 
REMARK    4  A    between atoms: C12_12  and  C14_13 
REMARK    5  A    between atoms: C12_12  and  C22_21 
REMARK    6  A    between atoms: C14_13  and  S15_14 
REMARK    7  A    between atoms: S15_14  and  C16_15 
REMARK    8  A    between atoms: C22_21  and  O24_22 
REMARK    9  A    between atoms: C22_21  and  C25_23 
REMARK   10  A    between atoms: C25_23  and  N26_24 
REMARK   11  A    between atoms: C38_34  and  C40_35 
REMARK       I    between atoms: C40_35  and  N42_37 
REMARK   12  A    between atoms: N42_37  and  C43_38 
ROOT
ATOM      1  C22 ZIN A   1      18.126   0.654  11.924  0.00  0.00     0.167 C 
ENDROOT
BRANCH   1   2
ATOM      2  C12 ZIN A   1      18.632   0.019  10.626  0.00  0.00     0.124 C 
BRANCH   2   3
ATOM      3  N11 ZIN A   1      18.107  -1.343  10.512  0.00  0.00    -0.349 N 
ATOM      4  C9  ZIN A   1      18.906  -2.396  10.774  0.00  0.00     0.252 C 
ATOM      5  O10 ZIN A   1      20.062  -2.216  11.104  0.00  0.00    -0.268 OA
ATOM      6  H54 ZIN A   1      17.185  -1.487  10.248  0.00  0.00     0.163 HD
BRANCH   4   7
ATOM      7  C8  ZIN A   1      18.377  -3.773  10.659  0.00  0.00     0.040 A 
ATOM      8  C2  ZIN A   1      18.371  -4.420   9.422  0.00  0.00    -0.013 A 
ATOM      9  C1  ZIN A   1      18.910  -3.721   8.201  0.00  0.00     0.052 C 
ATOM     10  C3  ZIN A   1      17.873  -5.707   9.322  0.00  0.00     0.072 A 
ATOM     11  C5  ZIN A   1      17.377  -6.350  10.449  0.00  0.00     0.037 A 
ATOM     12  C6  ZIN A   1      17.377  -5.708  11.673  0.00  0.00     0.004 A 
ATOM     13  C7  ZIN A   1      17.870  -4.424  11.784  0.00  0.00     0.018 A 
BRANCH  10  14
ATOM     14  O4  ZIN A   1      17.871  -6.343   8.121  0.00  0.00    -0.360 OA
ATOM     15  H50 ZIN A   1      17.006  -6.689   7.861  0.00  0.00     0.217 HD
ENDBRANCH  10  14
ENDBRANCH   4   7
ENDBRANCH   2   3
BRANCH   2  16
ATOM     16  C14 ZIN A   1      18.156   0.851   9.434  0.00  0.00     0.107 C 
BRANCH  16  17
ATOM     17  S15 ZIN A   1      17.027  -0.140   8.417  0.00  0.00    -0.128 SA
BRANCH  17  18
ATOM     18  C16 ZIN A   1      17.809  -0.135   6.838  0.00  0.00     0.000 A 
ATOM     19  C21 ZIN A   1      18.873   0.724   6.590  0.00  0.00     0.018 A 
ATOM     20  C20 ZIN A   1      19.488   0.720   5.353  0.00  0.00     0.001 A 
ATOM     21  C19 ZIN A   1      19.037  -0.128   4.359  0.00  0.00     0.000 A 
ATOM     22  C18 ZIN A   1      17.975  -0.979   4.599  0.00  0.00     0.001 A 
ATOM     23  C17 ZIN A   1      17.359  -0.986   5.835  0.00  0.00     0.018 A 
ENDBRANCH  17  18
ENDBRANCH  16  17
ENDBRANCH   2  16
ENDBRANCH   1   2
BRANCH   1  24
ATOM     24  O24 ZIN A   1      17.045   1.541  11.631  0.00  0.00    -0.392 OA
ATOM     25  H62 ZIN A   1      16.447   1.691  12.375  0.00  0.00     0.210 HD
ENDBRANCH   1  24
BRANCH   1  26
ATOM     26  C25 ZIN A   1      19.263   1.437  12.585  0.00  0.00     0.269 C 
BRANCH  26  27
ATOM     27  N26 ZIN A   1      18.732   2.682  13.155  0.00  0.00    -0.055 N 
ATOM     28  H27 ZIN A   1      17.732   2.710  13.026  0.00  0.00     0.281 HD
ATOM     29  C38 ZIN A   1      19.038   2.730  14.590  0.00  0.00     0.279 C 
ATOM     30  C37 ZIN A   1      18.419   3.981  15.190  0.00  0.00     0.048 C 
ATOM     31  C35 ZIN A   1      19.003   5.222  14.513  0.00  0.00    -0.006 C 
ATOM     32  C29 ZIN A   1      18.729   5.127  13.010  0.00  0.00     0.016 C 
ATOM     33  C34 ZIN A   1      18.346   6.480  15.081  0.00  0.00     0.005 C 
ATOM     34  C28 ZIN A   1      19.344   3.830  12.475  0.00  0.00     0.241 C 
ATOM     35  C31 ZIN A   1      17.220   5.107  12.752  0.00  0.00     0.007 C 
ATOM     36  C32 ZIN A   1      16.587   6.381  13.313  0.00  0.00     0.000 C 
ATOM     37  C33 ZIN A   1      16.839   6.452  14.820  0.00  0.00     0.000 C 
BRANCH  29  38
ATOM     38  C40 ZIN A   1      18.454   1.512  15.255  0.00  0.00     0.249 C 
ATOM     39  O41 ZIN A   1      17.369   1.094  14.910  0.00  0.00    -0.271 OA
ATOM     40  N42 ZIN A   1      19.135   0.886  16.235  0.00  0.00    -0.351 N 
ATOM     41  H77 ZIN A   1      20.002   1.221  16.512  0.00  0.00     0.163 HD
BRANCH  40  42
ATOM     42  C43 ZIN A   1      18.566  -0.298  16.882  0.00  0.00     0.022 C 
ATOM     43  C44 ZIN A   1      18.787  -1.522  15.991  0.00  0.00     0.037 C 
ATOM     44  C45 ZIN A   1      19.252  -0.521  18.232  0.00  0.00     0.037 C 
ATOM     45  C46 ZIN A   1      17.066  -0.089  17.101  0.00  0.00     0.037 C 
ENDBRANCH  40  42
ENDBRANCH  29  38
ENDBRANCH  26  27
ENDBRANCH   1  26
TORSDOF 12
ENDMDL
