MODEL 1
REMARK VINA RESULT:      -7.8      0.000      0.000
REMARK  2 active torsions:
REMARK  status: ('A' for Active; 'I' for Inactive)
REMARK       I    between atoms: C2_2  and  N3_3 
REMARK       I    between atoms: C2_2  and  N11_11 
REMARK    1  A    between atoms: N3_3  and  C4_4 
REMARK    2  A    between atoms: N11_11  and  C12_12 
ROOT
ATOM      1  O1  ZIN A   1      18.682  -0.255  11.455  0.00  0.00    -0.247 OA
ATOM      2  C2  ZIN A   1      19.890  -0.123  11.487  0.00  0.00     0.325 C 
ATOM      3  N3  ZIN A   1      20.529  -0.056  12.672  0.00  0.00    -0.309 N 
ATOM      4  N11 ZIN A   1      20.591  -0.048  10.338  0.00  0.00    -0.309 N 
ATOM      5  H20 ZIN A   1      21.498  -0.018  12.700  0.00  0.00     0.170 HD
ATOM      6  H25 ZIN A   1      21.561  -0.017  10.363  0.00  0.00     0.170 HD
ENDROOT
BRANCH   3   7
ATOM      7  C4  ZIN A   1      19.795  -0.043  13.864  0.00  0.00     0.036 A 
ATOM      8  C10 ZIN A   1      19.382   1.165  14.413  0.00  0.00     0.031 A 
ATOM      9  C9  ZIN A   1      18.654   1.175  15.586  0.00  0.00     0.026 A 
ATOM     10  C7  ZIN A   1      18.342  -0.015  16.220  0.00  0.00     0.034 A 
ATOM     11  C6  ZIN A   1      18.757  -1.219  15.678  0.00  0.00     0.026 A 
ATOM     12 Cl8  ZIN A   1      17.433   0.002  17.698  0.00  0.00    -0.084 Cl
ATOM     13  C5  ZIN A   1      19.482  -1.235  14.502  0.00  0.00     0.031 A 
ENDBRANCH   3   7
BRANCH   4  14
ATOM     14  C12 ZIN A   1      19.920  -0.014   9.110  0.00  0.00     0.038 A 
ATOM     15  C19 ZIN A   1      19.595  -1.198   8.461  0.00  0.00     0.055 A 
ATOM     16  C17 ZIN A   1      18.928  -1.160   7.252  0.00  0.00     0.058 A 
ATOM     17  C15 ZIN A   1      18.593   0.057   6.683  0.00  0.00     0.055 A 
ATOM     18 Cl18 ZIN A   1      18.515  -2.639   6.443  0.00  0.00    -0.082 Cl
ATOM     19  C14 ZIN A   1      18.921   1.237   7.325  0.00  0.00     0.028 A 
ATOM     20 Cl16 ZIN A   1      17.761   0.102   5.159  0.00  0.00    -0.083 Cl
ATOM     21  C13 ZIN A   1      19.583   1.205   8.537  0.00  0.00     0.031 A 
ENDBRANCH   4  14
TORSDOF 2
ENDMDL
MODEL 2
REMARK VINA RESULT:      -7.7      0.735      7.777
REMARK  2 active torsions:
REMARK  status: ('A' for Active; 'I' for Inactive)
REMARK       I    between atoms: C2_2  and  N3_3 
REMARK       I    between atoms: C2_2  and  N11_11 
REMARK    1  A    between atoms: N3_3  and  C4_4 
REMARK    2  A    between atoms: N11_11  and  C12_12 
ROOT
ATOM      1  O1  ZIN A   1      18.692   0.192  11.482  0.00  0.00    -0.247 OA
ATOM      2  C2  ZIN A   1      19.900   0.067  11.477  0.00  0.00     0.325 C 
ATOM      3  N3  ZIN A   1      20.564  -0.011  10.306  0.00  0.00    -0.309 N 
ATOM      4  N11 ZIN A   1      20.579   0.010  12.640  0.00  0.00    -0.309 N 
ATOM      5  H20 ZIN A   1      21.534  -0.043  10.299  0.00  0.00     0.170 HD
ATOM      6  H25 ZIN A   1      21.549  -0.015  12.636  0.00  0.00     0.170 HD
ENDROOT
BRANCH   3   7
ATOM      7  C4  ZIN A   1      19.854  -0.044   9.100  0.00  0.00     0.036 A 
ATOM      8  C10 ZIN A   1      19.474  -1.262   8.549  0.00  0.00     0.031 A 
ATOM      9  C9  ZIN A   1      18.770  -1.291   7.362  0.00  0.00     0.026 A 
ATOM     10  C7  ZIN A   1      18.451  -0.110   6.715  0.00  0.00     0.034 A 
ATOM     11  C6  ZIN A   1      18.833   1.104   7.259  0.00  0.00     0.026 A 
ATOM     12 Cl8  ZIN A   1      17.571  -0.151   5.219  0.00  0.00    -0.084 Cl
ATOM     13  C5  ZIN A   1      19.534   1.139   8.449  0.00  0.00     0.031 A 
ENDBRANCH   3   7
BRANCH   4  14
ATOM     14  C12 ZIN A   1      19.883  -0.013  13.855  0.00  0.00     0.038 A 
ATOM     15  C19 ZIN A   1      19.591   1.175  14.513  0.00  0.00     0.055 A 
ATOM     16  C17 ZIN A   1      18.900   1.149  15.708  0.00  0.00     0.058 A 
ATOM     17  C15 ZIN A   1      18.507  -0.061  16.256  0.00  0.00     0.055 A 
ATOM     18 Cl18 ZIN A   1      18.529   2.633  16.529  0.00  0.00    -0.082 Cl
ATOM     19  C14 ZIN A   1      18.801  -1.246  15.605  0.00  0.00     0.028 A 
ATOM     20 Cl16 ZIN A   1      17.645  -0.092  17.762  0.00  0.00    -0.083 Cl
ATOM     21  C13 ZIN A   1      19.488  -1.225  14.406  0.00  0.00     0.031 A 
ENDBRANCH   4  14
TORSDOF 2
ENDMDL
MODEL 3
REMARK VINA RESULT:      -7.3      0.971      2.019
REMARK  2 active torsions:
REMARK  status: ('A' for Active; 'I' for Inactive)
REMARK       I    between atoms: C2_2  and  N3_3 
REMARK       I    between atoms: C2_2  and  N11_11 
REMARK    1  A    between atoms: N3_3  and  C4_4 
REMARK    2  A    between atoms: N11_11  and  C12_12 
ROOT
ATOM      1  O1  ZIN A   1      18.386  -0.651  11.758  0.00  0.00    -0.247 OA
ATOM      2  C2  ZIN A   1      19.580  -0.872  11.795  0.00  0.00     0.325 C 
ATOM      3  N3  ZIN A   1      20.234  -0.849  12.974  0.00  0.00    -0.309 N 
ATOM      4  N11 ZIN A   1      20.252  -1.143  10.658  0.00  0.00    -0.309 N 
ATOM      5  H20 ZIN A   1      21.172  -1.091  13.013  0.00  0.00     0.170 HD
ATOM      6  H25 ZIN A   1      21.189  -1.392  10.696  0.00  0.00     0.170 HD
ENDROOT
BRANCH   3   7
ATOM      7  C4  ZIN A   1      19.557  -0.478  14.142  0.00  0.00     0.036 A 
ATOM      8  C10 ZIN A   1      18.993  -1.451  14.958  0.00  0.00     0.031 A 
ATOM      9  C9  ZIN A   1      18.331  -1.082  16.111  0.00  0.00     0.026 A 
ATOM     10  C7  ZIN A   1      18.219   0.255  16.451  0.00  0.00     0.034 A 
ATOM     11  C6  ZIN A   1      18.775   1.226  15.637  0.00  0.00     0.026 A 
ATOM     12 Cl8  ZIN A   1      17.380   0.714  17.899  0.00  0.00    -0.084 Cl
ATOM     13  C5  ZIN A   1      19.443   0.862  14.484  0.00  0.00     0.031 A 
ENDBRANCH   3   7
BRANCH   4  14
ATOM     14  C12 ZIN A   1      19.596  -1.066   9.423  0.00  0.00     0.038 A 
ATOM     15  C19 ZIN A   1      19.569   0.134   8.724  0.00  0.00     0.055 A 
ATOM     16  C17 ZIN A   1      18.925   0.205   7.504  0.00  0.00     0.058 A 
ATOM     17  C15 ZIN A   1      18.300  -0.915   6.983  0.00  0.00     0.055 A 
ATOM     18 Cl18 ZIN A   1      18.894   1.702   6.625  0.00  0.00    -0.082 Cl
ATOM     19  C14 ZIN A   1      18.321  -2.110   7.681  0.00  0.00     0.028 A 
ATOM     20 Cl16 ZIN A   1      17.485  -0.821   5.453  0.00  0.00    -0.083 Cl
ATOM     21  C13 ZIN A   1      18.969  -2.188   8.899  0.00  0.00     0.031 A 
ENDBRANCH   4  14
TORSDOF 2
ENDMDL
MODEL 4
REMARK VINA RESULT:      -7.1      3.092      7.871
REMARK  2 active torsions:
REMARK  status: ('A' for Active; 'I' for Inactive)
REMARK       I    between atoms: C2_2  and  N3_3 
REMARK       I    between atoms: C2_2  and  N11_11 
REMARK    1  A    between atoms: N3_3  and  C4_4 
REMARK    2  A    between atoms: N11_11  and  C12_12 
ROOT
ATOM      1  O1  ZIN A   1      18.024  -1.827  13.057  0.00  0.00    -0.247 OA
ATOM      2  C2  ZIN A   1      19.230  -1.973  13.024  0.00  0.00     0.325 C 
ATOM      3  N3  ZIN A   1      19.791  -2.724  12.055  0.00  0.00    -0.309 N 
ATOM      4  N11 ZIN A   1      20.008  -1.382  13.953  0.00  0.00    -0.309 N 
ATOM      5  H20 ZIN A   1      20.757  -2.786  11.987  0.00  0.00     0.170 HD
ATOM      6  H25 ZIN A   1      20.974  -1.438  13.884  0.00  0.00     0.170 HD
ENDROOT
BRANCH   3   7
ATOM      7  C4  ZIN A   1      18.980  -3.411  11.145  0.00  0.00     0.036 A 
ATOM      8  C10 ZIN A   1      18.538  -4.696  11.439  0.00  0.00     0.031 A 
ATOM      9  C9  ZIN A   1      17.735  -5.369  10.541  0.00  0.00     0.026 A 
ATOM     10  C7  ZIN A   1      17.377  -4.772   9.345  0.00  0.00     0.034 A 
ATOM     11  C6  ZIN A   1      17.821  -3.495   9.047  0.00  0.00     0.026 A 
ATOM     12 Cl8  ZIN A   1      16.372  -5.625   8.216  0.00  0.00    -0.084 Cl
ATOM     13  C5  ZIN A   1      18.621  -2.814   9.944  0.00  0.00     0.031 A 
ENDBRANCH   3   7
BRANCH   4  14
ATOM     14  C12 ZIN A   1      19.421  -0.689  15.018  0.00  0.00     0.038 A 
ATOM     15  C19 ZIN A   1      19.294   0.693  14.964  0.00  0.00     0.055 A 
ATOM     16  C17 ZIN A   1      18.709   1.373  16.014  0.00  0.00     0.058 A 
ATOM     17  C15 ZIN A   1      18.259   0.679  17.125  0.00  0.00     0.055 A 
ATOM     18 Cl18 ZIN A   1      18.544   3.100  15.946  0.00  0.00    -0.082 Cl
ATOM     19  C14 ZIN A   1      18.389  -0.697  17.183  0.00  0.00     0.028 A 
ATOM     20 Cl16 ZIN A   1      17.531   1.537  18.447  0.00  0.00    -0.083 Cl
ATOM     21  C13 ZIN A   1      18.969  -1.382  16.133  0.00  0.00     0.031 A 
ENDBRANCH   4  14
TORSDOF 2
ENDMDL
MODEL 5
REMARK VINA RESULT:      -6.9      3.639      5.002
REMARK  2 active torsions:
REMARK  status: ('A' for Active; 'I' for Inactive)
REMARK       I    between atoms: C2_2  and  N3_3 
REMARK       I    between atoms: C2_2  and  N11_11 
REMARK    1  A    between atoms: N3_3  and  C4_4 
REMARK    2  A    between atoms: N11_11  and  C12_12 
ROOT
ATOM      1  O1  ZIN A   1      18.266  -0.253  11.179  0.00  0.00    -0.247 OA
ATOM      2  C2  ZIN A   1      19.396  -0.167  10.739  0.00  0.00     0.325 C 
ATOM      3  N3  ZIN A   1      19.989   1.040  10.638  0.00  0.00    -0.309 N 
ATOM      4  N11 ZIN A   1      20.058  -1.276  10.355  0.00  0.00    -0.309 N 
ATOM      5  H20 ZIN A   1      20.913   1.104  10.351  0.00  0.00     0.170 HD
ATOM      6  H25 ZIN A   1      20.985  -1.216  10.074  0.00  0.00     0.170 HD
ENDROOT
BRANCH   3   7
ATOM      7  C4  ZIN A   1      19.271   2.200  10.950  0.00  0.00     0.036 A 
ATOM      8  C10 ZIN A   1      19.315   2.721  12.238  0.00  0.00     0.031 A 
ATOM      9  C9  ZIN A   1      18.610   3.868  12.541  0.00  0.00     0.026 A 
ATOM     10  C7  ZIN A   1      17.852   4.495  11.567  0.00  0.00     0.034 A 
ATOM     11  C6  ZIN A   1      17.802   3.975  10.285  0.00  0.00     0.026 A 
ATOM     12 Cl8  ZIN A   1      16.962   5.934  11.954  0.00  0.00    -0.084 Cl
ATOM     13  C5  ZIN A   1      18.510   2.830   9.976  0.00  0.00     0.031 A 
ENDBRANCH   3   7
BRANCH   4  14
ATOM     14  C12 ZIN A   1      19.408  -2.516  10.362  0.00  0.00     0.038 A 
ATOM     15  C19 ZIN A   1      18.816  -2.999   9.202  0.00  0.00     0.055 A 
ATOM     16  C17 ZIN A   1      18.180  -4.225   9.211  0.00  0.00     0.058 A 
ATOM     17  C15 ZIN A   1      18.122  -4.967  10.379  0.00  0.00     0.055 A 
ATOM     18 Cl18 ZIN A   1      17.445  -4.832   7.760  0.00  0.00    -0.082 Cl
ATOM     19  C14 ZIN A   1      18.705  -4.486  11.537  0.00  0.00     0.028 A 
ATOM     20 Cl16 ZIN A   1      17.315  -6.504  10.390  0.00  0.00    -0.083 Cl
ATOM     21  C13 ZIN A   1      19.348  -3.262  11.532  0.00  0.00     0.031 A 
ENDBRANCH   4  14
TORSDOF 2
ENDMDL
MODEL 6
REMARK VINA RESULT:      -6.9      3.785      4.637
REMARK  2 active torsions:
REMARK  status: ('A' for Active; 'I' for Inactive)
REMARK       I    between atoms: C2_2  and  N3_3 
REMARK       I    between atoms: C2_2  and  N11_11 
REMARK    1  A    between atoms: N3_3  and  C4_4 
REMARK    2  A    between atoms: N11_11  and  C12_12 
ROOT
ATOM      1  O1  ZIN A   1      18.351   0.725  10.878  0.00  0.00    -0.247 OA
ATOM      2  C2  ZIN A   1      19.321   1.089  10.243  0.00  0.00     0.325 C 
ATOM      3  N3  ZIN A   1      19.719   2.376  10.301  0.00  0.00    -0.309 N 
ATOM      4  N11 ZIN A   1      20.003   0.207   9.485  0.00  0.00    -0.309 N 
ATOM      5  H20 ZIN A   1      20.532   2.654   9.850  0.00  0.00     0.170 HD
ATOM      6  H25 ZIN A   1      20.820   0.481   9.039  0.00  0.00     0.170 HD
ENDROOT
BRANCH   3   7
ATOM      7  C4  ZIN A   1      18.961   3.312  11.014  0.00  0.00     0.036 A 
ATOM      8  C10 ZIN A   1      17.820   3.863  10.443  0.00  0.00     0.031 A 
ATOM      9  C9  ZIN A   1      17.072   4.783  11.151  0.00  0.00     0.026 A 
ATOM     10  C7  ZIN A   1      17.461   5.162  12.424  0.00  0.00     0.034 A 
ATOM     11  C6  ZIN A   1      18.600   4.618  12.992  0.00  0.00     0.026 A 
ATOM     12 Cl8  ZIN A   1      16.521   6.323  13.307  0.00  0.00    -0.084 Cl
ATOM     13  C5  ZIN A   1      19.350   3.695  12.291  0.00  0.00     0.031 A 
ENDBRANCH   3   7
BRANCH   4  14
ATOM     14  C12 ZIN A   1      19.531  -1.103   9.343  0.00  0.00     0.038 A 
ATOM     15  C19 ZIN A   1      19.658  -2.006  10.390  0.00  0.00     0.055 A 
ATOM     16  C17 ZIN A   1      19.186  -3.297  10.248  0.00  0.00     0.058 A 
ATOM     17  C15 ZIN A   1      18.597  -3.693   9.059  0.00  0.00     0.055 A 
ATOM     18 Cl18 ZIN A   1      19.338  -4.426  11.558  0.00  0.00    -0.082 Cl
ATOM     19  C14 ZIN A   1      18.476  -2.797   8.012  0.00  0.00     0.028 A 
ATOM     20 Cl16 ZIN A   1      18.013  -5.318   8.879  0.00  0.00    -0.083 Cl
ATOM     21  C13 ZIN A   1      18.941  -1.503   8.151  0.00  0.00     0.031 A 
ENDBRANCH   4  14
TORSDOF 2
ENDMDL
MODEL 7
REMARK VINA RESULT:      -6.8      3.355      3.997
REMARK  2 active torsions:
REMARK  status: ('A' for Active; 'I' for Inactive)
REMARK       I    between atoms: C2_2  and  N3_3 
REMARK       I    between atoms: C2_2  and  N11_11 
REMARK    1  A    between atoms: N3_3  and  C4_4 
REMARK    2  A    between atoms: N11_11  and  C12_12 
ROOT
ATOM      1  O1  ZIN A   1      17.812   2.034  10.495  0.00  0.00    -0.247 OA
ATOM      2  C2  ZIN A   1      18.892   2.571  10.345  0.00  0.00     0.325 C 
ATOM      3  N3  ZIN A   1      19.231   3.627  11.112  0.00  0.00    -0.309 N 
ATOM      4  N11 ZIN A   1      19.752   2.110   9.416  0.00  0.00    -0.309 N 
ATOM      5  H20 ZIN A   1      20.117   4.014  11.040  0.00  0.00     0.170 HD
ATOM      6  H25 ZIN A   1      20.642   2.490   9.347  0.00  0.00     0.170 HD
ENDROOT
BRANCH   3   7
ATOM      7  C4  ZIN A   1      18.304   4.164  12.012  0.00  0.00     0.036 A 
ATOM      8  C10 ZIN A   1      18.420   3.898  13.372  0.00  0.00     0.031 A 
ATOM      9  C9  ZIN A   1      17.507   4.433  14.258  0.00  0.00     0.026 A 
ATOM     10  C7  ZIN A   1      16.471   5.226  13.795  0.00  0.00     0.034 A 
ATOM     11  C6  ZIN A   1      16.351   5.487  12.441  0.00  0.00     0.026 A 
ATOM     12 Cl8  ZIN A   1      15.322   5.891  14.912  0.00  0.00    -0.084 Cl
ATOM     13  C5  ZIN A   1      17.264   4.958  11.550  0.00  0.00     0.031 A 
ENDBRANCH   3   7
BRANCH   4  14
ATOM     14  C12 ZIN A   1      19.361   1.081   8.551  0.00  0.00     0.038 A 
ATOM     15  C19 ZIN A   1      19.479  -0.245   8.948  0.00  0.00     0.055 A 
ATOM     16  C17 ZIN A   1      19.087  -1.257   8.093  0.00  0.00     0.058 A 
ATOM     17  C15 ZIN A   1      18.587  -0.951   6.838  0.00  0.00     0.055 A 
ATOM     18 Cl18 ZIN A   1      19.227  -2.915   8.590  0.00  0.00    -0.082 Cl
ATOM     19  C14 ZIN A   1      18.475   0.368   6.439  0.00  0.00     0.028 A 
ATOM     20 Cl16 ZIN A   1      18.103  -2.226   5.763  0.00  0.00    -0.083 Cl
ATOM     21  C13 ZIN A   1      18.860   1.385   7.292  0.00  0.00     0.031 A 
ENDBRANCH   4  14
TORSDOF 2
ENDMDL
MODEL 8
REMARK VINA RESULT:      -6.7      3.834      6.190
REMARK  2 active torsions:
REMARK  status: ('A' for Active; 'I' for Inactive)
REMARK       I    between atoms: C2_2  and  N3_3 
REMARK       I    between atoms: C2_2  and  N11_11 
REMARK    1  A    between atoms: N3_3  and  C4_4 
REMARK    2  A    between atoms: N11_11  and  C12_12 
ROOT
ATOM      1  O1  ZIN A   1      17.988   0.188  10.824  0.00  0.00    -0.247 OA
ATOM      2  C2  ZIN A   1      19.122   0.318  10.408  0.00  0.00     0.325 C 
ATOM      3  N3  ZIN A   1      19.808  -0.759   9.974  0.00  0.00    -0.309 N 
ATOM      4  N11 ZIN A   1      19.694   1.538  10.375  0.00  0.00    -0.309 N 
ATOM      5  H20 ZIN A   1      20.687  -0.647   9.579  0.00  0.00     0.170 HD
ATOM      6  H25 ZIN A   1      20.570   1.653   9.975  0.00  0.00     0.170 HD
ENDROOT
BRANCH   3   7
ATOM      7  C4  ZIN A   1      19.251  -2.037  10.091  0.00  0.00     0.036 A 
ATOM      8  C10 ZIN A   1      19.489  -2.798  11.230  0.00  0.00     0.031 A 
ATOM      9  C9  ZIN A   1      18.935  -4.057  11.344  0.00  0.00     0.026 A 
ATOM     10  C7  ZIN A   1      18.150  -4.567  10.324  0.00  0.00     0.034 A 
ATOM     11  C6  ZIN A   1      17.917  -3.813   9.187  0.00  0.00     0.026 A 
ATOM     12 Cl8  ZIN A   1      17.461  -6.152  10.470  0.00  0.00    -0.084 Cl
ATOM     13  C5  ZIN A   1      18.466  -2.551   9.069  0.00  0.00     0.031 A 
ENDBRANCH   3   7
BRANCH   4  14
ATOM     14  C12 ZIN A   1      19.022   2.639  10.920  0.00  0.00     0.038 A 
ATOM     15  C19 ZIN A   1      19.252   3.012  12.239  0.00  0.00     0.055 A 
ATOM     16  C17 ZIN A   1      18.591   4.102  12.771  0.00  0.00     0.058 A 
ATOM     17  C15 ZIN A   1      17.694   4.816  11.995  0.00  0.00     0.055 A 
ATOM     18 Cl18 ZIN A   1      18.881   4.573  14.417  0.00  0.00    -0.082 Cl
ATOM     19  C14 ZIN A   1      17.459   4.443  10.684  0.00  0.00     0.028 A 
ATOM     20 Cl16 ZIN A   1      16.859   6.181  12.669  0.00  0.00    -0.083 Cl
ATOM     21  C13 ZIN A   1      18.122   3.356  10.144  0.00  0.00     0.031 A 
ENDBRANCH   4  14
TORSDOF 2
ENDMDL
MODEL 9
REMARK VINA RESULT:      -6.7      3.960      6.648
REMARK  2 active torsions:
REMARK  status: ('A' for Active; 'I' for Inactive)
REMARK       I    between atoms: C2_2  and  N3_3 
REMARK       I    between atoms: C2_2  and  N11_11 
REMARK    1  A    between atoms: N3_3  and  C4_4 
REMARK    2  A    between atoms: N11_11  and  C12_12 
ROOT
ATOM      1  O1  ZIN A   1      17.906  -2.007   8.859  0.00  0.00    -0.247 OA
ATOM      2  C2  ZIN A   1      19.069  -2.253   9.113  0.00  0.00     0.325 C 
ATOM      3  N3  ZIN A   1      19.517  -3.523   9.054  0.00  0.00    -0.309 N 
ATOM      4  N11 ZIN A   1      19.912  -1.256   9.450  0.00  0.00    -0.309 N 
ATOM      5  H20 ZIN A   1      20.458  -3.712   9.190  0.00  0.00     0.170 HD
ATOM      6  H25 ZIN A   1      20.855  -1.442   9.580  0.00  0.00     0.170 HD
ENDROOT
BRANCH   3   7
ATOM      7  C4  ZIN A   1      18.624  -4.569   8.794  0.00  0.00     0.036 A 
ATOM      8  C10 ZIN A   1      18.047  -5.269   9.846  0.00  0.00     0.031 A 
ATOM      9  C9  ZIN A   1      17.163  -6.297   9.586  0.00  0.00     0.026 A 
ATOM     10  C7  ZIN A   1      16.858  -6.638   8.280  0.00  0.00     0.034 A 
ATOM     11  C6  ZIN A   1      17.436  -5.945   7.230  0.00  0.00     0.026 A 
ATOM     12 Cl8  ZIN A   1      15.751  -7.935   7.958  0.00  0.00    -0.084 Cl
ATOM     13  C5  ZIN A   1      18.317  -4.912   7.484  0.00  0.00     0.031 A 
ENDBRANCH   3   7
BRANCH   4  14
ATOM     14  C12 ZIN A   1      19.425   0.046   9.612  0.00  0.00     0.038 A 
ATOM     15  C19 ZIN A   1      18.865   0.435  10.822  0.00  0.00     0.055 A 
ATOM     16  C17 ZIN A   1      18.390   1.723  10.980  0.00  0.00     0.058 A 
ATOM     17  C15 ZIN A   1      18.463   2.622   9.930  0.00  0.00     0.055 A 
ATOM     18 Cl18 ZIN A   1      17.696   2.212  12.494  0.00  0.00    -0.082 Cl
ATOM     19  C14 ZIN A   1      19.014   2.235   8.721  0.00  0.00     0.028 A 
ATOM     20 Cl16 ZIN A   1      17.859   4.237  10.128  0.00  0.00    -0.083 Cl
ATOM     21  C13 ZIN A   1      19.496   0.950   8.560  0.00  0.00     0.031 A 
ENDBRANCH   4  14
TORSDOF 2
ENDMDL
