MODEL 1
REMARK VINA RESULT:      -8.6      0.000      0.000
REMARK  8 active torsions:
REMARK  status: ('A' for Active; 'I' for Inactive)
REMARK    1  A    between atoms: C2_2  and  N4_4 
REMARK    2  A    between atoms: N7_7  and  C8_8 
REMARK    3  A    between atoms: C11_11  and  O12_12 
REMARK    4  A    between atoms: O12_12  and  C13_13 
REMARK    5  A    between atoms: C13_13  and  C14_14 
REMARK    6  A    between atoms: C18_17  and  C19_18 
REMARK    7  A    between atoms: C18_17  and  C25_24 
REMARK    8  A    between atoms: C19_18  and  N20_19 
ROOT
ATOM      1  C14 ZIN A   1      18.574  -4.213   6.752  0.00  0.00     0.173 C 
ATOM      2  C16 ZIN A   1      19.504  -5.448   6.670  0.00  0.00     0.206 C 
ATOM      3  O17 ZIN A   1      18.610  -6.516   7.065  0.00  0.00    -0.347 OA
ATOM      4  C18 ZIN A   1      17.766  -5.935   8.072  0.00  0.00     0.213 C 
ATOM      5  O33 ZIN A   1      17.726  -4.512   7.880  0.00  0.00    -0.340 OA
ENDROOT
BRANCH   1   6
ATOM      6  C13 ZIN A   1      19.385  -2.941   7.009  0.00  0.00     0.209 C 
BRANCH   6   7
ATOM      7  O12 ZIN A   1      18.626  -1.802   6.600  0.00  0.00    -0.349 OA
BRANCH   7   8
ATOM      8  C11 ZIN A   1      18.419  -0.831   7.531  0.00  0.00     0.069 A 
ATOM      9  C10 ZIN A   1      17.647  -1.098   8.651  0.00  0.00     0.038 A 
ATOM     10  C9  ZIN A   1      17.436  -0.114   9.596  0.00  0.00     0.026 A 
ATOM     11  C8  ZIN A   1      17.998   1.144   9.425  0.00  0.00     0.010 A 
ATOM     12  C35 ZIN A   1      18.767   1.413   8.300  0.00  0.00     0.026 A 
ATOM     13  C34 ZIN A   1      18.981   0.425   7.358  0.00  0.00     0.038 A 
BRANCH  11  14
ATOM     14  N7  ZIN A   1      17.784   2.143  10.381  0.00  0.00    -0.280 NA
ATOM     15  C6  ZIN A   1      18.347   3.426   9.940  0.00  0.00     0.126 C 
ATOM     16  C5  ZIN A   1      18.022   4.506  10.974  0.00  0.00     0.287 C 
ATOM     17  N4  ZIN A   1      18.573   4.113  12.279  0.00  0.00     0.094 N 
ATOM     18  C37 ZIN A   1      18.010   2.830  12.721  0.00  0.00     0.287 C 
ATOM     19  C36 ZIN A   1      18.335   1.750  11.686  0.00  0.00     0.126 C 
BRANCH  17  20
ATOM     20  C2  ZIN A   1      18.348   5.161  13.283  0.00  0.00     0.215 C 
ATOM     21  C1  ZIN A   1      17.320   4.675  14.306  0.00  0.00     0.042 C 
ATOM     22  C3  ZIN A   1      19.666   5.478  13.995  0.00  0.00     0.042 C 
ENDBRANCH  17  20
ENDBRANCH  11  14
ENDBRANCH   7   8
ENDBRANCH   6   7
ENDBRANCH   1   6
BRANCH   4  23
ATOM     23  C19 ZIN A   1      18.328  -6.253   9.460  0.00  0.00     0.226 C 
BRANCH  23  24
ATOM     24  N20 ZIN A   1      18.316  -5.040  10.281  0.00  0.00    -0.257 N 
ATOM     25  N24 ZIN A   1      17.210  -4.482  10.944  0.00  0.00    -0.165 NA
ATOM     26  C23 ZIN A   1      17.638  -3.411  11.558  0.00  0.00     0.256 A 
ATOM     27  N22 ZIN A   1      18.939  -3.262  11.312  0.00  0.00    -0.234 NA
ATOM     28  C21 ZIN A   1      19.360  -4.236  10.545  0.00  0.00     0.230 A 
ENDBRANCH  23  24
ENDBRANCH   4  23
BRANCH   4  29
ATOM     29  C25 ZIN A   1      16.373  -6.495   7.950  0.00  0.00     0.027 A 
ATOM     30  C31 ZIN A   1      16.187  -7.811   7.564  0.00  0.00     0.047 A 
ATOM     31  C30 ZIN A   1      14.908  -8.326   7.457  0.00  0.00     0.048 A 
ATOM     32 Cl32 ZIN A   1      17.561  -8.817   7.224  0.00  0.00    -0.084 Cl
ATOM     33  C28 ZIN A   1      13.814  -7.523   7.727  0.00  0.00     0.035 A 
ATOM     34  C27 ZIN A   1      14.000  -6.207   8.108  0.00  0.00     0.024 A 
ATOM     35 Cl29 ZIN A   1      12.209  -8.168   7.586  0.00  0.00    -0.084 Cl
ATOM     36  C26 ZIN A   1      15.280  -5.693   8.219  0.00  0.00     0.016 A 
ENDBRANCH   4  29
TORSDOF 8
ENDMDL
MODEL 2
REMARK VINA RESULT:      -8.3      1.443      1.696
REMARK  8 active torsions:
REMARK  status: ('A' for Active; 'I' for Inactive)
REMARK    1  A    between atoms: C2_2  and  N4_4 
REMARK    2  A    between atoms: N7_7  and  C8_8 
REMARK    3  A    between atoms: C11_11  and  O12_12 
REMARK    4  A    between atoms: O12_12  and  C13_13 
REMARK    5  A    between atoms: C13_13  and  C14_14 
REMARK    6  A    between atoms: C18_17  and  C19_18 
REMARK    7  A    between atoms: C18_17  and  C25_24 
REMARK    8  A    between atoms: C19_18  and  N20_19 
ROOT
ATOM      1  C14 ZIN A   1      18.959  -2.939   7.160  0.00  0.00     0.173 C 
ATOM      2  C16 ZIN A   1      19.980  -4.095   7.035  0.00  0.00     0.206 C 
ATOM      3  O17 ZIN A   1      19.118  -5.256   7.092  0.00  0.00    -0.347 OA
ATOM      4  C18 ZIN A   1      18.083  -4.900   8.022  0.00  0.00     0.213 C 
ATOM      5  O33 ZIN A   1      17.967  -3.470   8.062  0.00  0.00    -0.340 OA
ENDROOT
BRANCH   1   6
ATOM      6  C13 ZIN A   1      19.620  -1.694   7.755  0.00  0.00     0.209 C 
BRANCH   6   7
ATOM      7  O12 ZIN A   1      18.891  -0.531   7.358  0.00  0.00    -0.349 OA
BRANCH   7   8
ATOM      8  C11 ZIN A   1      18.506   0.324   8.344  0.00  0.00     0.069 A 
ATOM      9  C10 ZIN A   1      17.663  -0.116   9.353  0.00  0.00     0.038 A 
ATOM     10  C9  ZIN A   1      17.272   0.750  10.354  0.00  0.00     0.026 A 
ATOM     11  C8  ZIN A   1      17.724   2.064  10.351  0.00  0.00     0.010 A 
ATOM     12  C35 ZIN A   1      18.564   2.505   9.337  0.00  0.00     0.026 A 
ATOM     13  C34 ZIN A   1      18.958   1.635   8.339  0.00  0.00     0.038 A 
BRANCH  11  14
ATOM     14  N7  ZIN A   1      17.327   2.943  11.364  0.00  0.00    -0.280 NA
ATOM     15  C6  ZIN A   1      17.179   4.311  10.848  0.00  0.00     0.126 C 
ATOM     16  C5  ZIN A   1      16.667   5.223  11.965  0.00  0.00     0.287 C 
ATOM     17  N4  ZIN A   1      17.610   5.187  13.094  0.00  0.00     0.094 N 
ATOM     18  C37 ZIN A   1      17.756   3.819  13.610  0.00  0.00     0.287 C 
ATOM     19  C36 ZIN A   1      18.268   2.907  12.492  0.00  0.00     0.126 C 
BRANCH  17  20
ATOM     20  C2  ZIN A   1      17.192   6.109  14.157  0.00  0.00     0.215 C 
ATOM     21  C1  ZIN A   1      15.694   5.944  14.417  0.00  0.00     0.042 C 
ATOM     22  C3  ZIN A   1      17.970   5.796  15.439  0.00  0.00     0.042 C 
ENDBRANCH  17  20
ENDBRANCH  11  14
ENDBRANCH   7   8
ENDBRANCH   6   7
ENDBRANCH   1   6
BRANCH   4  23
ATOM     23  C19 ZIN A   1      18.438  -5.429   9.414  0.00  0.00     0.226 C 
BRANCH  23  24
ATOM     24  N20 ZIN A   1      18.447  -4.319  10.370  0.00  0.00    -0.257 N 
ATOM     25  N24 ZIN A   1      19.566  -3.583  10.795  0.00  0.00    -0.165 NA
ATOM     26  C23 ZIN A   1      19.130  -2.690  11.644  0.00  0.00     0.256 A 
ATOM     27  N22 ZIN A   1      17.812  -2.830  11.781  0.00  0.00    -0.234 NA
ATOM     28  C21 ZIN A   1      17.388  -3.806  11.020  0.00  0.00     0.230 A 
ENDBRANCH  23  24
ENDBRANCH   4  23
BRANCH   4  29
ATOM     29  C25 ZIN A   1      16.773  -5.496   7.575  0.00  0.00     0.027 A 
ATOM     30  C31 ZIN A   1      16.562  -5.778   6.236  0.00  0.00     0.047 A 
ATOM     31  C30 ZIN A   1      15.362  -6.329   5.826  0.00  0.00     0.048 A 
ATOM     32 Cl32 ZIN A   1      17.810  -5.450   5.074  0.00  0.00    -0.084 Cl
ATOM     33  C28 ZIN A   1      14.368  -6.589   6.753  0.00  0.00     0.035 A 
ATOM     34  C27 ZIN A   1      14.577  -6.302   8.090  0.00  0.00     0.024 A 
ATOM     35 Cl29 ZIN A   1      12.859  -7.275   6.238  0.00  0.00    -0.084 Cl
ATOM     36  C26 ZIN A   1      15.780  -5.755   8.500  0.00  0.00     0.016 A 
ENDBRANCH   4  29
TORSDOF 8
ENDMDL
MODEL 3
REMARK VINA RESULT:      -8.3      5.968     10.643
REMARK  8 active torsions:
REMARK  status: ('A' for Active; 'I' for Inactive)
REMARK    1  A    between atoms: C2_2  and  N4_4 
REMARK    2  A    between atoms: N7_7  and  C8_8 
REMARK    3  A    between atoms: C11_11  and  O12_12 
REMARK    4  A    between atoms: O12_12  and  C13_13 
REMARK    5  A    between atoms: C13_13  and  C14_14 
REMARK    6  A    between atoms: C18_17  and  C19_18 
REMARK    7  A    between atoms: C18_17  and  C25_24 
REMARK    8  A    between atoms: C19_18  and  N20_19 
ROOT
ATOM      1  C14 ZIN A   1      17.997   1.979  15.789  0.00  0.00     0.173 C 
ATOM      2  C16 ZIN A   1      19.494   2.272  16.056  0.00  0.00     0.206 C 
ATOM      3  O17 ZIN A   1      19.576   3.685  15.753  0.00  0.00    -0.347 OA
ATOM      4  C18 ZIN A   1      18.676   3.878  14.650  0.00  0.00     0.213 C 
ATOM      5  O33 ZIN A   1      17.687   2.836  14.671  0.00  0.00    -0.340 OA
ENDROOT
BRANCH   1   6
ATOM      6  C13 ZIN A   1      17.791   0.509  15.418  0.00  0.00     0.209 C 
BRANCH   6   7
ATOM      7  O12 ZIN A   1      19.006  -0.023  14.886  0.00  0.00    -0.349 OA
BRANCH   7   8
ATOM      8  C11 ZIN A   1      19.086  -0.148  13.534  0.00  0.00     0.069 A 
ATOM      9  C10 ZIN A   1      18.034  -0.710  12.826  0.00  0.00     0.038 A 
ATOM     10  C9  ZIN A   1      18.114  -0.837  11.454  0.00  0.00     0.026 A 
ATOM     11  C8  ZIN A   1      19.249  -0.403  10.781  0.00  0.00     0.010 A 
ATOM     12  C35 ZIN A   1      20.305   0.154  11.491  0.00  0.00     0.026 A 
ATOM     13  C34 ZIN A   1      20.220   0.285  12.864  0.00  0.00     0.038 A 
BRANCH  11  14
ATOM     14  N7  ZIN A   1      19.332  -0.534   9.391  0.00  0.00    -0.280 NA
ATOM     15  C6  ZIN A   1      18.443   0.424   8.717  0.00  0.00     0.126 C 
ATOM     16  C5  ZIN A   1      18.623   0.304   7.202  0.00  0.00     0.287 C 
ATOM     17  N4  ZIN A   1      18.323  -1.073   6.783  0.00  0.00     0.094 N 
ATOM     18  C37 ZIN A   1      19.213  -2.030   7.456  0.00  0.00     0.287 C 
ATOM     19  C36 ZIN A   1      19.033  -1.911   8.972  0.00  0.00     0.126 C 
BRANCH  17  20
ATOM     20  C2  ZIN A   1      18.411  -1.210   5.324  0.00  0.00     0.215 C 
ATOM     21  C1  ZIN A   1      19.275  -0.082   4.756  0.00  0.00     0.042 C 
ATOM     22  C3  ZIN A   1      19.041  -2.561   4.974  0.00  0.00     0.042 C 
ENDBRANCH  17  20
ENDBRANCH  11  14
ENDBRANCH   7   8
ENDBRANCH   6   7
ENDBRANCH   1   6
BRANCH   4  23
ATOM     23  C19 ZIN A   1      19.455   3.824  13.334  0.00  0.00     0.226 C 
BRANCH  23  24
ATOM     24  N20 ZIN A   1      18.519   3.880  12.209  0.00  0.00    -0.257 N 
ATOM     25  N24 ZIN A   1      18.224   5.000  11.414  0.00  0.00    -0.165 NA
ATOM     26  C23 ZIN A   1      17.344   4.614  10.529  0.00  0.00     0.256 A 
ATOM     27  N22 ZIN A   1      17.065   3.327  10.729  0.00  0.00    -0.234 NA
ATOM     28  C21 ZIN A   1      17.765   2.873  11.737  0.00  0.00     0.230 A 
ENDBRANCH  23  24
ENDBRANCH   4  23
BRANCH   4  29
ATOM     29  C25 ZIN A   1      17.994   5.215  14.780  0.00  0.00     0.027 A 
ATOM     30  C31 ZIN A   1      18.750   6.366  14.924  0.00  0.00     0.047 A 
ATOM     31  C30 ZIN A   1      18.124   7.594  15.038  0.00  0.00     0.048 A 
ATOM     32 Cl32 ZIN A   1      20.483   6.268  14.950  0.00  0.00    -0.084 Cl
ATOM     33  C28 ZIN A   1      16.743   7.671  15.018  0.00  0.00     0.035 A 
ATOM     34  C27 ZIN A   1      15.988   6.520  14.879  0.00  0.00     0.024 A 
ATOM     35 Cl29 ZIN A   1      15.957   9.212  15.167  0.00  0.00    -0.084 Cl
ATOM     36  C26 ZIN A   1      16.615   5.293  14.761  0.00  0.00     0.016 A 
ENDBRANCH   4  29
TORSDOF 8
ENDMDL
MODEL 4
REMARK VINA RESULT:      -8.3      4.058      6.538
REMARK  8 active torsions:
REMARK  status: ('A' for Active; 'I' for Inactive)
REMARK    1  A    between atoms: C2_2  and  N4_4 
REMARK    2  A    between atoms: N7_7  and  C8_8 
REMARK    3  A    between atoms: C11_11  and  O12_12 
REMARK    4  A    between atoms: O12_12  and  C13_13 
REMARK    5  A    between atoms: C13_13  and  C14_14 
REMARK    6  A    between atoms: C18_17  and  C19_18 
REMARK    7  A    between atoms: C18_17  and  C25_24 
REMARK    8  A    between atoms: C19_18  and  N20_19 
ROOT
ATOM      1  C14 ZIN A   1      18.732   0.270  10.418  0.00  0.00     0.173 C 
ATOM      2  C16 ZIN A   1      17.813  -0.936  10.107  0.00  0.00     0.206 C 
ATOM      3  O17 ZIN A   1      17.642  -1.522  11.420  0.00  0.00    -0.347 OA
ATOM      4  C18 ZIN A   1      18.911  -1.342  12.070  0.00  0.00     0.213 C 
ATOM      5  O33 ZIN A   1      19.587  -0.228  11.467  0.00  0.00    -0.340 OA
ENDROOT
BRANCH   1   6
ATOM      6  C13 ZIN A   1      19.554   0.655   9.187  0.00  0.00     0.209 C 
BRANCH   6   7
ATOM      7  O12 ZIN A   1      19.501   2.071   9.002  0.00  0.00    -0.349 OA
BRANCH   7   8
ATOM      8  C11 ZIN A   1      19.071   2.816  10.055  0.00  0.00     0.069 A 
ATOM      9  C10 ZIN A   1      19.908   3.034  11.139  0.00  0.00     0.038 A 
ATOM     10  C9  ZIN A   1      19.471   3.790  12.208  0.00  0.00     0.026 A 
ATOM     11  C8  ZIN A   1      18.193   4.334  12.199  0.00  0.00     0.010 A 
ATOM     12  C35 ZIN A   1      17.353   4.111  11.115  0.00  0.00     0.026 A 
ATOM     13  C34 ZIN A   1      17.794   3.358  10.044  0.00  0.00     0.038 A 
BRANCH  11  14
ATOM     14  N7  ZIN A   1      17.750   5.099  13.283  0.00  0.00    -0.280 NA
ATOM     15  C6  ZIN A   1      17.866   4.348  14.541  0.00  0.00     0.126 C 
ATOM     16  C5  ZIN A   1      17.449   5.246  15.708  0.00  0.00     0.287 C 
ATOM     17  N4  ZIN A   1      16.069   5.709  15.498  0.00  0.00     0.094 N 
ATOM     18  C37 ZIN A   1      15.954   6.460  14.240  0.00  0.00     0.287 C 
ATOM     19  C36 ZIN A   1      16.371   5.562  13.073  0.00  0.00     0.126 C 
BRANCH  17  20
ATOM     20  C2  ZIN A   1      15.605   6.512  16.636  0.00  0.00     0.215 C 
ATOM     21  C1  ZIN A   1      14.081   6.638  16.584  0.00  0.00     0.042 C 
ATOM     22  C3  ZIN A   1      16.016   5.830  17.944  0.00  0.00     0.042 C 
ENDBRANCH  17  20
ENDBRANCH  11  14
ENDBRANCH   7   8
ENDBRANCH   6   7
ENDBRANCH   1   6
BRANCH   4  23
ATOM     23  C19 ZIN A   1      19.756  -2.608  11.909  0.00  0.00     0.226 C 
BRANCH  23  24
ATOM     24  N20 ZIN A   1      18.899  -3.715  11.477  0.00  0.00    -0.257 N 
ATOM     25  N24 ZIN A   1      17.836  -4.287  12.196  0.00  0.00    -0.165 NA
ATOM     26  C23 ZIN A   1      17.344  -5.239  11.449  0.00  0.00     0.256 A 
ATOM     27  N22 ZIN A   1      18.039  -5.302  10.314  0.00  0.00    -0.234 NA
ATOM     28  C21 ZIN A   1      18.978  -4.390  10.318  0.00  0.00     0.230 A 
ENDBRANCH  23  24
ENDBRANCH   4  23
BRANCH   4  29
ATOM     29  C25 ZIN A   1      18.694  -1.062  13.535  0.00  0.00     0.027 A 
ATOM     30  C31 ZIN A   1      17.809  -0.073  13.927  0.00  0.00     0.047 A 
ATOM     31  C30 ZIN A   1      17.606   0.180  15.271  0.00  0.00     0.048 A 
ATOM     32 Cl32 ZIN A   1      16.944   0.841  12.730  0.00  0.00    -0.084 Cl
ATOM     33  C28 ZIN A   1      18.296  -0.548  16.224  0.00  0.00     0.035 A 
ATOM     34  C27 ZIN A   1      19.185  -1.533  15.832  0.00  0.00     0.024 A 
ATOM     35 Cl29 ZIN A   1      18.047  -0.226  17.911  0.00  0.00    -0.084 Cl
ATOM     36  C26 ZIN A   1      19.383  -1.788  14.487  0.00  0.00     0.016 A 
ENDBRANCH   4  29
TORSDOF 8
ENDMDL
MODEL 5
REMARK VINA RESULT:      -8.2      2.508      3.116
REMARK  8 active torsions:
REMARK  status: ('A' for Active; 'I' for Inactive)
REMARK    1  A    between atoms: C2_2  and  N4_4 
REMARK    2  A    between atoms: N7_7  and  C8_8 
REMARK    3  A    between atoms: C11_11  and  O12_12 
REMARK    4  A    between atoms: O12_12  and  C13_13 
REMARK    5  A    between atoms: C13_13  and  C14_14 
REMARK    6  A    between atoms: C18_17  and  C19_18 
REMARK    7  A    between atoms: C18_17  and  C25_24 
REMARK    8  A    between atoms: C19_18  and  N20_19 
ROOT
ATOM      1  C14 ZIN A   1      18.597  -2.563   7.485  0.00  0.00     0.173 C 
ATOM      2  C16 ZIN A   1      19.710  -3.508   6.971  0.00  0.00     0.206 C 
ATOM      3  O17 ZIN A   1      19.041  -4.792   6.995  0.00  0.00    -0.347 OA
ATOM      4  C18 ZIN A   1      18.194  -4.743   8.155  0.00  0.00     0.213 C 
ATOM      5  O33 ZIN A   1      17.903  -3.370   8.459  0.00  0.00    -0.340 OA
ENDROOT
BRANCH   1   6
ATOM      6  C13 ZIN A   1      19.202  -1.323   8.144  0.00  0.00     0.209 C 
BRANCH   6   7
ATOM      7  O12 ZIN A   1      18.154  -0.458   8.587  0.00  0.00    -0.349 OA
BRANCH   7   8
ATOM      8  C11 ZIN A   1      18.136  -0.134   9.908  0.00  0.00     0.069 A 
ATOM      9  C10 ZIN A   1      19.292   0.315  10.527  0.00  0.00     0.038 A 
ATOM     10  C9  ZIN A   1      19.275   0.644  11.868  0.00  0.00     0.026 A 
ATOM     11  C8  ZIN A   1      18.098   0.525  12.597  0.00  0.00     0.010 A 
ATOM     12  C35 ZIN A   1      16.942   0.070  11.977  0.00  0.00     0.026 A 
ATOM     13  C34 ZIN A   1      16.961  -0.254  10.634  0.00  0.00     0.038 A 
BRANCH  11  14
ATOM     14  N7  ZIN A   1      18.080   0.857  13.956  0.00  0.00    -0.280 NA
ATOM     15  C6  ZIN A   1      19.100   1.869  14.265  0.00  0.00     0.126 C 
ATOM     16  C5  ZIN A   1      18.994   2.263  15.740  0.00  0.00     0.287 C 
ATOM     17  N4  ZIN A   1      19.171   1.067  16.578  0.00  0.00     0.094 N 
ATOM     18  C37 ZIN A   1      18.151   0.055  16.268  0.00  0.00     0.287 C 
ATOM     19  C36 ZIN A   1      18.257  -0.338  14.793  0.00  0.00     0.126 C 
BRANCH  17  20
ATOM     20  C2  ZIN A   1      19.152   1.416  18.004  0.00  0.00     0.215 C 
ATOM     21  C1  ZIN A   1      18.871   2.911  18.160  0.00  0.00     0.042 C 
ATOM     22  C3  ZIN A   1      18.055   0.614  18.710  0.00  0.00     0.042 C 
ENDBRANCH  17  20
ENDBRANCH  11  14
ENDBRANCH   7   8
ENDBRANCH   6   7
ENDBRANCH   1   6
BRANCH   4  23
ATOM     23  C19 ZIN A   1      18.909  -5.394   9.341  0.00  0.00     0.226 C 
BRANCH  23  24
ATOM     24  N20 ZIN A   1      18.894  -4.477  10.484  0.00  0.00    -0.257 N 
ATOM     25  N24 ZIN A   1      17.818  -4.231  11.352  0.00  0.00    -0.165 NA
ATOM     26  C23 ZIN A   1      18.231  -3.352  12.226  0.00  0.00     0.256 A 
ATOM     27  N22 ZIN A   1      19.495  -3.029  11.951  0.00  0.00    -0.234 NA
ATOM     28  C21 ZIN A   1      19.906  -3.699  10.905  0.00  0.00     0.230 A 
ENDBRANCH  23  24
ENDBRANCH   4  23
BRANCH   4  29
ATOM     29  C25 ZIN A   1      16.908  -5.477   7.875  0.00  0.00     0.027 A 
ATOM     30  C31 ZIN A   1      16.798  -6.275   6.750  0.00  0.00     0.047 A 
ATOM     31  C30 ZIN A   1      15.619  -6.953   6.495  0.00  0.00     0.048 A 
ATOM     32 Cl32 ZIN A   1      18.143  -6.434   5.664  0.00  0.00    -0.084 Cl
ATOM     33  C28 ZIN A   1      14.547  -6.824   7.361  0.00  0.00     0.035 A 
ATOM     34  C27 ZIN A   1      14.656  -6.022   8.483  0.00  0.00     0.024 A 
ATOM     35 Cl29 ZIN A   1      13.066  -7.669   7.039  0.00  0.00    -0.084 Cl
ATOM     36  C26 ZIN A   1      15.837  -5.349   8.738  0.00  0.00     0.016 A 
ENDBRANCH   4  29
TORSDOF 8
ENDMDL
MODEL 6
REMARK VINA RESULT:      -8.1      3.146      8.900
REMARK  8 active torsions:
REMARK  status: ('A' for Active; 'I' for Inactive)
REMARK    1  A    between atoms: C2_2  and  N4_4 
REMARK    2  A    between atoms: N7_7  and  C8_8 
REMARK    3  A    between atoms: C11_11  and  O12_12 
REMARK    4  A    between atoms: O12_12  and  C13_13 
REMARK    5  A    between atoms: C13_13  and  C14_14 
REMARK    6  A    between atoms: C18_17  and  C19_18 
REMARK    7  A    between atoms: C18_17  and  C25_24 
REMARK    8  A    between atoms: C19_18  and  N20_19 
ROOT
ATOM      1  C14 ZIN A   1      18.413  -0.261  12.038  0.00  0.00     0.173 C 
ATOM      2  C16 ZIN A   1      17.366   0.859  12.249  0.00  0.00     0.206 C 
ATOM      3  O17 ZIN A   1      17.272   1.428  10.921  0.00  0.00    -0.347 OA
ATOM      4  C18 ZIN A   1      18.609   1.361  10.398  0.00  0.00     0.213 C 
ATOM      5  O33 ZIN A   1      19.319   0.311  11.072  0.00  0.00    -0.340 OA
ENDROOT
BRANCH   1   6
ATOM      6  C13 ZIN A   1      19.143  -0.572  13.346  0.00  0.00     0.209 C 
BRANCH   6   7
ATOM      7  O12 ZIN A   1      19.576  -1.934  13.337  0.00  0.00    -0.349 OA
BRANCH   7   8
ATOM      8  C11 ZIN A   1      19.087  -2.732  12.350  0.00  0.00     0.069 A 
ATOM      9  C10 ZIN A   1      19.904  -3.109  11.295  0.00  0.00     0.038 A 
ATOM     10  C9  ZIN A   1      19.408  -3.919  10.292  0.00  0.00     0.026 A 
ATOM     11  C8  ZIN A   1      18.091  -4.356  10.341  0.00  0.00     0.010 A 
ATOM     12  C35 ZIN A   1      17.272  -3.973  11.395  0.00  0.00     0.026 A 
ATOM     13  C34 ZIN A   1      17.772  -3.167  12.399  0.00  0.00     0.038 A 
BRANCH  11  14
ATOM     14  N7  ZIN A   1      17.587  -5.176   9.324  0.00  0.00    -0.280 NA
ATOM     15  C6  ZIN A   1      17.873  -4.608   7.999  0.00  0.00     0.126 C 
ATOM     16  C5  ZIN A   1      17.379  -5.571   6.917  0.00  0.00     0.287 C 
ATOM     17  N4  ZIN A   1      15.937  -5.801   7.090  0.00  0.00     0.094 N 
ATOM     18  C37 ZIN A   1      15.652  -6.369   8.415  0.00  0.00     0.287 C 
ATOM     19  C36 ZIN A   1      16.146  -5.406   9.497  0.00  0.00     0.126 C 
BRANCH  17  20
ATOM     20  C2  ZIN A   1      15.409  -6.661   6.023  0.00  0.00     0.215 C 
ATOM     21  C1  ZIN A   1      13.908  -6.413   5.863  0.00  0.00     0.042 C 
ATOM     22  C3  ZIN A   1      16.123  -6.338   4.708  0.00  0.00     0.042 C 
ENDBRANCH  17  20
ENDBRANCH  11  14
ENDBRANCH   7   8
ENDBRANCH   6   7
ENDBRANCH   1   6
BRANCH   4  23
ATOM     23  C19 ZIN A   1      19.320   2.697  10.629  0.00  0.00     0.226 C 
BRANCH  23  24
ATOM     24  N20 ZIN A   1      18.329   3.729  10.947  0.00  0.00    -0.257 N 
ATOM     25  N24 ZIN A   1      17.951   4.167  12.227  0.00  0.00    -0.165 NA
ATOM     26  C23 ZIN A   1      17.046   5.094  12.057  0.00  0.00     0.256 A 
ATOM     27  N22 ZIN A   1      16.831   5.255  10.752  0.00  0.00    -0.234 NA
ATOM     28  C21 ZIN A   1      17.597   4.439  10.073  0.00  0.00     0.230 A 
ENDBRANCH  23  24
ENDBRANCH   4  23
BRANCH   4  29
ATOM     29  C25 ZIN A   1      18.560   1.064   8.921  0.00  0.00     0.027 A 
ATOM     30  C31 ZIN A   1      17.801   0.005   8.453  0.00  0.00     0.047 A 
ATOM     31  C30 ZIN A   1      17.752  -0.264   7.097  0.00  0.00     0.048 A 
ATOM     32 Cl32 ZIN A   1      16.901  -0.976   9.567  0.00  0.00    -0.084 Cl
ATOM     33  C28 ZIN A   1      18.471   0.518   6.211  0.00  0.00     0.035 A 
ATOM     34  C27 ZIN A   1      19.233   1.573   6.679  0.00  0.00     0.024 A 
ATOM     35 Cl29 ZIN A   1      18.415   0.176   4.510  0.00  0.00    -0.084 Cl
ATOM     36  C26 ZIN A   1      19.278   1.844   8.035  0.00  0.00     0.016 A 
ENDBRANCH   4  29
TORSDOF 8
ENDMDL
MODEL 7
REMARK VINA RESULT:      -8.1      4.740      9.347
REMARK  8 active torsions:
REMARK  status: ('A' for Active; 'I' for Inactive)
REMARK    1  A    between atoms: C2_2  and  N4_4 
REMARK    2  A    between atoms: N7_7  and  C8_8 
REMARK    3  A    between atoms: C11_11  and  O12_12 
REMARK    4  A    between atoms: O12_12  and  C13_13 
REMARK    5  A    between atoms: C13_13  and  C14_14 
REMARK    6  A    between atoms: C18_17  and  C19_18 
REMARK    7  A    between atoms: C18_17  and  C25_24 
REMARK    8  A    between atoms: C19_18  and  N20_19 
ROOT
ATOM      1  C14 ZIN A   1      19.286   0.715  10.601  0.00  0.00     0.173 C 
ATOM      2  C16 ZIN A   1      17.763   0.962  10.468  0.00  0.00     0.206 C 
ATOM      3  O17 ZIN A   1      17.316   0.775  11.832  0.00  0.00    -0.347 OA
ATOM      4  C18 ZIN A   1      18.141  -0.282  12.348  0.00  0.00     0.213 C 
ATOM      5  O33 ZIN A   1      19.367  -0.319  11.602  0.00  0.00    -0.340 OA
ENDROOT
BRANCH   1   6
ATOM      6  C13 ZIN A   1      19.872   0.230   9.273  0.00  0.00     0.209 C 
BRANCH   6   7
ATOM      7  O12 ZIN A   1      18.999   0.597   8.204  0.00  0.00    -0.349 OA
BRANCH   7   8
ATOM      8  C11 ZIN A   1      18.729  -0.356   7.272  0.00  0.00     0.069 A 
ATOM      9  C10 ZIN A   1      17.880  -0.070   6.214  0.00  0.00     0.038 A 
ATOM     10  C9  ZIN A   1      17.605  -1.037   5.267  0.00  0.00     0.026 A 
ATOM     11  C8  ZIN A   1      18.179  -2.297   5.375  0.00  0.00     0.010 A 
ATOM     12  C35 ZIN A   1      19.025  -2.584   6.438  0.00  0.00     0.026 A 
ATOM     13  C34 ZIN A   1      19.303  -1.614   7.381  0.00  0.00     0.038 A 
BRANCH  11  14
ATOM     14  N7  ZIN A   1      17.900  -3.278   4.417  0.00  0.00    -0.280 NA
ATOM     15  C6  ZIN A   1      16.639  -2.990   3.719  0.00  0.00     0.126 C 
ATOM     16  C5  ZIN A   1      16.411  -4.038   2.628  0.00  0.00     0.287 C 
ATOM     17  N4  ZIN A   1      16.380  -5.376   3.236  0.00  0.00     0.094 N 
ATOM     18  C37 ZIN A   1      17.641  -5.664   3.933  0.00  0.00     0.287 C 
ATOM     19  C36 ZIN A   1      17.869  -4.615   5.025  0.00  0.00     0.126 C 
BRANCH  17  20
ATOM     20  C2  ZIN A   1      16.087  -6.405   2.230  0.00  0.00     0.215 C 
ATOM     21  C1  ZIN A   1      16.938  -6.157   0.984  0.00  0.00     0.042 C 
ATOM     22  C3  ZIN A   1      16.414  -7.787   2.804  0.00  0.00     0.042 C 
ENDBRANCH  17  20
ENDBRANCH  11  14
ENDBRANCH   7   8
ENDBRANCH   6   7
ENDBRANCH   1   6
BRANCH   4  23
ATOM     23  C19 ZIN A   1      17.410  -1.620  12.208  0.00  0.00     0.226 C 
BRANCH  23  24
ATOM     24  N20 ZIN A   1      18.293  -2.593  11.560  0.00  0.00    -0.257 N 
ATOM     25  N24 ZIN A   1      19.465  -3.153  12.095  0.00  0.00    -0.165 NA
ATOM     26  C23 ZIN A   1      19.940  -3.970  11.192  0.00  0.00     0.256 A 
ATOM     27  N22 ZIN A   1      19.142  -3.947  10.125  0.00  0.00    -0.234 NA
ATOM     28  C21 ZIN A   1      18.147  -3.122  10.334  0.00  0.00     0.230 A 
ENDBRANCH  23  24
ENDBRANCH   4  23
BRANCH   4  29
ATOM     29  C25 ZIN A   1      18.447  -0.023  13.801  0.00  0.00     0.027 A 
ATOM     30  C31 ZIN A   1      18.815   1.245  14.215  0.00  0.00     0.047 A 
ATOM     31  C30 ZIN A   1      19.091   1.484  15.549  0.00  0.00     0.048 A 
ATOM     32 Cl32 ZIN A   1      18.920   2.538  13.060  0.00  0.00    -0.084 Cl
ATOM     33  C28 ZIN A   1      19.008   0.452  16.467  0.00  0.00     0.035 A 
ATOM     34  C27 ZIN A   1      18.645  -0.816  16.052  0.00  0.00     0.024 A 
ATOM     35 Cl29 ZIN A   1      19.361   0.750  18.141  0.00  0.00    -0.084 Cl
ATOM     36  C26 ZIN A   1      18.365  -1.053  14.719  0.00  0.00     0.016 A 
ENDBRANCH   4  29
TORSDOF 8
ENDMDL
MODEL 8
REMARK VINA RESULT:      -7.8      4.303     10.372
REMARK  8 active torsions:
REMARK  status: ('A' for Active; 'I' for Inactive)
REMARK    1  A    between atoms: C2_2  and  N4_4 
REMARK    2  A    between atoms: N7_7  and  C8_8 
REMARK    3  A    between atoms: C11_11  and  O12_12 
REMARK    4  A    between atoms: O12_12  and  C13_13 
REMARK    5  A    between atoms: C13_13  and  C14_14 
REMARK    6  A    between atoms: C18_17  and  C19_18 
REMARK    7  A    between atoms: C18_17  and  C25_24 
REMARK    8  A    between atoms: C19_18  and  N20_19 
ROOT
ATOM      1  C14 ZIN A   1      19.672  -0.798  12.785  0.00  0.00     0.173 C 
ATOM      2  C16 ZIN A   1      20.126  -0.615  11.316  0.00  0.00     0.206 C 
ATOM      3  O17 ZIN A   1      20.018   0.819  11.151  0.00  0.00    -0.347 OA
ATOM      4  C18 ZIN A   1      18.862   1.191  11.919  0.00  0.00     0.213 C 
ATOM      5  O33 ZIN A   1      18.647   0.205  12.941  0.00  0.00    -0.340 OA
ENDROOT
BRANCH   1   6
ATOM      6  C13 ZIN A   1      19.096  -2.198  13.003  0.00  0.00     0.209 C 
BRANCH   6   7
ATOM      7  O12 ZIN A   1      19.772  -3.128  12.154  0.00  0.00    -0.349 OA
BRANCH   7   8
ATOM      8  C11 ZIN A   1      18.995  -3.961  11.408  0.00  0.00     0.069 A 
ATOM      9  C10 ZIN A   1      17.658  -4.133  11.728  0.00  0.00     0.038 A 
ATOM     10  C9  ZIN A   1      16.869  -4.978  10.972  0.00  0.00     0.026 A 
ATOM     11  C8  ZIN A   1      17.417  -5.654   9.889  0.00  0.00     0.010 A 
ATOM     12  C35 ZIN A   1      18.758  -5.485   9.573  0.00  0.00     0.026 A 
ATOM     13  C34 ZIN A   1      19.543  -4.635  10.328  0.00  0.00     0.038 A 
BRANCH  11  14
ATOM     14  N7  ZIN A   1      16.618  -6.511   9.123  0.00  0.00    -0.280 NA
ATOM     15  C6  ZIN A   1      17.420  -7.217   8.115  0.00  0.00     0.126 C 
ATOM     16  C5  ZIN A   1      16.528  -8.201   7.354  0.00  0.00     0.287 C 
ATOM     17  N4  ZIN A   1      15.420  -7.467   6.724  0.00  0.00     0.094 N 
ATOM     18  C37 ZIN A   1      14.619  -6.761   7.733  0.00  0.00     0.287 C 
ATOM     19  C36 ZIN A   1      15.511  -5.778   8.494  0.00  0.00     0.126 C 
BRANCH  17  20
ATOM     20  C2  ZIN A   1      14.583  -8.367   5.921  0.00  0.00     0.215 C 
ATOM     21  C1  ZIN A   1      15.464  -9.423   5.252  0.00  0.00     0.042 C 
ATOM     22  C3  ZIN A   1      13.559  -9.056   6.828  0.00  0.00     0.042 C 
ENDBRANCH  17  20
ENDBRANCH  11  14
ENDBRANCH   7   8
ENDBRANCH   6   7
ENDBRANCH   1   6
BRANCH   4  23
ATOM     23  C19 ZIN A   1      17.637   1.262  11.004  0.00  0.00     0.226 C 
BRANCH  23  24
ATOM     24  N20 ZIN A   1      18.067   1.189   9.605  0.00  0.00    -0.257 N 
ATOM     25  N24 ZIN A   1      18.872   2.116   8.923  0.00  0.00    -0.165 NA
ATOM     26  C23 ZIN A   1      19.012   1.668   7.703  0.00  0.00     0.256 A 
ATOM     27  N22 ZIN A   1      18.338   0.525   7.582  0.00  0.00    -0.234 NA
ATOM     28  C21 ZIN A   1      17.765   0.225   8.719  0.00  0.00     0.230 A 
ENDBRANCH  23  24
ENDBRANCH   4  23
BRANCH   4  29
ATOM     29  C25 ZIN A   1      19.092   2.534  12.562  0.00  0.00     0.027 A 
ATOM     30  C31 ZIN A   1      18.603   2.787  13.832  0.00  0.00     0.047 A 
ATOM     31  C30 ZIN A   1      18.818   4.018  14.424  0.00  0.00     0.048 A 
ATOM     32 Cl32 ZIN A   1      17.729   1.553  14.685  0.00  0.00    -0.084 Cl
ATOM     33  C28 ZIN A   1      19.514   5.001  13.742  0.00  0.00     0.035 A 
ATOM     34  C27 ZIN A   1      19.998   4.750  12.470  0.00  0.00     0.024 A 
ATOM     35 Cl29 ZIN A   1      19.779   6.548  14.482  0.00  0.00    -0.084 Cl
ATOM     36  C26 ZIN A   1      19.786   3.516  11.881  0.00  0.00     0.016 A 
ENDBRANCH   4  29
TORSDOF 8
ENDMDL
MODEL 9
REMARK VINA RESULT:      -7.8      3.555      5.308
REMARK  8 active torsions:
REMARK  status: ('A' for Active; 'I' for Inactive)
REMARK    1  A    between atoms: C2_2  and  N4_4 
REMARK    2  A    between atoms: N7_7  and  C8_8 
REMARK    3  A    between atoms: C11_11  and  O12_12 
REMARK    4  A    between atoms: O12_12  and  C13_13 
REMARK    5  A    between atoms: C13_13  and  C14_14 
REMARK    6  A    between atoms: C18_17  and  C19_18 
REMARK    7  A    between atoms: C18_17  and  C25_24 
REMARK    8  A    between atoms: C19_18  and  N20_19 
ROOT
ATOM      1  C14 ZIN A   1      18.358   0.454   8.152  0.00  0.00     0.173 C 
ATOM      2  C16 ZIN A   1      17.610  -0.135   6.931  0.00  0.00     0.206 C 
ATOM      3  O17 ZIN A   1      17.450  -1.519   7.323  0.00  0.00    -0.347 OA
ATOM      4  C18 ZIN A   1      18.654  -1.840   8.039  0.00  0.00     0.213 C 
ATOM      5  O33 ZIN A   1      19.216  -0.628   8.567  0.00  0.00    -0.340 OA
ENDROOT
BRANCH   1   6
ATOM      6  C13 ZIN A   1      19.186   1.674   7.743  0.00  0.00     0.209 C 
BRANCH   6   7
ATOM      7  O12 ZIN A   1      18.869   2.773   8.599  0.00  0.00    -0.349 OA
BRANCH   7   8
ATOM      8  C11 ZIN A   1      18.736   2.505   9.926  0.00  0.00     0.069 A 
ATOM      9  C10 ZIN A   1      17.582   1.899  10.398  0.00  0.00     0.038 A 
ATOM     10  C9  ZIN A   1      17.445   1.626  11.745  0.00  0.00     0.026 A 
ATOM     11  C8  ZIN A   1      18.466   1.958  12.627  0.00  0.00     0.010 A 
ATOM     12  C35 ZIN A   1      19.619   2.570  12.154  0.00  0.00     0.026 A 
ATOM     13  C34 ZIN A   1      19.755   2.837  10.805  0.00  0.00     0.038 A 
BRANCH  11  14
ATOM     14  N7  ZIN A   1      18.328   1.683  13.992  0.00  0.00    -0.280 NA
ATOM     15  C6  ZIN A   1      18.746   2.833  14.806  0.00  0.00     0.126 C 
ATOM     16  C5  ZIN A   1      18.505   2.522  16.285  0.00  0.00     0.287 C 
ATOM     17  N4  ZIN A   1      19.255   1.313  16.659  0.00  0.00     0.094 N 
ATOM     18  C37 ZIN A   1      18.835   0.165  15.844  0.00  0.00     0.287 C 
ATOM     19  C36 ZIN A   1      19.077   0.475  14.365  0.00  0.00     0.126 C 
BRANCH  17  20
ATOM     20  C2  ZIN A   1      19.109   1.025  18.091  0.00  0.00     0.215 C 
ATOM     21  C1  ZIN A   1      17.814   1.653  18.609  0.00  0.00     0.042 C 
ATOM     22  C3  ZIN A   1      19.063  -0.491  18.304  0.00  0.00     0.042 C 
ENDBRANCH  17  20
ENDBRANCH  11  14
ENDBRANCH   7   8
ENDBRANCH   6   7
ENDBRANCH   1   6
BRANCH   4  23
ATOM     23  C19 ZIN A   1      19.655  -2.504   7.090  0.00  0.00     0.226 C 
BRANCH  23  24
ATOM     24  N20 ZIN A   1      18.940  -3.064   5.940  0.00  0.00    -0.257 N 
ATOM     25  N24 ZIN A   1      18.185  -4.248   5.913  0.00  0.00    -0.165 NA
ATOM     26  C23 ZIN A   1      17.722  -4.373   4.698  0.00  0.00     0.256 A 
ATOM     27  N22 ZIN A   1      18.148  -3.345   3.964  0.00  0.00    -0.234 NA
ATOM     28  C21 ZIN A   1      18.882  -2.550   4.700  0.00  0.00     0.230 A 
ENDBRANCH  23  24
ENDBRANCH   4  23
BRANCH   4  29
ATOM     29  C25 ZIN A   1      18.334  -2.778   9.174  0.00  0.00     0.027 A 
ATOM     30  C31 ZIN A   1      18.972  -2.632  10.393  0.00  0.00     0.047 A 
ATOM     31  C30 ZIN A   1      18.674  -3.490  11.436  0.00  0.00     0.048 A 
ATOM     32 Cl32 ZIN A   1      20.137  -1.365  10.616  0.00  0.00    -0.084 Cl
ATOM     33  C28 ZIN A   1      17.746  -4.500  11.257  0.00  0.00     0.035 A 
ATOM     34  C27 ZIN A   1      17.112  -4.649  10.037  0.00  0.00     0.024 A 
ATOM     35 Cl29 ZIN A   1      17.376  -5.581  12.564  0.00  0.00    -0.084 Cl
ATOM     36  C26 ZIN A   1      17.407  -3.788   8.996  0.00  0.00     0.016 A 
ENDBRANCH   4  29
TORSDOF 8
ENDMDL
