MODEL 1
REMARK VINA RESULT:      -9.3      0.000      0.000
REMARK  10 active torsions:
REMARK  status: ('A' for Active; 'I' for Inactive)
REMARK    1  A    between atoms: O2_2  and  C3_3 
REMARK    2  A    between atoms: C9_9  and  C10_10 
REMARK       I    between atoms: C10_10  and  N12_12 
REMARK    3  A    between atoms: N12_12  and  C13_13 
REMARK    4  A    between atoms: C13_13  and  C14_14 
REMARK    5  A    between atoms: C14_14  and  C15_15 
REMARK    6  A    between atoms: C18_18  and  S19_19 
REMARK    7  A    between atoms: S19_19  and  N22_22 
REMARK    8  A    between atoms: C23_23  and  O24_24 
REMARK    9  A    between atoms: C23_23  and  N25_25 
REMARK   10  A    between atoms: N25_25  and  C26_26 
ROOT
ATOM      1  C15 ZIN A   1      18.480  -4.866  10.255  0.00  0.00    -0.057 A 
ATOM      2  C16 ZIN A   1      17.373  -4.119  10.613  0.00  0.00     0.009 A 
ATOM      3  C17 ZIN A   1      17.516  -3.034  11.460  0.00  0.00     0.026 A 
ATOM      4  C18 ZIN A   1      18.765  -2.699  11.947  0.00  0.00     0.081 A 
ATOM      5  C32 ZIN A   1      19.870  -3.447  11.591  0.00  0.00     0.026 A 
ATOM      6  C33 ZIN A   1      19.728  -4.534  10.748  0.00  0.00     0.009 A 
ENDROOT
BRANCH   1   7
ATOM      7  C14 ZIN A   1      18.324  -6.048   9.333  0.00  0.00     0.058 C 
BRANCH   7   8
ATOM      8  C13 ZIN A   1      19.118  -5.803   8.049  0.00  0.00     0.127 C 
BRANCH   8   9
ATOM      9  N12 ZIN A   1      18.654  -4.565   7.418  0.00  0.00    -0.356 N 
ATOM     10  C10 ZIN A   1      19.533  -3.761   6.785  0.00  0.00     0.254 C 
ATOM     11  O11 ZIN A   1      20.708  -4.064   6.736  0.00  0.00    -0.268 OA
ATOM     12  H40 ZIN A   1      17.716  -4.322   7.457  0.00  0.00     0.162 HD
BRANCH  10  13
ATOM     13  C9  ZIN A   1      19.065  -2.514   6.150  0.00  0.00     0.066 A 
ATOM     14  C3  ZIN A   1      18.470  -2.549   4.881  0.00  0.00     0.084 A 
ATOM     15  C4  ZIN A   1      18.034  -1.372   4.294  0.00  0.00     0.039 A 
ATOM     16  C5  ZIN A   1      18.189  -0.169   4.954  0.00  0.00     0.026 A 
ATOM     17  C6  ZIN A   1      18.782  -0.129   6.206  0.00  0.00     0.035 A 
ATOM     18 Cl7  ZIN A   1      18.972   1.392   7.024  0.00  0.00    -0.084 Cl
ATOM     19  C8  ZIN A   1      19.221  -1.290   6.806  0.00  0.00     0.043 A 
BRANCH  14  20
ATOM     20  O2  ZIN A   1      18.316  -3.732   4.234  0.00  0.00    -0.355 OA
ATOM     21  C1  ZIN A   1      16.986  -4.241   4.120  0.00  0.00     0.210 C 
ENDBRANCH  14  20
ENDBRANCH  10  13
ENDBRANCH   8   9
ENDBRANCH   7   8
ENDBRANCH   1   7
BRANCH   4  22
ATOM     22  S19 ZIN A   1      18.948  -1.317  13.026  0.00  0.00     0.286 S 
ATOM     23  O20 ZIN A   1      17.634  -0.872  13.334  0.00  0.00    -0.198 OA
ATOM     24  O21 ZIN A   1      19.890  -1.704  14.016  0.00  0.00    -0.198 OA
BRANCH  22  25
ATOM     25  N22 ZIN A   1      19.660  -0.104  12.152  0.00  0.00    -0.117 NA
ATOM     26  C23 ZIN A   1      20.084   0.969  12.754  0.00  0.00     0.251 C 
BRANCH  26  27
ATOM     27  O24 ZIN A   1      19.945   1.092  14.092  0.00  0.00    -0.331 OA
ATOM     28  H47 ZIN A   1      19.475   1.891  14.367  0.00  0.00     0.221 HD
ENDBRANCH  26  27
BRANCH  26  29
ATOM     29  N25 ZIN A   1      20.675   1.975  12.030  0.00  0.00    -0.350 N 
ATOM     30  H48 ZIN A   1      21.628   1.948  11.851  0.00  0.00     0.163 HD
BRANCH  29  31
ATOM     31  C26 ZIN A   1      19.867   3.088  11.526  0.00  0.00     0.085 C 
ATOM     32  C31 ZIN A   1      18.967   3.614  12.646  0.00  0.00     0.025 C 
ATOM     33  C30 ZIN A   1      18.124   4.776  12.119  0.00  0.00     0.002 C 
ATOM     34  C29 ZIN A   1      17.257   4.290  10.955  0.00  0.00     0.000 C 
ATOM     35  C28 ZIN A   1      18.157   3.764   9.834  0.00  0.00     0.002 C 
ATOM     36  C27 ZIN A   1      19.001   2.602  10.362  0.00  0.00     0.025 C 
ENDBRANCH  29  31
ENDBRANCH  26  29
ENDBRANCH  22  25
ENDBRANCH   4  22
TORSDOF 10
ENDMDL
MODEL 2
REMARK VINA RESULT:      -9.3      3.113      8.504
REMARK  10 active torsions:
REMARK  status: ('A' for Active; 'I' for Inactive)
REMARK    1  A    between atoms: O2_2  and  C3_3 
REMARK    2  A    between atoms: C9_9  and  C10_10 
REMARK       I    between atoms: C10_10  and  N12_12 
REMARK    3  A    between atoms: N12_12  and  C13_13 
REMARK    4  A    between atoms: C13_13  and  C14_14 
REMARK    5  A    between atoms: C14_14  and  C15_15 
REMARK    6  A    between atoms: C18_18  and  S19_19 
REMARK    7  A    between atoms: S19_19  and  N22_22 
REMARK    8  A    between atoms: C23_23  and  O24_24 
REMARK    9  A    between atoms: C23_23  and  N25_25 
REMARK   10  A    between atoms: N25_25  and  C26_26 
ROOT
ATOM      1  C15 ZIN A   1      18.583   1.371   8.363  0.00  0.00    -0.057 A 
ATOM      2  C16 ZIN A   1      17.899   0.182   8.537  0.00  0.00     0.009 A 
ATOM      3  C17 ZIN A   1      17.845  -0.741   7.509  0.00  0.00     0.026 A 
ATOM      4  C18 ZIN A   1      18.473  -0.475   6.307  0.00  0.00     0.081 A 
ATOM      5  C32 ZIN A   1      19.155   0.715   6.133  0.00  0.00     0.026 A 
ATOM      6  C33 ZIN A   1      19.207   1.640   7.159  0.00  0.00     0.009 A 
ENDROOT
BRANCH   1   7
ATOM      7  C14 ZIN A   1      18.642   2.377   9.483  0.00  0.00     0.058 C 
BRANCH   7   8
ATOM      8  C13 ZIN A   1      17.483   2.133  10.451  0.00  0.00     0.127 C 
BRANCH   8   9
ATOM      9  N12 ZIN A   1      17.994   1.523  11.681  0.00  0.00    -0.356 N 
ATOM     10  C10 ZIN A   1      17.297   0.541  12.287  0.00  0.00     0.254 C 
ATOM     11  O11 ZIN A   1      16.246   0.160  11.811  0.00  0.00    -0.268 OA
ATOM     12  H40 ZIN A   1      18.833   1.827  12.060  0.00  0.00     0.162 HD
BRANCH  10  13
ATOM     13  C9  ZIN A   1      17.812  -0.072  13.525  0.00  0.00     0.066 A 
ATOM     14  C3  ZIN A   1      18.756  -1.107  13.460  0.00  0.00     0.084 A 
ATOM     15  C4  ZIN A   1      19.234  -1.676  14.630  0.00  0.00     0.039 A 
ATOM     16  C5  ZIN A   1      18.778  -1.228  15.855  0.00  0.00     0.026 A 
ATOM     17  C6  ZIN A   1      17.842  -0.209  15.924  0.00  0.00     0.035 A 
ATOM     18 Cl7  ZIN A   1      17.278   0.343  17.471  0.00  0.00    -0.084 Cl
ATOM     19  C8  ZIN A   1      17.356   0.369  14.770  0.00  0.00     0.043 A 
BRANCH  14  20
ATOM     20  O2  ZIN A   1      19.203  -1.546  12.256  0.00  0.00    -0.355 OA
ATOM     21  C1  ZIN A   1      19.778  -2.853  12.216  0.00  0.00     0.210 C 
ENDBRANCH  14  20
ENDBRANCH  10  13
ENDBRANCH   8   9
ENDBRANCH   7   8
ENDBRANCH   1   7
BRANCH   4  22
ATOM     22  S19 ZIN A   1      18.405  -1.650   4.997  0.00  0.00     0.286 S 
ATOM     23  O20 ZIN A   1      17.216  -1.373   4.271  0.00  0.00    -0.198 OA
ATOM     24  O21 ZIN A   1      19.695  -1.662   4.401  0.00  0.00    -0.198 OA
BRANCH  22  25
ATOM     25  N22 ZIN A   1      18.195  -3.141   5.686  0.00  0.00    -0.117 NA
ATOM     26  C23 ZIN A   1      19.178  -3.708   6.323  0.00  0.00     0.251 C 
BRANCH  26  27
ATOM     27  O24 ZIN A   1      20.369  -3.078   6.423  0.00  0.00    -0.331 OA
ATOM     28  H47 ZIN A   1      21.043  -3.586   6.896  0.00  0.00     0.221 HD
ENDBRANCH  26  27
BRANCH  26  29
ATOM     29  N25 ZIN A   1      19.004  -4.944   6.894  0.00  0.00    -0.350 N 
ATOM     30  H48 ZIN A   1      19.556  -5.691   6.613  0.00  0.00     0.163 HD
BRANCH  29  31
ATOM     31  C26 ZIN A   1      17.986  -5.136   7.931  0.00  0.00     0.085 C 
ATOM     32  C31 ZIN A   1      18.235  -4.157   9.079  0.00  0.00     0.025 C 
ATOM     33  C30 ZIN A   1      17.173  -4.357  10.161  0.00  0.00     0.002 C 
ATOM     34  C29 ZIN A   1      17.247  -5.792  10.689  0.00  0.00     0.000 C 
ATOM     35  C28 ZIN A   1      16.997  -6.771   9.540  0.00  0.00     0.002 C 
ATOM     36  C27 ZIN A   1      18.061  -6.570   8.458  0.00  0.00     0.025 C 
ENDBRANCH  29  31
ENDBRANCH  26  29
ENDBRANCH  22  25
ENDBRANCH   4  22
TORSDOF 10
ENDMDL
MODEL 3
REMARK VINA RESULT:      -9.1      4.035      5.900
REMARK  10 active torsions:
REMARK  status: ('A' for Active; 'I' for Inactive)
REMARK    1  A    between atoms: O2_2  and  C3_3 
REMARK    2  A    between atoms: C9_9  and  C10_10 
REMARK       I    between atoms: C10_10  and  N12_12 
REMARK    3  A    between atoms: N12_12  and  C13_13 
REMARK    4  A    between atoms: C13_13  and  C14_14 
REMARK    5  A    between atoms: C14_14  and  C15_15 
REMARK    6  A    between atoms: C18_18  and  S19_19 
REMARK    7  A    between atoms: S19_19  and  N22_22 
REMARK    8  A    between atoms: C23_23  and  O24_24 
REMARK    9  A    between atoms: C23_23  and  N25_25 
REMARK   10  A    between atoms: N25_25  and  C26_26 
ROOT
ATOM      1  C15 ZIN A   1      18.682  -0.999  14.464  0.00  0.00    -0.057 A 
ATOM      2  C16 ZIN A   1      18.920  -1.566  15.702  0.00  0.00     0.009 A 
ATOM      3  C17 ZIN A   1      18.882  -0.781  16.840  0.00  0.00     0.026 A 
ATOM      4  C18 ZIN A   1      18.607   0.569  16.739  0.00  0.00     0.081 A 
ATOM      5  C32 ZIN A   1      18.372   1.136  15.501  0.00  0.00     0.026 A 
ATOM      6  C33 ZIN A   1      18.414   0.353  14.362  0.00  0.00     0.009 A 
ENDROOT
BRANCH   1   7
ATOM      7  C14 ZIN A   1      18.725  -1.854  13.224  0.00  0.00     0.058 C 
BRANCH   7   8
ATOM      8  C13 ZIN A   1      17.515  -1.536  12.342  0.00  0.00     0.127 C 
BRANCH   8   9
ATOM      9  N12 ZIN A   1      17.975  -1.127  11.013  0.00  0.00    -0.356 N 
ATOM     10  C10 ZIN A   1      17.383  -0.090  10.385  0.00  0.00     0.254 C 
ATOM     11  O11 ZIN A   1      16.471   0.506  10.923  0.00  0.00    -0.268 OA
ATOM     12  H40 ZIN A   1      18.702  -1.602  10.583  0.00  0.00     0.162 HD
BRANCH  10  13
ATOM     13  C9  ZIN A   1      17.845   0.321   9.046  0.00  0.00     0.066 A 
ATOM     14  C3  ZIN A   1      18.682   1.437   8.901  0.00  0.00     0.084 A 
ATOM     15  C4  ZIN A   1      19.111   1.814   7.638  0.00  0.00     0.039 A 
ATOM     16  C5  ZIN A   1      18.712   1.098   6.527  0.00  0.00     0.026 A 
ATOM     17  C6  ZIN A   1      17.881  -0.003   6.665  0.00  0.00     0.035 A 
ATOM     18 Cl7  ZIN A   1      17.387  -0.894   5.259  0.00  0.00    -0.084 Cl
ATOM     19  C8  ZIN A   1      17.445  -0.393   7.914  0.00  0.00     0.043 A 
BRANCH  14  20
ATOM     20  O2  ZIN A   1      19.074   2.140   9.993  0.00  0.00    -0.355 OA
ATOM     21  C1  ZIN A   1      18.469   3.419  10.192  0.00  0.00     0.210 C 
ENDBRANCH  14  20
ENDBRANCH  10  13
ENDBRANCH   8   9
ENDBRANCH   7   8
ENDBRANCH   1   7
BRANCH   4  22
ATOM     22  S19 ZIN A   1      18.559   1.570  18.189  0.00  0.00     0.286 S 
ATOM     23  O20 ZIN A   1      17.472   1.094  18.969  0.00  0.00    -0.198 OA
ATOM     24  O21 ZIN A   1      19.893   1.638  18.673  0.00  0.00    -0.198 OA
BRANCH  22  25
ATOM     25  N22 ZIN A   1      18.156   3.104  17.713  0.00  0.00    -0.117 NA
ATOM     26  C23 ZIN A   1      18.198   4.083  18.568  0.00  0.00     0.251 C 
BRANCH  26  27
ATOM     27  O24 ZIN A   1      18.571   3.848  19.845  0.00  0.00    -0.331 OA
ATOM     28  H47 ZIN A   1      18.416   4.592  20.444  0.00  0.00     0.221 HD
ENDBRANCH  26  27
BRANCH  26  29
ATOM     29  N25 ZIN A   1      17.865   5.356  18.173  0.00  0.00    -0.350 N 
ATOM     30  H48 ZIN A   1      17.756   6.056  18.836  0.00  0.00     0.163 HD
BRANCH  29  31
ATOM     31  C26 ZIN A   1      17.674   5.656  16.752  0.00  0.00     0.085 C 
ATOM     32  C31 ZIN A   1      18.844   6.502  16.247  0.00  0.00     0.025 C 
ATOM     33  C30 ZIN A   1      18.646   6.815  14.764  0.00  0.00     0.002 C 
ATOM     34  C29 ZIN A   1      17.339   7.589  14.577  0.00  0.00     0.000 C 
ATOM     35  C28 ZIN A   1      16.168   6.742  15.081  0.00  0.00     0.002 C 
ATOM     36  C27 ZIN A   1      16.368   6.429  16.565  0.00  0.00     0.025 C 
ENDBRANCH  29  31
ENDBRANCH  26  29
ENDBRANCH  22  25
ENDBRANCH   4  22
TORSDOF 10
ENDMDL
MODEL 4
REMARK VINA RESULT:      -9.1      3.120      5.376
REMARK  10 active torsions:
REMARK  status: ('A' for Active; 'I' for Inactive)
REMARK    1  A    between atoms: O2_2  and  C3_3 
REMARK    2  A    between atoms: C9_9  and  C10_10 
REMARK       I    between atoms: C10_10  and  N12_12 
REMARK    3  A    between atoms: N12_12  and  C13_13 
REMARK    4  A    between atoms: C13_13  and  C14_14 
REMARK    5  A    between atoms: C14_14  and  C15_15 
REMARK    6  A    between atoms: C18_18  and  S19_19 
REMARK    7  A    between atoms: S19_19  and  N22_22 
REMARK    8  A    between atoms: C23_23  and  O24_24 
REMARK    9  A    between atoms: C23_23  and  N25_25 
REMARK   10  A    between atoms: N25_25  and  C26_26 
ROOT
ATOM      1  C15 ZIN A   1      17.948   0.517   7.489  0.00  0.00    -0.057 A 
ATOM      2  C16 ZIN A   1      17.335   0.220   8.692  0.00  0.00     0.009 A 
ATOM      3  C17 ZIN A   1      17.659   0.938   9.829  0.00  0.00     0.026 A 
ATOM      4  C18 ZIN A   1      18.595   1.952   9.762  0.00  0.00     0.081 A 
ATOM      5  C32 ZIN A   1      19.209   2.248   8.560  0.00  0.00     0.026 A 
ATOM      6  C33 ZIN A   1      18.889   1.528   7.424  0.00  0.00     0.009 A 
ENDROOT
BRANCH   1   7
ATOM      7  C14 ZIN A   1      17.597  -0.265   6.250  0.00  0.00     0.058 C 
BRANCH   7   8
ATOM      8  C13 ZIN A   1      18.579  -1.426   6.084  0.00  0.00     0.127 C 
BRANCH   8   9
ATOM      9  N12 ZIN A   1      18.049  -2.615   6.755  0.00  0.00    -0.356 N 
ATOM     10  C10 ZIN A   1      18.648  -3.084   7.868  0.00  0.00     0.254 C 
ATOM     11  O11 ZIN A   1      19.627  -2.520   8.315  0.00  0.00    -0.268 OA
ATOM     12  H40 ZIN A   1      17.268  -3.065   6.398  0.00  0.00     0.162 HD
BRANCH  10  13
ATOM     13  C9  ZIN A   1      18.114  -4.282   8.543  0.00  0.00     0.066 A 
ATOM     14  C3  ZIN A   1      17.728  -5.401   7.791  0.00  0.00     0.084 A 
ATOM     15  C4  ZIN A   1      17.227  -6.522   8.435  0.00  0.00     0.039 A 
ATOM     16  C5  ZIN A   1      17.106  -6.535   9.810  0.00  0.00     0.026 A 
ATOM     17  C6  ZIN A   1      17.482  -5.430  10.557  0.00  0.00     0.035 A 
ATOM     18 Cl7  ZIN A   1      17.323  -5.460  12.286  0.00  0.00    -0.084 Cl
ATOM     19  C8  ZIN A   1      17.982  -4.306   9.933  0.00  0.00     0.043 A 
BRANCH  14  20
ATOM     20  O2  ZIN A   1      17.848  -5.388   6.439  0.00  0.00    -0.355 OA
ATOM     21  C1  ZIN A   1      16.720  -5.834   5.684  0.00  0.00     0.210 C 
ENDBRANCH  14  20
ENDBRANCH  10  13
ENDBRANCH   8   9
ENDBRANCH   7   8
ENDBRANCH   1   7
BRANCH   4  22
ATOM     22  S19 ZIN A   1      19.007   2.868  11.210  0.00  0.00     0.286 S 
ATOM     23  O20 ZIN A   1      20.379   2.607  11.473  0.00  0.00    -0.198 OA
ATOM     24  O21 ZIN A   1      18.487   4.176  11.018  0.00  0.00    -0.198 OA
BRANCH  22  25
ATOM     25  N22 ZIN A   1      18.156   2.207  12.468  0.00  0.00    -0.117 NA
ATOM     26  C23 ZIN A   1      18.399   2.585  13.688  0.00  0.00     0.251 C 
BRANCH  26  27
ATOM     27  O24 ZIN A   1      19.346   3.518  13.930  0.00  0.00    -0.331 OA
ATOM     28  H47 ZIN A   1      19.768   3.866  13.132  0.00  0.00     0.221 HD
ENDBRANCH  26  27
BRANCH  26  29
ATOM     29  N25 ZIN A   1      17.693   2.038  14.731  0.00  0.00    -0.350 N 
ATOM     30  H48 ZIN A   1      17.144   2.604  15.296  0.00  0.00     0.163 HD
BRANCH  29  31
ATOM     31  C26 ZIN A   1      17.767   0.597  14.990  0.00  0.00     0.085 C 
ATOM     32  C31 ZIN A   1      17.340   0.315  16.432  0.00  0.00     0.025 C 
ATOM     33  C30 ZIN A   1      17.417  -1.188  16.702  0.00  0.00     0.002 C 
ATOM     34  C29 ZIN A   1      18.855  -1.671  16.493  0.00  0.00     0.000 C 
ATOM     35  C28 ZIN A   1      19.282  -1.389  15.050  0.00  0.00     0.002 C 
ATOM     36  C27 ZIN A   1      19.204   0.116  14.781  0.00  0.00     0.025 C 
ENDBRANCH  29  31
ENDBRANCH  26  29
ENDBRANCH  22  25
ENDBRANCH   4  22
TORSDOF 10
ENDMDL
MODEL 5
REMARK VINA RESULT:      -8.8      3.033      5.536
REMARK  10 active torsions:
REMARK  status: ('A' for Active; 'I' for Inactive)
REMARK    1  A    between atoms: O2_2  and  C3_3 
REMARK    2  A    between atoms: C9_9  and  C10_10 
REMARK       I    between atoms: C10_10  and  N12_12 
REMARK    3  A    between atoms: N12_12  and  C13_13 
REMARK    4  A    between atoms: C13_13  and  C14_14 
REMARK    5  A    between atoms: C14_14  and  C15_15 
REMARK    6  A    between atoms: C18_18  and  S19_19 
REMARK    7  A    between atoms: S19_19  and  N22_22 
REMARK    8  A    between atoms: C23_23  and  O24_24 
REMARK    9  A    between atoms: C23_23  and  N25_25 
REMARK   10  A    between atoms: N25_25  and  C26_26 
ROOT
ATOM      1  C15 ZIN A   1      18.321   0.346   6.940  0.00  0.00    -0.057 A 
ATOM      2  C16 ZIN A   1      17.496  -0.080   7.965  0.00  0.00     0.009 A 
ATOM      3  C17 ZIN A   1      17.519   0.569   9.186  0.00  0.00     0.026 A 
ATOM      4  C18 ZIN A   1      18.367   1.643   9.382  0.00  0.00     0.081 A 
ATOM      5  C32 ZIN A   1      19.193   2.067   8.358  0.00  0.00     0.026 A 
ATOM      6  C33 ZIN A   1      19.173   1.416   7.138  0.00  0.00     0.009 A 
ENDROOT
BRANCH   1   7
ATOM      7  C14 ZIN A   1      18.296  -0.361   5.610  0.00  0.00     0.058 C 
BRANCH   7   8
ATOM      8  C13 ZIN A   1      19.154  -1.625   5.688  0.00  0.00     0.127 C 
BRANCH   8   9
ATOM      9  N12 ZIN A   1      18.555  -2.564   6.639  0.00  0.00    -0.356 N 
ATOM     10  C10 ZIN A   1      19.233  -3.668   7.014  0.00  0.00     0.254 C 
ATOM     11  O11 ZIN A   1      20.341  -3.883   6.564  0.00  0.00    -0.268 OA
ATOM     12  H40 ZIN A   1      17.671  -2.393   6.998  0.00  0.00     0.162 HD
BRANCH  10  13
ATOM     13  C9  ZIN A   1      18.628  -4.614   7.971  0.00  0.00     0.066 A 
ATOM     14  C3  ZIN A   1      18.638  -4.330   9.344  0.00  0.00     0.084 A 
ATOM     15  C4  ZIN A   1      18.068  -5.225  10.236  0.00  0.00     0.039 A 
ATOM     16  C5  ZIN A   1      17.496  -6.393   9.773  0.00  0.00     0.026 A 
ATOM     17  C6  ZIN A   1      17.488  -6.681   8.418  0.00  0.00     0.035 A 
ATOM     18 Cl7  ZIN A   1      16.765  -8.155   7.851  0.00  0.00    -0.084 Cl
ATOM     19  C8  ZIN A   1      18.051  -5.801   7.517  0.00  0.00     0.043 A 
BRANCH  14  20
ATOM     20  O2  ZIN A   1      19.200  -3.180   9.797  0.00  0.00    -0.355 OA
ATOM     21  C1  ZIN A   1      18.584  -2.559  10.927  0.00  0.00     0.210 C 
ENDBRANCH  14  20
ENDBRANCH  10  13
ENDBRANCH   8   9
ENDBRANCH   7   8
ENDBRANCH   1   7
BRANCH   4  22
ATOM     22  S19 ZIN A   1      18.397   2.470  10.937  0.00  0.00     0.286 S 
ATOM     23  O20 ZIN A   1      19.559   3.288  10.934  0.00  0.00    -0.198 OA
ATOM     24  O21 ZIN A   1      17.088   2.981  11.144  0.00  0.00    -0.198 OA
BRANCH  22  25
ATOM     25  N22 ZIN A   1      18.638   1.318  12.101  0.00  0.00    -0.117 NA
ATOM     26  C23 ZIN A   1      19.848   0.995  12.457  0.00  0.00     0.251 C 
BRANCH  26  27
ATOM     27  O24 ZIN A   1      20.906   1.602  11.877  0.00  0.00    -0.331 OA
ATOM     28  H47 ZIN A   1      20.678   2.136  11.104  0.00  0.00     0.221 HD
ENDBRANCH  26  27
BRANCH  26  29
ATOM     29  N25 ZIN A   1      20.047   0.040  13.423  0.00  0.00    -0.350 N 
ATOM     30  H48 ZIN A   1      20.844  -0.513  13.401  0.00  0.00     0.163 HD
BRANCH  29  31
ATOM     31  C26 ZIN A   1      19.058  -0.144  14.488  0.00  0.00     0.085 C 
ATOM     32  C31 ZIN A   1      19.164   1.008  15.488  0.00  0.00     0.025 C 
ATOM     33  C30 ZIN A   1      18.131   0.816  16.600  0.00  0.00     0.002 C 
ATOM     34  C29 ZIN A   1      18.397  -0.509  17.319  0.00  0.00     0.000 C 
ATOM     35  C28 ZIN A   1      18.290  -1.662  16.318  0.00  0.00     0.002 C 
ATOM     36  C27 ZIN A   1      19.323  -1.468  15.206  0.00  0.00     0.025 C 
ENDBRANCH  29  31
ENDBRANCH  26  29
ENDBRANCH  22  25
ENDBRANCH   4  22
TORSDOF 10
ENDMDL
MODEL 6
REMARK VINA RESULT:      -8.7      3.601      9.224
REMARK  10 active torsions:
REMARK  status: ('A' for Active; 'I' for Inactive)
REMARK    1  A    between atoms: O2_2  and  C3_3 
REMARK    2  A    between atoms: C9_9  and  C10_10 
REMARK       I    between atoms: C10_10  and  N12_12 
REMARK    3  A    between atoms: N12_12  and  C13_13 
REMARK    4  A    between atoms: C13_13  and  C14_14 
REMARK    5  A    between atoms: C14_14  and  C15_15 
REMARK    6  A    between atoms: C18_18  and  S19_19 
REMARK    7  A    between atoms: S19_19  and  N22_22 
REMARK    8  A    between atoms: C23_23  and  O24_24 
REMARK    9  A    between atoms: C23_23  and  N25_25 
REMARK   10  A    between atoms: N25_25  and  C26_26 
ROOT
ATOM      1  C15 ZIN A   1      18.073   2.660  10.700  0.00  0.00    -0.057 A 
ATOM      2  C16 ZIN A   1      18.751   2.974   9.537  0.00  0.00     0.009 A 
ATOM      3  C17 ZIN A   1      18.744   2.091   8.473  0.00  0.00     0.026 A 
ATOM      4  C18 ZIN A   1      18.060   0.894   8.573  0.00  0.00     0.081 A 
ATOM      5  C32 ZIN A   1      17.384   0.580   9.737  0.00  0.00     0.026 A 
ATOM      6  C33 ZIN A   1      17.394   1.460  10.802  0.00  0.00     0.009 A 
ENDROOT
BRANCH   1   7
ATOM      7  C14 ZIN A   1      18.081   3.622  11.860  0.00  0.00     0.058 C 
BRANCH   7   8
ATOM      8  C13 ZIN A   1      19.339   3.399  12.700  0.00  0.00     0.127 C 
BRANCH   8   9
ATOM      9  N12 ZIN A   1      18.964   2.846  14.004  0.00  0.00    -0.356 N 
ATOM     10  C10 ZIN A   1      19.210   1.550  14.283  0.00  0.00     0.254 C 
ATOM     11  O11 ZIN A   1      19.745   0.841  13.454  0.00  0.00    -0.268 OA
ATOM     12  H40 ZIN A   1      18.537   3.412  14.666  0.00  0.00     0.162 HD
BRANCH  10  13
ATOM     13  C9  ZIN A   1      18.831   0.994  15.596  0.00  0.00     0.066 A 
ATOM     14  C3  ZIN A   1      19.206   1.654  16.775  0.00  0.00     0.084 A 
ATOM     15  C4  ZIN A   1      18.844   1.124  18.004  0.00  0.00     0.039 A 
ATOM     16  C5  ZIN A   1      18.122  -0.052  18.066  0.00  0.00     0.026 A 
ATOM     17  C6  ZIN A   1      17.754  -0.710  16.903  0.00  0.00     0.035 A 
ATOM     18 Cl7  ZIN A   1      16.846  -2.187  16.997  0.00  0.00    -0.084 Cl
ATOM     19  C8  ZIN A   1      18.105  -0.196  15.672  0.00  0.00     0.043 A 
BRANCH  14  20
ATOM     20  O2  ZIN A   1      19.915   2.809  16.713  0.00  0.00    -0.355 OA
ATOM     21  C1  ZIN A   1      19.266   3.994  17.180  0.00  0.00     0.210 C 
ENDBRANCH  14  20
ENDBRANCH  10  13
ENDBRANCH   8   9
ENDBRANCH   7   8
ENDBRANCH   1   7
BRANCH   4  22
ATOM     22  S19 ZIN A   1      18.051  -0.232   7.218  0.00  0.00     0.286 S 
ATOM     23  O20 ZIN A   1      16.747  -0.173   6.656  0.00  0.00    -0.198 OA
ATOM     24  O21 ZIN A   1      19.231   0.031   6.471  0.00  0.00    -0.198 OA
BRANCH  22  25
ATOM     25  N22 ZIN A   1      18.223  -1.755   7.844  0.00  0.00    -0.117 NA
ATOM     26  C23 ZIN A   1      19.301  -2.070   8.502  0.00  0.00     0.251 C 
BRANCH  26  27
ATOM     27  O24 ZIN A   1      20.278  -1.153   8.676  0.00  0.00    -0.331 OA
ATOM     28  H47 ZIN A   1      20.131  -0.559   9.425  0.00  0.00     0.221 HD
ENDBRANCH  26  27
BRANCH  26  29
ATOM     29  N25 ZIN A   1      19.443  -3.333   9.022  0.00  0.00    -0.350 N 
ATOM     30  H48 ZIN A   1      20.289  -3.800   8.935  0.00  0.00     0.163 HD
BRANCH  29  31
ATOM     31  C26 ZIN A   1      18.320  -3.973   9.710  0.00  0.00     0.085 C 
ATOM     32  C31 ZIN A   1      18.285  -3.514  11.169  0.00  0.00     0.025 C 
ATOM     33  C30 ZIN A   1      17.112  -4.183  11.887  0.00  0.00     0.002 C 
ATOM     34  C29 ZIN A   1      17.283  -5.703  11.835  0.00  0.00     0.000 C 
ATOM     35  C28 ZIN A   1      17.317  -6.163  10.376  0.00  0.00     0.002 C 
ATOM     36  C27 ZIN A   1      18.490  -5.493   9.658  0.00  0.00     0.025 C 
ENDBRANCH  29  31
ENDBRANCH  26  29
ENDBRANCH  22  25
ENDBRANCH   4  22
TORSDOF 10
ENDMDL
MODEL 7
REMARK VINA RESULT:      -8.7      2.588      7.719
REMARK  10 active torsions:
REMARK  status: ('A' for Active; 'I' for Inactive)
REMARK    1  A    between atoms: O2_2  and  C3_3 
REMARK    2  A    between atoms: C9_9  and  C10_10 
REMARK       I    between atoms: C10_10  and  N12_12 
REMARK    3  A    between atoms: N12_12  and  C13_13 
REMARK    4  A    between atoms: C13_13  and  C14_14 
REMARK    5  A    between atoms: C14_14  and  C15_15 
REMARK    6  A    between atoms: C18_18  and  S19_19 
REMARK    7  A    between atoms: S19_19  and  N22_22 
REMARK    8  A    between atoms: C23_23  and  O24_24 
REMARK    9  A    between atoms: C23_23  and  N25_25 
REMARK   10  A    between atoms: N25_25  and  C26_26 
ROOT
ATOM      1  C15 ZIN A   1      18.588  -2.988  12.326  0.00  0.00    -0.057 A 
ATOM      2  C16 ZIN A   1      19.789  -3.399  11.780  0.00  0.00     0.009 A 
ATOM      3  C17 ZIN A   1      19.799  -4.306  10.736  0.00  0.00     0.026 A 
ATOM      4  C18 ZIN A   1      18.609  -4.801  10.239  0.00  0.00     0.081 A 
ATOM      5  C32 ZIN A   1      17.408  -4.392  10.788  0.00  0.00     0.026 A 
ATOM      6  C33 ZIN A   1      17.397  -3.488  11.834  0.00  0.00     0.009 A 
ENDROOT
BRANCH   1   7
ATOM      7  C14 ZIN A   1      18.577  -2.001  13.465  0.00  0.00     0.058 C 
BRANCH   7   8
ATOM      8  C13 ZIN A   1      17.765  -0.768  13.064  0.00  0.00     0.127 C 
BRANCH   8   9
ATOM      9  N12 ZIN A   1      18.252  -0.259  11.779  0.00  0.00    -0.356 N 
ATOM     10  C10 ZIN A   1      17.374   0.127  10.831  0.00  0.00     0.254 C 
ATOM     11  O11 ZIN A   1      16.179   0.056  11.043  0.00  0.00    -0.268 OA
ATOM     12  H40 ZIN A   1      19.204  -0.202  11.610  0.00  0.00     0.162 HD
BRANCH  10  13
ATOM     13  C9  ZIN A   1      17.864   0.639   9.538  0.00  0.00     0.066 A 
ATOM     14  C3  ZIN A   1      18.441   1.914   9.457  0.00  0.00     0.084 A 
ATOM     15  C4  ZIN A   1      18.900   2.386   8.237  0.00  0.00     0.039 A 
ATOM     16  C5  ZIN A   1      18.784   1.604   7.105  0.00  0.00     0.026 A 
ATOM     17  C6  ZIN A   1      18.210   0.345   7.178  0.00  0.00     0.035 A 
ATOM     18 Cl7  ZIN A   1      18.071  -0.627   5.746  0.00  0.00    -0.084 Cl
ATOM     19  C8  ZIN A   1      17.749  -0.140   8.384  0.00  0.00     0.043 A 
BRANCH  14  20
ATOM     20  O2  ZIN A   1      18.555   2.681  10.571  0.00  0.00    -0.355 OA
ATOM     21  C1  ZIN A   1      19.868   2.855  11.107  0.00  0.00     0.210 C 
ENDBRANCH  14  20
ENDBRANCH  10  13
ENDBRANCH   8   9
ENDBRANCH   7   8
ENDBRANCH   1   7
BRANCH   4  22
ATOM     22  S19 ZIN A   1      18.620  -5.957   8.909  0.00  0.00     0.286 S 
ATOM     23  O20 ZIN A   1      19.898  -6.576   8.926  0.00  0.00    -0.198 OA
ATOM     24  O21 ZIN A   1      17.403  -6.684   9.000  0.00  0.00    -0.198 OA
BRANCH  22  25
ATOM     25  N22 ZIN A   1      18.541  -5.086   7.503  0.00  0.00    -0.117 NA
ATOM     26  C23 ZIN A   1      18.553  -5.700   6.356  0.00  0.00     0.251 C 
BRANCH  26  27
ATOM     27  O24 ZIN A   1      18.629  -7.049   6.313  0.00  0.00    -0.331 OA
ATOM     28  H47 ZIN A   1      19.182  -7.389   5.596  0.00  0.00     0.221 HD
ENDBRANCH  26  27
BRANCH  26  29
ATOM     29  N25 ZIN A   1      18.486  -4.979   5.189  0.00  0.00    -0.350 N 
ATOM     30  H48 ZIN A   1      19.082  -4.226   5.050  0.00  0.00     0.163 HD
BRANCH  29  31
ATOM     31  C26 ZIN A   1      17.517  -5.346   4.154  0.00  0.00     0.085 C 
ATOM     32  C31 ZIN A   1      17.690  -4.429   2.943  0.00  0.00     0.025 C 
ATOM     33  C30 ZIN A   1      16.678  -4.813   1.862  0.00  0.00     0.002 C 
ATOM     34  C29 ZIN A   1      15.259  -4.663   2.416  0.00  0.00     0.000 C 
ATOM     35  C28 ZIN A   1      15.086  -5.582   3.628  0.00  0.00     0.002 C 
ATOM     36  C27 ZIN A   1      16.099  -5.197   4.708  0.00  0.00     0.025 C 
ENDBRANCH  29  31
ENDBRANCH  26  29
ENDBRANCH  22  25
ENDBRANCH   4  22
TORSDOF 10
ENDMDL
MODEL 8
REMARK VINA RESULT:      -8.7      3.427      8.628
REMARK  10 active torsions:
REMARK  status: ('A' for Active; 'I' for Inactive)
REMARK    1  A    between atoms: O2_2  and  C3_3 
REMARK    2  A    between atoms: C9_9  and  C10_10 
REMARK       I    between atoms: C10_10  and  N12_12 
REMARK    3  A    between atoms: N12_12  and  C13_13 
REMARK    4  A    between atoms: C13_13  and  C14_14 
REMARK    5  A    between atoms: C14_14  and  C15_15 
REMARK    6  A    between atoms: C18_18  and  S19_19 
REMARK    7  A    between atoms: S19_19  and  N22_22 
REMARK    8  A    between atoms: C23_23  and  O24_24 
REMARK    9  A    between atoms: C23_23  and  N25_25 
REMARK   10  A    between atoms: N25_25  and  C26_26 
ROOT
ATOM      1  C15 ZIN A   1      18.091   2.721  10.533  0.00  0.00    -0.057 A 
ATOM      2  C16 ZIN A   1      17.328   1.576  10.664  0.00  0.00     0.009 A 
ATOM      3  C17 ZIN A   1      17.321   0.630   9.655  0.00  0.00     0.026 A 
ATOM      4  C18 ZIN A   1      18.077   0.831   8.515  0.00  0.00     0.081 A 
ATOM      5  C32 ZIN A   1      18.838   1.977   8.384  0.00  0.00     0.026 A 
ATOM      6  C33 ZIN A   1      18.842   2.924   9.390  0.00  0.00     0.009 A 
ENDROOT
BRANCH   1   7
ATOM      7  C14 ZIN A   1      18.098   3.752  11.632  0.00  0.00     0.058 C 
BRANCH   7   8
ATOM      8  C13 ZIN A   1      19.412   3.660  12.410  0.00  0.00     0.127 C 
BRANCH   8   9
ATOM      9  N12 ZIN A   1      19.441   2.408  13.172  0.00  0.00    -0.356 N 
ATOM     10  C10 ZIN A   1      18.656   2.262  14.259  0.00  0.00     0.254 C 
ATOM     11  O11 ZIN A   1      17.923   3.167  14.605  0.00  0.00    -0.268 OA
ATOM     12  H40 ZIN A   1      20.025   1.686  12.895  0.00  0.00     0.162 HD
BRANCH  10  13
ATOM     13  C9  ZIN A   1      18.687   1.002  15.025  0.00  0.00     0.066 A 
ATOM     14  C3  ZIN A   1      18.633  -0.230  14.358  0.00  0.00     0.084 A 
ATOM     15  C4  ZIN A   1      18.663  -1.408  15.087  0.00  0.00     0.039 A 
ATOM     16  C5  ZIN A   1      18.741  -1.368  16.465  0.00  0.00     0.026 A 
ATOM     17  C6  ZIN A   1      18.789  -0.153  17.129  0.00  0.00     0.035 A 
ATOM     18 Cl7  ZIN A   1      18.885  -0.118  18.863  0.00  0.00    -0.084 Cl
ATOM     19  C8  ZIN A   1      18.760   1.029  16.419  0.00  0.00     0.043 A 
BRANCH  14  20
ATOM     20  O2  ZIN A   1      18.558  -0.268  13.003  0.00  0.00    -0.355 OA
ATOM     21  C1  ZIN A   1      19.666  -0.844  12.308  0.00  0.00     0.210 C 
ENDBRANCH  14  20
ENDBRANCH  10  13
ENDBRANCH   8   9
ENDBRANCH   7   8
ENDBRANCH   1   7
BRANCH   4  22
ATOM     22  S19 ZIN A   1      18.069  -0.374   7.229  0.00  0.00     0.286 S 
ATOM     23  O20 ZIN A   1      16.757  -0.372   6.686  0.00  0.00    -0.198 OA
ATOM     24  O21 ZIN A   1      19.234  -0.135   6.450  0.00  0.00    -0.198 OA
BRANCH  22  25
ATOM     25  N22 ZIN A   1      18.279  -1.854   7.942  0.00  0.00    -0.117 NA
ATOM     26  C23 ZIN A   1      19.348  -2.092   8.644  0.00  0.00     0.251 C 
BRANCH  26  27
ATOM     27  O24 ZIN A   1      20.286  -1.132   8.793  0.00  0.00    -0.331 OA
ATOM     28  H47 ZIN A   1      20.715  -1.133   9.660  0.00  0.00     0.221 HD
ENDBRANCH  26  27
BRANCH  26  29
ATOM     29  N25 ZIN A   1      19.522  -3.320   9.235  0.00  0.00    -0.350 N 
ATOM     30  H48 ZIN A   1      20.401  -3.729   9.253  0.00  0.00     0.163 HD
BRANCH  29  31
ATOM     31  C26 ZIN A   1      18.380  -4.010   9.840  0.00  0.00     0.085 C 
ATOM     32  C31 ZIN A   1      18.586  -4.112  11.352  0.00  0.00     0.025 C 
ATOM     33  C30 ZIN A   1      17.394  -4.833  11.983  0.00  0.00     0.002 C 
ATOM     34  C29 ZIN A   1      17.276  -6.238  11.389  0.00  0.00     0.000 C 
ATOM     35  C28 ZIN A   1      17.068  -6.136   9.876  0.00  0.00     0.002 C 
ATOM     36  C27 ZIN A   1      18.261  -5.415   9.246  0.00  0.00     0.025 C 
ENDBRANCH  29  31
ENDBRANCH  26  29
ENDBRANCH  22  25
ENDBRANCH   4  22
TORSDOF 10
ENDMDL
MODEL 9
REMARK VINA RESULT:      -8.5      2.882      8.826
REMARK  10 active torsions:
REMARK  status: ('A' for Active; 'I' for Inactive)
REMARK    1  A    between atoms: O2_2  and  C3_3 
REMARK    2  A    between atoms: C9_9  and  C10_10 
REMARK       I    between atoms: C10_10  and  N12_12 
REMARK    3  A    between atoms: N12_12  and  C13_13 
REMARK    4  A    between atoms: C13_13  and  C14_14 
REMARK    5  A    between atoms: C14_14  and  C15_15 
REMARK    6  A    between atoms: C18_18  and  S19_19 
REMARK    7  A    between atoms: S19_19  and  N22_22 
REMARK    8  A    between atoms: C23_23  and  O24_24 
REMARK    9  A    between atoms: C23_23  and  N25_25 
REMARK   10  A    between atoms: N25_25  and  C26_26 
ROOT
ATOM      1  C15 ZIN A   1      19.121   1.170   8.450  0.00  0.00    -0.057 A 
ATOM      2  C16 ZIN A   1      19.244  -0.021   9.142  0.00  0.00     0.009 A 
ATOM      3  C17 ZIN A   1      19.128  -1.225   8.471  0.00  0.00     0.026 A 
ATOM      4  C18 ZIN A   1      18.891  -1.237   7.110  0.00  0.00     0.081 A 
ATOM      5  C32 ZIN A   1      18.766  -0.046   6.419  0.00  0.00     0.026 A 
ATOM      6  C33 ZIN A   1      18.877   1.157   7.089  0.00  0.00     0.009 A 
ENDROOT
BRANCH   1   7
ATOM      7  C14 ZIN A   1      19.246   2.482   9.181  0.00  0.00     0.058 C 
BRANCH   7   8
ATOM      8  C13 ZIN A   1      18.027   2.681  10.083  0.00  0.00     0.127 C 
BRANCH   8   9
ATOM      9  N12 ZIN A   1      18.417   2.487  11.482  0.00  0.00    -0.356 N 
ATOM     10  C10 ZIN A   1      17.739   1.616  12.256  0.00  0.00     0.254 C 
ATOM     11  O11 ZIN A   1      16.806   0.990  11.793  0.00  0.00    -0.268 OA
ATOM     12  H40 ZIN A   1      19.162   2.986  11.851  0.00  0.00     0.162 HD
BRANCH  10  13
ATOM     13  C9  ZIN A   1      18.132   1.421  13.664  0.00  0.00     0.066 A 
ATOM     14  C3  ZIN A   1      18.427   2.528  14.473  0.00  0.00     0.084 A 
ATOM     15  C4  ZIN A   1      18.795   2.334  15.795  0.00  0.00     0.039 A 
ATOM     16  C5  ZIN A   1      18.875   1.056  16.312  0.00  0.00     0.026 A 
ATOM     17  C6  ZIN A   1      18.590  -0.041  15.515  0.00  0.00     0.035 A 
ATOM     18 Cl7  ZIN A   1      18.696  -1.642  16.179  0.00  0.00    -0.084 Cl
ATOM     19  C8  ZIN A   1      18.221   0.133  14.197  0.00  0.00     0.043 A 
BRANCH  14  20
ATOM     20  O2  ZIN A   1      18.347   3.783  13.964  0.00  0.00    -0.355 OA
ATOM     21  C1  ZIN A   1      17.728   4.777  14.784  0.00  0.00     0.210 C 
ENDBRANCH  14  20
ENDBRANCH  10  13
ENDBRANCH   8   9
ENDBRANCH   7   8
ENDBRANCH   1   7
BRANCH   4  22
ATOM     22  S19 ZIN A   1      18.744  -2.771   6.254  0.00  0.00     0.286 S 
ATOM     23  O20 ZIN A   1      17.670  -2.617   5.336  0.00  0.00    -0.198 OA
ATOM     24  O21 ZIN A   1      20.059  -3.136   5.858  0.00  0.00    -0.198 OA
BRANCH  22  25
ATOM     25  N22 ZIN A   1      18.257  -3.904   7.358  0.00  0.00    -0.117 NA
ATOM     26  C23 ZIN A   1      18.366  -5.171   7.082  0.00  0.00     0.251 C 
BRANCH  26  27
ATOM     27  O24 ZIN A   1      18.877  -5.561   5.894  0.00  0.00    -0.331 OA
ATOM     28  H47 ZIN A   1      18.240  -6.004   5.318  0.00  0.00     0.221 HD
ENDBRANCH  26  27
BRANCH  26  29
ATOM     29  N25 ZIN A   1      17.962  -6.111   7.998  0.00  0.00    -0.350 N 
ATOM     30  H48 ZIN A   1      17.494  -6.907   7.702  0.00  0.00     0.163 HD
BRANCH  29  31
ATOM     31  C26 ZIN A   1      18.240  -5.912   9.423  0.00  0.00     0.085 C 
ATOM     32  C31 ZIN A   1      16.967  -5.445  10.131  0.00  0.00     0.025 C 
ATOM     33  C30 ZIN A   1      17.257  -5.238  11.619  0.00  0.00     0.002 C 
ATOM     34  C29 ZIN A   1      18.349  -4.178  11.782  0.00  0.00     0.000 C 
ATOM     35  C28 ZIN A   1      19.623  -4.646  11.074  0.00  0.00     0.002 C 
ATOM     36  C27 ZIN A   1      19.332  -4.853   9.586  0.00  0.00     0.025 C 
ENDBRANCH  29  31
ENDBRANCH  26  29
ENDBRANCH  22  25
ENDBRANCH   4  22
TORSDOF 10
ENDMDL
