MODEL 1
REMARK VINA RESULT:      -9.5      0.000      0.000
REMARK  6 active torsions:
REMARK  status: ('A' for Active; 'I' for Inactive)
REMARK    1  A    between atoms: C2_2  and  O3_3 
REMARK    2  A    between atoms: O3_3  and  C4_4 
REMARK       I    between atoms: C4_4  and  N6_6 
REMARK    3  A    between atoms: N6_6  and  C7_7 
REMARK    4  A    between atoms: C26_20  and  C28_21 
REMARK    5  A    between atoms: C29_22  and  C30_23 
REMARK    6  A    between atoms: C33_26  and  C34_27 
ROOT
ATOM      1  C7  RES d   1      17.291  -6.675   8.113  0.00  0.00     0.087 C 
ATOM      2  C9  RES d   1      16.918  -5.990   9.430  0.00  0.00     0.026 C 
ATOM      3  C10 RES d   1      17.992  -4.961   9.784  0.00  0.00     0.007 C 
ATOM      4  C11 RES d   1      18.082  -3.905   8.679  0.00  0.00    -0.002 C 
ATOM      5  C13 RES d   1      18.422  -4.587   7.347  0.00  0.00    -0.007 C 
ATOM      6  C15 RES d   1      18.449  -3.519   6.254  0.00  0.00     0.020 C 
ATOM      7  C16 RES d   1      19.536  -2.477   6.520  0.00  0.00     0.093 C 
ATOM      8  C18 RES d   1      19.151  -1.242   5.695  0.00  0.00     0.263 C 
ATOM      9  O19 RES d   1      19.657  -0.874   4.661  0.00  0.00    -0.265 OA
ATOM     10  O20 RES d   1      18.135  -0.648   6.356  0.00  0.00    -0.316 OA
ATOM     11  C21 RES d   1      18.209  -0.945   7.785  0.00  0.00     0.133 C 
ATOM     12  C23 RES d   1      18.442   0.341   8.582  0.00  0.00     0.040 C 
ATOM     13  C24 RES d   1      19.419  -1.910   7.949  0.00  0.00     0.036 C 
ATOM     14  C26 RES d   1      19.203  -2.923   9.022  0.00  0.00     0.020 C 
ATOM     15  C43 RES d   1      17.370  -5.626   7.003  0.00  0.00     0.030 C 
ENDROOT
BRANCH  14  16
ATOM     16  C28 RES d   1      18.877  -2.210  10.309  0.00  0.00    -0.019 C 
ATOM     17  C29 RES d   1      19.837  -1.964  11.192  0.00  0.00     0.028 C 
BRANCH  17  18
ATOM     18  C30 RES d   1      19.518  -1.266  12.453  0.00  0.00     0.056 A 
ATOM     19  N42 RES d   1      19.957  -0.026  12.647  0.00  0.00    -0.260 NA
ATOM     20  C41 RES d   1      19.692   0.637  13.751  0.00  0.00     0.129 A 
ATOM     21  C33 RES d   1      18.945   0.052  14.773  0.00  0.00    -0.008 A 
ATOM     22  C32 RES d   1      18.472  -1.255  14.608  0.00  0.00     0.016 A 
ATOM     23  C31 RES d   1      18.765  -1.917  13.432  0.00  0.00     0.032 A 
BRANCH  21  24
ATOM     24  C34 RES d   1      18.657   0.803  16.018  0.00  0.00    -0.022 A 
ATOM     25  C40 RES d   1      19.110   2.113  16.164  0.00  0.00     0.054 A 
ATOM     26  C38 RES d   1      18.834   2.811  17.326  0.00  0.00     0.117 A 
ATOM     27  C37 RES d   1      18.119   2.205  18.346  0.00  0.00     0.042 A 
ATOM     28  F39 RES d   1      19.268   4.082  17.468  0.00  0.00    -0.206 F 
ATOM     29  C36 RES d   1      17.673   0.904  18.206  0.00  0.00     0.004 A 
ATOM     30  C35 RES d   1      17.938   0.200  17.048  0.00  0.00     0.012 A 
ENDBRANCH  21  24
ENDBRANCH  17  18
ENDBRANCH  14  16
BRANCH   1  31
ATOM     31  N6  RES d   1      16.271  -7.670   7.773  0.00  0.00    -0.332 N 
ATOM     32  C4  RES d   1      16.631  -8.837   7.204  0.00  0.00     0.360 C 
ATOM     33  O5  RES d   1      17.802  -9.064   6.973  0.00  0.00    -0.239 OA
ATOM     34  H49 RES d   1      15.336  -7.489   7.958  0.00  0.00     0.165 HD
BRANCH  32  35
ATOM     35  O3  RES d   1      15.694  -9.752   6.892  0.00  0.00    -0.304 OA
BRANCH  35  36
ATOM     36  C2  RES d   1      14.335  -9.269   6.718  0.00  0.00     0.176 C 
ATOM     37  C1  RES d   1      13.417  -9.954   7.733  0.00  0.00     0.034 C 
ENDBRANCH  35  36
ENDBRANCH  32  35
ENDBRANCH   1  31
TORSDOF 6
ENDMDL
MODEL 2
REMARK VINA RESULT:      -8.5      5.934     12.291
REMARK  6 active torsions:
REMARK  status: ('A' for Active; 'I' for Inactive)
REMARK    1  A    between atoms: C2_2  and  O3_3 
REMARK    2  A    between atoms: O3_3  and  C4_4 
REMARK       I    between atoms: C4_4  and  N6_6 
REMARK    3  A    between atoms: N6_6  and  C7_7 
REMARK    4  A    between atoms: C26_20  and  C28_21 
REMARK    5  A    between atoms: C29_22  and  C30_23 
REMARK    6  A    between atoms: C33_26  and  C34_27 
ROOT
ATOM      1  C7  RES d   1      17.960   6.115  14.954  0.00  0.00     0.087 C 
ATOM      2  C9  RES d   1      17.952   5.544  13.534  0.00  0.00     0.026 C 
ATOM      3  C10 RES d   1      18.934   4.374  13.457  0.00  0.00     0.007 C 
ATOM      4  C11 RES d   1      18.513   3.279  14.440  0.00  0.00    -0.002 C 
ATOM      5  C13 RES d   1      18.484   3.852  15.863  0.00  0.00    -0.007 C 
ATOM      6  C15 RES d   1      18.007   2.755  16.813  0.00  0.00     0.020 C 
ATOM      7  C16 RES d   1      18.970   1.568  16.823  0.00  0.00     0.093 C 
ATOM      8  C18 RES d   1      18.174   0.378  17.375  0.00  0.00     0.263 C 
ATOM      9  O19 RES d   1      18.257  -0.100  18.481  0.00  0.00    -0.265 OA
ATOM     10  O20 RES d   1      17.361  -0.028  16.376  0.00  0.00    -0.316 OA
ATOM     11  C21 RES d   1      17.941   0.304  15.076  0.00  0.00     0.133 C 
ATOM     12  C23 RES d   1      18.248  -0.972  14.290  0.00  0.00     0.040 C 
ATOM     13  C24 RES d   1      19.255   1.076  15.390  0.00  0.00     0.036 C 
ATOM     14  C26 RES d   1      19.543   2.148  14.392  0.00  0.00     0.020 C 
ATOM     15  C43 RES d   1      17.528   5.028  15.938  0.00  0.00     0.030 C 
ENDROOT
BRANCH  14  16
ATOM     16  C28 RES d   1      19.565   1.540  13.014  0.00  0.00    -0.019 C 
ATOM     17  C29 RES d   1      18.823   2.063  12.046  0.00  0.00     0.028 C 
BRANCH  17  18
ATOM     18  C30 RES d   1      18.845   1.468  10.696  0.00  0.00     0.056 A 
ATOM     19  N42 RES d   1      18.646   0.161  10.550  0.00  0.00    -0.260 NA
ATOM     20  C41 RES d   1      18.651  -0.412   9.366  0.00  0.00     0.129 A 
ATOM     21  C33 RES d   1      18.878   0.338   8.212  0.00  0.00    -0.008 A 
ATOM     22  C32 RES d   1      19.097   1.715   8.326  0.00  0.00     0.016 A 
ATOM     23  C31 RES d   1      19.080   2.282   9.586  0.00  0.00     0.032 A 
BRANCH  21  24
ATOM     24  C34 RES d   1      18.889  -0.316   6.882  0.00  0.00    -0.022 A 
ATOM     25  C40 RES d   1      19.152  -1.681   6.776  0.00  0.00     0.054 A 
ATOM     26  C38 RES d   1      19.155  -2.287   5.533  0.00  0.00     0.117 A 
ATOM     27  C37 RES d   1      18.908  -1.536   4.395  0.00  0.00     0.042 A 
ATOM     28  F39 RES d   1      19.404  -3.610   5.429  0.00  0.00    -0.206 F 
ATOM     29  C36 RES d   1      18.654  -0.181   4.495  0.00  0.00     0.004 A 
ATOM     30  C35 RES d   1      18.642   0.432   5.733  0.00  0.00     0.012 A 
ENDBRANCH  21  24
ENDBRANCH  17  18
ENDBRANCH  14  16
BRANCH   1  31
ATOM     31  N6  RES d   1      17.028   7.243  15.031  0.00  0.00    -0.332 N 
ATOM     32  C4  RES d   1      17.256   8.247  15.902  0.00  0.00     0.360 C 
ATOM     33  O5  RES d   1      18.235   8.216  16.621  0.00  0.00    -0.239 OA
ATOM     34  H49 RES d   1      16.247   7.268  14.457  0.00  0.00     0.165 HD
BRANCH  32  35
ATOM     35  O3  RES d   1      16.400   9.284  15.973  0.00  0.00    -0.304 OA
BRANCH  35  36
ATOM     36  C2  RES d   1      14.996   8.997  15.735  0.00  0.00     0.176 C 
ATOM     37  C1  RES d   1      14.213   9.169  17.038  0.00  0.00     0.034 C 
ENDBRANCH  35  36
ENDBRANCH  32  35
ENDBRANCH   1  31
TORSDOF 6
ENDMDL
MODEL 3
REMARK VINA RESULT:      -8.2      5.689     11.867
REMARK  6 active torsions:
REMARK  status: ('A' for Active; 'I' for Inactive)
REMARK    1  A    between atoms: C2_2  and  O3_3 
REMARK    2  A    between atoms: O3_3  and  C4_4 
REMARK       I    between atoms: C4_4  and  N6_6 
REMARK    3  A    between atoms: N6_6  and  C7_7 
REMARK    4  A    between atoms: C26_20  and  C28_21 
REMARK    5  A    between atoms: C29_22  and  C30_23 
REMARK    6  A    between atoms: C33_26  and  C34_27 
ROOT
ATOM      1  C7  RES d   1      18.812   4.560  14.362  0.00  0.00     0.087 C 
ATOM      2  C9  RES d   1      18.280   3.648  13.254  0.00  0.00     0.026 C 
ATOM      3  C10 RES d   1      18.913   2.264  13.394  0.00  0.00     0.007 C 
ATOM      4  C11 RES d   1      18.551   1.663  14.754  0.00  0.00    -0.002 C 
ATOM      5  C13 RES d   1      19.051   2.587  15.871  0.00  0.00    -0.007 C 
ATOM      6  C15 RES d   1      18.627   1.992  17.213  0.00  0.00     0.020 C 
ATOM      7  C16 RES d   1      19.263   0.621  17.441  0.00  0.00     0.093 C 
ATOM      8  C18 RES d   1      18.409  -0.072  18.510  0.00  0.00     0.263 C 
ATOM      9  O19 RES d   1      18.690  -0.228  19.675  0.00  0.00    -0.265 OA
ATOM     10  O20 RES d   1      17.279  -0.474  17.889  0.00  0.00    -0.316 OA
ATOM     11  C21 RES d   1      17.530  -0.704  16.468  0.00  0.00     0.133 C 
ATOM     12  C23 RES d   1      17.311  -2.179  16.123  0.00  0.00     0.040 C 
ATOM     13  C24 RES d   1      19.018  -0.309  16.237  0.00  0.00     0.036 C 
ATOM     14  C26 RES d   1      19.246   0.307  14.897  0.00  0.00     0.020 C 
ATOM     15  C43 RES d   1      18.442   3.969  15.723  0.00  0.00     0.030 C 
ENDROOT
BRANCH  14  16
ATOM     16  C28 RES d   1      18.745  -0.635  13.834  0.00  0.00    -0.019 C 
ATOM     17  C29 RES d   1      19.517  -1.629  13.411  0.00  0.00     0.028 C 
BRANCH  17  18
ATOM     18  C30 RES d   1      19.027  -2.553  12.369  0.00  0.00     0.056 A 
ATOM     19  N42 RES d   1      19.807  -3.545  11.951  0.00  0.00    -0.260 NA
ATOM     20  C41 RES d   1      19.410  -4.396  11.030  0.00  0.00     0.129 A 
ATOM     21  C33 RES d   1      18.150  -4.277  10.446  0.00  0.00    -0.008 A 
ATOM     22  C32 RES d   1      17.303  -3.241  10.855  0.00  0.00     0.016 A 
ATOM     23  C31 RES d   1      17.753  -2.371  11.829  0.00  0.00     0.032 A 
BRANCH  21  24
ATOM     24  C34 RES d   1      17.713  -5.236   9.403  0.00  0.00    -0.022 A 
ATOM     25  C40 RES d   1      16.357  -5.507   9.226  0.00  0.00     0.054 A 
ATOM     26  C38 RES d   1      15.956  -6.398   8.247  0.00  0.00     0.117 A 
ATOM     27  C37 RES d   1      16.900  -7.028   7.452  0.00  0.00     0.042 A 
ATOM     28  F39 RES d   1      14.642  -6.658   8.070  0.00  0.00    -0.206 F 
ATOM     29  C36 RES d   1      18.245  -6.766   7.629  0.00  0.00     0.004 A 
ATOM     30  C35 RES d   1      18.657  -5.873   8.599  0.00  0.00     0.012 A 
ENDBRANCH  21  24
ENDBRANCH  17  18
ENDBRANCH  14  16
BRANCH   1  31
ATOM     31  N6  RES d   1      18.216   5.891  14.228  0.00  0.00    -0.332 N 
ATOM     32  C4  RES d   1      18.872   6.973  14.695  0.00  0.00     0.360 C 
ATOM     33  O5  RES d   1      19.957   6.843  15.225  0.00  0.00    -0.239 OA
ATOM     34  H49 RES d   1      17.350   5.995  13.805  0.00  0.00     0.165 HD
BRANCH  32  35
ATOM     35  O3  RES d   1      18.324   8.197  14.571  0.00  0.00    -0.304 OA
BRANCH  35  36
ATOM     36  C2  RES d   1      17.062   8.426  15.254  0.00  0.00     0.176 C 
ATOM     37  C1  RES d   1      17.327   8.696  16.736  0.00  0.00     0.034 C 
ENDBRANCH  35  36
ENDBRANCH  32  35
ENDBRANCH   1  31
TORSDOF 6
ENDMDL
MODEL 4
REMARK VINA RESULT:      -7.9      5.305     11.577
REMARK  6 active torsions:
REMARK  status: ('A' for Active; 'I' for Inactive)
REMARK    1  A    between atoms: C2_2  and  O3_3 
REMARK    2  A    between atoms: O3_3  and  C4_4 
REMARK       I    between atoms: C4_4  and  N6_6 
REMARK    3  A    between atoms: N6_6  and  C7_7 
REMARK    4  A    between atoms: C26_20  and  C28_21 
REMARK    5  A    between atoms: C29_22  and  C30_23 
REMARK    6  A    between atoms: C33_26  and  C34_27 
ROOT
ATOM      1  C7  RES d   1      17.922   4.238  12.115  0.00  0.00     0.087 C 
ATOM      2  C9  RES d   1      17.385   3.507  10.882  0.00  0.00     0.026 C 
ATOM      3  C10 RES d   1      18.297   2.321  10.563  0.00  0.00     0.007 C 
ATOM      4  C11 RES d   1      18.321   1.353  11.749  0.00  0.00    -0.002 C 
ATOM      5  C13 RES d   1      18.826   2.086  12.998  0.00  0.00    -0.007 C 
ATOM      6  C15 RES d   1      18.785   1.113  14.176  0.00  0.00     0.020 C 
ATOM      7  C16 RES d   1      19.713  -0.079  13.945  0.00  0.00     0.093 C 
ATOM      8  C18 RES d   1      19.228  -1.185  14.891  0.00  0.00     0.263 C 
ATOM      9  O19 RES d   1      19.746  -1.534  15.926  0.00  0.00    -0.265 OA
ATOM     10  O20 RES d   1      18.105  -1.691  14.337  0.00  0.00    -0.316 OA
ATOM     11  C21 RES d   1      18.128  -1.519  12.885  0.00  0.00     0.133 C 
ATOM     12  C23 RES d   1      18.147  -2.882  12.190  0.00  0.00     0.040 C 
ATOM     13  C24 RES d   1      19.438  -0.737  12.578  0.00  0.00     0.036 C 
ATOM     14  C26 RES d   1      19.286   0.208  11.434  0.00  0.00     0.020 C 
ATOM     15  C43 RES d   1      17.937   3.278  13.305  0.00  0.00     0.030 C 
ENDROOT
BRANCH  14  16
ATOM     16  C28 RES d   1      18.794  -0.554  10.231  0.00  0.00    -0.019 C 
ATOM     17  C29 RES d   1      19.663  -1.045   9.356  0.00  0.00     0.028 C 
BRANCH  17  18
ATOM     18  C30 RES d   1      19.181  -1.792   8.177  0.00  0.00     0.056 A 
ATOM     19  N42 RES d   1      18.770  -3.048   8.319  0.00  0.00    -0.260 NA
ATOM     20  C41 RES d   1      18.327  -3.751   7.299  0.00  0.00     0.129 A 
ATOM     21  C33 RES d   1      18.285  -3.199   6.019  0.00  0.00    -0.008 A 
ATOM     22  C32 RES d   1      18.716  -1.882   5.829  0.00  0.00     0.016 A 
ATOM     23  C31 RES d   1      19.169  -1.174   6.926  0.00  0.00     0.032 A 
BRANCH  21  24
ATOM     24  C34 RES d   1      17.791  -4.000   4.873  0.00  0.00    -0.022 A 
ATOM     25  C40 RES d   1      17.116  -3.377   3.824  0.00  0.00     0.054 A 
ATOM     26  C38 RES d   1      16.663  -4.129   2.756  0.00  0.00     0.117 A 
ATOM     27  C37 RES d   1      16.870  -5.498   2.732  0.00  0.00     0.042 A 
ATOM     28  F39 RES d   1      16.013  -3.527   1.736  0.00  0.00    -0.206 F 
ATOM     29  C36 RES d   1      17.534  -6.120   3.774  0.00  0.00     0.004 A 
ATOM     30  C35 RES d   1      17.996  -5.378   4.843  0.00  0.00     0.012 A 
ENDBRANCH  21  24
ENDBRANCH  17  18
ENDBRANCH  14  16
BRANCH   1  31
ATOM     31  N6  RES d   1      17.059   5.382  12.420  0.00  0.00    -0.332 N 
ATOM     32  C4  RES d   1      17.352   6.189  13.458  0.00  0.00     0.360 C 
ATOM     33  O5  RES d   1      18.333   5.969  14.140  0.00  0.00    -0.239 OA
ATOM     34  H49 RES d   1      16.276   5.558  11.875  0.00  0.00     0.165 HD
BRANCH  32  35
ATOM     35  O3  RES d   1      16.559   7.241  13.738  0.00  0.00    -0.304 OA
BRANCH  35  36
ATOM     36  C2  RES d   1      15.689   7.121  14.895  0.00  0.00     0.176 C 
ATOM     37  C1  RES d   1      15.643   8.457  15.639  0.00  0.00     0.034 C 
ENDBRANCH  35  36
ENDBRANCH  32  35
ENDBRANCH   1  31
TORSDOF 6
ENDMDL
MODEL 5
REMARK VINA RESULT:      -7.5      3.543      5.288
REMARK  6 active torsions:
REMARK  status: ('A' for Active; 'I' for Inactive)
REMARK    1  A    between atoms: C2_2  and  O3_3 
REMARK    2  A    between atoms: O3_3  and  C4_4 
REMARK       I    between atoms: C4_4  and  N6_6 
REMARK    3  A    between atoms: N6_6  and  C7_7 
REMARK    4  A    between atoms: C26_20  and  C28_21 
REMARK    5  A    between atoms: C29_22  and  C30_23 
REMARK    6  A    between atoms: C33_26  and  C34_27 
ROOT
ATOM      1  C7  RES d   1      18.016  -3.091   6.003  0.00  0.00     0.087 C 
ATOM      2  C9  RES d   1      18.499  -1.734   6.520  0.00  0.00     0.026 C 
ATOM      3  C10 RES d   1      17.756  -1.393   7.812  0.00  0.00     0.007 C 
ATOM      4  C11 RES d   1      18.040  -2.462   8.870  0.00  0.00    -0.002 C 
ATOM      5  C13 RES d   1      17.591  -3.833   8.347  0.00  0.00    -0.007 C 
ATOM      6  C15 RES d   1      17.938  -4.886   9.399  0.00  0.00     0.020 C 
ATOM      7  C16 RES d   1      17.191  -4.633  10.708  0.00  0.00     0.093 C 
ATOM      8  C18 RES d   1      17.966  -5.393  11.793  0.00  0.00     0.263 C 
ATOM      9  O19 RES d   1      17.649  -6.436  12.315  0.00  0.00    -0.265 OA
ATOM     10  O20 RES d   1      19.073  -4.664  12.047  0.00  0.00    -0.316 OA
ATOM     11  C21 RES d   1      18.836  -3.252  11.755  0.00  0.00     0.133 C 
ATOM     12  C23 RES d   1      18.946  -2.420  13.035  0.00  0.00     0.040 C 
ATOM     13  C24 RES d   1      17.389  -3.181  11.186  0.00  0.00     0.036 C 
ATOM     14  C26 RES d   1      17.239  -2.136  10.132  0.00  0.00     0.020 C 
ATOM     15  C43 RES d   1      18.309  -4.164   7.053  0.00  0.00     0.030 C 
ENDROOT
BRANCH  14  16
ATOM     16  C28 RES d   1      17.687  -0.810  10.690  0.00  0.00    -0.019 C 
ATOM     17  C29 RES d   1      16.888  -0.128  11.500  0.00  0.00     0.028 C 
BRANCH  17  18
ATOM     18  C30 RES d   1      17.326   1.171  12.047  0.00  0.00     0.056 A 
ATOM     19  N42 RES d   1      17.548   1.294  13.352  0.00  0.00    -0.260 NA
ATOM     20  C41 RES d   1      17.946   2.430  13.883  0.00  0.00     0.129 A 
ATOM     21  C33 RES d   1      18.138   3.559  13.088  0.00  0.00    -0.008 A 
ATOM     22  C32 RES d   1      17.908   3.471  11.711  0.00  0.00     0.016 A 
ATOM     23  C31 RES d   1      17.497   2.260  11.189  0.00  0.00     0.032 A 
BRANCH  21  24
ATOM     24  C34 RES d   1      18.579   4.838  13.695  0.00  0.00    -0.022 A 
ATOM     25  C40 RES d   1      19.927   5.049  13.978  0.00  0.00     0.054 A 
ATOM     26  C38 RES d   1      20.333   6.246  14.539  0.00  0.00     0.117 A 
ATOM     27  C37 RES d   1      19.400   7.228  14.830  0.00  0.00     0.042 A 
ATOM     28  F39 RES d   1      21.640   6.455  14.809  0.00  0.00    -0.206 F 
ATOM     29  C36 RES d   1      18.061   7.019  14.557  0.00  0.00     0.004 A 
ATOM     30  C35 RES d   1      17.646   5.830  13.991  0.00  0.00     0.012 A 
ENDBRANCH  21  24
ENDBRANCH  17  18
ENDBRANCH  14  16
BRANCH   1  31
ATOM     31  N6  RES d   1      18.717  -3.419   4.759  0.00  0.00    -0.332 N 
ATOM     32  C4  RES d   1      18.049  -3.996   3.741  0.00  0.00     0.360 C 
ATOM     33  O5  RES d   1      16.865  -4.243   3.854  0.00  0.00    -0.239 OA
ATOM     34  H49 RES d   1      19.662  -3.221   4.668  0.00  0.00     0.165 HD
BRANCH  32  35
ATOM     35  O3  RES d   1      18.693  -4.296   2.597  0.00  0.00    -0.304 OA
BRANCH  35  36
ATOM     36  C2  RES d   1      17.940  -5.017   1.586  0.00  0.00     0.176 C 
ATOM     37  C1  RES d   1      18.793  -6.160   1.033  0.00  0.00     0.034 C 
ENDBRANCH  35  36
ENDBRANCH  32  35
ENDBRANCH   1  31
TORSDOF 6
ENDMDL
MODEL 6
REMARK VINA RESULT:      -7.0      4.617     10.299
REMARK  6 active torsions:
REMARK  status: ('A' for Active; 'I' for Inactive)
REMARK    1  A    between atoms: C2_2  and  O3_3 
REMARK    2  A    between atoms: O3_3  and  C4_4 
REMARK       I    between atoms: C4_4  and  N6_6 
REMARK    3  A    between atoms: N6_6  and  C7_7 
REMARK    4  A    between atoms: C26_20  and  C28_21 
REMARK    5  A    between atoms: C29_22  and  C30_23 
REMARK    6  A    between atoms: C33_26  and  C34_27 
ROOT
ATOM      1  C7  RES d   1      18.553  -0.916  13.971  0.00  0.00     0.087 C 
ATOM      2  C9  RES d   1      18.620  -2.259  13.240  0.00  0.00     0.026 C 
ATOM      3  C10 RES d   1      17.761  -2.189  11.977  0.00  0.00     0.007 C 
ATOM      4  C11 RES d   1      18.287  -1.088  11.053  0.00  0.00    -0.002 C 
ATOM      5  C13 RES d   1      18.256   0.257  11.789  0.00  0.00    -0.007 C 
ATOM      6  C15 RES d   1      18.840   1.325  10.864  0.00  0.00     0.020 C 
ATOM      7  C16 RES d   1      18.000   1.483   9.596  0.00  0.00     0.093 C 
ATOM      8  C18 RES d   1      18.910   2.162   8.565  0.00  0.00     0.263 C 
ATOM      9  O19 RES d   1      18.874   3.318   8.214  0.00  0.00    -0.265 OA
ATOM     10  O20 RES d   1      19.762   1.209   8.127  0.00  0.00    -0.316 OA
ATOM     11  C21 RES d   1      19.154  -0.115   8.245  0.00  0.00     0.133 C 
ATOM     12  C23 RES d   1      18.978  -0.742   6.861  0.00  0.00     0.040 C 
ATOM     13  C24 RES d   1      17.768   0.120   8.914  0.00  0.00     0.036 C 
ATOM     14  C26 RES d   1      17.377  -0.993   9.827  0.00  0.00     0.020 C 
ATOM     15  C43 RES d   1      19.090   0.184  13.055  0.00  0.00     0.030 C 
ENDROOT
BRANCH  14  16
ATOM     16  C28 RES d   1      17.417  -2.291   9.062  0.00  0.00    -0.019 C 
ATOM     17  C29 RES d   1      17.039  -3.419   9.649  0.00  0.00     0.028 C 
BRANCH  17  18
ATOM     18  C30 RES d   1      17.078  -4.690   8.901  0.00  0.00     0.056 A 
ATOM     19  N42 RES d   1      17.542  -4.705   7.655  0.00  0.00    -0.260 NA
ATOM     20  C41 RES d   1      17.602  -5.815   6.952  0.00  0.00     0.129 A 
ATOM     21  C33 RES d   1      17.166  -7.025   7.491  0.00  0.00    -0.008 A 
ATOM     22  C32 RES d   1      16.664  -7.048   8.797  0.00  0.00     0.016 A 
ATOM     23  C31 RES d   1      16.622  -5.863   9.506  0.00  0.00     0.032 A 
BRANCH  21  24
ATOM     24  C34 RES d   1      17.230  -8.270   6.690  0.00  0.00    -0.022 A 
ATOM     25  C40 RES d   1      16.942  -8.240   5.326  0.00  0.00     0.054 A 
ATOM     26  C38 RES d   1      17.009  -9.405   4.583  0.00  0.00     0.117 A 
ATOM     27  C37 RES d   1      17.350 -10.600   5.195  0.00  0.00     0.042 A 
ATOM     28  F39 RES d   1      16.736  -9.377   3.261  0.00  0.00    -0.206 F 
ATOM     29  C36 RES d   1      17.629 -10.635   6.548  0.00  0.00     0.004 A 
ATOM     30  C35 RES d   1      17.572  -9.477   7.298  0.00  0.00     0.012 A 
ENDBRANCH  21  24
ENDBRANCH  17  18
ENDBRANCH  14  16
BRANCH   1  31
ATOM     31  N6  RES d   1      19.367  -0.980  15.187  0.00  0.00    -0.332 N 
ATOM     32  C4  RES d   1      18.774  -1.145  16.387  0.00  0.00     0.360 C 
ATOM     33  O5  RES d   1      17.566  -1.242  16.458  0.00  0.00    -0.239 OA
ATOM     34  H49 RES d   1      20.332  -0.904  15.130  0.00  0.00     0.165 HD
BRANCH  32  35
ATOM     35  O3  RES d   1      19.523  -1.205  17.505  0.00  0.00    -0.304 OA
BRANCH  35  36
ATOM     36  C2  RES d   1      19.192  -0.273  18.569  0.00  0.00     0.176 C 
ATOM     37  C1  RES d   1      19.243   1.157  18.028  0.00  0.00     0.034 C 
ENDBRANCH  35  36
ENDBRANCH  32  35
ENDBRANCH   1  31
TORSDOF 6
ENDMDL
MODEL 7
REMARK VINA RESULT:      -7.0      5.286     11.655
REMARK  6 active torsions:
REMARK  status: ('A' for Active; 'I' for Inactive)
REMARK    1  A    between atoms: C2_2  and  O3_3 
REMARK    2  A    between atoms: O3_3  and  C4_4 
REMARK       I    between atoms: C4_4  and  N6_6 
REMARK    3  A    between atoms: N6_6  and  C7_7 
REMARK    4  A    between atoms: C26_20  and  C28_21 
REMARK    5  A    between atoms: C29_22  and  C30_23 
REMARK    6  A    between atoms: C33_26  and  C34_27 
ROOT
ATOM      1  C7  RES d   1      18.432   4.655  13.836  0.00  0.00     0.087 C 
ATOM      2  C9  RES d   1      17.952   4.055  12.513  0.00  0.00     0.026 C 
ATOM      3  C10 RES d   1      18.795   2.823  12.183  0.00  0.00     0.007 C 
ATOM      4  C11 RES d   1      18.642   1.778  13.292  0.00  0.00    -0.002 C 
ATOM      5  C13 RES d   1      19.089   2.382  14.629  0.00  0.00    -0.007 C 
ATOM      6  C15 RES d   1      18.872   1.338  15.724  0.00  0.00     0.020 C 
ATOM      7  C16 RES d   1      19.724   0.092  15.482  0.00  0.00     0.093 C 
ATOM      8  C18 RES d   1      19.075  -1.032  16.301  0.00  0.00     0.263 C 
ATOM      9  O19 RES d   1      19.472  -1.491  17.346  0.00  0.00    -0.265 OA
ATOM     10  O20 RES d   1      17.971  -1.405  15.620  0.00  0.00    -0.316 OA
ATOM     11  C21 RES d   1      18.134  -1.139  14.193  0.00  0.00     0.133 C 
ATOM     12  C23 RES d   1      18.110  -2.449  13.403  0.00  0.00     0.040 C 
ATOM     13  C24 RES d   1      19.521  -0.447  14.052  0.00  0.00     0.036 C 
ATOM     14  C26 RES d   1      19.541   0.582  12.973  0.00  0.00     0.020 C 
ATOM     15  C43 RES d   1      18.270   3.619  14.949  0.00  0.00     0.030 C 
ENDROOT
BRANCH  14  16
ATOM     16  C28 RES d   1      19.100  -0.055  11.681  0.00  0.00    -0.019 C 
ATOM     17  C29 RES d   1      19.909  -0.892  11.044  0.00  0.00     0.028 C 
BRANCH  17  18
ATOM     18  C30 RES d   1      19.478  -1.517   9.778  0.00  0.00     0.056 A 
ATOM     19  N42 RES d   1      19.424  -0.785   8.669  0.00  0.00    -0.260 NA
ATOM     20  C41 RES d   1      19.052  -1.300   7.518  0.00  0.00     0.129 A 
ATOM     21  C33 RES d   1      18.686  -2.642   7.422  0.00  0.00    -0.008 A 
ATOM     22  C32 RES d   1      18.724  -3.443   8.570  0.00  0.00     0.016 A 
ATOM     23  C31 RES d   1      19.125  -2.867   9.760  0.00  0.00     0.032 A 
BRANCH  21  24
ATOM     24  C34 RES d   1      18.260  -3.214   6.122  0.00  0.00    -0.022 A 
ATOM     25  C40 RES d   1      17.873  -2.372   5.082  0.00  0.00     0.054 A 
ATOM     26  C38 RES d   1      17.482  -2.911   3.870  0.00  0.00     0.117 A 
ATOM     27  C37 RES d   1      17.465  -4.285   3.694  0.00  0.00     0.042 A 
ATOM     28  F39 RES d   1      17.112  -2.096   2.858  0.00  0.00    -0.206 F 
ATOM     29  C36 RES d   1      17.842  -5.123   4.726  0.00  0.00     0.004 A 
ATOM     30  C35 RES d   1      18.240  -4.596   5.939  0.00  0.00     0.012 A 
ENDBRANCH  21  24
ENDBRANCH  17  18
ENDBRANCH  14  16
BRANCH   1  31
ATOM     31  N6  RES d   1      17.635   5.842  14.153  0.00  0.00    -0.332 N 
ATOM     32  C4  RES d   1      18.163   6.827  14.907  0.00  0.00     0.360 C 
ATOM     33  O5  RES d   1      19.300   6.730  15.323  0.00  0.00    -0.239 OA
ATOM     34  H49 RES d   1      16.727   5.920  13.821  0.00  0.00     0.165 HD
BRANCH  32  35
ATOM     35  O3  RES d   1      17.429   7.918  15.198  0.00  0.00    -0.304 OA
BRANCH  35  36
ATOM     36  C2  RES d   1      16.039   7.909  14.777  0.00  0.00     0.176 C 
ATOM     37  C1  RES d   1      15.138   8.133  15.993  0.00  0.00     0.034 C 
ENDBRANCH  35  36
ENDBRANCH  32  35
ENDBRANCH   1  31
TORSDOF 6
ENDMDL
