MODEL 1
REMARK VINA RESULT:      -7.8      0.000      0.000
REMARK  3 active torsions:
REMARK  status: ('A' for Active; 'I' for Inactive)
REMARK    1  A    between atoms: C7_7  and  N8_8 
REMARK    2  A    between atoms: C13_13  and  S14_14 
REMARK    3  A    between atoms: S14_14  and  N15_15 
ROOT
ATOM      1  N8  <0> d   1      18.399   1.314  10.317  0.00  0.00    -0.292 N 
ATOM      2  C9  <0> d   1      18.624   1.241   8.989  0.00  0.00     0.262 C 
ATOM      3  O10 <0> d   1      18.846   2.250   8.347  0.00  0.00    -0.267 OA
ATOM      4  C11 <0> d   1      18.601  -0.074   8.325  0.00  0.00     0.060 A 
ATOM      5  C12 <0> d   1      18.544  -0.193   6.939  0.00  0.00     0.046 A 
ATOM      6  C13 <0> d   1      18.529  -1.448   6.365  0.00  0.00     0.102 A 
ATOM      7  C18 <0> d   1      18.572  -2.586   7.158  0.00  0.00     0.059 A 
ATOM      8 Cl19 <0> d   1      18.557  -4.154   6.414  0.00  0.00    -0.083 Cl
ATOM      9  C20 <0> d   1      18.626  -2.480   8.537  0.00  0.00     0.055 A 
ATOM     10  C21 <0> d   1      18.638  -1.230   9.126  0.00  0.00     0.047 A 
ATOM     11  N22 <0> d   1      18.682  -1.067  10.507  0.00  0.00    -0.368 N 
ATOM     12  C23 <0> d   1      18.059   0.122  11.094  0.00  0.00     0.188 C 
ATOM     13  C25 <0> d   1      16.538  -0.051  11.093  0.00  0.00     0.056 C 
ATOM     14  H37 <0> d   1      19.119  -1.725  11.070  0.00  0.00     0.161 HD
ENDROOT
BRANCH   1  15
ATOM     15  C7  <0> d   1      18.499   2.549  10.964  0.00  0.00     0.045 A 
ATOM     16  C2  <0> d   1      19.597   2.829  11.767  0.00  0.00    -0.035 A 
ATOM     17  C1  <0> d   1      20.688   1.802  11.937  0.00  0.00     0.050 C 
ATOM     18  C3  <0> d   1      19.693   4.050  12.404  0.00  0.00     0.009 A 
ATOM     19  C4  <0> d   1      18.692   4.992  12.249  0.00  0.00     0.001 A 
ATOM     20  C5  <0> d   1      17.594   4.716  11.456  0.00  0.00     0.002 A 
ATOM     21  C6  <0> d   1      17.493   3.496  10.815  0.00  0.00     0.030 A 
ENDBRANCH   1  15
BRANCH   6  22
ATOM     22  S14 <0> d   1      18.456  -1.606   4.612  0.00  0.00     0.258 S 
ATOM     23  O16 <0> d   1      19.638  -2.291   4.222  0.00  0.00    -0.201 OA
ATOM     24  O17 <0> d   1      17.150  -2.073   4.305  0.00  0.00    -0.201 OA
BRANCH  22  25
ATOM     25  N15 <0> d   1      18.569  -0.081   3.976  0.00  0.00    -0.324 N 
ATOM     26  H34 <0> d   1      19.347   0.171   3.456  0.00  0.00     0.169 HD
ATOM     27  H35 <0> d   1      17.856   0.561   4.126  0.00  0.00     0.169 HD
ENDBRANCH  22  25
ENDBRANCH   6  22
TORSDOF 3
ENDMDL
MODEL 2
REMARK VINA RESULT:      -7.7      5.350      8.262
REMARK  3 active torsions:
REMARK  status: ('A' for Active; 'I' for Inactive)
REMARK    1  A    between atoms: C7_7  and  N8_8 
REMARK    2  A    between atoms: C13_13  and  S14_14 
REMARK    3  A    between atoms: S14_14  and  N15_15 
ROOT
ATOM      1  N8  <0> d   1      18.876   1.379  11.410  0.00  0.00    -0.292 N 
ATOM      2  C9  <0> d   1      18.468   2.547  11.947  0.00  0.00     0.262 C 
ATOM      3  O10 <0> d   1      17.961   3.402  11.246  0.00  0.00    -0.267 OA
ATOM      4  C11 <0> d   1      18.641   2.776  13.392  0.00  0.00     0.060 A 
ATOM      5  C12 <0> d   1      18.506   4.043  13.955  0.00  0.00     0.046 A 
ATOM      6  C13 <0> d   1      18.673   4.203  15.315  0.00  0.00     0.102 A 
ATOM      7  C18 <0> d   1      18.972   3.115  16.121  0.00  0.00     0.059 A 
ATOM      8 Cl19 <0> d   1      19.172   3.340  17.830  0.00  0.00    -0.083 Cl
ATOM      9  C20 <0> d   1      19.111   1.852  15.574  0.00  0.00     0.055 A 
ATOM     10  C21 <0> d   1      18.949   1.675  14.212  0.00  0.00     0.047 A 
ATOM     11  N22 <0> d   1      19.088   0.429  13.609  0.00  0.00    -0.368 N 
ATOM     12  C23 <0> d   1      19.554   0.369  12.222  0.00  0.00     0.188 C 
ATOM     13  C25 <0> d   1      21.061   0.632  12.182  0.00  0.00     0.056 C 
ATOM     14  H37 <0> d   1      18.877  -0.383  14.096  0.00  0.00     0.161 HD
ENDROOT
BRANCH   1  15
ATOM     15  C7  <0> d   1      18.642   1.127  10.055  0.00  0.00     0.045 A 
ATOM     16  C2  <0> d   1      17.590   0.306   9.671  0.00  0.00    -0.035 A 
ATOM     17  C1  <0> d   1      16.694  -0.311  10.715  0.00  0.00     0.050 C 
ATOM     18  C3  <0> d   1      17.361   0.059   8.332  0.00  0.00     0.009 A 
ATOM     19  C4  <0> d   1      18.182   0.623   7.373  0.00  0.00     0.001 A 
ATOM     20  C5  <0> d   1      19.235   1.436   7.751  0.00  0.00     0.002 A 
ATOM     21  C6  <0> d   1      19.468   1.688   9.090  0.00  0.00     0.030 A 
ENDBRANCH   1  15
BRANCH   6  22
ATOM     22  S14 <0> d   1      18.505   5.804  16.033  0.00  0.00     0.258 S 
ATOM     23  O16 <0> d   1      17.413   5.724  16.938  0.00  0.00    -0.201 OA
ATOM     24  O17 <0> d   1      19.810   6.208  16.422  0.00  0.00    -0.201 OA
BRANCH  22  25
ATOM     25  N15 <0> d   1      18.036   6.836  14.825  0.00  0.00    -0.324 N 
ATOM     26  H34 <0> d   1      18.086   7.795  14.960  0.00  0.00     0.169 HD
ATOM     27  H35 <0> d   1      17.711   6.481  13.983  0.00  0.00     0.169 HD
ENDBRANCH  22  25
ENDBRANCH   6  22
TORSDOF 3
ENDMDL
MODEL 3
REMARK VINA RESULT:      -7.7      3.027      4.107
REMARK  3 active torsions:
REMARK  status: ('A' for Active; 'I' for Inactive)
REMARK    1  A    between atoms: C7_7  and  N8_8 
REMARK    2  A    between atoms: C13_13  and  S14_14 
REMARK    3  A    between atoms: S14_14  and  N15_15 
ROOT
ATOM      1  N8  <0> d   1      18.664   0.175  12.446  0.00  0.00    -0.292 N 
ATOM      2  C9  <0> d   1      18.202  -0.576  11.425  0.00  0.00     0.262 C 
ATOM      3  O10 <0> d   1      17.549  -1.578  11.646  0.00  0.00    -0.267 OA
ATOM      4  C11 <0> d   1      18.497  -0.169  10.040  0.00  0.00     0.060 A 
ATOM      5  C12 <0> d   1      18.300  -1.032   8.965  0.00  0.00     0.046 A 
ATOM      6  C13 <0> d   1      18.587  -0.601   7.687  0.00  0.00     0.102 A 
ATOM      7  C18 <0> d   1      19.067   0.681   7.466  0.00  0.00     0.059 A 
ATOM      8 Cl19 <0> d   1      19.416   1.204   5.848  0.00  0.00    -0.083 Cl
ATOM      9  C20 <0> d   1      19.269   1.548   8.527  0.00  0.00     0.055 A 
ATOM     10  C21 <0> d   1      18.990   1.129   9.814  0.00  0.00     0.047 A 
ATOM     11  N22 <0> d   1      19.185   1.956  10.916  0.00  0.00    -0.368 N 
ATOM     12  C23 <0> d   1      19.513   1.342  12.205  0.00  0.00     0.188 C 
ATOM     13  C25 <0> d   1      20.976   0.894  12.195  0.00  0.00     0.056 C 
ATOM     14  H37 <0> d   1      19.102   2.919  10.834  0.00  0.00     0.161 HD
ENDROOT
BRANCH   1  15
ATOM     15  C7  <0> d   1      18.320  -0.163  13.759  0.00  0.00     0.045 A 
ATOM     16  C2  <0> d   1      18.909  -1.261  14.373  0.00  0.00    -0.035 A 
ATOM     17  C1  <0> d   1      19.927  -2.086  13.627  0.00  0.00     0.050 C 
ATOM     18  C3  <0> d   1      18.567  -1.592  15.669  0.00  0.00     0.009 A 
ATOM     19  C4  <0> d   1      17.633  -0.836  16.353  0.00  0.00     0.001 A 
ATOM     20  C5  <0> d   1      17.039   0.254  15.743  0.00  0.00     0.002 A 
ATOM     21  C6  <0> d   1      17.378   0.591  14.447  0.00  0.00     0.030 A 
ENDBRANCH   1  15
BRANCH   6  22
ATOM     22  S14 <0> d   1      18.340  -1.689   6.322  0.00  0.00     0.258 S 
ATOM     23  O16 <0> d   1      17.260  -1.151   5.571  0.00  0.00    -0.201 OA
ATOM     24  O17 <0> d   1      19.625  -1.936   5.769  0.00  0.00    -0.201 OA
BRANCH  22  25
ATOM     25  N15 <0> d   1      17.810  -3.133   6.935  0.00  0.00    -0.324 N 
ATOM     26  H34 <0> d   1      18.431  -3.868   7.050  0.00  0.00     0.169 HD
ATOM     27  H35 <0> d   1      16.877  -3.242   7.180  0.00  0.00     0.169 HD
ENDBRANCH  22  25
ENDBRANCH   6  22
TORSDOF 3
ENDMDL
MODEL 4
REMARK VINA RESULT:      -7.6      3.913      4.554
REMARK  3 active torsions:
REMARK  status: ('A' for Active; 'I' for Inactive)
REMARK    1  A    between atoms: C7_7  and  N8_8 
REMARK    2  A    between atoms: C13_13  and  S14_14 
REMARK    3  A    between atoms: S14_14  and  N15_15 
ROOT
ATOM      1  N8  <0> d   1      18.689   1.156  11.485  0.00  0.00    -0.292 N 
ATOM      2  C9  <0> d   1      17.893   0.099  11.228  0.00  0.00     0.262 C 
ATOM      3  O10 <0> d   1      16.722   0.266  10.943  0.00  0.00    -0.267 OA
ATOM      4  C11 <0> d   1      18.455  -1.261  11.297  0.00  0.00     0.060 A 
ATOM      5  C12 <0> d   1      17.641  -2.391  11.323  0.00  0.00     0.046 A 
ATOM      6  C13 <0> d   1      18.217  -3.642  11.382  0.00  0.00     0.102 A 
ATOM      7  C18 <0> d   1      19.597  -3.782  11.414  0.00  0.00     0.059 A 
ATOM      8 Cl19 <0> d   1      20.300  -5.367  11.483  0.00  0.00    -0.083 Cl
ATOM      9  C20 <0> d   1      20.417  -2.667  11.391  0.00  0.00     0.055 A 
ATOM     10  C21 <0> d   1      19.854  -1.406  11.335  0.00  0.00     0.047 A 
ATOM     11  N22 <0> d   1      20.631  -0.252  11.321  0.00  0.00    -0.368 N 
ATOM     12  C23 <0> d   1      20.079   0.974  11.902  0.00  0.00     0.188 C 
ATOM     13  C25 <0> d   1      20.129   0.877  13.428  0.00  0.00     0.056 C 
ATOM     14  H37 <0> d   1      21.520  -0.258  10.931  0.00  0.00     0.161 HD
ENDROOT
BRANCH   1  15
ATOM     15  C7  <0> d   1      18.180   2.451  11.344  0.00  0.00     0.045 A 
ATOM     16  C2  <0> d   1      18.257   3.100  10.119  0.00  0.00    -0.035 A 
ATOM     17  C1  <0> d   1      18.885   2.408   8.936  0.00  0.00     0.050 C 
ATOM     18  C3  <0> d   1      17.752   4.378   9.983  0.00  0.00     0.009 A 
ATOM     19  C4  <0> d   1      17.176   5.014  11.067  0.00  0.00     0.001 A 
ATOM     20  C5  <0> d   1      17.103   4.374  12.291  0.00  0.00     0.002 A 
ATOM     21  C6  <0> d   1      17.606   3.095  12.433  0.00  0.00     0.030 A 
ENDBRANCH   1  15
BRANCH   6  22
ATOM     22  S14 <0> d   1      17.192  -5.076  11.415  0.00  0.00     0.258 S 
ATOM     23  O16 <0> d   1      17.520  -5.775  12.608  0.00  0.00    -0.201 OA
ATOM     24  O17 <0> d   1      15.877  -4.635  11.108  0.00  0.00    -0.201 OA
BRANCH  22  25
ATOM     25  N15 <0> d   1      17.665  -6.046  10.160  0.00  0.00    -0.324 N 
ATOM     26  H34 <0> d   1      18.171  -5.673   9.422  0.00  0.00     0.169 HD
ATOM     27  H35 <0> d   1      17.436  -6.990  10.163  0.00  0.00     0.169 HD
ENDBRANCH  22  25
ENDBRANCH   6  22
TORSDOF 3
ENDMDL
MODEL 5
REMARK VINA RESULT:      -7.6      3.278      4.454
REMARK  3 active torsions:
REMARK  status: ('A' for Active; 'I' for Inactive)
REMARK    1  A    between atoms: C7_7  and  N8_8 
REMARK    2  A    between atoms: C13_13  and  S14_14 
REMARK    3  A    between atoms: S14_14  and  N15_15 
ROOT
ATOM      1  N8  <0> d   1      18.911  -1.208  11.687  0.00  0.00    -0.292 N 
ATOM      2  C9  <0> d   1      18.439  -2.357  11.159  0.00  0.00     0.262 C 
ATOM      3  O10 <0> d   1      17.858  -3.163  11.861  0.00  0.00    -0.267 OA
ATOM      4  C11 <0> d   1      18.633  -2.623   9.723  0.00  0.00     0.060 A 
ATOM      5  C12 <0> d   1      18.428  -3.888   9.178  0.00  0.00     0.046 A 
ATOM      6  C13 <0> d   1      18.619  -4.084   7.826  0.00  0.00     0.102 A 
ATOM      7  C18 <0> d   1      19.009  -3.033   7.009  0.00  0.00     0.059 A 
ATOM      8 Cl19 <0> d   1      19.237  -3.302   5.310  0.00  0.00    -0.083 Cl
ATOM      9  C20 <0> d   1      19.218  -1.771   7.540  0.00  0.00     0.055 A 
ATOM     10  C21 <0> d   1      19.034  -1.560   8.893  0.00  0.00     0.047 A 
ATOM     11  N22 <0> d   1      19.240  -0.315   9.479  0.00  0.00    -0.368 N 
ATOM     12  C23 <0> d   1      19.674  -0.260  10.877  0.00  0.00     0.188 C 
ATOM     13  C25 <0> d   1      21.159  -0.622  10.962  0.00  0.00     0.056 C 
ATOM     14  H37 <0> d   1      19.097   0.501   8.973  0.00  0.00     0.161 HD
ENDROOT
BRANCH   1  15
ATOM     15  C7  <0> d   1      18.659  -0.916  13.032  0.00  0.00     0.045 A 
ATOM     16  C2  <0> d   1      17.664  -0.010  13.373  0.00  0.00    -0.035 A 
ATOM     17  C1  <0> d   1      16.849   0.658  12.295  0.00  0.00     0.050 C 
ATOM     18  C3  <0> d   1      17.418   0.276  14.702  0.00  0.00     0.009 A 
ATOM     19  C4  <0> d   1      18.166  -0.335  15.691  0.00  0.00     0.001 A 
ATOM     20  C5  <0> d   1      19.162  -1.234  15.355  0.00  0.00     0.002 A 
ATOM     21  C6  <0> d   1      19.412  -1.524  14.028  0.00  0.00     0.030 A 
ENDBRANCH   1  15
BRANCH   6  22
ATOM     22  S14 <0> d   1      18.362  -5.682   7.130  0.00  0.00     0.258 S 
ATOM     23  O16 <0> d   1      17.230  -5.572   6.278  0.00  0.00    -0.201 OA
ATOM     24  O17 <0> d   1      19.632  -6.133   6.681  0.00  0.00    -0.201 OA
BRANCH  22  25
ATOM     25  N15 <0> d   1      17.919  -6.690   8.367  0.00  0.00    -0.324 N 
ATOM     26  H34 <0> d   1      17.324  -7.436   8.195  0.00  0.00     0.169 HD
ATOM     27  H35 <0> d   1      18.254  -6.534   9.265  0.00  0.00     0.169 HD
ENDBRANCH  22  25
ENDBRANCH   6  22
TORSDOF 3
ENDMDL
MODEL 6
REMARK VINA RESULT:      -7.5      3.835      7.457
REMARK  3 active torsions:
REMARK  status: ('A' for Active; 'I' for Inactive)
REMARK    1  A    between atoms: C7_7  and  N8_8 
REMARK    2  A    between atoms: C13_13  and  S14_14 
REMARK    3  A    between atoms: S14_14  and  N15_15 
ROOT
ATOM      1  N8  <0> d   1      18.251  -3.780   9.530  0.00  0.00    -0.292 N 
ATOM      2  C9  <0> d   1      18.110  -2.465   9.263  0.00  0.00     0.262 C 
ATOM      3  O10 <0> d   1      18.040  -2.076   8.112  0.00  0.00    -0.267 OA
ATOM      4  C11 <0> d   1      18.039  -1.507  10.379  0.00  0.00     0.060 A 
ATOM      5  C12 <0> d   1      18.177  -0.135  10.177  0.00  0.00     0.046 A 
ATOM      6  C13 <0> d   1      18.099   0.721  11.255  0.00  0.00     0.102 A 
ATOM      7  C18 <0> d   1      17.882   0.228  12.533  0.00  0.00     0.059 A 
ATOM      8 Cl19 <0> d   1      17.782   1.325  13.874  0.00  0.00    -0.083 Cl
ATOM      9  C20 <0> d   1      17.746  -1.133  12.747  0.00  0.00     0.055 A 
ATOM     10  C21 <0> d   1      17.826  -2.005  11.677  0.00  0.00     0.047 A 
ATOM     11  N22 <0> d   1      17.706  -3.381  11.838  0.00  0.00    -0.368 N 
ATOM     12  C23 <0> d   1      18.410  -4.261  10.902  0.00  0.00     0.188 C 
ATOM     13  C25 <0> d   1      19.900  -4.281  11.248  0.00  0.00     0.056 C 
ATOM     14  H37 <0> d   1      17.165  -3.752  12.553  0.00  0.00     0.161 HD
ENDROOT
BRANCH   1  15
ATOM     15  C7  <0> d   1      18.238  -4.701   8.477  0.00  0.00     0.045 A 
ATOM     16  C2  <0> d   1      17.117  -5.488   8.253  0.00  0.00    -0.035 A 
ATOM     17  C1  <0> d   1      15.907  -5.347   9.142  0.00  0.00     0.050 C 
ATOM     18  C3  <0> d   1      17.107  -6.395   7.212  0.00  0.00     0.009 A 
ATOM     19  C4  <0> d   1      18.217  -6.525   6.397  0.00  0.00     0.001 A 
ATOM     20  C5  <0> d   1      19.338  -5.747   6.620  0.00  0.00     0.002 A 
ATOM     21  C6  <0> d   1      19.353  -4.837   7.659  0.00  0.00     0.030 A 
ENDBRANCH   1  15
BRANCH   6  22
ATOM     22  S14 <0> d   1      18.272   2.457  11.006  0.00  0.00     0.258 S 
ATOM     23  O16 <0> d   1      16.985   3.023  11.212  0.00  0.00    -0.201 OA
ATOM     24  O17 <0> d   1      19.423   2.854  11.739  0.00  0.00    -0.201 OA
BRANCH  22  25
ATOM     25  N15 <0> d   1      18.635   2.689   9.407  0.00  0.00    -0.324 N 
ATOM     26  H34 <0> d   1      18.471   1.982   8.765  0.00  0.00     0.169 HD
ATOM     27  H35 <0> d   1      19.011   3.535   9.113  0.00  0.00     0.169 HD
ENDBRANCH  22  25
ENDBRANCH   6  22
TORSDOF 3
ENDMDL
MODEL 7
REMARK VINA RESULT:      -7.1      5.054      7.958
REMARK  3 active torsions:
REMARK  status: ('A' for Active; 'I' for Inactive)
REMARK    1  A    between atoms: C7_7  and  N8_8 
REMARK    2  A    between atoms: C13_13  and  S14_14 
REMARK    3  A    between atoms: S14_14  and  N15_15 
ROOT
ATOM      1  N8  <0> d   1      18.501  -1.384  11.474  0.00  0.00    -0.292 N 
ATOM      2  C9  <0> d   1      18.515  -0.732  12.655  0.00  0.00     0.262 C 
ATOM      3  O10 <0> d   1      18.283  -1.329  13.689  0.00  0.00    -0.267 OA
ATOM      4  C11 <0> d   1      18.817   0.709  12.678  0.00  0.00     0.060 A 
ATOM      5  C12 <0> d   1      18.574   1.490  13.806  0.00  0.00     0.046 A 
ATOM      6  C13 <0> d   1      18.879   2.835  13.779  0.00  0.00     0.102 A 
ATOM      7  C18 <0> d   1      19.424   3.412  12.642  0.00  0.00     0.059 A 
ATOM      8 Cl19 <0> d   1      19.805   5.105  12.633  0.00  0.00    -0.083 Cl
ATOM      9  C20 <0> d   1      19.667   2.647  11.514  0.00  0.00     0.055 A 
ATOM     10  C21 <0> d   1      19.364   1.298  11.524  0.00  0.00     0.047 A 
ATOM     11  N22 <0> d   1      19.579   0.486  10.415  0.00  0.00    -0.368 N 
ATOM     12  C23 <0> d   1      18.705  -0.672  10.213  0.00  0.00     0.188 C 
ATOM     13  C25 <0> d   1      17.348  -0.197   9.689  0.00  0.00     0.056 C 
ATOM     14  H37 <0> d   1      20.295   0.681   9.789  0.00  0.00     0.161 HD
ENDROOT
BRANCH   1  15
ATOM     15  C7  <0> d   1      18.293  -2.767  11.455  0.00  0.00     0.045 A 
ATOM     16  C2  <0> d   1      19.378  -3.635  11.463  0.00  0.00    -0.035 A 
ATOM     17  C1  <0> d   1      20.782  -3.086  11.498  0.00  0.00     0.050 C 
ATOM     18  C3  <0> d   1      19.170  -4.999  11.444  0.00  0.00     0.009 A 
ATOM     19  C4  <0> d   1      17.882  -5.503  11.411  0.00  0.00     0.001 A 
ATOM     20  C5  <0> d   1      16.799  -4.643  11.397  0.00  0.00     0.002 A 
ATOM     21  C6  <0> d   1      17.002  -3.276  11.416  0.00  0.00     0.030 A 
ENDBRANCH   1  15
BRANCH   6  22
ATOM     22  S14 <0> d   1      18.575   3.828  15.203  0.00  0.00     0.258 S 
ATOM     23  O16 <0> d   1      19.831   4.366  15.592  0.00  0.00    -0.201 OA
ATOM     24  O17 <0> d   1      17.445   4.634  14.895  0.00  0.00    -0.201 OA
BRANCH  22  25
ATOM     25  N15 <0> d   1      18.104   2.810  16.420  0.00  0.00    -0.324 N 
ATOM     26  H34 <0> d   1      18.098   1.851  16.275  0.00  0.00     0.169 HD
ATOM     27  H35 <0> d   1      17.835   3.172  17.280  0.00  0.00     0.169 HD
ENDBRANCH  22  25
ENDBRANCH   6  22
TORSDOF 3
ENDMDL
MODEL 8
REMARK VINA RESULT:      -7.1      6.074      8.988
REMARK  3 active torsions:
REMARK  status: ('A' for Active; 'I' for Inactive)
REMARK    1  A    between atoms: C7_7  and  N8_8 
REMARK    2  A    between atoms: C13_13  and  S14_14 
REMARK    3  A    between atoms: S14_14  and  N15_15 
ROOT
ATOM      1  N8  <0> d   1      18.407  -1.257  12.494  0.00  0.00    -0.292 N 
ATOM      2  C9  <0> d   1      18.626  -1.215  13.824  0.00  0.00     0.262 C 
ATOM      3  O10 <0> d   1      18.789  -2.244  14.453  0.00  0.00    -0.267 OA
ATOM      4  C11 <0> d   1      18.667   0.090  14.507  0.00  0.00     0.060 A 
ATOM      5  C12 <0> d   1      18.607   0.192  15.895  0.00  0.00     0.046 A 
ATOM      6  C13 <0> d   1      18.654   1.438  16.486  0.00  0.00     0.102 A 
ATOM      7  C18 <0> d   1      18.763   2.583  15.711  0.00  0.00     0.059 A 
ATOM      8 Cl19 <0> d   1      18.826   4.139  16.477  0.00  0.00    -0.083 Cl
ATOM      9  C20 <0> d   1      18.821   2.494  14.331  0.00  0.00     0.055 A 
ATOM     10  C21 <0> d   1      18.772   1.253  13.723  0.00  0.00     0.047 A 
ATOM     11  N22 <0> d   1      18.817   1.107  12.340  0.00  0.00    -0.368 N 
ATOM     12  C23 <0> d   1      18.136  -0.038  11.732  0.00  0.00     0.188 C 
ATOM     13  C25 <0> d   1      16.627   0.214  11.726  0.00  0.00     0.056 C 
ATOM     14  H37 <0> d   1      19.292   1.750  11.789  0.00  0.00     0.161 HD
ENDROOT
BRANCH   1  15
ATOM     15  C7  <0> d   1      18.446  -2.487  11.830  0.00  0.00     0.045 A 
ATOM     16  C2  <0> d   1      19.588  -2.870  11.139  0.00  0.00    -0.035 A 
ATOM     17  C1  <0> d   1      20.792  -1.963  11.110  0.00  0.00     0.050 C 
ATOM     18  C3  <0> d   1      19.624  -4.086  10.485  0.00  0.00     0.009 A 
ATOM     19  C4  <0> d   1      18.520  -4.918  10.511  0.00  0.00     0.001 A 
ATOM     20  C5  <0> d   1      17.378  -4.538  11.192  0.00  0.00     0.002 A 
ATOM     21  C6  <0> d   1      17.337  -3.323  11.849  0.00  0.00     0.030 A 
ENDBRANCH   1  15
BRANCH   6  22
ATOM     22  S14 <0> d   1      18.577   1.575  18.241  0.00  0.00     0.258 S 
ATOM     23  O16 <0> d   1      18.445   0.252  18.742  0.00  0.00    -0.201 OA
ATOM     24  O17 <0> d   1      19.631   2.449  18.622  0.00  0.00    -0.201 OA
BRANCH  22  25
ATOM     25  N15 <0> d   1      17.165   2.357  18.611  0.00  0.00    -0.324 N 
ATOM     26  H34 <0> d   1      17.189   3.258  18.969  0.00  0.00     0.169 HD
ATOM     27  H35 <0> d   1      16.313   1.913  18.469  0.00  0.00     0.169 HD
ENDBRANCH  22  25
ENDBRANCH   6  22
TORSDOF 3
ENDMDL
MODEL 9
REMARK VINA RESULT:      -7.0      4.370      7.876
REMARK  3 active torsions:
REMARK  status: ('A' for Active; 'I' for Inactive)
REMARK    1  A    between atoms: C7_7  and  N8_8 
REMARK    2  A    between atoms: C13_13  and  S14_14 
REMARK    3  A    between atoms: S14_14  and  N15_15 
ROOT
ATOM      1  N8  <0> d   1      18.147  -4.592   8.634  0.00  0.00    -0.292 N 
ATOM      2  C9  <0> d   1      18.252  -3.263   8.839  0.00  0.00     0.262 C 
ATOM      3  O10 <0> d   1      18.041  -2.483   7.930  0.00  0.00    -0.267 OA
ATOM      4  C11 <0> d   1      18.623  -2.766  10.175  0.00  0.00     0.060 A 
ATOM      5  C12 <0> d   1      19.019  -1.447  10.383  0.00  0.00     0.046 A 
ATOM      6  C13 <0> d   1      19.351  -1.030  11.655  0.00  0.00     0.102 A 
ATOM      7  C18 <0> d   1      19.291  -1.912  12.724  0.00  0.00     0.059 A 
ATOM      8 Cl19 <0> d   1      19.709  -1.363  14.317  0.00  0.00    -0.083 Cl
ATOM      9  C20 <0> d   1      18.901  -3.226  12.530  0.00  0.00     0.055 A 
ATOM     10  C21 <0> d   1      18.568  -3.660  11.261  0.00  0.00     0.047 A 
ATOM     11  N22 <0> d   1      18.179  -4.971  11.009  0.00  0.00    -0.368 N 
ATOM     12  C23 <0> d   1      18.467  -5.549   9.693  0.00  0.00     0.188 C 
ATOM     13  C25 <0> d   1      19.954  -5.900   9.609  0.00  0.00     0.056 C 
ATOM     14  H37 <0> d   1      17.724  -5.493  11.689  0.00  0.00     0.161 HD
ENDROOT
BRANCH   1  15
ATOM     15  C7  <0> d   1      17.719  -5.064   7.390  0.00  0.00     0.045 A 
ATOM     16  C2  <0> d   1      16.463  -5.644   7.259  0.00  0.00    -0.035 A 
ATOM     17  C1  <0> d   1      15.557  -5.760   8.458  0.00  0.00     0.050 C 
ATOM     18  C3  <0> d   1      16.043  -6.108   6.028  0.00  0.00     0.009 A 
ATOM     19  C4  <0> d   1      16.874  -6.003   4.928  0.00  0.00     0.001 A 
ATOM     20  C5  <0> d   1      18.127  -5.432   5.055  0.00  0.00     0.002 A 
ATOM     21  C6  <0> d   1      18.553  -4.964   6.284  0.00  0.00     0.030 A 
ENDBRANCH   1  15
BRANCH   6  22
ATOM     22  S14 <0> d   1      19.854   0.637  11.924  0.00  0.00     0.258 S 
ATOM     23  O16 <0> d   1      19.691   1.311  10.684  0.00  0.00    -0.201 OA
ATOM     24  O17 <0> d   1      19.224   1.057  13.126  0.00  0.00    -0.201 OA
BRANCH  22  25
ATOM     25  N15 <0> d   1      21.481   0.615  12.233  0.00  0.00    -0.324 N 
ATOM     26  H34 <0> d   1      21.818   0.174  13.028  0.00  0.00     0.169 HD
ATOM     27  H35 <0> d   1      22.097   1.044  11.618  0.00  0.00     0.169 HD
ENDBRANCH  22  25
ENDBRANCH   6  22
TORSDOF 3
ENDMDL
