MODEL 1
REMARK VINA RESULT:      -7.8      0.000      0.000
REMARK  6 active torsions:
REMARK  status: ('A' for Active; 'I' for Inactive)
REMARK    1  A    between atoms: C3_3  and  C4_4 
REMARK    2  A    between atoms: C10_10  and  N12_11 
REMARK       I    between atoms: N12_11  and  C13_12 
REMARK    3  A    between atoms: C13_12  and  C15_14 
REMARK    4  A    between atoms: C15_14  and  N17_15 
REMARK    5  A    between atoms: C15_14  and  C21_19 
REMARK    6  A    between atoms: C24_22  and  O25_23 
ROOT
ATOM      1  N12 ZIN A   1      18.717  -0.403  11.125  0.00  0.00    -0.343 N 
ATOM      2  C13 ZIN A   1      18.477   0.413  12.169  0.00  0.00     0.253 C 
ATOM      3  O14 ZIN A   1      17.338   0.733  12.441  0.00  0.00    -0.271 OA
ATOM      4  H35 ZIN A   1      19.627  -0.658  10.907  0.00  0.00     0.163 HD
ENDROOT
BRANCH   1   5
ATOM      5  C10 ZIN A   1      17.603  -0.905  10.316  0.00  0.00     0.210 C 
ATOM      6  C8  ZIN A   1      17.961  -2.059   9.408  0.00  0.00     0.251 C 
ATOM      7  N7  ZIN A   1      18.101  -1.325   8.312  0.00  0.00    -0.293 N 
ATOM      8  O9  ZIN A   1      18.079  -3.249   9.612  0.00  0.00    -0.271 OA
ATOM      9  C3  ZIN A   1      18.687  -1.323   7.038  0.00  0.00     0.118 C 
ATOM     10  C28 ZIN A   1      17.416  -0.190   8.990  0.00  0.00     0.187 C 
ATOM     11  C2  ZIN A   1      18.971  -0.174   6.437  0.00  0.00    -0.041 C 
ATOM     12  C1  ZIN A   1      19.649  -0.280   5.096  0.00  0.00     0.047 C 
ATOM     13  C31 ZIN A   1      18.707   1.211   6.930  0.00  0.00     0.112 C 
ATOM     14  S30 ZIN A   1      18.462   1.284   8.741  0.00  0.00    -0.136 SA
BRANCH   9  15
ATOM     15  C4  ZIN A   1      18.988  -2.597   6.366  0.00  0.00     0.227 C 
ATOM     16  O5  ZIN A   1      20.056  -3.158   6.568  0.00  0.00    -0.643 OA
ATOM     17  O6  ZIN A   1      18.168  -3.095   5.606  0.00  0.00    -0.643 OA
ENDBRANCH   9  15
ENDBRANCH   1   5
BRANCH   2  18
ATOM     18  C15 ZIN A   1      19.622   0.930  13.001  0.00  0.00     0.307 C 
BRANCH  18  19
ATOM     19  N17 ZIN A   1      20.872   0.300  12.559  0.00  0.00    -0.062 N 
ATOM     20  H18 ZIN A   1      21.574   1.011  12.412  0.00  0.00     0.275 HD
ATOM     21  H19 ZIN A   1      21.192  -0.346  13.264  0.00  0.00     0.275 HD
ATOM     22  H20 ZIN A   1      20.712  -0.197  11.695  0.00  0.00     0.275 HD
ENDBRANCH  18  19
BRANCH  18  23
ATOM     23  C21 ZIN A   1      19.378   0.599  14.451  0.00  0.00    -0.019 A 
ATOM     24  C27 ZIN A   1      19.295  -0.721  14.854  0.00  0.00     0.012 A 
ATOM     25  C26 ZIN A   1      19.078  -1.027  16.183  0.00  0.00     0.037 A 
ATOM     26  C24 ZIN A   1      18.932  -0.008  17.113  0.00  0.00     0.065 A 
ATOM     27  C23 ZIN A   1      19.012   1.316  16.706  0.00  0.00     0.037 A 
ATOM     28  C22 ZIN A   1      19.234   1.616  15.376  0.00  0.00     0.012 A 
BRANCH  26  29
ATOM     29  O25 ZIN A   1      18.713  -0.306  18.421  0.00  0.00    -0.361 OA
ATOM     30  H38 ZIN A   1      19.238   0.223  19.038  0.00  0.00     0.217 HD
ENDBRANCH  26  29
ENDBRANCH  18  23
ENDBRANCH   2  18
TORSDOF 6
ENDMDL
MODEL 2
REMARK VINA RESULT:      -7.7      3.572      4.631
REMARK  6 active torsions:
REMARK  status: ('A' for Active; 'I' for Inactive)
REMARK    1  A    between atoms: C3_3  and  C4_4 
REMARK    2  A    between atoms: C10_10  and  N12_11 
REMARK       I    between atoms: N12_11  and  C13_12 
REMARK    3  A    between atoms: C13_12  and  C15_14 
REMARK    4  A    between atoms: C15_14  and  N17_15 
REMARK    5  A    between atoms: C15_14  and  C21_19 
REMARK    6  A    between atoms: C24_22  and  O25_23 
ROOT
ATOM      1  N12 ZIN A   1      19.702  -3.522  10.037  0.00  0.00    -0.343 N 
ATOM      2  C13 ZIN A   1      20.022  -2.716  11.068  0.00  0.00     0.253 C 
ATOM      3  O14 ZIN A   1      20.323  -3.194  12.142  0.00  0.00    -0.271 OA
ATOM      4  H35 ZIN A   1      19.461  -3.139   9.179  0.00  0.00     0.163 HD
ENDROOT
BRANCH   1   5
ATOM      5  C10 ZIN A   1      19.716  -4.976  10.212  0.00  0.00     0.210 C 
ATOM      6  C8  ZIN A   1      19.877  -5.758   8.929  0.00  0.00     0.251 C 
ATOM      7  N7  ZIN A   1      18.589  -6.037   8.781  0.00  0.00    -0.293 N 
ATOM      8  O9  ZIN A   1      20.853  -6.036   8.263  0.00  0.00    -0.271 OA
ATOM      9  C3  ZIN A   1      17.633  -6.419   7.830  0.00  0.00     0.118 C 
ATOM     10  C28 ZIN A   1      18.343  -5.625  10.191  0.00  0.00     0.187 C 
ATOM     11  C2  ZIN A   1      16.352  -6.129   8.020  0.00  0.00    -0.041 C 
ATOM     12  C1  ZIN A   1      15.411  -6.534   6.914  0.00  0.00     0.047 C 
ATOM     13  C31 ZIN A   1      15.728  -5.444   9.192  0.00  0.00     0.112 C 
ATOM     14  S30 ZIN A   1      16.931  -4.470  10.166  0.00  0.00    -0.136 SA
BRANCH   9  15
ATOM     15  C4  ZIN A   1      18.050  -7.144   6.619  0.00  0.00     0.227 C 
ATOM     16  O5  ZIN A   1      17.971  -8.364   6.579  0.00  0.00    -0.643 OA
ATOM     17  O6  ZIN A   1      18.474  -6.526   5.653  0.00  0.00    -0.643 OA
ENDBRANCH   9  15
ENDBRANCH   1   5
BRANCH   2  18
ATOM     18  C15 ZIN A   1      20.008  -1.220  10.889  0.00  0.00     0.307 C 
BRANCH  18  19
ATOM     19  N17 ZIN A   1      21.388  -0.720  10.830  0.00  0.00    -0.062 N 
ATOM     20  H18 ZIN A   1      21.622  -0.275  11.705  0.00  0.00     0.275 HD
ATOM     21  H19 ZIN A   1      22.019  -1.490  10.666  0.00  0.00     0.275 HD
ATOM     22  H20 ZIN A   1      21.472  -0.051  10.080  0.00  0.00     0.275 HD
ENDBRANCH  18  19
BRANCH  18  23
ATOM     23  C21 ZIN A   1      19.291  -0.582  12.051  0.00  0.00    -0.019 A 
ATOM     24  C27 ZIN A   1      17.924  -0.734  12.187  0.00  0.00     0.012 A 
ATOM     25  C26 ZIN A   1      17.266  -0.155  13.254  0.00  0.00     0.037 A 
ATOM     26  C24 ZIN A   1      17.976   0.591  14.184  0.00  0.00     0.065 A 
ATOM     27  C23 ZIN A   1      19.348   0.747  14.042  0.00  0.00     0.037 A 
ATOM     28  C22 ZIN A   1      20.002   0.160  12.976  0.00  0.00     0.012 A 
BRANCH  26  29
ATOM     29  O25 ZIN A   1      17.331   1.167  15.231  0.00  0.00    -0.361 OA
ATOM     30  H38 ZIN A   1      16.367   1.118  15.174  0.00  0.00     0.217 HD
ENDBRANCH  26  29
ENDBRANCH  18  23
ENDBRANCH   2  18
TORSDOF 6
ENDMDL
MODEL 3
REMARK VINA RESULT:      -7.7      2.423      8.514
REMARK  6 active torsions:
REMARK  status: ('A' for Active; 'I' for Inactive)
REMARK    1  A    between atoms: C3_3  and  C4_4 
REMARK    2  A    between atoms: C10_10  and  N12_11 
REMARK       I    between atoms: N12_11  and  C13_12 
REMARK    3  A    between atoms: C13_12  and  C15_14 
REMARK    4  A    between atoms: C15_14  and  N17_15 
REMARK    5  A    between atoms: C15_14  and  C21_19 
REMARK    6  A    between atoms: C24_22  and  O25_23 
ROOT
ATOM      1  N12 ZIN A   1      18.761   0.544  12.182  0.00  0.00    -0.343 N 
ATOM      2  C13 ZIN A   1      18.517  -0.250  11.122  0.00  0.00     0.253 C 
ATOM      3  O14 ZIN A   1      17.375  -0.520  10.815  0.00  0.00    -0.271 OA
ATOM      4  H35 ZIN A   1      19.674   0.760  12.428  0.00  0.00     0.163 HD
ENDROOT
BRANCH   1   5
ATOM      5  C10 ZIN A   1      17.646   1.081  12.967  0.00  0.00     0.210 C 
ATOM      6  C8  ZIN A   1      18.019   2.228  13.878  0.00  0.00     0.251 C 
ATOM      7  N7  ZIN A   1      18.116   1.495  14.980  0.00  0.00    -0.293 N 
ATOM      8  O9  ZIN A   1      18.175   3.413  13.672  0.00  0.00    -0.271 OA
ATOM      9  C3  ZIN A   1      18.676   1.481  16.264  0.00  0.00     0.118 C 
ATOM     10  C28 ZIN A   1      17.413   0.377  14.292  0.00  0.00     0.187 C 
ATOM     11  C2  ZIN A   1      18.916   0.327  16.875  0.00  0.00    -0.041 C 
ATOM     12  C1  ZIN A   1      19.570   0.419  18.230  0.00  0.00     0.047 C 
ATOM     13  C31 ZIN A   1      18.621  -1.052  16.382  0.00  0.00     0.112 C 
ATOM     14  S30 ZIN A   1      18.411  -1.125  14.567  0.00  0.00    -0.136 SA
BRANCH   9  15
ATOM     15  C4  ZIN A   1      19.000   2.749  16.938  0.00  0.00     0.227 C 
ATOM     16  O5  ZIN A   1      20.071   3.300  16.723  0.00  0.00    -0.643 OA
ATOM     17  O6  ZIN A   1      18.198   3.252  17.712  0.00  0.00    -0.643 OA
ENDBRANCH   9  15
ENDBRANCH   1   5
BRANCH   2  18
ATOM     18  C15 ZIN A   1      19.663  -0.802  10.315  0.00  0.00     0.307 C 
BRANCH  18  19
ATOM     19  N17 ZIN A   1      20.918  -0.178  10.753  0.00  0.00    -0.062 N 
ATOM     20  H18 ZIN A   1      21.308   0.362   9.994  0.00  0.00     0.275 HD
ATOM     21  H19 ZIN A   1      20.736   0.430  11.538  0.00  0.00     0.275 HD
ATOM     22  H20 ZIN A   1      21.573  -0.894  11.028  0.00  0.00     0.275 HD
ENDBRANCH  18  19
BRANCH  18  23
ATOM     23  C21 ZIN A   1      19.438  -0.506   8.854  0.00  0.00    -0.019 A 
ATOM     24  C27 ZIN A   1      19.301  -1.544   7.952  0.00  0.00     0.012 A 
ATOM     25  C26 ZIN A   1      19.089  -1.276   6.614  0.00  0.00     0.037 A 
ATOM     26  C24 ZIN A   1      19.024   0.038   6.174  0.00  0.00     0.065 A 
ATOM     27  C23 ZIN A   1      19.167   1.079   7.080  0.00  0.00     0.037 A 
ATOM     28  C22 ZIN A   1      19.373   0.804   8.418  0.00  0.00     0.012 A 
BRANCH  26  29
ATOM     29  O25 ZIN A   1      18.821   0.306   4.857  0.00  0.00    -0.361 OA
ATOM     30  H38 ZIN A   1      19.569   0.740   4.424  0.00  0.00     0.217 HD
ENDBRANCH  26  29
ENDBRANCH  18  23
ENDBRANCH   2  18
TORSDOF 6
ENDMDL
MODEL 4
REMARK VINA RESULT:      -7.4      3.365      7.134
REMARK  6 active torsions:
REMARK  status: ('A' for Active; 'I' for Inactive)
REMARK    1  A    between atoms: C3_3  and  C4_4 
REMARK    2  A    between atoms: C10_10  and  N12_11 
REMARK       I    between atoms: N12_11  and  C13_12 
REMARK    3  A    between atoms: C13_12  and  C15_14 
REMARK    4  A    between atoms: C15_14  and  N17_15 
REMARK    5  A    between atoms: C15_14  and  C21_19 
REMARK    6  A    between atoms: C24_22  and  O25_23 
ROOT
ATOM      1  N12 ZIN A   1      18.428  -1.618  11.993  0.00  0.00    -0.343 N 
ATOM      2  C13 ZIN A   1      18.351  -2.908  11.611  0.00  0.00     0.253 C 
ATOM      3  O14 ZIN A   1      17.268  -3.436  11.473  0.00  0.00    -0.271 OA
ATOM      4  H35 ZIN A   1      19.294  -1.195  12.105  0.00  0.00     0.163 HD
ENDROOT
BRANCH   1   5
ATOM      5  C10 ZIN A   1      17.204  -0.853  12.242  0.00  0.00     0.210 C 
ATOM      6  C8  ZIN A   1      16.970   0.284  11.275  0.00  0.00     0.251 C 
ATOM      7  N7  ZIN A   1      17.431   1.235  12.077  0.00  0.00    -0.293 N 
ATOM      8  O9  ZIN A   1      16.516   0.316  10.151  0.00  0.00    -0.271 OA
ATOM      9  C3  ZIN A   1      17.940   2.541  12.080  0.00  0.00     0.118 C 
ATOM     10  C28 ZIN A   1      17.366   0.291  13.227  0.00  0.00     0.187 C 
ATOM     11  C2  ZIN A   1      18.727   2.947  13.068  0.00  0.00    -0.041 C 
ATOM     12  C1  ZIN A   1      19.266   4.350  12.951  0.00  0.00     0.047 C 
ATOM     13  C31 ZIN A   1      19.149   2.183  14.281  0.00  0.00     0.112 C 
ATOM     14  S30 ZIN A   1      18.981   0.374  14.071  0.00  0.00    -0.136 SA
BRANCH   9  15
ATOM     15  C4  ZIN A   1      17.601   3.465  10.985  0.00  0.00     0.227 C 
ATOM     16  O5  ZIN A   1      16.621   4.190  11.078  0.00  0.00    -0.643 OA
ATOM     17  O6  ZIN A   1      18.302   3.507   9.983  0.00  0.00    -0.643 OA
ENDBRANCH   9  15
ENDBRANCH   1   5
BRANCH   2  18
ATOM     18  C15 ZIN A   1      19.610  -3.694  11.355  0.00  0.00     0.307 C 
BRANCH  18  19
ATOM     19  N17 ZIN A   1      20.770  -2.795  11.407  0.00  0.00    -0.062 N 
ATOM     20  H18 ZIN A   1      21.476  -3.117  10.762  0.00  0.00     0.275 HD
ATOM     21  H19 ZIN A   1      20.484  -1.861  11.152  0.00  0.00     0.275 HD
ATOM     22  H20 ZIN A   1      21.148  -2.786  12.343  0.00  0.00     0.275 HD
ENDBRANCH  18  19
BRANCH  18  23
ATOM     23  C21 ZIN A   1      19.534  -4.336   9.994  0.00  0.00    -0.019 A 
ATOM     24  C27 ZIN A   1      19.752  -5.694   9.857  0.00  0.00     0.012 A 
ATOM     25  C26 ZIN A   1      19.677  -6.286   8.612  0.00  0.00     0.037 A 
ATOM     26  C24 ZIN A   1      19.392  -5.514   7.495  0.00  0.00     0.065 A 
ATOM     27  C23 ZIN A   1      19.179  -4.150   7.633  0.00  0.00     0.037 A 
ATOM     28  C22 ZIN A   1      19.250  -3.565   8.882  0.00  0.00     0.012 A 
BRANCH  26  29
ATOM     29  O25 ZIN A   1      19.323  -6.092   6.267  0.00  0.00    -0.361 OA
ATOM     30  H38 ZIN A   1      19.114  -5.475   5.553  0.00  0.00     0.217 HD
ENDBRANCH  26  29
ENDBRANCH  18  23
ENDBRANCH   2  18
TORSDOF 6
ENDMDL
MODEL 5
REMARK VINA RESULT:      -7.4      3.256      8.138
REMARK  6 active torsions:
REMARK  status: ('A' for Active; 'I' for Inactive)
REMARK    1  A    between atoms: C3_3  and  C4_4 
REMARK    2  A    between atoms: C10_10  and  N12_11 
REMARK       I    between atoms: N12_11  and  C13_12 
REMARK    3  A    between atoms: C13_12  and  C15_14 
REMARK    4  A    between atoms: C15_14  and  N17_15 
REMARK    5  A    between atoms: C15_14  and  C21_19 
REMARK    6  A    between atoms: C24_22  and  O25_23 
ROOT
ATOM      1  N12 ZIN A   1      18.902   0.180  12.725  0.00  0.00    -0.343 N 
ATOM      2  C13 ZIN A   1      19.153   0.075  11.405  0.00  0.00     0.253 C 
ATOM      3  O14 ZIN A   1      18.513   0.733  10.612  0.00  0.00    -0.271 OA
ATOM      4  H35 ZIN A   1      19.413  -0.347  13.359  0.00  0.00     0.163 HD
ENDROOT
BRANCH   1   5
ATOM      5  C10 ZIN A   1      17.855   1.087  13.202  0.00  0.00     0.210 C 
ATOM      6  C8  ZIN A   1      18.372   2.353  13.844  0.00  0.00     0.251 C 
ATOM      7  N7  ZIN A   1      18.233   1.934  15.095  0.00  0.00    -0.293 N 
ATOM      8  O9  ZIN A   1      18.775   3.397  13.376  0.00  0.00    -0.271 OA
ATOM      9  C3  ZIN A   1      18.673   2.167  16.405  0.00  0.00     0.118 C 
ATOM     10  C28 ZIN A   1      17.381   0.810  14.618  0.00  0.00     0.187 C 
ATOM     11  C2  ZIN A   1      18.630   1.193  17.306  0.00  0.00    -0.041 C 
ATOM     12  C1  ZIN A   1      19.177   1.529  18.670  0.00  0.00     0.047 C 
ATOM     13  C31 ZIN A   1      18.110  -0.196  17.133  0.00  0.00     0.112 C 
ATOM     14  S30 ZIN A   1      18.038  -0.712  15.380  0.00  0.00    -0.136 SA
BRANCH   9  15
ATOM     15  C4  ZIN A   1      19.185   3.494  16.783  0.00  0.00     0.227 C 
ATOM     16  O5  ZIN A   1      18.425   4.335  17.242  0.00  0.00    -0.643 OA
ATOM     17  O6  ZIN A   1      20.372   3.755  16.638  0.00  0.00    -0.643 OA
ENDBRANCH   9  15
ENDBRANCH   1   5
BRANCH   2  18
ATOM     18  C15 ZIN A   1      20.229  -0.857  10.914  0.00  0.00     0.307 C 
BRANCH  18  19
ATOM     19  N17 ZIN A   1      20.777  -0.351   9.649  0.00  0.00    -0.062 N 
ATOM     20  H18 ZIN A   1      20.026  -0.203   8.991  0.00  0.00     0.275 HD
ATOM     21  H19 ZIN A   1      21.254   0.523   9.814  0.00  0.00     0.275 HD
ATOM     22  H20 ZIN A   1      21.428  -1.023   9.271  0.00  0.00     0.275 HD
ENDBRANCH  18  19
BRANCH  18  23
ATOM     23  C21 ZIN A   1      19.643  -2.229  10.694  0.00  0.00    -0.019 A 
ATOM     24  C27 ZIN A   1      19.852  -3.227  11.627  0.00  0.00     0.012 A 
ATOM     25  C26 ZIN A   1      19.312  -4.482  11.431  0.00  0.00     0.037 A 
ATOM     26  C24 ZIN A   1      18.568  -4.745  10.290  0.00  0.00     0.065 A 
ATOM     27  C23 ZIN A   1      18.363  -3.743   9.352  0.00  0.00     0.037 A 
ATOM     28  C22 ZIN A   1      18.901  -2.487   9.556  0.00  0.00     0.012 A 
BRANCH  26  29
ATOM     29  O25 ZIN A   1      18.039  -5.981  10.091  0.00  0.00    -0.361 OA
ATOM     30  H38 ZIN A   1      17.854  -6.185   9.164  0.00  0.00     0.217 HD
ENDBRANCH  26  29
ENDBRANCH  18  23
ENDBRANCH   2  18
TORSDOF 6
ENDMDL
MODEL 6
REMARK VINA RESULT:      -7.4      1.965      7.925
REMARK  6 active torsions:
REMARK  status: ('A' for Active; 'I' for Inactive)
REMARK    1  A    between atoms: C3_3  and  C4_4 
REMARK    2  A    between atoms: C10_10  and  N12_11 
REMARK       I    between atoms: N12_11  and  C13_12 
REMARK    3  A    between atoms: C13_12  and  C15_14 
REMARK    4  A    between atoms: C15_14  and  N17_15 
REMARK    5  A    between atoms: C15_14  and  C21_19 
REMARK    6  A    between atoms: C24_22  and  O25_23 
ROOT
ATOM      1  N12 ZIN A   1      19.023  -0.658  10.705  0.00  0.00    -0.343 N 
ATOM      2  C13 ZIN A   1      18.826  -1.845  10.099  0.00  0.00     0.253 C 
ATOM      3  O14 ZIN A   1      19.523  -2.796  10.386  0.00  0.00    -0.271 OA
ATOM      4  H35 ZIN A   1      18.466   0.102  10.475  0.00  0.00     0.163 HD
ENDROOT
BRANCH   1   5
ATOM      5  C10 ZIN A   1      20.079  -0.514  11.709  0.00  0.00     0.210 C 
ATOM      6  C8  ZIN A   1      19.607  -0.659  13.137  0.00  0.00     0.251 C 
ATOM      7  N7  ZIN A   1      19.536   0.642  13.386  0.00  0.00    -0.293 N 
ATOM      8  O9  ZIN A   1      19.374  -1.633  13.822  0.00  0.00    -0.271 OA
ATOM      9  C3  ZIN A   1      18.949   1.583  14.243  0.00  0.00     0.118 C 
ATOM     10  C28 ZIN A   1      20.331   0.915  12.157  0.00  0.00     0.187 C 
ATOM     11  C2  ZIN A   1      18.776   2.836  13.839  0.00  0.00    -0.041 C 
ATOM     12  C1  ZIN A   1      18.086   3.755  14.814  0.00  0.00     0.047 C 
ATOM     13  C31 ZIN A   1      19.176   3.444  12.535  0.00  0.00     0.112 C 
ATOM     14  S30 ZIN A   1      19.432   2.198  11.221  0.00  0.00    -0.136 SA
BRANCH   9  15
ATOM     15  C4  ZIN A   1      18.523   1.182  15.593  0.00  0.00     0.227 C 
ATOM     16  O5  ZIN A   1      17.458   0.601  15.752  0.00  0.00    -0.643 OA
ATOM     17  O6  ZIN A   1      19.235   1.429  16.557  0.00  0.00    -0.643 OA
ENDBRANCH   9  15
ENDBRANCH   1   5
BRANCH   2  18
ATOM     18  C15 ZIN A   1      17.740  -1.994   9.066  0.00  0.00     0.307 C 
BRANCH  18  19
ATOM     19  N17 ZIN A   1      17.455  -3.419   8.855  0.00  0.00    -0.062 N 
ATOM     20  H18 ZIN A   1      18.272  -3.964   9.089  0.00  0.00     0.275 HD
ATOM     21  H19 ZIN A   1      16.685  -3.700   9.443  0.00  0.00     0.275 HD
ATOM     22  H20 ZIN A   1      17.213  -3.574   7.888  0.00  0.00     0.275 HD
ENDBRANCH  18  19
BRANCH  18  23
ATOM     23  C21 ZIN A   1      18.192  -1.375   7.768  0.00  0.00    -0.019 A 
ATOM     24  C27 ZIN A   1      18.955  -2.110   6.881  0.00  0.00     0.012 A 
ATOM     25  C26 ZIN A   1      19.366  -1.547   5.689  0.00  0.00     0.037 A 
ATOM     26  C24 ZIN A   1      19.023  -0.238   5.387  0.00  0.00     0.065 A 
ATOM     27  C23 ZIN A   1      18.261   0.501   6.282  0.00  0.00     0.037 A 
ATOM     28  C22 ZIN A   1      17.848  -0.069   7.470  0.00  0.00     0.012 A 
BRANCH  26  29
ATOM     29  O25 ZIN A   1      19.431   0.321   4.217  0.00  0.00    -0.361 OA
ATOM     30  H38 ZIN A   1      19.528   1.283   4.254  0.00  0.00     0.217 HD
ENDBRANCH  26  29
ENDBRANCH  18  23
ENDBRANCH   2  18
TORSDOF 6
ENDMDL
MODEL 7
REMARK VINA RESULT:      -7.4      2.548      3.218
REMARK  6 active torsions:
REMARK  status: ('A' for Active; 'I' for Inactive)
REMARK    1  A    between atoms: C3_3  and  C4_4 
REMARK    2  A    between atoms: C10_10  and  N12_11 
REMARK       I    between atoms: N12_11  and  C13_12 
REMARK    3  A    between atoms: C13_12  and  C15_14 
REMARK    4  A    between atoms: C15_14  and  N17_15 
REMARK    5  A    between atoms: C15_14  and  C21_19 
REMARK    6  A    between atoms: C24_22  and  O25_23 
ROOT
ATOM      1  N12 ZIN A   1      18.406   1.472  10.887  0.00  0.00    -0.343 N 
ATOM      2  C13 ZIN A   1      18.261   2.753  11.279  0.00  0.00     0.253 C 
ATOM      3  O14 ZIN A   1      17.163   3.269  11.272  0.00  0.00    -0.271 OA
ATOM      4  H35 ZIN A   1      19.284   1.060  10.892  0.00  0.00     0.163 HD
ENDROOT
BRANCH   1   5
ATOM      5  C10 ZIN A   1      17.239   0.702  10.452  0.00  0.00     0.210 C 
ATOM      6  C8  ZIN A   1      17.321  -0.778  10.749  0.00  0.00     0.251 C 
ATOM      7  N7  ZIN A   1      17.702  -1.137   9.530  0.00  0.00    -0.293 N 
ATOM      8  O9  ZIN A   1      17.109  -1.418  11.757  0.00  0.00    -0.271 OA
ATOM      9  C3  ZIN A   1      18.327  -2.168   8.815  0.00  0.00     0.118 C 
ATOM     10  C28 ZIN A   1      17.311   0.206   9.018  0.00  0.00     0.187 C 
ATOM     11  C2  ZIN A   1      18.933  -1.908   7.664  0.00  0.00    -0.041 C 
ATOM     12  C1  ZIN A   1      19.622  -3.073   7.001  0.00  0.00     0.047 C 
ATOM     13  C31 ZIN A   1      19.023  -0.600   6.946  0.00  0.00     0.112 C 
ATOM     14  S30 ZIN A   1      18.721   0.831   8.044  0.00  0.00    -0.136 SA
BRANCH   9  15
ATOM     15  C4  ZIN A   1      18.310  -3.542   9.342  0.00  0.00     0.227 C 
ATOM     16  O5  ZIN A   1      17.410  -4.307   9.026  0.00  0.00    -0.643 OA
ATOM     17  O6  ZIN A   1      19.198  -3.918  10.095  0.00  0.00    -0.643 OA
ENDBRANCH   9  15
ENDBRANCH   1   5
BRANCH   2  18
ATOM     18  C15 ZIN A   1      19.461   3.546  11.726  0.00  0.00     0.307 C 
BRANCH  18  19
ATOM     19  N17 ZIN A   1      20.673   2.731  11.569  0.00  0.00    -0.062 N 
ATOM     20  H18 ZIN A   1      21.453   3.200  12.005  0.00  0.00     0.275 HD
ATOM     21  H19 ZIN A   1      20.534   1.833  12.007  0.00  0.00     0.275 HD
ATOM     22  H20 ZIN A   1      20.866   2.600  10.587  0.00  0.00     0.275 HD
ENDBRANCH  18  19
BRANCH  18  23
ATOM     23  C21 ZIN A   1      19.298   3.929  13.175  0.00  0.00    -0.019 A 
ATOM     24  C27 ZIN A   1      18.837   3.000  14.088  0.00  0.00     0.012 A 
ATOM     25  C26 ZIN A   1      18.692   3.347  15.416  0.00  0.00     0.037 A 
ATOM     26  C24 ZIN A   1      18.999   4.634  15.833  0.00  0.00     0.065 A 
ATOM     27  C23 ZIN A   1      19.458   5.567  14.914  0.00  0.00     0.037 A 
ATOM     28  C22 ZIN A   1      19.606   5.212  13.587  0.00  0.00     0.012 A 
BRANCH  26  29
ATOM     29  O25 ZIN A   1      18.853   4.980  17.139  0.00  0.00    -0.361 OA
ATOM     30  H38 ZIN A   1      19.501   4.572  17.729  0.00  0.00     0.217 HD
ENDBRANCH  26  29
ENDBRANCH  18  23
ENDBRANCH   2  18
TORSDOF 6
ENDMDL
MODEL 8
REMARK VINA RESULT:      -7.2      2.654      8.341
REMARK  6 active torsions:
REMARK  status: ('A' for Active; 'I' for Inactive)
REMARK    1  A    between atoms: C3_3  and  C4_4 
REMARK    2  A    between atoms: C10_10  and  N12_11 
REMARK       I    between atoms: N12_11  and  C13_12 
REMARK    3  A    between atoms: C13_12  and  C15_14 
REMARK    4  A    between atoms: C15_14  and  N17_15 
REMARK    5  A    between atoms: C15_14  and  C21_19 
REMARK    6  A    between atoms: C24_22  and  O25_23 
ROOT
ATOM      1  N12 ZIN A   1      18.492   0.373  11.411  0.00  0.00    -0.343 N 
ATOM      2  C13 ZIN A   1      18.327  -0.292  10.252  0.00  0.00     0.253 C 
ATOM      3  O14 ZIN A   1      17.218  -0.415   9.775  0.00  0.00    -0.271 OA
ATOM      4  H35 ZIN A   1      19.379   0.471  11.793  0.00  0.00     0.163 HD
ENDROOT
BRANCH   1   5
ATOM      5  C10 ZIN A   1      17.333   0.949  12.097  0.00  0.00     0.210 C 
ATOM      6  C8  ZIN A   1      17.377   2.453  12.243  0.00  0.00     0.251 C 
ATOM      7  N7  ZIN A   1      17.807   2.452  13.498  0.00  0.00    -0.293 N 
ATOM      8  O9  ZIN A   1      17.110   3.353  11.475  0.00  0.00    -0.271 OA
ATOM      9  C3  ZIN A   1      18.446   3.247  14.459  0.00  0.00     0.118 C 
ATOM     10  C28 ZIN A   1      17.462   1.007  13.609  0.00  0.00     0.187 C 
ATOM     11  C2  ZIN A   1      19.108   2.680  15.459  0.00  0.00    -0.041 C 
ATOM     12  C1  ZIN A   1      19.806   3.622  16.407  0.00  0.00     0.047 C 
ATOM     13  C31 ZIN A   1      19.251   1.224  15.759  0.00  0.00     0.112 C 
ATOM     14  S30 ZIN A   1      18.924   0.167  14.303  0.00  0.00    -0.136 SA
BRANCH   9  15
ATOM     15  C4  ZIN A   1      18.383   4.714  14.358  0.00  0.00     0.227 C 
ATOM     16  O5  ZIN A   1      17.485   5.328  14.917  0.00  0.00    -0.643 OA
ATOM     17  O6  ZIN A   1      19.230   5.319  13.715  0.00  0.00    -0.643 OA
ENDBRANCH   9  15
ENDBRANCH   1   5
BRANCH   2  18
ATOM     18  C15 ZIN A   1      19.519  -0.885   9.546  0.00  0.00     0.307 C 
BRANCH  18  19
ATOM     19  N17 ZIN A   1      20.732  -0.153   9.933  0.00  0.00    -0.062 N 
ATOM     20  H18 ZIN A   1      21.109  -0.550  10.781  0.00  0.00     0.275 HD
ATOM     21  H19 ZIN A   1      21.418  -0.223   9.196  0.00  0.00     0.275 HD
ATOM     22  H20 ZIN A   1      20.504   0.818  10.089  0.00  0.00     0.275 HD
ENDBRANCH  18  19
BRANCH  18  23
ATOM     23  C21 ZIN A   1      19.324  -0.779   8.055  0.00  0.00    -0.019 A 
ATOM     24  C27 ZIN A   1      19.253  -1.925   7.285  0.00  0.00     0.012 A 
ATOM     25  C26 ZIN A   1      19.069  -1.831   5.920  0.00  0.00     0.037 A 
ATOM     26  C24 ZIN A   1      18.965  -0.585   5.319  0.00  0.00     0.065 A 
ATOM     27  C23 ZIN A   1      19.041   0.564   6.093  0.00  0.00     0.037 A 
ATOM     28  C22 ZIN A   1      19.220   0.464   7.459  0.00  0.00     0.012 A 
BRANCH  26  29
ATOM     29  O25 ZIN A   1      18.789  -0.489   3.975  0.00  0.00    -0.361 OA
ATOM     30  H38 ZIN A   1      19.592  -0.651   3.461  0.00  0.00     0.217 HD
ENDBRANCH  26  29
ENDBRANCH  18  23
ENDBRANCH   2  18
TORSDOF 6
ENDMDL
MODEL 9
REMARK VINA RESULT:      -7.2      2.323      3.072
REMARK  6 active torsions:
REMARK  status: ('A' for Active; 'I' for Inactive)
REMARK    1  A    between atoms: C3_3  and  C4_4 
REMARK    2  A    between atoms: C10_10  and  N12_11 
REMARK       I    between atoms: N12_11  and  C13_12 
REMARK    3  A    between atoms: C13_12  and  C15_14 
REMARK    4  A    between atoms: C15_14  and  N17_15 
REMARK    5  A    between atoms: C15_14  and  C21_19 
REMARK    6  A    between atoms: C24_22  and  O25_23 
ROOT
ATOM      1  N12 ZIN A   1      18.990   0.966  12.337  0.00  0.00    -0.343 N 
ATOM      2  C13 ZIN A   1      18.819   2.101  13.041  0.00  0.00     0.253 C 
ATOM      3  O14 ZIN A   1      19.529   3.062  12.825  0.00  0.00    -0.271 OA
ATOM      4  H35 ZIN A   1      18.424   0.197  12.510  0.00  0.00     0.163 HD
ENDROOT
BRANCH   1   5
ATOM      5  C10 ZIN A   1      20.033   0.889  11.311  0.00  0.00     0.210 C 
ATOM      6  C8  ZIN A   1      19.530   1.061   9.896  0.00  0.00     0.251 C 
ATOM      7  N7  ZIN A   1      19.500  -0.233   9.608  0.00  0.00    -0.293 N 
ATOM      8  O9  ZIN A   1      19.252   2.047   9.246  0.00  0.00    -0.271 OA
ATOM      9  C3  ZIN A   1      18.930  -1.167   8.732  0.00  0.00     0.118 C 
ATOM     10  C28 ZIN A   1      20.325  -0.516  10.815  0.00  0.00     0.187 C 
ATOM     11  C2  ZIN A   1      18.808  -2.437   9.100  0.00  0.00    -0.041 C 
ATOM     12  C1  ZIN A   1      18.133  -3.350   8.108  0.00  0.00     0.047 C 
ATOM     13  C31 ZIN A   1      19.252  -3.071  10.377  0.00  0.00     0.112 C 
ATOM     14  S30 ZIN A   1      19.489  -1.857  11.725  0.00  0.00    -0.136 SA
BRANCH   9  15
ATOM     15  C4  ZIN A   1      18.466  -0.740   7.402  0.00  0.00     0.227 C 
ATOM     16  O5  ZIN A   1      19.204  -0.849   6.433  0.00  0.00    -0.643 OA
ATOM     17  O6  ZIN A   1      17.342  -0.278   7.267  0.00  0.00    -0.643 OA
ENDBRANCH   9  15
ENDBRANCH   1   5
BRANCH   2  18
ATOM     18  C15 ZIN A   1      17.747   2.180  14.096  0.00  0.00     0.307 C 
BRANCH  18  19
ATOM     19  N17 ZIN A   1      17.542   3.582  14.483  0.00  0.00    -0.062 N 
ATOM     20  H18 ZIN A   1      16.972   3.622  15.315  0.00  0.00     0.275 HD
ATOM     21  H19 ZIN A   1      18.435   4.015  14.666  0.00  0.00     0.275 HD
ATOM     22  H20 ZIN A   1      17.077   4.073  13.734  0.00  0.00     0.275 HD
ENDBRANCH  18  19
BRANCH  18  23
ATOM     23  C21 ZIN A   1      18.171   1.383  15.304  0.00  0.00    -0.019 A 
ATOM     24  C27 ZIN A   1      17.865   0.038  15.386  0.00  0.00     0.012 A 
ATOM     25  C26 ZIN A   1      18.257  -0.696  16.488  0.00  0.00     0.037 A 
ATOM     26  C24 ZIN A   1      18.950  -0.079  17.519  0.00  0.00     0.065 A 
ATOM     27  C23 ZIN A   1      19.252   1.273  17.437  0.00  0.00     0.037 A 
ATOM     28  C22 ZIN A   1      18.862   2.001  16.330  0.00  0.00     0.012 A 
BRANCH  26  29
ATOM     29  O25 ZIN A   1      19.332  -0.796  18.608  0.00  0.00    -0.361 OA
ATOM     30  H38 ZIN A   1      18.953  -0.481  19.440  0.00  0.00     0.217 HD
ENDBRANCH  26  29
ENDBRANCH  18  23
ENDBRANCH   2  18
TORSDOF 6
ENDMDL
