MODEL 1
REMARK VINA RESULT:     -10.2      0.000      0.000
REMARK  5 active torsions:
REMARK  status: ('A' for Active; 'I' for Inactive)
REMARK    1  A    between atoms: C2_2  and  C4_4 
REMARK    2  A    between atoms: C10_10  and  N11_11 
REMARK    3  A    between atoms: N11_11  and  C12_12 
REMARK    4  A    between atoms: C15_15  and  N16_16 
REMARK    5  A    between atoms: N26_26  and  C27_27 
ROOT
ATOM      1  C4  <0> d   1      18.719   1.475  16.718  0.00  0.00     0.084 A 
ATOM      2  C5  <0> d   1      18.213   0.599  15.763  0.00  0.00    -0.027 A 
ATOM      3  C6  <0> d   1      17.859  -0.818  16.132  0.00  0.00     0.050 C 
ATOM      4  C7  <0> d   1      18.038   1.061  14.445  0.00  0.00     0.036 A 
ATOM      5  C8  <0> d   1      17.531   0.219  13.441  0.00  0.00     0.152 A 
ATOM      6  N9  <0> d   1      17.386   0.704  12.223  0.00  0.00    -0.074 NA
ATOM      7  C10 <0> d   1      17.711   1.961  11.940  0.00  0.00     0.730 A 
ATOM      8  N24 <0> d   1      18.192   2.793  12.851  0.00  0.00    -0.044 NA
ATOM      9  C25 <0> d   1      18.371   2.393  14.104  0.00  0.00     0.164 A 
ATOM     10  N26 <0> d   1      18.869   3.251  15.051  0.00  0.00    -0.292 N 
ATOM     11  C32 <0> d   1      19.046   2.850  16.325  0.00  0.00     0.264 A 
ATOM     12  O33 <0> d   1      19.489   3.628  17.150  0.00  0.00    -0.267 OA
ENDROOT
BRANCH   7  13
ATOM     13  N11 <0> d   1      17.539   2.418  10.649  0.00  0.00    -0.171 N 
ATOM     14  H41 <0> d   1      17.125   3.280  10.491  0.00  0.00     0.186 HD
BRANCH  13  15
ATOM     15  C12 <0> d   1      17.961   1.638   9.572  0.00  0.00     0.142 A 
ATOM     16  N23 <0> d   1      17.287   0.545   9.252  0.00  0.00    -0.241 NA
ATOM     17  C22 <0> d   1      17.647  -0.219   8.239  0.00  0.00     0.148 A 
ATOM     18  C15 <0> d   1      18.761   0.094   7.475  0.00  0.00     0.048 A 
ATOM     19  C14 <0> d   1      19.499   1.234   7.786  0.00  0.00     0.034 A 
ATOM     20  C13 <0> d   1      19.089   2.014   8.851  0.00  0.00     0.053 A 
BRANCH  18  21
ATOM     21  N16 <0> d   1      19.140  -0.725   6.405  0.00  0.00    -0.376 N 
ATOM     22  C21 <0> d   1      19.454  -2.147   6.616  0.00  0.00     0.153 C 
ATOM     23  C20 <0> d   1      18.637  -2.976   5.613  0.00  0.00     0.289 C 
ATOM     24  N19 <0> d   1      18.894  -2.479   4.254  0.00  0.00     0.086 N 
ATOM     25  C18 <0> d   1      18.440  -1.090   4.099  0.00  0.00     0.289 C 
ATOM     26  H48 <0> d   1      18.466  -3.078   3.563  0.00  0.00     0.316 HD
ATOM     27  C17 <0> d   1      19.241  -0.186   5.040  0.00  0.00     0.153 C 
ENDBRANCH  18  21
ENDBRANCH  13  15
ENDBRANCH   7  13
BRANCH  10  28
ATOM     28  C27 <0> d   1      19.207   4.625  14.673  0.00  0.00     0.095 C 
ATOM     29  C31 <0> d   1      19.830   5.363  15.870  0.00  0.00     0.026 C 
ATOM     30  C30 <0> d   1      18.908   6.560  16.181  0.00  0.00     0.002 C 
ATOM     31  C29 <0> d   1      17.535   6.142  15.599  0.00  0.00     0.002 C 
ATOM     32  C28 <0> d   1      17.926   5.400  14.296  0.00  0.00     0.026 C 
ENDBRANCH  10  28
BRANCH   1  33
ATOM     33  C2  <0> d   1      18.915   1.032  18.098  0.00  0.00     0.161 C 
ATOM     34  C1  <0> d   1      17.775   1.100  19.081  0.00  0.00     0.097 C 
ATOM     35  O3  <0> d   1      19.997   0.608  18.453  0.00  0.00    -0.293 OA
ENDBRANCH   1  33
TORSDOF 5
ENDMDL
MODEL 2
REMARK VINA RESULT:      -9.8      3.260      8.100
REMARK  5 active torsions:
REMARK  status: ('A' for Active; 'I' for Inactive)
REMARK    1  A    between atoms: C2_2  and  C4_4 
REMARK    2  A    between atoms: C10_10  and  N11_11 
REMARK    3  A    between atoms: N11_11  and  C12_12 
REMARK    4  A    between atoms: C15_15  and  N16_16 
REMARK    5  A    between atoms: N26_26  and  C27_27 
ROOT
ATOM      1  C4  <0> d   1      19.043  -3.395  10.030  0.00  0.00     0.084 A 
ATOM      2  C5  <0> d   1      18.727  -2.656   8.895  0.00  0.00    -0.027 A 
ATOM      3  C6  <0> d   1      18.404  -3.347   7.595  0.00  0.00     0.050 C 
ATOM      4  C7  <0> d   1      18.714  -1.251   8.981  0.00  0.00     0.036 A 
ATOM      5  C8  <0> d   1      18.402  -0.457   7.865  0.00  0.00     0.152 A 
ATOM      6  N9  <0> d   1      18.404   0.855   8.003  0.00  0.00    -0.074 NA
ATOM      7  C10 <0> d   1      18.694   1.424   9.168  0.00  0.00     0.730 A 
ATOM      8  N24 <0> d   1      18.995   0.718  10.248  0.00  0.00    -0.044 NA
ATOM      9  C25 <0> d   1      19.017  -0.608  10.205  0.00  0.00     0.164 A 
ATOM     10  N26 <0> d   1      19.327  -1.342  11.320  0.00  0.00    -0.292 N 
ATOM     11  C32 <0> d   1      19.344  -2.689  11.281  0.00  0.00     0.264 A 
ATOM     12  O33 <0> d   1      19.622  -3.322  12.283  0.00  0.00    -0.267 OA
ENDROOT
BRANCH   7  13
ATOM     13  N11 <0> d   1      18.682   2.801   9.257  0.00  0.00    -0.171 N 
ATOM     14  H41 <0> d   1      18.697   3.339   8.450  0.00  0.00     0.186 HD
BRANCH  13  15
ATOM     15  C12 <0> d   1      18.647   3.418  10.507  0.00  0.00     0.142 A 
ATOM     16  N23 <0> d   1      19.771   3.593  11.182  0.00  0.00    -0.241 NA
ATOM     17  C22 <0> d   1      19.786   4.176  12.365  0.00  0.00     0.148 A 
ATOM     18  C15 <0> d   1      18.610   4.620  12.952  0.00  0.00     0.048 A 
ATOM     19  C14 <0> d   1      17.406   4.449  12.273  0.00  0.00     0.034 A 
ATOM     20  C13 <0> d   1      17.430   3.838  11.032  0.00  0.00     0.053 A 
BRANCH  18  21
ATOM     21  N16 <0> d   1      18.633   5.233  14.210  0.00  0.00    -0.376 N 
ATOM     22  C21 <0> d   1      17.570   4.978  15.194  0.00  0.00     0.153 C 
ATOM     23  C20 <0> d   1      18.228   4.578  16.524  0.00  0.00     0.289 C 
ATOM     24  N19 <0> d   1      19.198   5.611  16.913  0.00  0.00     0.086 N 
ATOM     25  C18 <0> d   1      20.289   5.714  15.934  0.00  0.00     0.289 C 
ATOM     26  H48 <0> d   1      19.559   5.438  17.839  0.00  0.00     0.316 HD
ATOM     27  C17 <0> d   1      19.718   6.154  14.582  0.00  0.00     0.153 C 
ENDBRANCH  18  21
ENDBRANCH  13  15
ENDBRANCH   7  13
BRANCH  10  28
ATOM     28  C27 <0> d   1      19.637  -0.653  12.575  0.00  0.00     0.095 C 
ATOM     29  C31 <0> d   1      19.462  -1.615  13.763  0.00  0.00     0.026 C 
ATOM     30  C30 <0> d   1      18.371  -1.006  14.667  0.00  0.00     0.002 C 
ATOM     31  C29 <0> d   1      17.554  -0.097  13.716  0.00  0.00     0.002 C 
ATOM     32  C28 <0> d   1      18.646   0.509  12.799  0.00  0.00     0.026 C 
ENDBRANCH  10  28
BRANCH   1  33
ATOM     33  C2  <0> d   1      19.066  -4.856   9.980  0.00  0.00     0.161 C 
ATOM     34  C1  <0> d   1      17.828  -5.643  10.325  0.00  0.00     0.097 C 
ATOM     35  O3  <0> d   1      20.083  -5.437   9.659  0.00  0.00    -0.293 OA
ENDBRANCH   1  33
TORSDOF 5
ENDMDL
MODEL 3
REMARK VINA RESULT:      -9.7      1.359      3.636
REMARK  5 active torsions:
REMARK  status: ('A' for Active; 'I' for Inactive)
REMARK    1  A    between atoms: C2_2  and  C4_4 
REMARK    2  A    between atoms: C10_10  and  N11_11 
REMARK    3  A    between atoms: N11_11  and  C12_12 
REMARK    4  A    between atoms: C15_15  and  N16_16 
REMARK    5  A    between atoms: N26_26  and  C27_27 
ROOT
ATOM      1  C4  <0> d   1      18.929   4.518  15.710  0.00  0.00     0.084 A 
ATOM      2  C5  <0> d   1      18.405   4.528  14.422  0.00  0.00    -0.027 A 
ATOM      3  C6  <0> d   1      18.140   5.830  13.712  0.00  0.00     0.050 C 
ATOM      4  C7  <0> d   1      18.127   3.300  13.793  0.00  0.00     0.036 A 
ATOM      5  C8  <0> d   1      17.597   3.252  12.492  0.00  0.00     0.152 A 
ATOM      6  N9  <0> d   1      17.357   2.074  11.951  0.00  0.00    -0.074 NA
ATOM      7  C10 <0> d   1      17.606   0.949  12.613  0.00  0.00     0.730 A 
ATOM      8  N24 <0> d   1      18.105   0.942  13.840  0.00  0.00    -0.044 NA
ATOM      9  C25 <0> d   1      18.379   2.080  14.465  0.00  0.00     0.164 A 
ATOM     10  N26 <0> d   1      18.896   2.078  15.735  0.00  0.00    -0.292 N 
ATOM     11  C32 <0> d   1      19.182   3.231  16.369  0.00  0.00     0.264 A 
ATOM     12  O33 <0> d   1      19.640   3.206  17.496  0.00  0.00    -0.267 OA
ENDROOT
BRANCH   7  13
ATOM     13  N11 <0> d   1      17.335  -0.258  11.999  0.00  0.00    -0.171 N 
ATOM     14  H41 <0> d   1      16.852  -0.948  12.479  0.00  0.00     0.186 HD
BRANCH  13  15
ATOM     15  C12 <0> d   1      17.758  -0.483  10.689  0.00  0.00     0.142 A 
ATOM     16  N23 <0> d   1      18.950  -1.013  10.468  0.00  0.00    -0.241 NA
ATOM     17  C22 <0> d   1      19.388  -1.248   9.247  0.00  0.00     0.148 A 
ATOM     18  C15 <0> d   1      18.611  -0.933   8.141  0.00  0.00     0.048 A 
ATOM     19  C14 <0> d   1      17.352  -0.370   8.335  0.00  0.00     0.034 A 
ATOM     20  C13 <0> d   1      16.924  -0.142   9.630  0.00  0.00     0.053 A 
BRANCH  18  21
ATOM     21  N16 <0> d   1      19.086  -1.181   6.848  0.00  0.00    -0.376 N 
ATOM     22  C21 <0> d   1      19.506  -2.530   6.443  0.00  0.00     0.153 C 
ATOM     23  C20 <0> d   1      18.788  -2.887   5.132  0.00  0.00     0.289 C 
ATOM     24  N19 <0> d   1      19.043  -1.834   4.139  0.00  0.00     0.086 N 
ATOM     25  C18 <0> d   1      18.484  -0.546   4.573  0.00  0.00     0.289 C 
ATOM     26  H48 <0> d   1      18.686  -2.097   3.233  0.00  0.00     0.316 HD
ATOM     27  C17 <0> d   1      19.182  -0.096   5.859  0.00  0.00     0.153 C 
ENDBRANCH  18  21
ENDBRANCH  13  15
ENDBRANCH   7  13
BRANCH  10  28
ATOM     28  C27 <0> d   1      19.148   0.801  16.409  0.00  0.00     0.095 C 
ATOM     29  C31 <0> d   1      18.936  -0.364  15.427  0.00  0.00     0.026 C 
ATOM     30  C30 <0> d   1      17.803  -1.233  16.009  0.00  0.00     0.002 C 
ATOM     31  C29 <0> d   1      17.014  -0.264  16.925  0.00  0.00     0.002 C 
ATOM     32  C28 <0> d   1      18.135   0.600  17.556  0.00  0.00     0.026 C 
ENDBRANCH  10  28
BRANCH   1  33
ATOM     33  C2  <0> d   1      19.231   5.774  16.397  0.00  0.00     0.161 C 
ATOM     34  C1  <0> d   1      18.201   6.409  17.295  0.00  0.00     0.097 C 
ATOM     35  O3  <0> d   1      20.312   6.305  16.244  0.00  0.00    -0.293 OA
ENDBRANCH   1  33
TORSDOF 5
ENDMDL
MODEL 4
REMARK VINA RESULT:      -9.7      4.094      6.688
REMARK  5 active torsions:
REMARK  status: ('A' for Active; 'I' for Inactive)
REMARK    1  A    between atoms: C2_2  and  C4_4 
REMARK    2  A    between atoms: C10_10  and  N11_11 
REMARK    3  A    between atoms: N11_11  and  C12_12 
REMARK    4  A    between atoms: C15_15  and  N16_16 
REMARK    5  A    between atoms: N26_26  and  C27_27 
ROOT
ATOM      1  C4  <0> d   1      18.431   2.236  11.661  0.00  0.00     0.084 A 
ATOM      2  C5  <0> d   1      18.452   1.307  12.696  0.00  0.00    -0.027 A 
ATOM      3  C6  <0> d   1      18.070   1.711  14.097  0.00  0.00     0.050 C 
ATOM      4  C7  <0> d   1      18.836  -0.017  12.412  0.00  0.00     0.036 A 
ATOM      5  C8  <0> d   1      18.875  -0.995  13.420  0.00  0.00     0.152 A 
ATOM      6  N9  <0> d   1      19.241  -2.220  13.098  0.00  0.00    -0.074 NA
ATOM      7  C10 <0> d   1      19.570  -2.533  11.849  0.00  0.00     0.730 A 
ATOM      8  N24 <0> d   1      19.549  -1.647  10.864  0.00  0.00    -0.044 NA
ATOM      9  C25 <0> d   1      19.192  -0.390  11.094  0.00  0.00     0.164 A 
ATOM     10  N26 <0> d   1      19.170   0.531  10.079  0.00  0.00    -0.292 N 
ATOM     11  C32 <0> d   1      18.802   1.806  10.307  0.00  0.00     0.264 A 
ATOM     12  O33 <0> d   1      18.788   2.608   9.392  0.00  0.00    -0.267 OA
ENDROOT
BRANCH   7  13
ATOM     13  N11 <0> d   1      19.947  -3.831  11.566  0.00  0.00    -0.171 N 
ATOM     14  H41 <0> d   1      20.766  -4.191  11.941  0.00  0.00     0.186 HD
BRANCH  13  15
ATOM     15  C12 <0> d   1      19.150  -4.624  10.741  0.00  0.00     0.142 A 
ATOM     16  N23 <0> d   1      19.580  -4.950   9.533  0.00  0.00    -0.241 NA
ATOM     17  C22 <0> d   1      18.862  -5.701   8.721  0.00  0.00     0.148 A 
ATOM     18  C15 <0> d   1      17.614  -6.170   9.105  0.00  0.00     0.048 A 
ATOM     19  C14 <0> d   1      17.126  -5.843  10.368  0.00  0.00     0.034 A 
ATOM     20  C13 <0> d   1      17.909  -5.057  11.194  0.00  0.00     0.053 A 
BRANCH  18  21
ATOM     21  N16 <0> d   1      16.856  -6.962   8.235  0.00  0.00    -0.376 N 
ATOM     22  C21 <0> d   1      15.404  -6.765   8.107  0.00  0.00     0.153 C 
ATOM     23  C20 <0> d   1      15.066  -6.625   6.615  0.00  0.00     0.289 C 
ATOM     24  N19 <0> d   1      15.601  -7.784   5.887  0.00  0.00     0.086 N 
ATOM     25  C18 <0> d   1      17.067  -7.834   5.969  0.00  0.00     0.289 C 
ATOM     26  H48 <0> d   1      15.293  -7.782   4.926  0.00  0.00     0.316 HD
ATOM     27  C17 <0> d   1      17.488  -8.018   7.430  0.00  0.00     0.153 C 
ENDBRANCH  18  21
ENDBRANCH  13  15
ENDBRANCH   7  13
BRANCH  10  28
ATOM     28  C27 <0> d   1      19.544   0.120   8.723  0.00  0.00     0.095 C 
ATOM     29  C31 <0> d   1      19.458   1.320   7.765  0.00  0.00     0.026 C 
ATOM     30  C30 <0> d   1      18.413   0.955   6.691  0.00  0.00     0.002 C 
ATOM     31  C29 <0> d   1      17.524  -0.113   7.374  0.00  0.00     0.002 C 
ATOM     32  C28 <0> d   1      18.548  -0.935   8.197  0.00  0.00     0.026 C 
ENDBRANCH  10  28
BRANCH   1  33
ATOM     33  C2  <0> d   1      18.037   3.621  11.917  0.00  0.00     0.161 C 
ATOM     34  C1  <0> d   1      19.070   4.633  12.341  0.00  0.00     0.097 C 
ATOM     35  O3  <0> d   1      16.877   3.958  11.787  0.00  0.00    -0.293 OA
ENDBRANCH   1  33
TORSDOF 5
ENDMDL
MODEL 5
REMARK VINA RESULT:      -9.6      3.279      5.132
REMARK  5 active torsions:
REMARK  status: ('A' for Active; 'I' for Inactive)
REMARK    1  A    between atoms: C2_2  and  C4_4 
REMARK    2  A    between atoms: C10_10  and  N11_11 
REMARK    3  A    between atoms: N11_11  and  C12_12 
REMARK    4  A    between atoms: C15_15  and  N16_16 
REMARK    5  A    between atoms: N26_26  and  C27_27 
ROOT
ATOM      1  C4  <0> d   1      17.324   4.526  13.275  0.00  0.00     0.084 A 
ATOM      2  C5  <0> d   1      17.471   4.314  11.908  0.00  0.00    -0.027 A 
ATOM      3  C6  <0> d   1      16.853   5.263  10.914  0.00  0.00     0.050 C 
ATOM      4  C7  <0> d   1      18.206   3.197  11.470  0.00  0.00     0.036 A 
ATOM      5  C8  <0> d   1      18.386   2.936  10.101  0.00  0.00     0.152 A 
ATOM      6  N9  <0> d   1      19.085   1.875   9.746  0.00  0.00    -0.074 NA
ATOM      7  C10 <0> d   1      19.613   1.064  10.657  0.00  0.00     0.730 A 
ATOM      8  N24 <0> d   1      19.472   1.267  11.958  0.00  0.00    -0.044 NA
ATOM      9  C25 <0> d   1      18.785   2.310  12.409  0.00  0.00     0.164 A 
ATOM     10  N26 <0> d   1      18.636   2.524  13.754  0.00  0.00    -0.292 N 
ATOM     11  C32 <0> d   1      17.945   3.585  14.215  0.00  0.00     0.264 A 
ATOM     12  O33 <0> d   1      17.825   3.757  15.414  0.00  0.00    -0.267 OA
ENDROOT
BRANCH   7  13
ATOM     13  N11 <0> d   1      20.336  -0.032  10.231  0.00  0.00    -0.171 N 
ATOM     14  H41 <0> d   1      21.275   0.064  10.007  0.00  0.00     0.186 HD
BRANCH  13  15
ATOM     15  C12 <0> d   1      19.716  -1.276  10.122  0.00  0.00     0.142 A 
ATOM     16  N23 <0> d   1      18.959  -1.540   9.069  0.00  0.00    -0.241 NA
ATOM     17  C22 <0> d   1      18.357  -2.705   8.922  0.00  0.00     0.148 A 
ATOM     18  C15 <0> d   1      18.491  -3.698   9.881  0.00  0.00     0.048 A 
ATOM     19  C14 <0> d   1      19.277  -3.455  11.005  0.00  0.00     0.034 A 
ATOM     20  C13 <0> d   1      19.896  -2.224  11.123  0.00  0.00     0.053 A 
BRANCH  18  21
ATOM     21  N16 <0> d   1      17.845  -4.929   9.721  0.00  0.00    -0.376 N 
ATOM     22  C21 <0> d   1      16.426  -5.090  10.074  0.00  0.00     0.153 C 
ATOM     23  C20 <0> d   1      15.700  -5.725   8.878  0.00  0.00     0.289 C 
ATOM     24  N19 <0> d   1      16.388  -6.967   8.498  0.00  0.00     0.086 N 
ATOM     25  C18 <0> d   1      17.760  -6.697   8.045  0.00  0.00     0.289 C 
ATOM     26  H48 <0> d   1      15.867  -7.468   7.795  0.00  0.00     0.316 HD
ATOM     27  C17 <0> d   1      18.568  -6.100   9.200  0.00  0.00     0.153 C 
ENDBRANCH  18  21
ENDBRANCH  13  15
ENDBRANCH   7  13
BRANCH  10  28
ATOM     28  C27 <0> d   1      19.244   1.591  14.705  0.00  0.00     0.095 C 
ATOM     29  C31 <0> d   1      19.905   0.424  13.950  0.00  0.00     0.026 C 
ATOM     30  C30 <0> d   1      19.196  -0.863  14.418  0.00  0.00     0.002 C 
ATOM     31  C29 <0> d   1      17.814  -0.375  14.921  0.00  0.00     0.002 C 
ATOM     32  C28 <0> d   1      18.157   0.972  15.608  0.00  0.00     0.026 C 
ENDBRANCH  10  28
BRANCH   1  33
ATOM     33  C2  <0> d   1      16.566   5.675  13.769  0.00  0.00     0.161 C 
ATOM     34  C1  <0> d   1      17.286   6.938  14.166  0.00  0.00     0.097 C 
ATOM     35  O3  <0> d   1      15.357   5.613  13.859  0.00  0.00    -0.293 OA
ENDBRANCH   1  33
TORSDOF 5
ENDMDL
MODEL 6
REMARK VINA RESULT:      -9.6      3.340      8.404
REMARK  5 active torsions:
REMARK  status: ('A' for Active; 'I' for Inactive)
REMARK    1  A    between atoms: C2_2  and  C4_4 
REMARK    2  A    between atoms: C10_10  and  N11_11 
REMARK    3  A    between atoms: N11_11  and  C12_12 
REMARK    4  A    between atoms: C15_15  and  N16_16 
REMARK    5  A    between atoms: N26_26  and  C27_27 
ROOT
ATOM      1  C4  <0> d   1      18.640  -3.669   9.055  0.00  0.00     0.084 A 
ATOM      2  C5  <0> d   1      18.954  -2.729   8.079  0.00  0.00    -0.027 A 
ATOM      3  C6  <0> d   1      19.521  -3.162   6.751  0.00  0.00     0.050 C 
ATOM      4  C7  <0> d   1      18.734  -1.366   8.353  0.00  0.00     0.036 A 
ATOM      5  C8  <0> d   1      19.034  -0.376   7.402  0.00  0.00     0.152 A 
ATOM      6  N9  <0> d   1      18.806   0.886   7.711  0.00  0.00    -0.074 NA
ATOM      7  C10 <0> d   1      18.305   1.224   8.895  0.00  0.00     0.730 A 
ATOM      8  N24 <0> d   1      18.006   0.328   9.823  0.00  0.00    -0.044 NA
ATOM      9  C25 <0> d   1      18.200  -0.966   9.601  0.00  0.00     0.164 A 
ATOM     10  N26 <0> d   1      17.893  -1.897  10.558  0.00  0.00    -0.292 N 
ATOM     11  C32 <0> d   1      18.083  -3.212  10.334  0.00  0.00     0.264 A 
ATOM     12  O33 <0> d   1      17.803  -4.022  11.197  0.00  0.00    -0.267 OA
ENDROOT
BRANCH   7  13
ATOM     13  N11 <0> d   1      18.086   2.560   9.167  0.00  0.00    -0.171 N 
ATOM     14  H41 <0> d   1      17.769   3.151   8.467  0.00  0.00     0.186 HD
BRANCH  13  15
ATOM     15  C12 <0> d   1      18.322   3.058  10.447  0.00  0.00     0.142 A 
ATOM     16  N23 <0> d   1      17.309   3.499  11.175  0.00  0.00    -0.241 NA
ATOM     17  C22 <0> d   1      17.485   3.974  12.393  0.00  0.00     0.148 A 
ATOM     18  C15 <0> d   1      18.752   4.038  12.953  0.00  0.00     0.048 A 
ATOM     19  C14 <0> d   1      19.844   3.587  12.215  0.00  0.00     0.034 A 
ATOM     20  C13 <0> d   1      19.620   3.091  10.944  0.00  0.00     0.053 A 
BRANCH  18  21
ATOM     21  N16 <0> d   1      18.931   4.549  14.244  0.00  0.00    -0.376 N 
ATOM     22  C21 <0> d   1      18.555   3.760  15.427  0.00  0.00     0.153 C 
ATOM     23  C20 <0> d   1      19.753   3.732  16.390  0.00  0.00     0.289 C 
ATOM     24  N19 <0> d   1      20.178   5.110  16.672  0.00  0.00     0.086 N 
ATOM     25  C18 <0> d   1      20.650   5.782  15.455  0.00  0.00     0.289 C 
ATOM     26  H48 <0> d   1      20.883   5.130  17.393  0.00  0.00     0.316 HD
ATOM     27  C17 <0> d   1      19.496   5.891  14.454  0.00  0.00     0.153 C 
ENDBRANCH  18  21
ENDBRANCH  13  15
ENDBRANCH   7  13
BRANCH  10  28
ATOM     28  C27 <0> d   1      17.342  -1.457  11.843  0.00  0.00     0.095 C 
ATOM     29  C31 <0> d   1      17.505   0.066  11.992  0.00  0.00     0.026 C 
ATOM     30  C30 <0> d   1      18.386   0.297  13.237  0.00  0.00     0.002 C 
ATOM     31  C29 <0> d   1      19.177  -1.026  13.393  0.00  0.00     0.002 C 
ATOM     32  C28 <0> d   1      18.129  -2.100  13.004  0.00  0.00     0.026 C 
ENDBRANCH  10  28
BRANCH   1  33
ATOM     33  C2  <0> d   1      18.855  -5.094   8.808  0.00  0.00     0.161 C 
ATOM     34  C1  <0> d   1      20.174  -5.731   9.163  0.00  0.00     0.097 C 
ATOM     35  O3  <0> d   1      17.971  -5.766   8.317  0.00  0.00    -0.293 OA
ENDBRANCH   1  33
TORSDOF 5
ENDMDL
MODEL 7
REMARK VINA RESULT:      -9.5      3.829      9.281
REMARK  5 active torsions:
REMARK  status: ('A' for Active; 'I' for Inactive)
REMARK    1  A    between atoms: C2_2  and  C4_4 
REMARK    2  A    between atoms: C10_10  and  N11_11 
REMARK    3  A    between atoms: N11_11  and  C12_12 
REMARK    4  A    between atoms: C15_15  and  N16_16 
REMARK    5  A    between atoms: N26_26  and  C27_27 
ROOT
ATOM      1  C4  <0> d   1      19.103  -4.341   8.636  0.00  0.00     0.084 A 
ATOM      2  C5  <0> d   1      18.759  -3.685   9.813  0.00  0.00    -0.027 A 
ATOM      3  C6  <0> d   1      18.582  -4.454  11.097  0.00  0.00     0.050 C 
ATOM      4  C7  <0> d   1      18.580  -2.289   9.785  0.00  0.00     0.036 A 
ATOM      5  C8  <0> d   1      18.232  -1.576  10.945  0.00  0.00     0.152 A 
ATOM      6  N9  <0> d   1      18.078  -0.269  10.861  0.00  0.00    -0.074 NA
ATOM      7  C10 <0> d   1      18.244   0.370   9.708  0.00  0.00     0.730 A 
ATOM      8  N24 <0> d   1      18.571  -0.256   8.588  0.00  0.00    -0.044 NA
ATOM      9  C25 <0> d   1      18.749  -1.572   8.576  0.00  0.00     0.164 A 
ATOM     10  N26 <0> d   1      19.087  -2.225   7.420  0.00  0.00    -0.292 N 
ATOM     11  C32 <0> d   1      19.274  -3.559   7.406  0.00  0.00     0.264 A 
ATOM     12  O33 <0> d   1      19.575  -4.119   6.368  0.00  0.00    -0.267 OA
ENDROOT
BRANCH   7  13
ATOM     13  N11 <0> d   1      18.070   1.739   9.676  0.00  0.00    -0.171 N 
ATOM     14  H41 <0> d   1      17.748   2.168   8.868  0.00  0.00     0.186 HD
BRANCH  13  15
ATOM     15  C12 <0> d   1      18.358   2.504  10.806  0.00  0.00     0.142 A 
ATOM     16  N23 <0> d   1      17.376   2.883  11.608  0.00  0.00    -0.241 NA
ATOM     17  C22 <0> d   1      17.603   3.603  12.689  0.00  0.00     0.148 A 
ATOM     18  C15 <0> d   1      18.890   4.001  13.020  0.00  0.00     0.048 A 
ATOM     19  C14 <0> d   1      19.949   3.625  12.197  0.00  0.00     0.034 A 
ATOM     20  C13 <0> d   1      19.674   2.866  11.074  0.00  0.00     0.053 A 
BRANCH  18  21
ATOM     21  N16 <0> d   1      19.122   4.770  14.166  0.00  0.00    -0.376 N 
ATOM     22  C21 <0> d   1      18.507   4.411  15.453  0.00  0.00     0.153 C 
ATOM     23  C20 <0> d   1      19.613   4.365  16.520  0.00  0.00     0.289 C 
ATOM     24  N19 <0> d   1      20.343   5.640  16.515  0.00  0.00     0.086 N 
ATOM     25  C18 <0> d   1      21.024   5.859  15.232  0.00  0.00     0.289 C 
ATOM     26  H48 <0> d   1      20.995   5.686  17.284  0.00  0.00     0.316 HD
ATOM     27  C17 <0> d   1      19.982   5.962  14.115  0.00  0.00     0.153 C 
ENDBRANCH  18  21
ENDBRANCH  13  15
ENDBRANCH   7  13
BRANCH  10  28
ATOM     28  C27 <0> d   1      19.256  -1.459   6.182  0.00  0.00     0.095 C 
ATOM     29  C31 <0> d   1      19.217   0.048   6.485  0.00  0.00     0.026 C 
ATOM     30  C30 <0> d   1      18.023   0.627   5.698  0.00  0.00     0.002 C 
ATOM     31  C29 <0> d   1      17.087  -0.588   5.480  0.00  0.00     0.002 C 
ATOM     32  C28 <0> d   1      18.084  -1.746   5.219  0.00  0.00     0.026 C 
ENDBRANCH  10  28
BRANCH   1  33
ATOM     33  C2  <0> d   1      19.298  -5.791   8.626  0.00  0.00     0.161 C 
ATOM     34  C1  <0> d   1      18.141  -6.705   8.316  0.00  0.00     0.097 C 
ATOM     35  O3  <0> d   1      20.392  -6.258   8.866  0.00  0.00    -0.293 OA
ENDBRANCH   1  33
TORSDOF 5
ENDMDL
MODEL 8
REMARK VINA RESULT:      -9.4      4.139      8.796
REMARK  5 active torsions:
REMARK  status: ('A' for Active; 'I' for Inactive)
REMARK    1  A    between atoms: C2_2  and  C4_4 
REMARK    2  A    between atoms: C10_10  and  N11_11 
REMARK    3  A    between atoms: N11_11  and  C12_12 
REMARK    4  A    between atoms: C15_15  and  N16_16 
REMARK    5  A    between atoms: N26_26  and  C27_27 
ROOT
ATOM      1  C4  <0> d   1      17.473  -4.318   9.462  0.00  0.00     0.084 A 
ATOM      2  C5  <0> d   1      17.620  -4.081  10.824  0.00  0.00    -0.027 A 
ATOM      3  C6  <0> d   1      16.993  -5.006  11.836  0.00  0.00     0.050 C 
ATOM      4  C7  <0> d   1      18.365  -2.962  11.243  0.00  0.00     0.036 A 
ATOM      5  C8  <0> d   1      18.544  -2.676  12.607  0.00  0.00     0.152 A 
ATOM      6  N9  <0> d   1      19.252  -1.615  12.942  0.00  0.00    -0.074 NA
ATOM      7  C10 <0> d   1      19.788  -0.825  12.017  0.00  0.00     0.730 A 
ATOM      8  N24 <0> d   1      19.647  -1.053  10.720  0.00  0.00    -0.044 NA
ATOM      9  C25 <0> d   1      18.952  -2.098  10.288  0.00  0.00     0.164 A 
ATOM     10  N26 <0> d   1      18.803  -2.337   8.947  0.00  0.00    -0.292 N 
ATOM     11  C32 <0> d   1      18.104  -3.400   8.505  0.00  0.00     0.264 A 
ATOM     12  O33 <0> d   1      17.984  -3.595   7.310  0.00  0.00    -0.267 OA
ENDROOT
BRANCH   7  13
ATOM     13  N11 <0> d   1      20.519   0.272  12.423  0.00  0.00    -0.171 N 
ATOM     14  H41 <0> d   1      21.476   0.193  12.563  0.00  0.00     0.186 HD
BRANCH  13  15
ATOM     15  C12 <0> d   1      19.883   1.495  12.633  0.00  0.00     0.142 A 
ATOM     16  N23 <0> d   1      19.252   1.717  13.775  0.00  0.00    -0.241 NA
ATOM     17  C22 <0> d   1      18.641   2.860  14.019  0.00  0.00     0.148 A 
ATOM     18  C15 <0> d   1      18.628   3.874  13.073  0.00  0.00     0.048 A 
ATOM     19  C14 <0> d   1      19.278   3.675  11.856  0.00  0.00     0.034 A 
ATOM     20  C13 <0> d   1      19.912   2.465  11.638  0.00  0.00     0.053 A 
BRANCH  18  21
ATOM     21  N16 <0> d   1      17.973   5.082  13.336  0.00  0.00    -0.376 N 
ATOM     22  C21 <0> d   1      16.700   5.410  12.676  0.00  0.00     0.153 C 
ATOM     23  C20 <0> d   1      15.687   5.819  13.757  0.00  0.00     0.289 C 
ATOM     24  N19 <0> d   1      16.259   6.899  14.572  0.00  0.00     0.086 N 
ATOM     25  C18 <0> d   1      17.459   6.446  15.290  0.00  0.00     0.289 C 
ATOM     26  H48 <0> d   1      15.574   7.271  15.212  0.00  0.00     0.316 HD
ATOM     27  C17 <0> d   1      18.541   6.060  14.277  0.00  0.00     0.153 C 
ENDBRANCH  18  21
ENDBRANCH  13  15
ENDBRANCH   7  13
BRANCH  10  28
ATOM     28  C27 <0> d   1      19.421  -1.427   7.979  0.00  0.00     0.095 C 
ATOM     29  C31 <0> d   1      19.625  -0.041   8.614  0.00  0.00     0.026 C 
ATOM     30  C30 <0> d   1      18.804   0.957   7.772  0.00  0.00     0.002 C 
ATOM     31  C29 <0> d   1      17.716   0.082   7.101  0.00  0.00     0.002 C 
ATOM     32  C28 <0> d   1      18.482  -1.223   6.771  0.00  0.00     0.026 C 
ENDBRANCH  10  28
BRANCH   1  33
ATOM     33  C2  <0> d   1      16.707  -5.470   8.988  0.00  0.00     0.161 C 
ATOM     34  C1  <0> d   1      17.411  -6.762   8.664  0.00  0.00     0.097 C 
ATOM     35  O3  <0> d   1      15.503  -5.387   8.858  0.00  0.00    -0.293 OA
ENDBRANCH   1  33
TORSDOF 5
ENDMDL
MODEL 9
REMARK VINA RESULT:      -9.2      3.813      9.921
REMARK  5 active torsions:
REMARK  status: ('A' for Active; 'I' for Inactive)
REMARK    1  A    between atoms: C2_2  and  C4_4 
REMARK    2  A    between atoms: C10_10  and  N11_11 
REMARK    3  A    between atoms: N11_11  and  C12_12 
REMARK    4  A    between atoms: C15_15  and  N16_16 
REMARK    5  A    between atoms: N26_26  and  C27_27 
ROOT
ATOM      1  C4  <0> d   1      18.999  -4.050   7.658  0.00  0.00     0.084 A 
ATOM      2  C5  <0> d   1      18.982  -3.941   9.044  0.00  0.00    -0.027 A 
ATOM      3  C6  <0> d   1      19.434  -5.089   9.910  0.00  0.00     0.050 C 
ATOM      4  C7  <0> d   1      18.535  -2.739   9.625  0.00  0.00     0.036 A 
ATOM      5  C8  <0> d   1      18.497  -2.576  11.020  0.00  0.00     0.152 A 
ATOM      6  N9  <0> d   1      18.070  -1.428  11.510  0.00  0.00    -0.074 NA
ATOM      7  C10 <0> d   1      17.680  -0.441  10.710  0.00  0.00     0.730 A 
ATOM      8  N24 <0> d   1      17.697  -0.547   9.390  0.00  0.00    -0.044 NA
ATOM      9  C25 <0> d   1      18.112  -1.665   8.807  0.00  0.00     0.164 A 
ATOM     10  N26 <0> d   1      18.132  -1.779   7.441  0.00  0.00    -0.292 N 
ATOM     11  C32 <0> d   1      18.558  -2.909   6.846  0.00  0.00     0.264 A 
ATOM     12  O33 <0> d   1      18.568  -2.990   5.632  0.00  0.00    -0.267 OA
ENDROOT
BRANCH   7  13
ATOM     13  N11 <0> d   1      17.242   0.739  11.276  0.00  0.00    -0.171 N 
ATOM     14  H41 <0> d   1      16.629   1.312  10.789  0.00  0.00     0.186 HD
BRANCH  13  15
ATOM     15  C12 <0> d   1      17.681   1.107  12.548  0.00  0.00     0.142 A 
ATOM     16  N23 <0> d   1      18.499   2.138  12.684  0.00  0.00    -0.241 NA
ATOM     17  C22 <0> d   1      18.936   2.525  13.867  0.00  0.00     0.148 A 
ATOM     18  C15 <0> d   1      18.557   1.850  15.018  0.00  0.00     0.048 A 
ATOM     19  C14 <0> d   1      17.700   0.757  14.914  0.00  0.00     0.034 A 
ATOM     20  C13 <0> d   1      17.258   0.384  13.657  0.00  0.00     0.053 A 
BRANCH  18  21
ATOM     21  N16 <0> d   1      19.029   2.263  16.270  0.00  0.00    -0.376 N 
ATOM     22  C21 <0> d   1      19.305   3.682  16.543  0.00  0.00     0.153 C 
ATOM     23  C20 <0> d   1      18.580   4.074  17.840  0.00  0.00     0.289 C 
ATOM     24  N19 <0> d   1      18.973   3.149  18.911  0.00  0.00     0.086 N 
ATOM     25  C18 <0> d   1      18.551   1.774  18.610  0.00  0.00     0.289 C 
ATOM     26  H48 <0> d   1      18.608   3.452  19.802  0.00  0.00     0.316 HD
ATOM     27  C17 <0> d   1      19.267   1.289  17.346  0.00  0.00     0.153 C 
ENDBRANCH  18  21
ENDBRANCH  13  15
ENDBRANCH   7  13
BRANCH  10  28
ATOM     28  C27 <0> d   1      17.689  -0.652   6.616  0.00  0.00     0.095 C 
ATOM     29  C31 <0> d   1      17.505  -1.105   5.158  0.00  0.00     0.026 C 
ATOM     30  C30 <0> d   1      18.480  -0.266   4.307  0.00  0.00     0.002 C 
ATOM     31  C29 <0> d   1      19.578   0.172   5.309  0.00  0.00     0.002 C 
ATOM     32  C28 <0> d   1      18.770   0.450   6.602  0.00  0.00     0.026 C 
ENDBRANCH  10  28
BRANCH   1  33
ATOM     33  C2  <0> d   1      19.457  -5.283   7.017  0.00  0.00     0.161 C 
ATOM     34  C1  <0> d   1      18.454  -6.277   6.493  0.00  0.00     0.097 C 
ATOM     35  O3  <0> d   1      20.645  -5.505   6.907  0.00  0.00    -0.293 OA
ENDBRANCH   1  33
TORSDOF 5
ENDMDL
