MODEL 1
REMARK VINA RESULT:      -7.6      0.000      0.000
REMARK  4 active torsions:
REMARK  status: ('A' for Active; 'I' for Inactive)
REMARK    1  A    between atoms: C5_5  and  C6_6 
REMARK    2  A    between atoms: C6_6  and  C8_8 
REMARK    3  A    between atoms: C10_10  and  O11_11 
REMARK    4  A    between atoms: C14_14  and  N15_15 
ROOT
ATOM      1  C8  <0> d   1      18.148   0.783  12.356  0.00  0.00     0.020 A 
ATOM      2  C9  <0> d   1      18.929  -0.342  12.072  0.00  0.00     0.055 A 
ATOM      3  C10 <0> d   1      19.345  -1.167  13.098  0.00  0.00     0.105 A 
ATOM      4  C12 <0> d   1      18.986  -0.877  14.414  0.00  0.00     0.173 A 
ATOM      5  O13 <0> d   1      19.397  -1.689  15.422  0.00  0.00    -0.186 OA
ATOM      6  C14 <0> d   1      18.210   0.239  14.697  0.00  0.00     0.143 A 
ATOM      7  C18 <0> d   1      17.796   1.069  13.678  0.00  0.00     0.054 A 
ENDROOT
BRANCH   1   8
ATOM      8  C6  <0> d   1      17.701   1.667  11.264  0.00  0.00     0.192 C 
ATOM      9  O7  <0> d   1      17.072   2.677  11.519  0.00  0.00    -0.287 OA
BRANCH   8  10
ATOM     10  C5  <0> d   1      18.017   1.328   9.861  0.00  0.00     0.015 A 
ATOM     11  C4  <0> d   1      17.319   0.309   9.211  0.00  0.00     0.016 A 
ATOM     12  C3  <0> d   1      17.620  -0.003   7.902  0.00  0.00     0.007 A 
ATOM     13  C2  <0> d   1      18.611   0.693   7.232  0.00  0.00    -0.062 A 
ATOM     14  C1  <0> d   1      18.935   0.346   5.801  0.00  0.00     0.048 C 
ATOM     15  C20 <0> d   1      19.311   1.701   7.872  0.00  0.00     0.007 A 
ATOM     16  C19 <0> d   1      19.016   2.026   9.179  0.00  0.00     0.016 A 
ENDBRANCH   8  10
ENDBRANCH   1   8
BRANCH   6  17
ATOM     17  N15 <0> d   1      17.833   0.542  16.096  0.00  0.00    -0.113 N 
ATOM     18  O16 <0> d   1      16.880  -0.021  16.605  0.00  0.00    -0.532 OA
ATOM     19  O17 <0> d   1      18.476   1.352  16.738  0.00  0.00    -0.532 OA
ENDBRANCH   6  17
BRANCH   3  20
ATOM     20  O11 <0> d   1      20.105  -2.261  12.826  0.00  0.00    -0.358 OA
ATOM     21  H27 <0> d   1      20.002  -2.596  11.925  0.00  0.00     0.217 HD
ENDBRANCH   3  20
TORSDOF 4
ENDMDL
MODEL 2
REMARK VINA RESULT:      -7.5      3.344      3.906
REMARK  4 active torsions:
REMARK  status: ('A' for Active; 'I' for Inactive)
REMARK    1  A    between atoms: C5_5  and  C6_6 
REMARK    2  A    between atoms: C6_6  and  C8_8 
REMARK    3  A    between atoms: C10_10  and  O11_11 
REMARK    4  A    between atoms: C14_14  and  N15_15 
ROOT
ATOM      1  C8  <0> d   1      18.131   2.141  10.958  0.00  0.00     0.020 A 
ATOM      2  C9  <0> d   1      19.524   2.273  10.974  0.00  0.00     0.055 A 
ATOM      3  C10 <0> d   1      20.108   3.314  11.667  0.00  0.00     0.105 A 
ATOM      4  C12 <0> d   1      19.311   4.230  12.351  0.00  0.00     0.173 A 
ATOM      5  O13 <0> d   1      19.887   5.254  13.032  0.00  0.00    -0.186 OA
ATOM      6  C14 <0> d   1      17.928   4.099  12.337  0.00  0.00     0.143 A 
ATOM      7  C18 <0> d   1      17.338   3.066  11.643  0.00  0.00     0.054 A 
ENDROOT
BRANCH   1   8
ATOM      8  C6  <0> d   1      17.502   1.031  10.219  0.00  0.00     0.192 C 
ATOM      9  O7  <0> d   1      16.683   0.321  10.771  0.00  0.00    -0.287 OA
BRANCH   8  10
ATOM     10  C5  <0> d   1      17.865   0.782   8.809  0.00  0.00     0.015 A 
ATOM     11  C4  <0> d   1      17.306  -0.296   8.120  0.00  0.00     0.016 A 
ATOM     12  C3  <0> d   1      17.649  -0.524   6.804  0.00  0.00     0.007 A 
ATOM     13  C2  <0> d   1      18.545   0.316   6.165  0.00  0.00    -0.062 A 
ATOM     14  C1  <0> d   1      18.916   0.061   4.726  0.00  0.00     0.048 C 
ATOM     15  C20 <0> d   1      19.107   1.384   6.842  0.00  0.00     0.007 A 
ATOM     16  C19 <0> d   1      18.768   1.625   8.157  0.00  0.00     0.016 A 
ENDBRANCH   8  10
ENDBRANCH   1   8
BRANCH   6  17
ATOM     17  N15 <0> d   1      17.086   5.076  13.065  0.00  0.00    -0.113 N 
ATOM     18  O16 <0> d   1      16.843   4.910  14.246  0.00  0.00    -0.532 OA
ATOM     19  O17 <0> d   1      16.638   6.047  12.481  0.00  0.00    -0.532 OA
ENDBRANCH   6  17
BRANCH   3  20
ATOM     20  O11 <0> d   1      21.462   3.445  11.684  0.00  0.00    -0.358 OA
ATOM     21  H27 <0> d   1      21.850   3.398  12.567  0.00  0.00     0.217 HD
ENDBRANCH   3  20
TORSDOF 4
ENDMDL
MODEL 3
REMARK VINA RESULT:      -7.5      5.558      7.661
REMARK  4 active torsions:
REMARK  status: ('A' for Active; 'I' for Inactive)
REMARK    1  A    between atoms: C5_5  and  C6_6 
REMARK    2  A    between atoms: C6_6  and  C8_8 
REMARK    3  A    between atoms: C10_10  and  O11_11 
REMARK    4  A    between atoms: C14_14  and  N15_15 
ROOT
ATOM      1  C8  <0> d   1      19.107  -2.799   5.880  0.00  0.00     0.020 A 
ATOM      2  C9  <0> d   1      18.149  -3.457   5.102  0.00  0.00     0.055 A 
ATOM      3  C10 <0> d   1      17.991  -4.824   5.218  0.00  0.00     0.105 A 
ATOM      4  C12 <0> d   1      18.784  -5.544   6.109  0.00  0.00     0.173 A 
ATOM      5  O13 <0> d   1      18.627  -6.888   6.221  0.00  0.00    -0.186 OA
ATOM      6  C14 <0> d   1      19.734  -4.891   6.883  0.00  0.00     0.143 A 
ATOM      7  C18 <0> d   1      19.902  -3.529   6.769  0.00  0.00     0.054 A 
ENDROOT
BRANCH   1   8
ATOM      8  C6  <0> d   1      19.280  -1.340   5.760  0.00  0.00     0.192 C 
ATOM      9  O7  <0> d   1      19.732  -0.863   4.737  0.00  0.00    -0.287 OA
BRANCH   8  10
ATOM     10  C5  <0> d   1      18.904  -0.456   6.883  0.00  0.00     0.015 A 
ATOM     11  C4  <0> d   1      17.961  -0.878   7.823  0.00  0.00     0.016 A 
ATOM     12  C3  <0> d   1      17.614  -0.048   8.868  0.00  0.00     0.007 A 
ATOM     13  C2  <0> d   1      18.198   1.201   8.986  0.00  0.00    -0.062 A 
ATOM     14  C1  <0> d   1      17.813   2.104  10.131  0.00  0.00     0.048 C 
ATOM     15  C20 <0> d   1      19.128   1.629   8.056  0.00  0.00     0.007 A 
ATOM     16  C19 <0> d   1      19.489   0.806   7.009  0.00  0.00     0.016 A 
ENDBRANCH   8  10
ENDBRANCH   1   8
BRANCH   6  17
ATOM     17  N15 <0> d   1      20.575  -5.662   7.828  0.00  0.00    -0.113 N 
ATOM     18  O16 <0> d   1      20.079  -6.140   8.832  0.00  0.00    -0.532 OA
ATOM     19  O17 <0> d   1      21.761  -5.818   7.599  0.00  0.00    -0.532 OA
ENDBRANCH   6  17
BRANCH   3  20
ATOM     20  O11 <0> d   1      17.061  -5.467   4.462  0.00  0.00    -0.358 OA
ATOM     21  H27 <0> d   1      16.573  -6.152   4.938  0.00  0.00     0.217 HD
ENDBRANCH   3  20
TORSDOF 4
ENDMDL
MODEL 4
REMARK VINA RESULT:      -7.4      3.051      4.030
REMARK  4 active torsions:
REMARK  status: ('A' for Active; 'I' for Inactive)
REMARK    1  A    between atoms: C5_5  and  C6_6 
REMARK    2  A    between atoms: C6_6  and  C8_8 
REMARK    3  A    between atoms: C10_10  and  O11_11 
REMARK    4  A    between atoms: C14_14  and  N15_15 
ROOT
ATOM      1  C8  <0> d   1      18.150   3.645  13.175  0.00  0.00     0.020 A 
ATOM      2  C9  <0> d   1      18.261   2.465  13.919  0.00  0.00     0.055 A 
ATOM      3  C10 <0> d   1      18.923   2.476  15.130  0.00  0.00     0.105 A 
ATOM      4  C12 <0> d   1      19.478   3.662  15.611  0.00  0.00     0.173 A 
ATOM      5  O13 <0> d   1      20.129   3.670  16.802  0.00  0.00    -0.186 OA
ATOM      6  C14 <0> d   1      19.367   4.833  14.873  0.00  0.00     0.143 A 
ATOM      7  C18 <0> d   1      18.713   4.829  13.661  0.00  0.00     0.054 A 
ENDROOT
BRANCH   1   8
ATOM      8  C6  <0> d   1      17.445   3.639  11.881  0.00  0.00     0.192 C 
ATOM      9  O7  <0> d   1      16.536   4.422  11.680  0.00  0.00    -0.287 OA
BRANCH   8  10
ATOM     10  C5  <0> d   1      17.842   2.683  10.826  0.00  0.00     0.015 A 
ATOM     11  C4  <0> d   1      18.720   3.078   9.815  0.00  0.00     0.016 A 
ATOM     12  C3  <0> d   1      19.086   2.182   8.833  0.00  0.00     0.007 A 
ATOM     13  C2  <0> d   1      18.586   0.891   8.850  0.00  0.00    -0.062 A 
ATOM     14  C1  <0> d   1      18.990  -0.084   7.773  0.00  0.00     0.048 C 
ATOM     15  C20 <0> d   1      17.711   0.494   9.845  0.00  0.00     0.007 A 
ATOM     16  C19 <0> d   1      17.340   1.380  10.836  0.00  0.00     0.016 A 
ENDBRANCH   8  10
ENDBRANCH   1   8
BRANCH   6  17
ATOM     17  N15 <0> d   1      19.959   6.089  15.388  0.00  0.00    -0.113 N 
ATOM     18  O16 <0> d   1      19.302   6.824  16.103  0.00  0.00    -0.532 OA
ATOM     19  O17 <0> d   1      21.104   6.386  15.098  0.00  0.00    -0.532 OA
ENDBRANCH   6  17
BRANCH   3  20
ATOM     20  O11 <0> d   1      19.033   1.331  15.855  0.00  0.00    -0.358 OA
ATOM     21  H27 <0> d   1      19.924   1.162  16.190  0.00  0.00     0.217 HD
ENDBRANCH   3  20
TORSDOF 4
ENDMDL
MODEL 5
REMARK VINA RESULT:      -7.3      1.791      3.053
REMARK  4 active torsions:
REMARK  status: ('A' for Active; 'I' for Inactive)
REMARK    1  A    between atoms: C5_5  and  C6_6 
REMARK    2  A    between atoms: C6_6  and  C8_8 
REMARK    3  A    between atoms: C10_10  and  O11_11 
REMARK    4  A    between atoms: C14_14  and  N15_15 
ROOT
ATOM      1  C8  <0> d   1      18.407   0.742  11.415  0.00  0.00     0.020 A 
ATOM      2  C9  <0> d   1      18.820   1.347  12.606  0.00  0.00     0.055 A 
ATOM      3  C10 <0> d   1      19.316   0.571  13.635  0.00  0.00     0.105 A 
ATOM      4  C12 <0> d   1      19.406  -0.812  13.484  0.00  0.00     0.173 A 
ATOM      5  O13 <0> d   1      19.894  -1.573  14.497  0.00  0.00    -0.186 OA
ATOM      6  C14 <0> d   1      18.998  -1.413  12.301  0.00  0.00     0.143 A 
ATOM      7  C18 <0> d   1      18.497  -0.646  11.272  0.00  0.00     0.054 A 
ENDROOT
BRANCH   1   8
ATOM      8  C6  <0> d   1      17.877   1.565  10.313  0.00  0.00     0.192 C 
ATOM      9  O7  <0> d   1      17.265   2.588  10.558  0.00  0.00    -0.287 OA
BRANCH   8  10
ATOM     10  C5  <0> d   1      18.088   1.150   8.911  0.00  0.00     0.015 A 
ATOM     11  C4  <0> d   1      19.055   1.786   8.128  0.00  0.00     0.016 A 
ATOM     12  C3  <0> d   1      19.248   1.394   6.821  0.00  0.00     0.007 A 
ATOM     13  C2  <0> d   1      18.485   0.372   6.283  0.00  0.00    -0.062 A 
ATOM     14  C1  <0> d   1      18.701  -0.051   4.852  0.00  0.00     0.048 C 
ATOM     15  C20 <0> d   1      17.522  -0.259   7.049  0.00  0.00     0.007 A 
ATOM     16  C19 <0> d   1      17.323   0.119   8.361  0.00  0.00     0.016 A 
ENDBRANCH   8  10
ENDBRANCH   1   8
BRANCH   6  17
ATOM     17  N15 <0> d   1      19.096  -2.882  12.147  0.00  0.00    -0.113 N 
ATOM     18  O16 <0> d   1      18.111  -3.579  12.316  0.00  0.00    -0.532 OA
ATOM     19  O17 <0> d   1      20.160  -3.393  11.849  0.00  0.00    -0.532 OA
ENDBRANCH   6  17
BRANCH   3  20
ATOM     20  O11 <0> d   1      19.717   1.157  14.795  0.00  0.00    -0.358 OA
ATOM     21  H27 <0> d   1      20.053   0.534  15.454  0.00  0.00     0.217 HD
ENDBRANCH   3  20
TORSDOF 4
ENDMDL
MODEL 6
REMARK VINA RESULT:      -7.2      2.381      4.073
REMARK  4 active torsions:
REMARK  status: ('A' for Active; 'I' for Inactive)
REMARK    1  A    between atoms: C5_5  and  C6_6 
REMARK    2  A    between atoms: C6_6  and  C8_8 
REMARK    3  A    between atoms: C10_10  and  O11_11 
REMARK    4  A    between atoms: C14_14  and  N15_15 
ROOT
ATOM      1  C8  <0> d   1      18.612   2.627  15.440  0.00  0.00     0.020 A 
ATOM      2  C9  <0> d   1      18.946   3.025  16.739  0.00  0.00     0.055 A 
ATOM      3  C10 <0> d   1      19.225   2.073  17.699  0.00  0.00     0.105 A 
ATOM      4  C12 <0> d   1      19.177   0.719  17.372  0.00  0.00     0.173 A 
ATOM      5  O13 <0> d   1      19.452  -0.215  18.318  0.00  0.00    -0.186 OA
ATOM      6  C14 <0> d   1      18.848   0.323  16.083  0.00  0.00     0.143 A 
ATOM      7  C18 <0> d   1      18.562   1.267  15.121  0.00  0.00     0.054 A 
ENDROOT
BRANCH   1   8
ATOM      8  C6  <0> d   1      18.312   3.639  14.410  0.00  0.00     0.192 C 
ATOM      9  O7  <0> d   1      17.911   4.739  14.738  0.00  0.00    -0.287 OA
BRANCH   8  10
ATOM     10  C5  <0> d   1      18.501   3.318  12.980  0.00  0.00     0.015 A 
ATOM     11  C4  <0> d   1      19.787   3.212  12.448  0.00  0.00     0.016 A 
ATOM     12  C3  <0> d   1      19.956   2.913  11.112  0.00  0.00     0.007 A 
ATOM     13  C2  <0> d   1      18.853   2.716  10.300  0.00  0.00    -0.062 A 
ATOM     14  C1  <0> d   1      19.045   2.390   8.841  0.00  0.00     0.048 C 
ATOM     15  C20 <0> d   1      17.575   2.824  10.819  0.00  0.00     0.007 A 
ATOM     16  C19 <0> d   1      17.392   3.118  12.154  0.00  0.00     0.016 A 
ENDBRANCH   8  10
ENDBRANCH   1   8
BRANCH   6  17
ATOM     17  N15 <0> d   1      18.798  -1.117  15.742  0.00  0.00    -0.113 N 
ATOM     18  O16 <0> d   1      17.930  -1.826  16.219  0.00  0.00    -0.532 OA
ATOM     19  O17 <0> d   1      19.624  -1.592  14.984  0.00  0.00    -0.532 OA
ENDBRANCH   6  17
BRANCH   3  20
ATOM     20  O11 <0> d   1      19.548   2.457  18.963  0.00  0.00    -0.358 OA
ATOM     21  H27 <0> d   1      19.729   1.721  19.563  0.00  0.00     0.217 HD
ENDBRANCH   3  20
TORSDOF 4
ENDMDL
MODEL 7
REMARK VINA RESULT:      -7.2      4.501      6.814
REMARK  4 active torsions:
REMARK  status: ('A' for Active; 'I' for Inactive)
REMARK    1  A    between atoms: C5_5  and  C6_6 
REMARK    2  A    between atoms: C6_6  and  C8_8 
REMARK    3  A    between atoms: C10_10  and  O11_11 
REMARK    4  A    between atoms: C14_14  and  N15_15 
ROOT
ATOM      1  C8  <0> d   1      19.341  -1.088   8.933  0.00  0.00     0.020 A 
ATOM      2  C9  <0> d   1      18.923  -2.382   9.261  0.00  0.00     0.055 A 
ATOM      3  C10 <0> d   1      18.516  -3.246   8.264  0.00  0.00     0.105 A 
ATOM      4  C12 <0> d   1      18.524  -2.829   6.934  0.00  0.00     0.173 A 
ATOM      5  O13 <0> d   1      18.123  -3.681   5.955  0.00  0.00    -0.186 OA
ATOM      6  C14 <0> d   1      18.940  -1.545   6.607  0.00  0.00     0.143 A 
ATOM      7  C18 <0> d   1      19.342  -0.676   7.597  0.00  0.00     0.054 A 
ENDROOT
BRANCH   1   8
ATOM      8  C6  <0> d   1      19.776  -0.161   9.993  0.00  0.00     0.192 C 
ATOM      9  O7  <0> d   1      20.748  -0.429  10.674  0.00  0.00    -0.287 OA
BRANCH   8  10
ATOM     10  C5  <0> d   1      19.033   1.095  10.229  0.00  0.00     0.015 A 
ATOM     11  C4  <0> d   1      19.161   2.164   9.338  0.00  0.00     0.016 A 
ATOM     12  C3  <0> d   1      18.465   3.333   9.564  0.00  0.00     0.007 A 
ATOM     13  C2  <0> d   1      17.642   3.448  10.670  0.00  0.00    -0.062 A 
ATOM     14  C1  <0> d   1      16.884   4.730  10.911  0.00  0.00     0.048 C 
ATOM     15  C20 <0> d   1      17.514   2.396  11.559  0.00  0.00     0.007 A 
ATOM     16  C19 <0> d   1      18.200   1.219  11.343  0.00  0.00     0.016 A 
ENDBRANCH   8  10
ENDBRANCH   1   8
BRANCH   6  17
ATOM     17  N15 <0> d   1      18.946  -1.108   5.193  0.00  0.00    -0.113 N 
ATOM     18  O16 <0> d   1      19.946  -1.256   4.514  0.00  0.00    -0.532 OA
ATOM     19  O17 <0> d   1      17.950  -0.601   4.709  0.00  0.00    -0.532 OA
ENDBRANCH   6  17
BRANCH   3  20
ATOM     20  O11 <0> d   1      18.108  -4.504   8.580  0.00  0.00    -0.358 OA
ATOM     21  H27 <0> d   1      18.405  -5.182   7.958  0.00  0.00     0.217 HD
ENDBRANCH   3  20
TORSDOF 4
ENDMDL
MODEL 8
REMARK VINA RESULT:      -7.1      4.053      5.688
REMARK  4 active torsions:
REMARK  status: ('A' for Active; 'I' for Inactive)
REMARK    1  A    between atoms: C5_5  and  C6_6 
REMARK    2  A    between atoms: C6_6  and  C8_8 
REMARK    3  A    between atoms: C10_10  and  O11_11 
REMARK    4  A    between atoms: C14_14  and  N15_15 
ROOT
ATOM      1  C8  <0> d   1      18.253  -1.857   8.017  0.00  0.00     0.020 A 
ATOM      2  C9  <0> d   1      19.272  -2.335   7.187  0.00  0.00     0.055 A 
ATOM      3  C10 <0> d   1      19.797  -3.594   7.400  0.00  0.00     0.105 A 
ATOM      4  C12 <0> d   1      19.310  -4.386   8.439  0.00  0.00     0.173 A 
ATOM      5  O13 <0> d   1      19.829  -5.624   8.647  0.00  0.00    -0.186 OA
ATOM      6  C14 <0> d   1      18.297  -3.912   9.262  0.00  0.00     0.143 A 
ATOM      7  C18 <0> d   1      17.772  -2.655   9.059  0.00  0.00     0.054 A 
ENDROOT
BRANCH   1   8
ATOM      8  C6  <0> d   1      17.688  -0.513   7.795  0.00  0.00     0.192 C 
ATOM      9  O7  <0> d   1      16.971  -0.306   6.835  0.00  0.00    -0.287 OA
BRANCH   8  10
ATOM     10  C5  <0> d   1      17.993   0.583   8.738  0.00  0.00     0.015 A 
ATOM     11  C4  <0> d   1      17.356   0.637   9.980  0.00  0.00     0.016 A 
ATOM     12  C3  <0> d   1      17.644   1.662  10.856  0.00  0.00     0.007 A 
ATOM     13  C2  <0> d   1      18.563   2.636  10.507  0.00  0.00    -0.062 A 
ATOM     14  C1  <0> d   1      18.873   3.754  11.469  0.00  0.00     0.048 C 
ATOM     15  C20 <0> d   1      19.195   2.592   9.277  0.00  0.00     0.007 A 
ATOM     16  C19 <0> d   1      18.919   1.569   8.393  0.00  0.00     0.016 A 
ENDBRANCH   8  10
ENDBRANCH   1   8
BRANCH   6  17
ATOM     17  N15 <0> d   1      17.784  -4.758  10.364  0.00  0.00    -0.113 N 
ATOM     18  O16 <0> d   1      16.830  -5.491  10.175  0.00  0.00    -0.532 OA
ATOM     19  O17 <0> d   1      18.318  -4.721  11.458  0.00  0.00    -0.532 OA
ENDBRANCH   6  17
BRANCH   3  20
ATOM     20  O11 <0> d   1      20.789  -4.062   6.596  0.00  0.00    -0.358 OA
ATOM     21  H27 <0> d   1      20.615  -3.951   5.652  0.00  0.00     0.217 HD
ENDBRANCH   3  20
TORSDOF 4
ENDMDL
MODEL 9
REMARK VINA RESULT:      -7.1      3.974      6.322
REMARK  4 active torsions:
REMARK  status: ('A' for Active; 'I' for Inactive)
REMARK    1  A    between atoms: C5_5  and  C6_6 
REMARK    2  A    between atoms: C6_6  and  C8_8 
REMARK    3  A    between atoms: C10_10  and  O11_11 
REMARK    4  A    between atoms: C14_14  and  N15_15 
ROOT
ATOM      1  C8  <0> d   1      17.674  -0.440   9.779  0.00  0.00     0.020 A 
ATOM      2  C9  <0> d   1      18.347  -1.621  10.108  0.00  0.00     0.055 A 
ATOM      3  C10 <0> d   1      18.938  -2.375   9.113  0.00  0.00     0.105 A 
ATOM      4  C12 <0> d   1      18.865  -1.957   7.785  0.00  0.00     0.173 A 
ATOM      5  O13 <0> d   1      19.446  -2.700   6.809  0.00  0.00    -0.186 OA
ATOM      6  C14 <0> d   1      18.198  -0.784   7.458  0.00  0.00     0.143 A 
ATOM      7  C18 <0> d   1      17.602  -0.029   8.444  0.00  0.00     0.054 A 
ENDROOT
BRANCH   1   8
ATOM      8  C6  <0> d   1      17.041   0.369  10.836  0.00  0.00     0.192 C 
ATOM      9  O7  <0> d   1      15.950   0.054  11.271  0.00  0.00    -0.287 OA
BRANCH   8  10
ATOM     10  C5  <0> d   1      17.732   1.562  11.369  0.00  0.00     0.015 A 
ATOM     11  C4  <0> d   1      17.775   2.741  10.622  0.00  0.00     0.016 A 
ATOM     12  C3  <0> d   1      18.422   3.850  11.125  0.00  0.00     0.007 A 
ATOM     13  C2  <0> d   1      19.028   3.796  12.368  0.00  0.00    -0.062 A 
ATOM     14  C1  <0> d   1      19.734   5.012  12.912  0.00  0.00     0.048 C 
ATOM     15  C20 <0> d   1      18.995   2.630  13.112  0.00  0.00     0.007 A 
ATOM     16  C19 <0> d   1      18.347   1.515  12.623  0.00  0.00     0.016 A 
ENDBRANCH   8  10
ENDBRANCH   1   8
BRANCH   6  17
ATOM     17  N15 <0> d   1      18.123  -0.345   6.046  0.00  0.00    -0.113 N 
ATOM     18  O16 <0> d   1      17.255  -0.789   5.316  0.00  0.00    -0.532 OA
ATOM     19  O17 <0> d   1      18.929   0.460   5.615  0.00  0.00    -0.532 OA
ENDBRANCH   6  17
BRANCH   3  20
ATOM     20  O11 <0> d   1      19.592  -3.525   9.430  0.00  0.00    -0.358 OA
ATOM     21  H27 <0> d   1      20.320  -3.404  10.054  0.00  0.00     0.217 HD
ENDBRANCH   3  20
TORSDOF 4
ENDMDL
