MODEL 1
REMARK VINA RESULT:      -7.2      0.000      0.000
REMARK  5 active torsions:
REMARK  status: ('A' for Active; 'I' for Inactive)
REMARK       I    between atoms: N1_1  and  C2_2 
REMARK    1  A    between atoms: C2_2  and  C4_4 
REMARK    2  A    between atoms: C4_4  and  S5_5 
REMARK    3  A    between atoms: S5_5  and  C7_7 
REMARK    4  A    between atoms: C7_7  and  C8_8 
REMARK    5  A    between atoms: C7_7  and  C14_14 
ROOT
ATOM      1  C7  ZIN A   1      18.489   0.716  10.421  0.00  0.00     0.145 C 
ENDROOT
BRANCH   1   2
ATOM      2  S5  ZIN A   1      20.022  -0.134  10.889  0.00  0.00     0.037 S 
ATOM      3  O6  ZIN A   1      20.462  -0.946   9.810  0.00  0.00    -0.257 OA
BRANCH   2   4
ATOM      4  C4  ZIN A   1      19.498  -1.191  12.268  0.00  0.00     0.212 C 
BRANCH   4   5
ATOM      5  C2  ZIN A   1      19.546  -2.634  11.840  0.00  0.00     0.227 C 
ATOM      6  N1  ZIN A   1      20.731  -3.218  11.569  0.00  0.00    -0.369 N 
ATOM      7  H20 ZIN A   1      20.762  -4.147  11.294  0.00  0.00     0.159 HD
ATOM      8  H21 ZIN A   1      21.552  -2.708  11.647  0.00  0.00     0.159 HD
ATOM      9  O3  ZIN A   1      18.519  -3.271  11.738  0.00  0.00    -0.273 OA
ENDBRANCH   4   5
ENDBRANCH   2   4
ENDBRANCH   1   2
BRANCH   1  10
ATOM     10  C8  ZIN A   1      18.536   2.141  10.907  0.00  0.00    -0.038 A 
ATOM     11  C13 ZIN A   1      19.650   2.604  11.585  0.00  0.00     0.009 A 
ATOM     12  C12 ZIN A   1      19.694   3.912  12.028  0.00  0.00     0.001 A 
ATOM     13  C11 ZIN A   1      18.623   4.756  11.802  0.00  0.00     0.000 A 
ATOM     14  C10 ZIN A   1      17.508   4.292  11.129  0.00  0.00     0.001 A 
ATOM     15  C9  ZIN A   1      17.464   2.984  10.682  0.00  0.00     0.009 A 
ENDBRANCH   1  10
BRANCH   1  16
ATOM     16  C14 ZIN A   1      18.345   0.702   8.921  0.00  0.00    -0.038 A 
ATOM     17  C19 ZIN A   1      19.173   1.485   8.139  0.00  0.00     0.009 A 
ATOM     18  C18 ZIN A   1      19.042   1.468   6.763  0.00  0.00     0.001 A 
ATOM     19  C17 ZIN A   1      18.078   0.676   6.169  0.00  0.00     0.000 A 
ATOM     20  C16 ZIN A   1      17.246  -0.104   6.951  0.00  0.00     0.001 A 
ATOM     21  C15 ZIN A   1      17.380  -0.091   8.327  0.00  0.00     0.009 A 
ENDBRANCH   1  16
TORSDOF 5
ENDMDL
MODEL 2
REMARK VINA RESULT:      -7.2      1.290      4.317
REMARK  5 active torsions:
REMARK  status: ('A' for Active; 'I' for Inactive)
REMARK       I    between atoms: N1_1  and  C2_2 
REMARK    1  A    between atoms: C2_2  and  C4_4 
REMARK    2  A    between atoms: C4_4  and  S5_5 
REMARK    3  A    between atoms: S5_5  and  C7_7 
REMARK    4  A    between atoms: C7_7  and  C8_8 
REMARK    5  A    between atoms: C7_7  and  C14_14 
ROOT
ATOM      1  C7  ZIN A   1      18.674   0.623  10.252  0.00  0.00     0.145 C 
ENDROOT
BRANCH   1   2
ATOM      2  S5  ZIN A   1      17.378  -0.332  11.088  0.00  0.00     0.037 S 
ATOM      3  O6  ZIN A   1      16.684   0.508  12.000  0.00  0.00    -0.257 OA
BRANCH   2   4
ATOM      4  C4  ZIN A   1      18.320  -1.579  12.010  0.00  0.00     0.212 C 
BRANCH   4   5
ATOM      5  C2  ZIN A   1      19.210  -2.339  11.061  0.00  0.00     0.227 C 
ATOM      6  N1  ZIN A   1      20.540  -2.389  11.279  0.00  0.00    -0.369 N 
ATOM      7  H20 ZIN A   1      21.112  -2.879  10.669  0.00  0.00     0.159 HD
ATOM      8  H21 ZIN A   1      20.923  -1.934  12.045  0.00  0.00     0.159 HD
ATOM      9  O3  ZIN A   1      18.731  -2.904  10.101  0.00  0.00    -0.273 OA
ENDBRANCH   4   5
ENDBRANCH   2   4
ENDBRANCH   1   2
BRANCH   1  10
ATOM     10  C8  ZIN A   1      18.429   0.607   8.765  0.00  0.00    -0.038 A 
ATOM     11  C13 ZIN A   1      19.265   1.314   7.919  0.00  0.00     0.009 A 
ATOM     12  C12 ZIN A   1      19.042   1.297   6.555  0.00  0.00     0.001 A 
ATOM     13  C11 ZIN A   1      17.980   0.580   6.037  0.00  0.00     0.000 A 
ATOM     14  C10 ZIN A   1      17.142  -0.123   6.882  0.00  0.00     0.001 A 
ATOM     15  C9  ZIN A   1      17.366  -0.109   8.247  0.00  0.00     0.009 A 
ENDBRANCH   1  10
BRANCH   1  16
ATOM     16  C14 ZIN A   1      18.651   2.044  10.749  0.00  0.00    -0.038 A 
ATOM     17  C19 ZIN A   1      17.654   2.907  10.334  0.00  0.00     0.009 A 
ATOM     18  C18 ZIN A   1      17.632   4.210  10.794  0.00  0.00     0.001 A 
ATOM     19  C17 ZIN A   1      18.611   4.654  11.662  0.00  0.00     0.000 A 
ATOM     20  C16 ZIN A   1      19.612   3.793  12.074  0.00  0.00     0.001 A 
ATOM     21  C15 ZIN A   1      19.632   2.488  11.617  0.00  0.00     0.009 A 
ENDBRANCH   1  16
TORSDOF 5
ENDMDL
MODEL 3
REMARK VINA RESULT:      -7.0      2.908      5.492
REMARK  5 active torsions:
REMARK  status: ('A' for Active; 'I' for Inactive)
REMARK       I    between atoms: N1_1  and  C2_2 
REMARK    1  A    between atoms: C2_2  and  C4_4 
REMARK    2  A    between atoms: C4_4  and  S5_5 
REMARK    3  A    between atoms: S5_5  and  C7_7 
REMARK    4  A    between atoms: C7_7  and  C8_8 
REMARK    5  A    between atoms: C7_7  and  C14_14 
ROOT
ATOM      1  C7  ZIN A   1      19.204  -0.959  12.422  0.00  0.00     0.145 C 
ENDROOT
BRANCH   1   2
ATOM      2  S5  ZIN A   1      18.266   0.192  11.378  0.00  0.00     0.037 S 
ATOM      3  O6  ZIN A   1      18.050  -0.395  10.102  0.00  0.00    -0.257 OA
BRANCH   2   4
ATOM      4  C4  ZIN A   1      19.393   1.604  11.212  0.00  0.00     0.212 C 
BRANCH   4   5
ATOM      5  C2  ZIN A   1      19.203   2.242   9.861  0.00  0.00     0.227 C 
ATOM      6  N1  ZIN A   1      19.791   1.704   8.773  0.00  0.00    -0.369 N 
ATOM      7  H20 ZIN A   1      19.667   2.115   7.903  0.00  0.00     0.159 HD
ATOM      8  H21 ZIN A   1      20.339   0.909   8.861  0.00  0.00     0.159 HD
ATOM      9  O3  ZIN A   1      18.521   3.239   9.751  0.00  0.00    -0.273 OA
ENDBRANCH   4   5
ENDBRANCH   2   4
ENDBRANCH   1   2
BRANCH   1  10
ATOM     10  C8  ZIN A   1      18.772  -0.801  13.857  0.00  0.00    -0.038 A 
ATOM     11  C13 ZIN A   1      17.770   0.096  14.183  0.00  0.00     0.009 A 
ATOM     12  C12 ZIN A   1      17.373   0.238  15.499  0.00  0.00     0.001 A 
ATOM     13  C11 ZIN A   1      17.980  -0.510  16.490  0.00  0.00     0.000 A 
ATOM     14  C10 ZIN A   1      18.984  -1.403  16.164  0.00  0.00     0.001 A 
ATOM     15  C9  ZIN A   1      19.380  -1.548  14.848  0.00  0.00     0.009 A 
ENDBRANCH   1  10
BRANCH   1  16
ATOM     16  C14 ZIN A   1      18.943  -2.372  11.971  0.00  0.00    -0.038 A 
ATOM     17  C19 ZIN A   1      19.993  -3.175  11.569  0.00  0.00     0.009 A 
ATOM     18  C18 ZIN A   1      19.753  -4.473  11.159  0.00  0.00     0.001 A 
ATOM     19  C17 ZIN A   1      18.463  -4.967  11.143  0.00  0.00     0.000 A 
ATOM     20  C16 ZIN A   1      17.411  -4.162  11.541  0.00  0.00     0.001 A 
ATOM     21  C15 ZIN A   1      17.651  -2.865  11.955  0.00  0.00     0.009 A 
ENDBRANCH   1  16
TORSDOF 5
ENDMDL
MODEL 4
REMARK VINA RESULT:      -7.0      1.877      4.630
REMARK  5 active torsions:
REMARK  status: ('A' for Active; 'I' for Inactive)
REMARK       I    between atoms: N1_1  and  C2_2 
REMARK    1  A    between atoms: C2_2  and  C4_4 
REMARK    2  A    between atoms: C4_4  and  S5_5 
REMARK    3  A    between atoms: S5_5  and  C7_7 
REMARK    4  A    between atoms: C7_7  and  C8_8 
REMARK    5  A    between atoms: C7_7  and  C14_14 
ROOT
ATOM      1  C7  ZIN A   1      18.731   0.696  10.314  0.00  0.00     0.145 C 
ENDROOT
BRANCH   1   2
ATOM      2  S5  ZIN A   1      17.476  -0.287  11.180  0.00  0.00     0.037 S 
ATOM      3  O6  ZIN A   1      16.695   0.563  12.008  0.00  0.00    -0.257 OA
BRANCH   2   4
ATOM      4  C4  ZIN A   1      18.470  -1.396  12.217  0.00  0.00     0.212 C 
BRANCH   4   5
ATOM      5  C2  ZIN A   1      18.818  -0.699  13.507  0.00  0.00     0.227 C 
ATOM      6  N1  ZIN A   1      17.892  -0.582  14.480  0.00  0.00    -0.369 N 
ATOM      7  H20 ZIN A   1      18.115  -0.134  15.311  0.00  0.00     0.159 HD
ATOM      8  H21 ZIN A   1      17.001  -0.943  14.349  0.00  0.00     0.159 HD
ATOM      9  O3  ZIN A   1      19.930  -0.243  13.670  0.00  0.00    -0.273 OA
ENDBRANCH   4   5
ENDBRANCH   2   4
ENDBRANCH   1   2
BRANCH   1  10
ATOM     10  C8  ZIN A   1      18.463   0.659   8.832  0.00  0.00    -0.038 A 
ATOM     11  C13 ZIN A   1      17.404  -0.081   8.339  0.00  0.00     0.009 A 
ATOM     12  C12 ZIN A   1      17.157  -0.112   6.980  0.00  0.00     0.001 A 
ATOM     13  C11 ZIN A   1      17.972   0.589   6.112  0.00  0.00     0.000 A 
ATOM     14  C10 ZIN A   1      19.033   1.326   6.604  0.00  0.00     0.001 A 
ATOM     15  C9  ZIN A   1      19.279   1.360   7.964  0.00  0.00     0.009 A 
ENDBRANCH   1  10
BRANCH   1  16
ATOM     16  C14 ZIN A   1      18.675   2.121  10.799  0.00  0.00    -0.038 A 
ATOM     17  C19 ZIN A   1      17.657   2.956  10.378  0.00  0.00     0.009 A 
ATOM     18  C18 ZIN A   1      17.604   4.262  10.827  0.00  0.00     0.001 A 
ATOM     19  C17 ZIN A   1      18.573   4.738  11.689  0.00  0.00     0.000 A 
ATOM     20  C16 ZIN A   1      19.595   3.905  12.107  0.00  0.00     0.001 A 
ATOM     21  C15 ZIN A   1      19.646   2.597  11.661  0.00  0.00     0.009 A 
ENDBRANCH   1  16
TORSDOF 5
ENDMDL
MODEL 5
REMARK VINA RESULT:      -7.0      2.897      5.457
REMARK  5 active torsions:
REMARK  status: ('A' for Active; 'I' for Inactive)
REMARK       I    between atoms: N1_1  and  C2_2 
REMARK    1  A    between atoms: C2_2  and  C4_4 
REMARK    2  A    between atoms: C4_4  and  S5_5 
REMARK    3  A    between atoms: S5_5  and  C7_7 
REMARK    4  A    between atoms: C7_7  and  C8_8 
REMARK    5  A    between atoms: C7_7  and  C14_14 
ROOT
ATOM      1  C7  ZIN A   1      19.228  -1.032  12.287  0.00  0.00     0.145 C 
ENDROOT
BRANCH   1   2
ATOM      2  S5  ZIN A   1      18.326   0.113  11.208  0.00  0.00     0.037 S 
ATOM      3  O6  ZIN A   1      18.269  -0.421   9.892  0.00  0.00    -0.257 OA
BRANCH   2   4
ATOM      4  C4  ZIN A   1      19.374   1.594  11.215  0.00  0.00     0.212 C 
BRANCH   4   5
ATOM      5  C2  ZIN A   1      19.144   2.378   9.949  0.00  0.00     0.227 C 
ATOM      6  N1  ZIN A   1      19.652   1.935   8.781  0.00  0.00    -0.369 N 
ATOM      7  H20 ZIN A   1      19.504   2.440   7.966  0.00  0.00     0.159 HD
ATOM      8  H21 ZIN A   1      20.169   1.115   8.757  0.00  0.00     0.159 HD
ATOM      9  O3  ZIN A   1      18.502   3.406   9.981  0.00  0.00    -0.273 OA
ENDBRANCH   4   5
ENDBRANCH   2   4
ENDBRANCH   1   2
BRANCH   1  10
ATOM     10  C8  ZIN A   1      18.785  -0.832  13.714  0.00  0.00    -0.038 A 
ATOM     11  C13 ZIN A   1      19.386  -1.550  14.732  0.00  0.00     0.009 A 
ATOM     12  C12 ZIN A   1      18.981  -1.365  16.040  0.00  0.00     0.001 A 
ATOM     13  C11 ZIN A   1      17.971  -0.467  16.331  0.00  0.00     0.000 A 
ATOM     14  C10 ZIN A   1      17.367   0.247  15.313  0.00  0.00     0.001 A 
ATOM     15  C9  ZIN A   1      17.774   0.064  14.004  0.00  0.00     0.009 A 
ENDBRANCH   1  10
BRANCH   1  16
ATOM     16  C14 ZIN A   1      18.943  -2.450  11.867  0.00  0.00    -0.038 A 
ATOM     17  C19 ZIN A   1      17.645  -2.924  11.870  0.00  0.00     0.009 A 
ATOM     18  C18 ZIN A   1      17.384  -4.224  11.480  0.00  0.00     0.001 A 
ATOM     19  C17 ZIN A   1      18.421  -5.053  11.096  0.00  0.00     0.000 A 
ATOM     20  C16 ZIN A   1      19.720  -4.580  11.097  0.00  0.00     0.001 A 
ATOM     21  C15 ZIN A   1      19.981  -3.279  11.483  0.00  0.00     0.009 A 
ENDBRANCH   1  16
TORSDOF 5
ENDMDL
MODEL 6
REMARK VINA RESULT:      -6.9      2.934      4.582
REMARK  5 active torsions:
REMARK  status: ('A' for Active; 'I' for Inactive)
REMARK       I    between atoms: N1_1  and  C2_2 
REMARK    1  A    between atoms: C2_2  and  C4_4 
REMARK    2  A    between atoms: C4_4  and  S5_5 
REMARK    3  A    between atoms: S5_5  and  C7_7 
REMARK    4  A    between atoms: C7_7  and  C8_8 
REMARK    5  A    between atoms: C7_7  and  C14_14 
ROOT
ATOM      1  C7  ZIN A   1      18.638  -0.210  11.021  0.00  0.00     0.145 C 
ENDROOT
BRANCH   1   2
ATOM      2  S5  ZIN A   1      17.224   0.482  11.922  0.00  0.00     0.037 S 
ATOM      3  O6  ZIN A   1      16.994   1.816  11.491  0.00  0.00    -0.257 OA
BRANCH   2   4
ATOM      4  C4  ZIN A   1      17.801   0.492  13.642  0.00  0.00     0.212 C 
BRANCH   4   5
ATOM      5  C2  ZIN A   1      19.185   1.084  13.703  0.00  0.00     0.227 C 
ATOM      6  N1  ZIN A   1      19.371   2.392  13.429  0.00  0.00    -0.369 N 
ATOM      7  H20 ZIN A   1      20.262   2.772  13.469  0.00  0.00     0.159 HD
ATOM      8  H21 ZIN A   1      18.615   2.950  13.188  0.00  0.00     0.159 HD
ATOM      9  O3  ZIN A   1      20.131   0.386  13.999  0.00  0.00    -0.273 OA
ENDBRANCH   4   5
ENDBRANCH   2   4
ENDBRANCH   1   2
BRANCH   1  10
ATOM     10  C8  ZIN A   1      18.662  -1.707  11.197  0.00  0.00    -0.038 A 
ATOM     11  C13 ZIN A   1      19.860  -2.393  11.117  0.00  0.00     0.009 A 
ATOM     12  C12 ZIN A   1      19.882  -3.765  11.282  0.00  0.00     0.001 A 
ATOM     13  C11 ZIN A   1      18.707  -4.453  11.520  0.00  0.00     0.000 A 
ATOM     14  C10 ZIN A   1      17.509  -3.767  11.596  0.00  0.00     0.001 A 
ATOM     15  C9  ZIN A   1      17.486  -2.394  11.434  0.00  0.00     0.009 A 
ENDBRANCH   1  10
BRANCH   1  16
ATOM     16  C14 ZIN A   1      18.511   0.120   9.556  0.00  0.00    -0.038 A 
ATOM     17  C19 ZIN A   1      19.366   1.041   8.979  0.00  0.00     0.009 A 
ATOM     18  C18 ZIN A   1      19.252   1.341   7.635  0.00  0.00     0.001 A 
ATOM     19  C17 ZIN A   1      18.278   0.728   6.869  0.00  0.00     0.000 A 
ATOM     20  C16 ZIN A   1      17.419  -0.189   7.447  0.00  0.00     0.001 A 
ATOM     21  C15 ZIN A   1      17.536  -0.492   8.791  0.00  0.00     0.009 A 
ENDBRANCH   1  16
TORSDOF 5
ENDMDL
MODEL 7
REMARK VINA RESULT:      -6.8      2.801      6.689
REMARK  5 active torsions:
REMARK  status: ('A' for Active; 'I' for Inactive)
REMARK       I    between atoms: N1_1  and  C2_2 
REMARK    1  A    between atoms: C2_2  and  C4_4 
REMARK    2  A    between atoms: C4_4  and  S5_5 
REMARK    3  A    between atoms: S5_5  and  C7_7 
REMARK    4  A    between atoms: C7_7  and  C8_8 
REMARK    5  A    between atoms: C7_7  and  C14_14 
ROOT
ATOM      1  C7  ZIN A   1      18.225  -0.727  12.714  0.00  0.00     0.145 C 
ENDROOT
BRANCH   1   2
ATOM      2  S5  ZIN A   1      19.529   0.374  12.099  0.00  0.00     0.037 S 
ATOM      3  O6  ZIN A   1      19.669   1.481  12.979  0.00  0.00    -0.257 OA
BRANCH   2   4
ATOM      4  C4  ZIN A   1      18.864   0.945  10.510  0.00  0.00     0.212 C 
BRANCH   4   5
ATOM      5  C2  ZIN A   1      19.690   0.374   9.386  0.00  0.00     0.227 C 
ATOM      6  N1  ZIN A   1      20.806  -0.331   9.662  0.00  0.00    -0.369 N 
ATOM      7  H20 ZIN A   1      21.337  -0.699   8.938  0.00  0.00     0.159 HD
ATOM      8  H21 ZIN A   1      21.079  -0.468  10.582  0.00  0.00     0.159 HD
ATOM      9  O3  ZIN A   1      19.351   0.549   8.235  0.00  0.00    -0.273 OA
ENDBRANCH   4   5
ENDBRANCH   2   4
ENDBRANCH   1   2
BRANCH   1  10
ATOM     10  C8  ZIN A   1      18.466  -2.125  12.206  0.00  0.00    -0.038 A 
ATOM     11  C13 ZIN A   1      17.395  -2.956  11.935  0.00  0.00     0.009 A 
ATOM     12  C12 ZIN A   1      17.616  -4.237  11.465  0.00  0.00     0.001 A 
ATOM     13  C11 ZIN A   1      18.908  -4.690  11.273  0.00  0.00     0.000 A 
ATOM     14  C10 ZIN A   1      19.979  -3.860  11.548  0.00  0.00     0.001 A 
ATOM     15  C9  ZIN A   1      19.758  -2.577  12.015  0.00  0.00     0.009 A 
ENDBRANCH   1  10
BRANCH   1  16
ATOM     16  C14 ZIN A   1      18.241  -0.731  14.221  0.00  0.00    -0.038 A 
ATOM     17  C19 ZIN A   1      19.181  -1.482  14.901  0.00  0.00     0.009 A 
ATOM     18  C18 ZIN A   1      19.197  -1.482  16.283  0.00  0.00     0.001 A 
ATOM     19  C17 ZIN A   1      18.268  -0.739  16.986  0.00  0.00     0.000 A 
ATOM     20  C16 ZIN A   1      17.324   0.008  16.306  0.00  0.00     0.001 A 
ATOM     21  C15 ZIN A   1      17.310   0.012  14.923  0.00  0.00     0.009 A 
ENDBRANCH   1  16
TORSDOF 5
ENDMDL
MODEL 8
REMARK VINA RESULT:      -6.7      2.401      4.718
REMARK  5 active torsions:
REMARK  status: ('A' for Active; 'I' for Inactive)
REMARK       I    between atoms: N1_1  and  C2_2 
REMARK    1  A    between atoms: C2_2  and  C4_4 
REMARK    2  A    between atoms: C4_4  and  S5_5 
REMARK    3  A    between atoms: S5_5  and  C7_7 
REMARK    4  A    between atoms: C7_7  and  C8_8 
REMARK    5  A    between atoms: C7_7  and  C14_14 
ROOT
ATOM      1  C7  ZIN A   1      18.987  -0.178  11.990  0.00  0.00     0.145 C 
ENDROOT
BRANCH   1   2
ATOM      2  S5  ZIN A   1      17.826  -1.157  10.999  0.00  0.00     0.037 S 
ATOM      3  O6  ZIN A   1      17.046  -1.980  11.857  0.00  0.00    -0.257 OA
BRANCH   2   4
ATOM      4  C4  ZIN A   1      18.922  -2.198   9.995  0.00  0.00     0.212 C 
BRANCH   4   5
ATOM      5  C2  ZIN A   1      19.494  -3.297  10.852  0.00  0.00     0.227 C 
ATOM      6  N1  ZIN A   1      20.693  -3.131  11.448  0.00  0.00    -0.369 N 
ATOM      7  H20 ZIN A   1      21.061  -3.838  12.000  0.00  0.00     0.159 HD
ATOM      8  H21 ZIN A   1      21.188  -2.306  11.322  0.00  0.00     0.159 HD
ATOM      9  O3  ZIN A   1      18.878  -4.330  11.006  0.00  0.00    -0.273 OA
ENDBRANCH   4   5
ENDBRANCH   2   4
ENDBRANCH   1   2
BRANCH   1  10
ATOM     10  C8  ZIN A   1      18.864   1.276  11.617  0.00  0.00    -0.038 A 
ATOM     11  C13 ZIN A   1      17.873   1.684  10.743  0.00  0.00     0.009 A 
ATOM     12  C12 ZIN A   1      17.759   3.019  10.402  0.00  0.00     0.001 A 
ATOM     13  C11 ZIN A   1      18.639   3.945  10.929  0.00  0.00     0.000 A 
ATOM     14  C10 ZIN A   1      19.632   3.537  11.800  0.00  0.00     0.001 A 
ATOM     15  C9  ZIN A   1      19.745   2.202  12.143  0.00  0.00     0.009 A 
ENDBRANCH   1  10
BRANCH   1  16
ATOM     16  C14 ZIN A   1      18.668  -0.350  13.453  0.00  0.00    -0.038 A 
ATOM     17  C19 ZIN A   1      17.664   0.401  14.035  0.00  0.00     0.009 A 
ATOM     18  C18 ZIN A   1      17.370   0.240  15.375  0.00  0.00     0.001 A 
ATOM     19  C17 ZIN A   1      18.085  -0.664  16.137  0.00  0.00     0.000 A 
ATOM     20  C16 ZIN A   1      19.093  -1.412  15.557  0.00  0.00     0.001 A 
ATOM     21  C15 ZIN A   1      19.385  -1.254  14.215  0.00  0.00     0.009 A 
ENDBRANCH   1  16
TORSDOF 5
ENDMDL
MODEL 9
REMARK VINA RESULT:      -6.6      2.252      4.919
REMARK  5 active torsions:
REMARK  status: ('A' for Active; 'I' for Inactive)
REMARK       I    between atoms: N1_1  and  C2_2 
REMARK    1  A    between atoms: C2_2  and  C4_4 
REMARK    2  A    between atoms: C4_4  and  S5_5 
REMARK    3  A    between atoms: S5_5  and  C7_7 
REMARK    4  A    between atoms: C7_7  and  C8_8 
REMARK    5  A    between atoms: C7_7  and  C14_14 
ROOT
ATOM      1  C7  ZIN A   1      18.605   0.156  12.115  0.00  0.00     0.145 C 
ENDROOT
BRANCH   1   2
ATOM      2  S5  ZIN A   1      17.234  -0.627  11.221  0.00  0.00     0.037 S 
ATOM      3  O6  ZIN A   1      17.002  -1.925  11.751  0.00  0.00    -0.257 OA
BRANCH   2   4
ATOM      4  C4  ZIN A   1      17.877  -0.769   9.531  0.00  0.00     0.212 C 
BRANCH   4   5
ATOM      5  C2  ZIN A   1      19.307  -1.242   9.576  0.00  0.00     0.227 C 
ATOM      6  N1  ZIN A   1      19.593  -2.481  10.026  0.00  0.00    -0.369 N 
ATOM      7  H20 ZIN A   1      20.513  -2.785  10.055  0.00  0.00     0.159 HD
ATOM      8  H21 ZIN A   1      18.879  -3.065  10.325  0.00  0.00     0.159 HD
ATOM      9  O3  ZIN A   1      20.200  -0.509   9.208  0.00  0.00    -0.273 OA
ENDBRANCH   4   5
ENDBRANCH   2   4
ENDBRANCH   1   2
BRANCH   1  10
ATOM     10  C8  ZIN A   1      18.567   1.645  11.889  0.00  0.00    -0.038 A 
ATOM     11  C13 ZIN A   1      17.434   2.235  11.358  0.00  0.00     0.009 A 
ATOM     12  C12 ZIN A   1      17.398   3.601  11.153  0.00  0.00     0.001 A 
ATOM     13  C11 ZIN A   1      18.497   4.377  11.472  0.00  0.00     0.000 A 
ATOM     14  C10 ZIN A   1      19.630   3.787  11.999  0.00  0.00     0.001 A 
ATOM     15  C9  ZIN A   1      19.666   2.421  12.207  0.00  0.00     0.009 A 
ENDBRANCH   1  10
BRANCH   1  16
ATOM     16  C14 ZIN A   1      18.474  -0.132  13.588  0.00  0.00    -0.038 A 
ATOM     17  C19 ZIN A   1      19.326  -1.036  14.195  0.00  0.00     0.009 A 
ATOM     18  C18 ZIN A   1      19.207  -1.296  15.547  0.00  0.00     0.001 A 
ATOM     19  C17 ZIN A   1      18.231  -0.660  16.291  0.00  0.00     0.000 A 
ATOM     20  C16 ZIN A   1      17.376   0.240  15.684  0.00  0.00     0.001 A 
ATOM     21  C15 ZIN A   1      17.497   0.504  14.332  0.00  0.00     0.009 A 
ENDBRANCH   1  16
TORSDOF 5
ENDMDL
