MODEL 1
REMARK VINA RESULT:      -6.2      0.000      0.000
REMARK  15 active torsions:
REMARK  status: ('A' for Active; 'I' for Inactive)
REMARK    1  A    between atoms: O2_2  and  C3_3 
REMARK    2  A    between atoms: C3_3  and  C4_4 
REMARK       I    between atoms: C4_4  and  N6_6 
REMARK    3  A    between atoms: N6_6  and  C7_7 
REMARK    4  A    between atoms: C10_10  and  C11_11 
REMARK       I    between atoms: C11_11  and  N13_13 
REMARK    5  A    between atoms: N13_13  and  C14_14 
REMARK    6  A    between atoms: C14_14  and  C15_15 
REMARK    7  A    between atoms: C15_15  and  O17_16 
REMARK    8  A    between atoms: C15_15  and  C18_17 
REMARK    9  A    between atoms: C18_17  and  O19_18 
REMARK   10  A    between atoms: C22_21  and  C23_22 
REMARK       I    between atoms: C23_22  and  N25_24 
REMARK   11  A    between atoms: N25_24  and  C27_26 
REMARK   12  A    between atoms: C27_26  and  C28_27 
REMARK   13  A    between atoms: C28_27  and  O30_28 
REMARK   14  A    between atoms: C28_27  and  C31_29 
REMARK   15  A    between atoms: C31_29  and  O32_30 
ROOT
ATOM      1  C7  ZIN A   1      17.683   2.166  11.768  0.00  0.00     0.070 A 
ATOM      2  C8  ZIN A   1      17.842   1.238  12.786  0.00  0.00     0.051 A 
ATOM      3  I9  ZIN A   1      17.662  -0.809  12.374  0.00  0.00    -0.041 I 
ATOM      4  C10 ZIN A   1      18.122   1.665  14.086  0.00  0.00     0.068 A 
ATOM      5  C20 ZIN A   1      18.242   3.027  14.360  0.00  0.00     0.040 A 
ATOM      6  I21 ZIN A   1      18.663   3.674  16.308  0.00  0.00    -0.042 I 
ATOM      7  C22 ZIN A   1      18.082   3.958  13.335  0.00  0.00     0.068 A 
ATOM      8  C33 ZIN A   1      17.807   3.523  12.035  0.00  0.00     0.051 A 
ATOM      9  I34 ZIN A   1      17.566   4.919  10.493  0.00  0.00    -0.041 I 
ENDROOT
BRANCH   4  10
ATOM     10  C11 ZIN A   1      18.292   0.675  15.171  0.00  0.00     0.254 C 
ATOM     11  O12 ZIN A   1      19.367   0.132  15.335  0.00  0.00    -0.268 OA
ATOM     12  N13 ZIN A   1      17.254   0.374  15.976  0.00  0.00    -0.354 N 
ATOM     13  H41 ZIN A   1      16.396   0.807  15.845  0.00  0.00     0.162 HD
BRANCH  12  14
ATOM     14  C14 ZIN A   1      17.422  -0.608  17.051  0.00  0.00     0.156 C 
BRANCH  14  15
ATOM     15  C15 ZIN A   1      17.493   0.117  18.396  0.00  0.00     0.159 C 
BRANCH  15  16
ATOM     16  O17 ZIN A   1      16.747   1.332  18.323  0.00  0.00    -0.392 OA
ATOM     17  H44 ZIN A   1      15.875   1.235  17.916  0.00  0.00     0.210 HD
ENDBRANCH  15  16
BRANCH  15  18
ATOM     18  C18 ZIN A   1      18.953   0.434  18.727  0.00  0.00     0.197 C 
BRANCH  18  19
ATOM     19  O19 ZIN A   1      19.801  -0.544  18.123  0.00  0.00    -0.398 OA
ATOM     20  H47 ZIN A   1      19.388  -1.028  17.395  0.00  0.00     0.209 HD
ENDBRANCH  18  19
ENDBRANCH  15  18
ENDBRANCH  14  15
ENDBRANCH  12  14
ENDBRANCH   4  10
BRANCH   1  21
ATOM     21  N6  ZIN A   1      17.402   1.735  10.466  0.00  0.00    -0.323 N 
ATOM     22  C4  ZIN A   1      18.409   1.383   9.640  0.00  0.00     0.245 C 
ATOM     23  O5  ZIN A   1      19.560   1.513   9.999  0.00  0.00    -0.271 OA
ATOM     24  H40 ZIN A   1      16.484   1.691  10.157  0.00  0.00     0.169 HD
BRANCH  22  25
ATOM     25  C3  ZIN A   1      18.102   0.830   8.273  0.00  0.00     0.270 C 
BRANCH  25  26
ATOM     26  O2  ZIN A   1      18.896   1.507   7.296  0.00  0.00    -0.387 OA
ATOM     27  C1  ZIN A   1      19.034   0.796   6.065  0.00  0.00     0.202 C 
ENDBRANCH  25  26
ENDBRANCH  22  25
ENDBRANCH   1  21
BRANCH   7  28
ATOM     28  C23 ZIN A   1      18.209   5.402  13.619  0.00  0.00     0.256 C 
ATOM     29  O24 ZIN A   1      19.303   5.932  13.596  0.00  0.00    -0.267 OA
ATOM     30  N25 ZIN A   1      17.112   6.131  13.905  0.00  0.00    -0.350 N 
ATOM     31  C26 ZIN A   1      15.794   5.492  13.933  0.00  0.00     0.153 C 
BRANCH  30  32
ATOM     32  C27 ZIN A   1      17.238   7.563  14.187  0.00  0.00     0.159 C 
BRANCH  32  33
ATOM     33  C28 ZIN A   1      16.452   7.906  15.453  0.00  0.00     0.159 C 
BRANCH  33  34
ATOM     34  O30 ZIN A   1      16.001   9.260  15.382  0.00  0.00    -0.392 OA
ATOM     35  H53 ZIN A   1      15.525   9.473  14.569  0.00  0.00     0.210 HD
ENDBRANCH  33  34
BRANCH  33  36
ATOM     36  C31 ZIN A   1      17.354   7.732  16.677  0.00  0.00     0.197 C 
BRANCH  36  37
ATOM     37  O32 ZIN A   1      18.707   7.561  16.251  0.00  0.00    -0.398 OA
ATOM     38  H56 ZIN A   1      19.362   7.759  16.934  0.00  0.00     0.209 HD
ENDBRANCH  36  37
ENDBRANCH  33  36
ENDBRANCH  32  33
ENDBRANCH  30  32
ENDBRANCH   7  28
TORSDOF 15
ENDMDL
MODEL 2
REMARK VINA RESULT:      -6.2      1.603      7.587
REMARK  15 active torsions:
REMARK  status: ('A' for Active; 'I' for Inactive)
REMARK    1  A    between atoms: O2_2  and  C3_3 
REMARK    2  A    between atoms: C3_3  and  C4_4 
REMARK       I    between atoms: C4_4  and  N6_6 
REMARK    3  A    between atoms: N6_6  and  C7_7 
REMARK    4  A    between atoms: C10_10  and  C11_11 
REMARK       I    between atoms: C11_11  and  N13_13 
REMARK    5  A    between atoms: N13_13  and  C14_14 
REMARK    6  A    between atoms: C14_14  and  C15_15 
REMARK    7  A    between atoms: C15_15  and  O17_16 
REMARK    8  A    between atoms: C15_15  and  C18_17 
REMARK    9  A    between atoms: C18_17  and  O19_18 
REMARK   10  A    between atoms: C22_21  and  C23_22 
REMARK       I    between atoms: C23_22  and  N25_24 
REMARK   11  A    between atoms: N25_24  and  C27_26 
REMARK   12  A    between atoms: C27_26  and  C28_27 
REMARK   13  A    between atoms: C28_27  and  O30_28 
REMARK   14  A    between atoms: C28_27  and  C31_29 
REMARK   15  A    between atoms: C31_29  and  O32_30 
ROOT
ATOM      1  C7  ZIN A   1      18.831   1.258  14.197  0.00  0.00     0.070 A 
ATOM      2  C8  ZIN A   1      18.771   2.614  14.485  0.00  0.00     0.051 A 
ATOM      3  I9  ZIN A   1      19.323   3.304  16.386  0.00  0.00    -0.041 I 
ATOM      4  C10 ZIN A   1      18.345   3.519  13.511  0.00  0.00     0.068 A 
ATOM      5  C20 ZIN A   1      17.978   3.059  12.247  0.00  0.00     0.040 A 
ATOM      6  I21 ZIN A   1      17.338   4.412  10.781  0.00  0.00    -0.042 I 
ATOM      7  C22 ZIN A   1      18.039   1.696  11.960  0.00  0.00     0.068 A 
ATOM      8  C33 ZIN A   1      18.473   0.796  12.939  0.00  0.00     0.051 A 
ATOM      9  I34 ZIN A   1      18.565  -1.251  12.509  0.00  0.00    -0.041 I 
ENDROOT
BRANCH   4  10
ATOM     10  C11 ZIN A   1      18.282   4.964  13.819  0.00  0.00     0.254 C 
ATOM     11  O12 ZIN A   1      19.260   5.664  13.649  0.00  0.00    -0.268 OA
ATOM     12  N13 ZIN A   1      17.139   5.502  14.289  0.00  0.00    -0.354 N 
ATOM     13  H41 ZIN A   1      16.359   4.944  14.425  0.00  0.00     0.162 HD
BRANCH  12  14
ATOM     14  C14 ZIN A   1      17.077   6.935  14.595  0.00  0.00     0.156 C 
BRANCH  14  15
ATOM     15  C15 ZIN A   1      17.306   7.147  16.092  0.00  0.00     0.159 C 
BRANCH  15  16
ATOM     16  O17 ZIN A   1      18.708   7.137  16.366  0.00  0.00    -0.392 OA
ATOM     17  H44 ZIN A   1      19.241   7.599  15.705  0.00  0.00     0.210 HD
ENDBRANCH  15  16
BRANCH  15  18
ATOM     18  C18 ZIN A   1      16.626   6.023  16.876  0.00  0.00     0.197 C 
BRANCH  18  19
ATOM     19  O19 ZIN A   1      15.279   5.873  16.423  0.00  0.00    -0.398 OA
ATOM     20  H47 ZIN A   1      14.702   5.415  17.049  0.00  0.00     0.209 HD
ENDBRANCH  18  19
ENDBRANCH  15  18
ENDBRANCH  14  15
ENDBRANCH  12  14
ENDBRANCH   4  10
BRANCH   1  21
ATOM     21  N6  ZIN A   1      19.260   0.353  15.176  0.00  0.00    -0.323 N 
ATOM     22  C4  ZIN A   1      18.356  -0.273  15.957  0.00  0.00     0.245 C 
ATOM     23  O5  ZIN A   1      17.179   0.004  15.864  0.00  0.00    -0.271 OA
ATOM     24  H40 ZIN A   1      20.206   0.178  15.294  0.00  0.00     0.169 HD
BRANCH  22  25
ATOM     25  C3  ZIN A   1      18.809  -1.316  16.945  0.00  0.00     0.270 C 
BRANCH  25  26
ATOM     26  O2  ZIN A   1      19.474  -0.680  18.038  0.00  0.00    -0.387 OA
ATOM     27  C1  ZIN A   1      18.630   0.171  18.816  0.00  0.00     0.202 C 
ENDBRANCH  25  26
ENDBRANCH  22  25
ENDBRANCH   1  21
BRANCH   7  28
ATOM     28  C23 ZIN A   1      17.653   1.203  10.623  0.00  0.00     0.256 C 
ATOM     29  O24 ZIN A   1      16.530   0.777  10.431  0.00  0.00    -0.267 OA
ATOM     30  N25 ZIN A   1      18.547   1.225   9.614  0.00  0.00    -0.350 N 
ATOM     31  C26 ZIN A   1      19.899   1.738   9.844  0.00  0.00     0.153 C 
BRANCH  30  32
ATOM     32  C27 ZIN A   1      18.164   0.737   8.286  0.00  0.00     0.159 C 
BRANCH  32  33
ATOM     33  C28 ZIN A   1      19.164  -0.324   7.824  0.00  0.00     0.159 C 
BRANCH  33  34
ATOM     34  O30 ZIN A   1      19.160  -0.392   6.396  0.00  0.00    -0.392 OA
ATOM     35  H53 ZIN A   1      18.902   0.432   5.964  0.00  0.00     0.210 HD
ENDBRANCH  33  34
BRANCH  33  36
ATOM     36  C31 ZIN A   1      18.768  -1.685   8.401  0.00  0.00     0.197 C 
BRANCH  36  37
ATOM     37  O32 ZIN A   1      17.351  -1.734   8.574  0.00  0.00    -0.398 OA
ATOM     38  H56 ZIN A   1      16.900  -0.903   8.369  0.00  0.00     0.209 HD
ENDBRANCH  36  37
ENDBRANCH  33  36
ENDBRANCH  32  33
ENDBRANCH  30  32
ENDBRANCH   7  28
TORSDOF 15
ENDMDL
MODEL 3
REMARK VINA RESULT:      -6.2      4.931      8.424
REMARK  15 active torsions:
REMARK  status: ('A' for Active; 'I' for Inactive)
REMARK    1  A    between atoms: O2_2  and  C3_3 
REMARK    2  A    between atoms: C3_3  and  C4_4 
REMARK       I    between atoms: C4_4  and  N6_6 
REMARK    3  A    between atoms: N6_6  and  C7_7 
REMARK    4  A    between atoms: C10_10  and  C11_11 
REMARK       I    between atoms: C11_11  and  N13_13 
REMARK    5  A    between atoms: N13_13  and  C14_14 
REMARK    6  A    between atoms: C14_14  and  C15_15 
REMARK    7  A    between atoms: C15_15  and  O17_16 
REMARK    8  A    between atoms: C15_15  and  C18_17 
REMARK    9  A    between atoms: C18_17  and  O19_18 
REMARK   10  A    between atoms: C22_21  and  C23_22 
REMARK       I    between atoms: C23_22  and  N25_24 
REMARK   11  A    between atoms: N25_24  and  C27_26 
REMARK   12  A    between atoms: C27_26  and  C28_27 
REMARK   13  A    between atoms: C28_27  and  O30_28 
REMARK   14  A    between atoms: C28_27  and  C31_29 
REMARK   15  A    between atoms: C31_29  and  O32_30 
ROOT
ATOM      1  C7  ZIN A   1      18.857  -1.658   8.479  0.00  0.00     0.070 A 
ATOM      2  C8  ZIN A   1      18.681  -3.002   8.186  0.00  0.00     0.051 A 
ATOM      3  I9  ZIN A   1      19.199  -3.736   6.293  0.00  0.00    -0.041 I 
ATOM      4  C10 ZIN A   1      18.161  -3.867   9.151  0.00  0.00     0.068 A 
ATOM      5  C20 ZIN A   1      17.818  -3.378  10.411  0.00  0.00     0.040 A 
ATOM      6  I21 ZIN A   1      17.036  -4.671  11.863  0.00  0.00    -0.042 I 
ATOM      7  C22 ZIN A   1      17.995  -2.026  10.702  0.00  0.00     0.068 A 
ATOM      8  C33 ZIN A   1      18.522  -1.168   9.734  0.00  0.00     0.051 A 
ATOM      9  I34 ZIN A   1      18.789   0.863  10.170  0.00  0.00    -0.041 I 
ENDROOT
BRANCH   4  10
ATOM     10  C11 ZIN A   1      17.974  -5.300   8.838  0.00  0.00     0.254 C 
ATOM     11  O12 ZIN A   1      18.884  -6.085   9.021  0.00  0.00    -0.268 OA
ATOM     12  N13 ZIN A   1      16.796  -5.734   8.349  0.00  0.00    -0.354 N 
ATOM     13  H41 ZIN A   1      16.071  -5.108   8.202  0.00  0.00     0.162 HD
BRANCH  12  14
ATOM     14  C14 ZIN A   1      16.611  -7.154   8.038  0.00  0.00     0.156 C 
BRANCH  14  15
ATOM     15  C15 ZIN A   1      16.793  -7.375   6.535  0.00  0.00     0.159 C 
BRANCH  15  16
ATOM     16  O17 ZIN A   1      18.186  -7.473   6.234  0.00  0.00    -0.392 OA
ATOM     17  H44 ZIN A   1      18.724  -6.774   6.630  0.00  0.00     0.210 HD
ENDBRANCH  15  16
BRANCH  15  18
ATOM     18  C18 ZIN A   1      16.187  -6.198   5.770  0.00  0.00     0.197 C 
BRANCH  18  19
ATOM     19  O19 ZIN A   1      14.877  -5.928   6.272  0.00  0.00    -0.398 OA
ATOM     20  H47 ZIN A   1      14.175  -6.421   5.826  0.00  0.00     0.209 HD
ENDBRANCH  18  19
ENDBRANCH  15  18
ENDBRANCH  14  15
ENDBRANCH  12  14
ENDBRANCH   4  10
BRANCH   1  21
ATOM     21  N6  ZIN A   1      19.379  -0.793   7.510  0.00  0.00    -0.323 N 
ATOM     22  C4  ZIN A   1      18.549  -0.030   6.769  0.00  0.00     0.245 C 
ATOM     23  O5  ZIN A   1      17.348  -0.149   6.889  0.00  0.00    -0.271 OA
ATOM     24  H40 ZIN A   1      20.338  -0.743   7.369  0.00  0.00     0.169 HD
BRANCH  22  25
ATOM     25  C3  ZIN A   1      19.115   0.969   5.793  0.00  0.00     0.270 C 
BRANCH  25  26
ATOM     26  O2  ZIN A   1      19.537   0.290   4.608  0.00  0.00    -0.387 OA
ATOM     27  C1  ZIN A   1      18.518  -0.507   4.001  0.00  0.00     0.202 C 
ENDBRANCH  25  26
ENDBRANCH  22  25
ENDBRANCH   1  21
BRANCH   7  28
ATOM     28  C23 ZIN A   1      17.634  -1.503  12.036  0.00  0.00     0.256 C 
ATOM     29  O24 ZIN A   1      16.540  -1.004  12.218  0.00  0.00    -0.267 OA
ATOM     30  N25 ZIN A   1      18.518  -1.578  13.051  0.00  0.00    -0.350 N 
ATOM     31  C26 ZIN A   1      19.835  -2.180  12.831  0.00  0.00     0.153 C 
BRANCH  30  32
ATOM     32  C27 ZIN A   1      18.159  -1.060  14.374  0.00  0.00     0.159 C 
BRANCH  32  33
ATOM     33  C28 ZIN A   1      19.235  -0.081  14.847  0.00  0.00     0.159 C 
BRANCH  33  34
ATOM     34  O30 ZIN A   1      19.145   0.076  16.265  0.00  0.00    -0.392 OA
ATOM     35  H53 ZIN A   1      19.821  -0.407  16.757  0.00  0.00     0.210 HD
ENDBRANCH  33  34
BRANCH  33  36
ATOM     36  C31 ZIN A   1      19.025   1.274  14.169  0.00  0.00     0.197 C 
BRANCH  36  37
ATOM     37  O32 ZIN A   1      17.633   1.469  13.913  0.00  0.00    -0.398 OA
ATOM     38  H56 ZIN A   1      17.142   0.649  13.767  0.00  0.00     0.209 HD
ENDBRANCH  36  37
ENDBRANCH  33  36
ENDBRANCH  32  33
ENDBRANCH  30  32
ENDBRANCH   7  28
TORSDOF 15
ENDMDL
MODEL 4
REMARK VINA RESULT:      -6.1      4.810      9.170
REMARK  15 active torsions:
REMARK  status: ('A' for Active; 'I' for Inactive)
REMARK    1  A    between atoms: O2_2  and  C3_3 
REMARK    2  A    between atoms: C3_3  and  C4_4 
REMARK       I    between atoms: C4_4  and  N6_6 
REMARK    3  A    between atoms: N6_6  and  C7_7 
REMARK    4  A    between atoms: C10_10  and  C11_11 
REMARK       I    between atoms: C11_11  and  N13_13 
REMARK    5  A    between atoms: N13_13  and  C14_14 
REMARK    6  A    between atoms: C14_14  and  C15_15 
REMARK    7  A    between atoms: C15_15  and  O17_16 
REMARK    8  A    between atoms: C15_15  and  C18_17 
REMARK    9  A    between atoms: C18_17  and  O19_18 
REMARK   10  A    between atoms: C22_21  and  C23_22 
REMARK       I    between atoms: C23_22  and  N25_24 
REMARK   11  A    between atoms: N25_24  and  C27_26 
REMARK   12  A    between atoms: C27_26  and  C28_27 
REMARK   13  A    between atoms: C28_27  and  O30_28 
REMARK   14  A    between atoms: C28_27  and  C31_29 
REMARK   15  A    between atoms: C31_29  and  O32_30 
ROOT
ATOM      1  C7  ZIN A   1      19.207  -2.636   9.034  0.00  0.00     0.070 A 
ATOM      2  C8  ZIN A   1      18.937  -2.936   7.707  0.00  0.00     0.051 A 
ATOM      3  I9  ZIN A   1      18.766  -4.935   7.100  0.00  0.00    -0.041 I 
ATOM      4  C10 ZIN A   1      18.777  -1.908   6.775  0.00  0.00     0.068 A 
ATOM      5  C20 ZIN A   1      18.890  -0.579   7.180  0.00  0.00     0.040 A 
ATOM      6  I21 ZIN A   1      18.651   0.968   5.787  0.00  0.00    -0.042 I 
ATOM      7  C22 ZIN A   1      19.162  -0.280   8.515  0.00  0.00     0.068 A 
ATOM      8  C33 ZIN A   1      19.315  -1.314   9.443  0.00  0.00     0.051 A 
ATOM      9  I34 ZIN A   1      19.723  -0.868  11.448  0.00  0.00    -0.041 I 
ENDROOT
BRANCH   4  10
ATOM     10  C11 ZIN A   1      18.489  -2.229   5.361  0.00  0.00     0.254 C 
ATOM     11  O12 ZIN A   1      19.401  -2.347   4.567  0.00  0.00    -0.268 OA
ATOM     12  N13 ZIN A   1      17.214  -2.389   4.954  0.00  0.00    -0.354 N 
ATOM     13  H41 ZIN A   1      16.487  -2.294   5.588  0.00  0.00     0.162 HD
BRANCH  12  14
ATOM     14  C14 ZIN A   1      16.928  -2.707   3.552  0.00  0.00     0.156 C 
BRANCH  14  15
ATOM     15  C15 ZIN A   1      16.365  -4.125   3.456  0.00  0.00     0.159 C 
BRANCH  15  16
ATOM     16  O17 ZIN A   1      15.703  -4.459   4.677  0.00  0.00    -0.392 OA
ATOM     17  H44 ZIN A   1      14.790  -4.757   4.561  0.00  0.00     0.210 HD
ENDBRANCH  15  16
BRANCH  15  18
ATOM     18  C18 ZIN A   1      17.507  -5.112   3.210  0.00  0.00     0.197 C 
BRANCH  18  19
ATOM     19  O19 ZIN A   1      18.619  -4.420   2.639  0.00  0.00    -0.398 OA
ATOM     20  H47 ZIN A   1      19.452  -4.556   3.111  0.00  0.00     0.209 HD
ENDBRANCH  18  19
ENDBRANCH  15  18
ENDBRANCH  14  15
ENDBRANCH  12  14
ENDBRANCH   4  10
BRANCH   1  21
ATOM     21  N6  ZIN A   1      19.366  -3.669   9.966  0.00  0.00    -0.323 N 
ATOM     22  C4  ZIN A   1      18.322  -4.060  10.725  0.00  0.00     0.245 C 
ATOM     23  O5  ZIN A   1      17.266  -3.467  10.654  0.00  0.00    -0.271 OA
ATOM     24  H40 ZIN A   1      20.228  -4.103  10.068  0.00  0.00     0.169 HD
BRANCH  22  25
ATOM     25  C3  ZIN A   1      18.468  -5.233  11.659  0.00  0.00     0.270 C 
BRANCH  25  26
ATOM     26  O2  ZIN A   1      17.349  -6.108  11.502  0.00  0.00    -0.387 OA
ATOM     27  C1  ZIN A   1      17.160  -6.577  10.166  0.00  0.00     0.202 C 
ENDBRANCH  25  26
ENDBRANCH  22  25
ENDBRANCH   1  21
BRANCH   7  28
ATOM     28  C23 ZIN A   1      19.282   1.126   8.949  0.00  0.00     0.256 C 
ATOM     29  O24 ZIN A   1      20.302   1.748   8.725  0.00  0.00    -0.267 OA
ATOM     30  N25 ZIN A   1      18.259   1.721   9.595  0.00  0.00    -0.350 N 
ATOM     31  C26 ZIN A   1      17.029   0.972   9.865  0.00  0.00     0.153 C 
BRANCH  30  32
ATOM     32  C27 ZIN A   1      18.377   3.116  10.025  0.00  0.00     0.159 C 
BRANCH  32  33
ATOM     33  C28 ZIN A   1      18.424   3.178  11.553  0.00  0.00     0.159 C 
BRANCH  33  34
ATOM     34  O30 ZIN A   1      17.325   3.955  12.033  0.00  0.00    -0.392 OA
ATOM     35  H53 ZIN A   1      16.911   4.508  11.357  0.00  0.00     0.210 HD
ENDBRANCH  33  34
BRANCH  33  36
ATOM     36  C31 ZIN A   1      19.738   3.823  11.997  0.00  0.00     0.197 C 
BRANCH  36  37
ATOM     37  O32 ZIN A   1      20.837   3.036  11.533  0.00  0.00    -0.398 OA
ATOM     38  H56 ZIN A   1      21.693   3.306  11.892  0.00  0.00     0.209 HD
ENDBRANCH  36  37
ENDBRANCH  33  36
ENDBRANCH  32  33
ENDBRANCH  30  32
ENDBRANCH   7  28
TORSDOF 15
ENDMDL
MODEL 5
REMARK VINA RESULT:      -6.1      6.279     10.673
REMARK  15 active torsions:
REMARK  status: ('A' for Active; 'I' for Inactive)
REMARK    1  A    between atoms: O2_2  and  C3_3 
REMARK    2  A    between atoms: C3_3  and  C4_4 
REMARK       I    between atoms: C4_4  and  N6_6 
REMARK    3  A    between atoms: N6_6  and  C7_7 
REMARK    4  A    between atoms: C10_10  and  C11_11 
REMARK       I    between atoms: C11_11  and  N13_13 
REMARK    5  A    between atoms: N13_13  and  C14_14 
REMARK    6  A    between atoms: C14_14  and  C15_15 
REMARK    7  A    between atoms: C15_15  and  O17_16 
REMARK    8  A    between atoms: C15_15  and  C18_17 
REMARK    9  A    between atoms: C18_17  and  O19_18 
REMARK   10  A    between atoms: C22_21  and  C23_22 
REMARK       I    between atoms: C23_22  and  N25_24 
REMARK   11  A    between atoms: N25_24  and  C27_26 
REMARK   12  A    between atoms: C27_26  and  C28_27 
REMARK   13  A    between atoms: C28_27  and  O30_28 
REMARK   14  A    between atoms: C28_27  and  C31_29 
REMARK   15  A    between atoms: C31_29  and  O32_30 
ROOT
ATOM      1  C7  ZIN A   1      17.895  -2.849   7.438  0.00  0.00     0.070 A 
ATOM      2  C8  ZIN A   1      17.956  -2.260   8.692  0.00  0.00     0.051 A 
ATOM      3  I9  ZIN A   1      18.120  -0.178   8.863  0.00  0.00    -0.041 I 
ATOM      4  C10 ZIN A   1      17.907  -3.053   9.841  0.00  0.00     0.068 A 
ATOM      5  C20 ZIN A   1      17.796  -4.438   9.726  0.00  0.00     0.040 A 
ATOM      6  I21 ZIN A   1      17.722  -5.632  11.446  0.00  0.00    -0.042 I 
ATOM      7  C22 ZIN A   1      17.736  -5.027   8.464  0.00  0.00     0.068 A 
ATOM      8  C33 ZIN A   1      17.780  -4.227   7.319  0.00  0.00     0.051 A 
ATOM      9  I34 ZIN A   1      17.689  -5.110   5.422  0.00  0.00    -0.041 I 
ENDROOT
BRANCH   4  10
ATOM     10  C11 ZIN A   1      17.970  -2.424  11.177  0.00  0.00     0.254 C 
ATOM     11  O12 ZIN A   1      16.946  -2.096  11.744  0.00  0.00    -0.268 OA
ATOM     12  N13 ZIN A   1      19.164  -2.214  11.766  0.00  0.00    -0.354 N 
ATOM     13  H41 ZIN A   1      19.981  -2.475  11.314  0.00  0.00     0.162 HD
BRANCH  12  14
ATOM     14  C14 ZIN A   1      19.228  -1.591  13.091  0.00  0.00     0.156 C 
BRANCH  14  15
ATOM     15  C15 ZIN A   1      19.534  -0.100  12.939  0.00  0.00     0.159 C 
BRANCH  15  16
ATOM     16  O17 ZIN A   1      18.321   0.614  12.698  0.00  0.00    -0.392 OA
ATOM     17  H44 ZIN A   1      18.208   0.899  11.781  0.00  0.00     0.210 HD
ENDBRANCH  15  16
BRANCH  15  18
ATOM     18  C18 ZIN A   1      20.490   0.106  11.762  0.00  0.00     0.197 C 
BRANCH  18  19
ATOM     19  O19 ZIN A   1      21.735   0.616  12.243  0.00  0.00    -0.398 OA
ATOM     20  H47 ZIN A   1      21.838   1.571  12.133  0.00  0.00     0.209 HD
ENDBRANCH  18  19
ENDBRANCH  15  18
ENDBRANCH  14  15
ENDBRANCH  12  14
ENDBRANCH   4  10
BRANCH   1  21
ATOM     21  N6  ZIN A   1      17.945  -2.052   6.287  0.00  0.00    -0.323 N 
ATOM     22  C4  ZIN A   1      19.110  -1.891   5.628  0.00  0.00     0.245 C 
ATOM     23  O5  ZIN A   1      20.130  -2.374   6.073  0.00  0.00    -0.271 OA
ATOM     24  H40 ZIN A   1      17.141  -1.613   5.966  0.00  0.00     0.169 HD
BRANCH  22  25
ATOM     25  C3  ZIN A   1      19.144  -1.111   4.339  0.00  0.00     0.270 C 
BRANCH  25  26
ATOM     26  O2  ZIN A   1      18.573   0.181   4.549  0.00  0.00    -0.387 OA
ATOM     27  C1  ZIN A   1      19.337   1.021   5.417  0.00  0.00     0.202 C 
ENDBRANCH  25  26
ENDBRANCH  22  25
ENDBRANCH   1  21
BRANCH   7  28
ATOM     28  C23 ZIN A   1      17.619  -6.494   8.336  0.00  0.00     0.256 C 
ATOM     29  O24 ZIN A   1      18.619  -7.184   8.305  0.00  0.00    -0.267 OA
ATOM     30  N25 ZIN A   1      16.401  -7.067   8.254  0.00  0.00    -0.350 N 
ATOM     31  C26 ZIN A   1      15.196  -6.235   8.292  0.00  0.00     0.153 C 
BRANCH  30  32
ATOM     32  C27 ZIN A   1      16.284  -8.522   8.129  0.00  0.00     0.159 C 
BRANCH  32  33
ATOM     33  C28 ZIN A   1      15.883  -8.881   6.697  0.00  0.00     0.159 C 
BRANCH  33  34
ATOM     34  O30 ZIN A   1      14.685  -9.660   6.719  0.00  0.00    -0.392 OA
ATOM     35  H53 ZIN A   1      14.512 -10.138   5.897  0.00  0.00     0.210 HD
ENDBRANCH  33  34
BRANCH  33  36
ATOM     36  C31 ZIN A   1      17.004  -9.688   6.040  0.00  0.00     0.197 C 
BRANCH  36  37
ATOM     37  O32 ZIN A   1      18.131  -9.739   6.916  0.00  0.00    -0.398 OA
ATOM     38  H56 ZIN A   1      18.829  -9.106   6.696  0.00  0.00     0.209 HD
ENDBRANCH  36  37
ENDBRANCH  33  36
ENDBRANCH  32  33
ENDBRANCH  30  32
ENDBRANCH   7  28
TORSDOF 15
ENDMDL
MODEL 6
REMARK VINA RESULT:      -6.0      1.255      6.071
REMARK  15 active torsions:
REMARK  status: ('A' for Active; 'I' for Inactive)
REMARK    1  A    between atoms: O2_2  and  C3_3 
REMARK    2  A    between atoms: C3_3  and  C4_4 
REMARK       I    between atoms: C4_4  and  N6_6 
REMARK    3  A    between atoms: N6_6  and  C7_7 
REMARK    4  A    between atoms: C10_10  and  C11_11 
REMARK       I    between atoms: C11_11  and  N13_13 
REMARK    5  A    between atoms: N13_13  and  C14_14 
REMARK    6  A    between atoms: C14_14  and  C15_15 
REMARK    7  A    between atoms: C15_15  and  O17_16 
REMARK    8  A    between atoms: C15_15  and  C18_17 
REMARK    9  A    between atoms: C18_17  and  O19_18 
REMARK   10  A    between atoms: C22_21  and  C23_22 
REMARK       I    between atoms: C23_22  and  N25_24 
REMARK   11  A    between atoms: N25_24  and  C27_26 
REMARK   12  A    between atoms: C27_26  and  C28_27 
REMARK   13  A    between atoms: C28_27  and  O30_28 
REMARK   14  A    between atoms: C28_27  and  C31_29 
REMARK   15  A    between atoms: C31_29  and  O32_30 
ROOT
ATOM      1  C7  ZIN A   1      18.828   1.592  14.336  0.00  0.00     0.070 A 
ATOM      2  C8  ZIN A   1      18.472   1.097  13.091  0.00  0.00     0.051 A 
ATOM      3  I9  ZIN A   1      18.496  -0.970  12.742  0.00  0.00    -0.041 I 
ATOM      4  C10 ZIN A   1      18.098   1.972  12.069  0.00  0.00     0.068 A 
ATOM      5  C20 ZIN A   1      18.082   3.346  12.302  0.00  0.00     0.040 A 
ATOM      6  I21 ZIN A   1      17.521   4.664  10.772  0.00  0.00    -0.042 I 
ATOM      7  C22 ZIN A   1      18.440   3.842  13.555  0.00  0.00     0.068 A 
ATOM      8  C33 ZIN A   1      18.808   2.960  14.574  0.00  0.00     0.051 A 
ATOM      9  I34 ZIN A   1      19.345   3.703  16.457  0.00  0.00    -0.041 I 
ENDROOT
BRANCH   4  10
ATOM     10  C11 ZIN A   1      17.719   1.442  10.741  0.00  0.00     0.254 C 
ATOM     11  O12 ZIN A   1      16.605   0.989  10.564  0.00  0.00    -0.268 OA
ATOM     12  N13 ZIN A   1      18.609   1.460   9.730  0.00  0.00    -0.354 N 
ATOM     13  H41 ZIN A   1      19.498   1.821   9.872  0.00  0.00     0.162 HD
BRANCH  12  14
ATOM     14  C14 ZIN A   1      18.234   0.935   8.414  0.00  0.00     0.156 C 
BRANCH  14  15
ATOM     15  C15 ZIN A   1      19.343   0.018   7.896  0.00  0.00     0.159 C 
BRANCH  15  16
ATOM     16  O17 ZIN A   1      18.860  -0.729   6.779  0.00  0.00    -0.392 OA
ATOM     17  H44 ZIN A   1      18.182  -1.381   7.004  0.00  0.00     0.210 HD
ENDBRANCH  15  16
BRANCH  15  18
ATOM     18  C18 ZIN A   1      19.769  -0.944   9.007  0.00  0.00     0.197 C 
BRANCH  18  19
ATOM     19  O19 ZIN A   1      20.867  -0.383   9.727  0.00  0.00    -0.398 OA
ATOM     20  H47 ZIN A   1      20.794  -0.470  10.688  0.00  0.00     0.209 HD
ENDBRANCH  18  19
ENDBRANCH  15  18
ENDBRANCH  14  15
ENDBRANCH  12  14
ENDBRANCH   4  10
BRANCH   1  21
ATOM     21  N6  ZIN A   1      19.202   0.712  15.359  0.00  0.00    -0.323 N 
ATOM     22  C4  ZIN A   1      18.258   0.075  16.079  0.00  0.00     0.245 C 
ATOM     23  O5  ZIN A   1      17.085   0.320  15.893  0.00  0.00    -0.271 OA
ATOM     24  H40 ZIN A   1      20.142   0.562  15.550  0.00  0.00     0.169 HD
BRANCH  22  25
ATOM     25  C3  ZIN A   1      18.661  -0.943  17.115  0.00  0.00     0.270 C 
BRANCH  25  26
ATOM     26  O2  ZIN A   1      19.281  -0.280  18.218  0.00  0.00    -0.387 OA
ATOM     27  C1  ZIN A   1      18.416   0.615  18.920  0.00  0.00     0.202 C 
ENDBRANCH  25  26
ENDBRANCH  22  25
ENDBRANCH   1  21
BRANCH   7  28
ATOM     28  C23 ZIN A   1      18.423   5.297  13.807  0.00  0.00     0.256 C 
ATOM     29  O24 ZIN A   1      19.453   5.940  13.730  0.00  0.00    -0.267 OA
ATOM     30  N25 ZIN A   1      17.267   5.913  14.123  0.00  0.00    -0.350 N 
ATOM     31  C26 ZIN A   1      16.026   5.139  14.215  0.00  0.00     0.153 C 
BRANCH  30  32
ATOM     32  C27 ZIN A   1      17.250   7.356  14.372  0.00  0.00     0.159 C 
BRANCH  32  33
ATOM     33  C28 ZIN A   1      16.425   7.648  15.627  0.00  0.00     0.159 C 
BRANCH  33  34
ATOM     34  O30 ZIN A   1      15.810   8.933  15.505  0.00  0.00    -0.392 OA
ATOM     35  H53 ZIN A   1      15.595   9.347  16.351  0.00  0.00     0.210 HD
ENDBRANCH  33  34
BRANCH  33  36
ATOM     36  C31 ZIN A   1      17.339   7.635  16.853  0.00  0.00     0.197 C 
BRANCH  36  37
ATOM     37  O32 ZIN A   1      18.700   7.533  16.432  0.00  0.00    -0.398 OA
ATOM     38  H56 ZIN A   1      19.239   8.305  16.652  0.00  0.00     0.209 HD
ENDBRANCH  36  37
ENDBRANCH  33  36
ENDBRANCH  32  33
ENDBRANCH  30  32
ENDBRANCH   7  28
TORSDOF 15
ENDMDL
MODEL 7
REMARK VINA RESULT:      -6.0      4.246      6.534
REMARK  15 active torsions:
REMARK  status: ('A' for Active; 'I' for Inactive)
REMARK    1  A    between atoms: O2_2  and  C3_3 
REMARK    2  A    between atoms: C3_3  and  C4_4 
REMARK       I    between atoms: C4_4  and  N6_6 
REMARK    3  A    between atoms: N6_6  and  C7_7 
REMARK    4  A    between atoms: C10_10  and  C11_11 
REMARK       I    between atoms: C11_11  and  N13_13 
REMARK    5  A    between atoms: N13_13  and  C14_14 
REMARK    6  A    between atoms: C14_14  and  C15_15 
REMARK    7  A    between atoms: C15_15  and  O17_16 
REMARK    8  A    between atoms: C15_15  and  C18_17 
REMARK    9  A    between atoms: C18_17  and  O19_18 
REMARK   10  A    between atoms: C22_21  and  C23_22 
REMARK       I    between atoms: C23_22  and  N25_24 
REMARK   11  A    between atoms: N25_24  and  C27_26 
REMARK   12  A    between atoms: C27_26  and  C28_27 
REMARK   13  A    between atoms: C28_27  and  O30_28 
REMARK   14  A    between atoms: C28_27  and  C31_29 
REMARK   15  A    between atoms: C31_29  and  O32_30 
ROOT
ATOM      1  C7  ZIN A   1      18.975  -0.568   8.508  0.00  0.00     0.070 A 
ATOM      2  C8  ZIN A   1      18.863  -1.901   8.872  0.00  0.00     0.051 A 
ATOM      3  I9  ZIN A   1      19.179  -3.404   7.446  0.00  0.00    -0.041 I 
ATOM      4  C10 ZIN A   1      18.541  -2.244  10.187  0.00  0.00     0.068 A 
ATOM      5  C20 ZIN A   1      18.332  -1.244  11.135  0.00  0.00     0.040 A 
ATOM      6  I21 ZIN A   1      17.848  -1.752  13.110  0.00  0.00    -0.042 I 
ATOM      7  C22 ZIN A   1      18.444   0.096  10.767  0.00  0.00     0.068 A 
ATOM      8  C33 ZIN A   1      18.773   0.432   9.450  0.00  0.00     0.051 A 
ATOM      9  I34 ZIN A   1      18.944   2.444   8.896  0.00  0.00    -0.041 I 
ENDROOT
BRANCH   4  10
ATOM     10  C11 ZIN A   1      18.422  -3.666  10.573  0.00  0.00     0.254 C 
ATOM     11  O12 ZIN A   1      19.398  -4.271  10.973  0.00  0.00    -0.268 OA
ATOM     12  N13 ZIN A   1      17.232  -4.292  10.481  0.00  0.00    -0.354 N 
ATOM     13  H41 ZIN A   1      16.454  -3.810  10.162  0.00  0.00     0.162 HD
BRANCH  12  14
ATOM     14  C14 ZIN A   1      17.114  -5.702  10.864  0.00  0.00     0.156 C 
BRANCH  14  15
ATOM     15  C15 ZIN A   1      17.108  -6.573   9.607  0.00  0.00     0.159 C 
BRANCH  15  16
ATOM     16  O17 ZIN A   1      18.438  -6.681   9.096  0.00  0.00    -0.392 OA
ATOM     17  H44 ZIN A   1      18.482  -6.811   8.139  0.00  0.00     0.210 HD
ENDBRANCH  15  16
BRANCH  15  18
ATOM     18  C18 ZIN A   1      16.206  -5.935   8.549  0.00  0.00     0.197 C 
BRANCH  18  19
ATOM     19  O19 ZIN A   1      14.958  -5.575   9.142  0.00  0.00    -0.398 OA
ATOM     20  H47 ZIN A   1      14.570  -4.764   8.785  0.00  0.00     0.209 HD
ENDBRANCH  18  19
ENDBRANCH  15  18
ENDBRANCH  14  15
ENDBRANCH  12  14
ENDBRANCH   4  10
BRANCH   1  21
ATOM     21  N6  ZIN A   1      19.298  -0.227   7.189  0.00  0.00    -0.323 N 
ATOM     22  C4  ZIN A   1      18.318   0.009   6.294  0.00  0.00     0.245 C 
ATOM     23  O5  ZIN A   1      17.158  -0.148   6.611  0.00  0.00    -0.271 OA
ATOM     24  H40 ZIN A   1      20.228  -0.162   6.918  0.00  0.00     0.169 HD
BRANCH  22  25
ATOM     25  C3  ZIN A   1      18.664   0.468   4.901  0.00  0.00     0.270 C 
BRANCH  25  26
ATOM     26  O2  ZIN A   1      19.053  -0.658   4.112  0.00  0.00    -0.387 OA
ATOM     27  C1  ZIN A   1      18.086  -1.710   4.084  0.00  0.00     0.202 C 
ENDBRANCH  25  26
ENDBRANCH  22  25
ENDBRANCH   1  21
BRANCH   7  28
ATOM     28  C23 ZIN A   1      18.225   1.160  11.768  0.00  0.00     0.256 C 
ATOM     29  O24 ZIN A   1      17.123   1.658  11.894  0.00  0.00    -0.267 OA
ATOM     30  N25 ZIN A   1      19.247   1.578  12.541  0.00  0.00    -0.350 N 
ATOM     31  C26 ZIN A   1      20.574   0.978  12.389  0.00  0.00     0.153 C 
BRANCH  30  32
ATOM     32  C27 ZIN A   1      19.029   2.633  13.534  0.00  0.00     0.159 C 
BRANCH  32  33
ATOM     33  C28 ZIN A   1      18.808   2.001  14.910  0.00  0.00     0.159 C 
BRANCH  33  34
ATOM     34  O30 ZIN A   1      17.514   1.397  14.955  0.00  0.00    -0.392 OA
ATOM     35  H53 ZIN A   1      17.518   0.484  15.272  0.00  0.00     0.210 HD
ENDBRANCH  33  34
BRANCH  33  36
ATOM     36  C31 ZIN A   1      18.905   3.081  15.989  0.00  0.00     0.197 C 
BRANCH  36  37
ATOM     37  O32 ZIN A   1      20.272   3.258  16.365  0.00  0.00    -0.398 OA
ATOM     38  H56 ZIN A   1      20.904   3.003  15.679  0.00  0.00     0.209 HD
ENDBRANCH  36  37
ENDBRANCH  33  36
ENDBRANCH  32  33
ENDBRANCH  30  32
ENDBRANCH   7  28
TORSDOF 15
ENDMDL
MODEL 8
REMARK VINA RESULT:      -5.9      2.205      6.927
REMARK  15 active torsions:
REMARK  status: ('A' for Active; 'I' for Inactive)
REMARK    1  A    between atoms: O2_2  and  C3_3 
REMARK    2  A    between atoms: C3_3  and  C4_4 
REMARK       I    between atoms: C4_4  and  N6_6 
REMARK    3  A    between atoms: N6_6  and  C7_7 
REMARK    4  A    between atoms: C10_10  and  C11_11 
REMARK       I    between atoms: C11_11  and  N13_13 
REMARK    5  A    between atoms: N13_13  and  C14_14 
REMARK    6  A    between atoms: C14_14  and  C15_15 
REMARK    7  A    between atoms: C15_15  and  O17_16 
REMARK    8  A    between atoms: C15_15  and  C18_17 
REMARK    9  A    between atoms: C18_17  and  O19_18 
REMARK   10  A    between atoms: C22_21  and  C23_22 
REMARK       I    between atoms: C23_22  and  N25_24 
REMARK   11  A    between atoms: N25_24  and  C27_26 
REMARK   12  A    between atoms: C27_26  and  C28_27 
REMARK   13  A    between atoms: C28_27  and  O30_28 
REMARK   14  A    between atoms: C28_27  and  C31_29 
REMARK   15  A    between atoms: C31_29  and  O32_30 
ROOT
ATOM      1  C7  ZIN A   1      18.950   2.150  11.981  0.00  0.00     0.070 A 
ATOM      2  C8  ZIN A   1      18.934   1.452  13.179  0.00  0.00     0.051 A 
ATOM      3  I9  ZIN A   1      18.756   2.489  14.991  0.00  0.00    -0.041 I 
ATOM      4  C10 ZIN A   1      19.035   0.059  13.180  0.00  0.00     0.068 A 
ATOM      5  C20 ZIN A   1      19.153  -0.630  11.974  0.00  0.00     0.040 A 
ATOM      6  I21 ZIN A   1      19.305  -2.720  11.969  0.00  0.00    -0.042 I 
ATOM      7  C22 ZIN A   1      19.170   0.074  10.770  0.00  0.00     0.068 A 
ATOM      8  C33 ZIN A   1      19.061   1.467  10.777  0.00  0.00     0.051 A 
ATOM      9  I34 ZIN A   1      19.085   2.527   8.971  0.00  0.00    -0.041 I 
ENDROOT
BRANCH   4  10
ATOM     10  C11 ZIN A   1      19.018  -0.684  14.458  0.00  0.00     0.254 C 
ATOM     11  O12 ZIN A   1      20.053  -1.120  14.921  0.00  0.00    -0.268 OA
ATOM     12  N13 ZIN A   1      17.853  -0.877  15.108  0.00  0.00    -0.354 N 
ATOM     13  H41 ZIN A   1      17.027  -0.529  14.738  0.00  0.00     0.162 HD
BRANCH  12  14
ATOM     14  C14 ZIN A   1      17.835  -1.614  16.375  0.00  0.00     0.156 C 
BRANCH  14  15
ATOM     15  C15 ZIN A   1      17.324  -0.699  17.489  0.00  0.00     0.159 C 
BRANCH  15  16
ATOM     16  O17 ZIN A   1      16.437   0.274  16.937  0.00  0.00    -0.392 OA
ATOM     17  H44 ZIN A   1      15.676   0.477  17.498  0.00  0.00     0.210 HD
ENDBRANCH  15  16
BRANCH  15  18
ATOM     18  C18 ZIN A   1      18.507   0.007  18.153  0.00  0.00     0.197 C 
BRANCH  18  19
ATOM     19  O19 ZIN A   1      19.697  -0.755  17.939  0.00  0.00    -0.398 OA
ATOM     20  H47 ZIN A   1      20.487  -0.375  18.347  0.00  0.00     0.209 HD
ENDBRANCH  18  19
ENDBRANCH  15  18
ENDBRANCH  14  15
ENDBRANCH  12  14
ENDBRANCH   4  10
BRANCH   1  21
ATOM     21  N6  ZIN A   1      18.848   3.547  11.983  0.00  0.00    -0.323 N 
ATOM     22  C4  ZIN A   1      17.652   4.136  11.780  0.00  0.00     0.245 C 
ATOM     23  O5  ZIN A   1      16.679   3.459  11.521  0.00  0.00    -0.271 OA
ATOM     24  H40 ZIN A   1      19.638   4.091  12.128  0.00  0.00     0.169 HD
BRANCH  22  25
ATOM     25  C3  ZIN A   1      17.525   5.634  11.877  0.00  0.00     0.270 C 
BRANCH  25  26
ATOM     26  O2  ZIN A   1      17.413   6.014  13.250  0.00  0.00    -0.387 OA
ATOM     27  C1  ZIN A   1      16.085   5.926  13.771  0.00  0.00     0.202 C 
ENDBRANCH  25  26
ENDBRANCH  22  25
ENDBRANCH   1  21
BRANCH   7  28
ATOM     28  C23 ZIN A   1      19.293  -0.652   9.490  0.00  0.00     0.256 C 
ATOM     29  O24 ZIN A   1      20.392  -0.927   9.050  0.00  0.00    -0.267 OA
ATOM     30  N25 ZIN A   1      18.186  -1.008   8.809  0.00  0.00    -0.350 N 
ATOM     31  C26 ZIN A   1      16.861  -0.676   9.339  0.00  0.00     0.153 C 
BRANCH  30  32
ATOM     32  C27 ZIN A   1      18.308  -1.728   7.539  0.00  0.00     0.159 C 
BRANCH  32  33
ATOM     33  C28 ZIN A   1      18.266  -0.731   6.379  0.00  0.00     0.159 C 
BRANCH  33  34
ATOM     34  O30 ZIN A   1      16.943  -0.684   5.840  0.00  0.00    -0.392 OA
ATOM     35  H53 ZIN A   1      16.247  -0.655   6.509  0.00  0.00     0.210 HD
ENDBRANCH  33  34
BRANCH  33  36
ATOM     36  C31 ZIN A   1      19.245  -1.173   5.290  0.00  0.00     0.197 C 
BRANCH  36  37
ATOM     37  O32 ZIN A   1      19.812  -0.021   4.664  0.00  0.00    -0.398 OA
ATOM     38  H56 ZIN A   1      20.634   0.285   5.073  0.00  0.00     0.209 HD
ENDBRANCH  36  37
ENDBRANCH  33  36
ENDBRANCH  32  33
ENDBRANCH  30  32
ENDBRANCH   7  28
TORSDOF 15
ENDMDL
MODEL 9
REMARK VINA RESULT:      -5.8      2.058      6.744
REMARK  15 active torsions:
REMARK  status: ('A' for Active; 'I' for Inactive)
REMARK    1  A    between atoms: O2_2  and  C3_3 
REMARK    2  A    between atoms: C3_3  and  C4_4 
REMARK       I    between atoms: C4_4  and  N6_6 
REMARK    3  A    between atoms: N6_6  and  C7_7 
REMARK    4  A    between atoms: C10_10  and  C11_11 
REMARK       I    between atoms: C11_11  and  N13_13 
REMARK    5  A    between atoms: N13_13  and  C14_14 
REMARK    6  A    between atoms: C14_14  and  C15_15 
REMARK    7  A    between atoms: C15_15  and  O17_16 
REMARK    8  A    between atoms: C15_15  and  C18_17 
REMARK    9  A    between atoms: C18_17  and  O19_18 
REMARK   10  A    between atoms: C22_21  and  C23_22 
REMARK       I    between atoms: C23_22  and  N25_24 
REMARK   11  A    between atoms: N25_24  and  C27_26 
REMARK   12  A    between atoms: C27_26  and  C28_27 
REMARK   13  A    between atoms: C28_27  and  O30_28 
REMARK   14  A    between atoms: C28_27  and  C31_29 
REMARK   15  A    between atoms: C31_29  and  O32_30 
ROOT
ATOM      1  C7  ZIN A   1      17.565   5.047  14.186  0.00  0.00     0.070 A 
ATOM      2  C8  ZIN A   1      17.971   4.428  15.359  0.00  0.00     0.051 A 
ATOM      3  I9  ZIN A   1      17.954   5.494  17.163  0.00  0.00    -0.041 I 
ATOM      4  C10 ZIN A   1      18.391   3.096  15.340  0.00  0.00     0.068 A 
ATOM      5  C20 ZIN A   1      18.401   2.388  14.139  0.00  0.00     0.040 A 
ATOM      6  I21 ZIN A   1      19.029   0.389  14.104  0.00  0.00    -0.042 I 
ATOM      7  C22 ZIN A   1      17.993   3.012  12.961  0.00  0.00     0.068 A 
ATOM      8  C33 ZIN A   1      17.568   4.343  12.989  0.00  0.00     0.051 A 
ATOM      9  I34 ZIN A   1      16.954   5.282  11.221  0.00  0.00    -0.041 I 
ENDROOT
BRANCH   4  10
ATOM     10  C11 ZIN A   1      18.823   2.438  16.591  0.00  0.00     0.254 C 
ATOM     11  O12 ZIN A   1      20.000   2.426  16.895  0.00  0.00    -0.268 OA
ATOM     12  N13 ZIN A   1      17.912   1.852  17.392  0.00  0.00    -0.354 N 
ATOM     13  H41 ZIN A   1      16.974   1.862  17.149  0.00  0.00     0.162 HD
BRANCH  12  14
ATOM     14  C14 ZIN A   1      18.341   1.199  18.633  0.00  0.00     0.156 C 
BRANCH  14  15
ATOM     15  C15 ZIN A   1      18.437  -0.311  18.407  0.00  0.00     0.159 C 
BRANCH  15  16
ATOM     16  O17 ZIN A   1      19.767  -0.650  18.012  0.00  0.00    -0.392 OA
ATOM     17  H44 ZIN A   1      19.884  -0.735  17.056  0.00  0.00     0.210 HD
ENDBRANCH  15  16
BRANCH  15  18
ATOM     18  C18 ZIN A   1      17.457  -0.725  17.308  0.00  0.00     0.197 C 
BRANCH  18  19
ATOM     19  O19 ZIN A   1      17.932  -1.911  16.669  0.00  0.00    -0.398 OA
ATOM     20  H47 ZIN A   1      18.865  -1.877  16.418  0.00  0.00     0.209 HD
ENDBRANCH  18  19
ENDBRANCH  15  18
ENDBRANCH  14  15
ENDBRANCH  12  14
ENDBRANCH   4  10
BRANCH   1  21
ATOM     21  N6  ZIN A   1      17.145   6.382  14.208  0.00  0.00    -0.323 N 
ATOM     22  C4  ZIN A   1      15.892   6.688  14.602  0.00  0.00     0.245 C 
ATOM     23  O5  ZIN A   1      15.105   5.803  14.863  0.00  0.00    -0.271 OA
ATOM     24  H40 ZIN A   1      17.754   7.087  13.938  0.00  0.00     0.169 HD
BRANCH  22  25
ATOM     25  C3  ZIN A   1      15.470   8.130  14.716  0.00  0.00     0.270 C 
BRANCH  25  26
ATOM     26  O2  ZIN A   1      14.680   8.303  15.895  0.00  0.00    -0.387 OA
ATOM     27  C1  ZIN A   1      15.432   8.680  17.049  0.00  0.00     0.202 C 
ENDBRANCH  25  26
ENDBRANCH  22  25
ENDBRANCH   1  21
BRANCH   7  28
ATOM     28  C23 ZIN A   1      18.001   2.265  11.687  0.00  0.00     0.256 C 
ATOM     29  O24 ZIN A   1      17.006   1.666  11.327  0.00  0.00    -0.267 OA
ATOM     30  N25 ZIN A   1      19.111   2.248  10.923  0.00  0.00    -0.350 N 
ATOM     31  C26 ZIN A   1      20.309   2.971  11.357  0.00  0.00     0.153 C 
BRANCH  30  32
ATOM     32  C27 ZIN A   1      19.119   1.508   9.659  0.00  0.00     0.159 C 
BRANCH  32  33
ATOM     33  C28 ZIN A   1      19.498   0.050   9.922  0.00  0.00     0.159 C 
BRANCH  33  34
ATOM     34  O30 ZIN A   1      20.911  -0.108   9.782  0.00  0.00    -0.392 OA
ATOM     35  H53 ZIN A   1      21.351  -0.431  10.580  0.00  0.00     0.210 HD
ENDBRANCH  33  34
BRANCH  33  36
ATOM     36  C31 ZIN A   1      18.781  -0.853   8.917  0.00  0.00     0.197 C 
BRANCH  36  37
ATOM     37  O32 ZIN A   1      19.416  -2.133   8.888  0.00  0.00    -0.398 OA
ATOM     38  H56 ZIN A   1      20.333  -2.123   9.196  0.00  0.00     0.209 HD
ENDBRANCH  36  37
ENDBRANCH  33  36
ENDBRANCH  32  33
ENDBRANCH  30  32
ENDBRANCH   7  28
TORSDOF 15
ENDMDL
