MODEL 1
REMARK VINA RESULT:      -5.1      0.000      0.000
REMARK  5 active torsions:
REMARK  status: ('A' for Active; 'I' for Inactive)
REMARK    1  A    between atoms: C4_4  and  C6_5 
REMARK    2  A    between atoms: C6_5  and  O7_6 
REMARK    3  A    between atoms: C8_7  and  O10_8 
REMARK    4  A    between atoms: C11_9  and  O13_10 
REMARK    5  A    between atoms: C14_11  and  O16_12 
ROOT
ATOM      1  O1  <0> d   1      16.171   0.164  11.419  0.00  0.00    -0.262 OA
ATOM      2  C2  <0> d   1      17.297   0.133  11.854  0.00  0.00     0.291 C 
ATOM      3  O3  <0> d   1      17.883  -1.039  12.178  0.00  0.00    -0.309 OA
ATOM      4  C4  <0> d   1      19.207  -1.258  11.614  0.00  0.00     0.186 C 
ATOM      5  C8  <0> d   1      20.104  -0.066  11.957  0.00  0.00     0.181 C 
ATOM      6  C11 <0> d   1      19.471   1.219  11.414  0.00  0.00     0.188 C 
ATOM      7  C14 <0> d   1      18.093   1.404  12.047  0.00  0.00     0.248 C 
ENDROOT
BRANCH   4   8
ATOM      8  C6  <0> d   1      19.807  -2.537  12.200  0.00  0.00     0.199 C 
BRANCH   8   9
ATOM      9  O7  <0> d   1      20.778  -3.068  11.295  0.00  0.00    -0.398 OA
ATOM     10  H19 <0> d   1      20.812  -4.034  11.276  0.00  0.00     0.209 HD
ENDBRANCH   8   9
ENDBRANCH   4   8
BRANCH   5  11
ATOM     11  O10 <0> d   1      21.392  -0.252  11.366  0.00  0.00    -0.390 OA
ATOM     12  H20 <0> d   1      21.659  -1.178  11.289  0.00  0.00     0.210 HD
ENDBRANCH   5  11
BRANCH   6  13
ATOM     13  O13 <0> d   1      20.304   2.335  11.735  0.00  0.00    -0.390 OA
ATOM     14  H21 <0> d   1      20.505   2.905  10.980  0.00  0.00     0.210 HD
ENDBRANCH   6  13
BRANCH   7  15
ATOM     15  O16 <0> d   1      17.418   2.497  11.422  0.00  0.00    -0.383 OA
ATOM     16  H22 <0> d   1      17.211   2.351  10.489  0.00  0.00     0.210 HD
ENDBRANCH   7  15
TORSDOF 5
ENDMDL
MODEL 2
REMARK VINA RESULT:      -5.1      1.864      2.114
REMARK  5 active torsions:
REMARK  status: ('A' for Active; 'I' for Inactive)
REMARK    1  A    between atoms: C4_4  and  C6_5 
REMARK    2  A    between atoms: C6_5  and  O7_6 
REMARK    3  A    between atoms: C8_7  and  O10_8 
REMARK    4  A    between atoms: C11_9  and  O13_10 
REMARK    5  A    between atoms: C14_11  and  O16_12 
ROOT
ATOM      1  O1  <0> d   1      17.455   0.221  13.689  0.00  0.00    -0.262 OA
ATOM      2  C2  <0> d   1      18.362  -0.270  13.061  0.00  0.00     0.291 C 
ATOM      3  O3  <0> d   1      18.123  -1.183  12.096  0.00  0.00    -0.309 OA
ATOM      4  C4  <0> d   1      18.757  -0.921  10.811  0.00  0.00     0.186 C 
ATOM      5  C8  <0> d   1      20.257  -0.707  11.025  0.00  0.00     0.181 C 
ATOM      6  C11 <0> d   1      20.471   0.456  11.999  0.00  0.00     0.188 C 
ATOM      7  C14 <0> d   1      19.798   0.122  13.330  0.00  0.00     0.248 C 
ENDROOT
BRANCH   4   8
ATOM      8  C6  <0> d   1      18.536  -2.114   9.881  0.00  0.00     0.199 C 
BRANCH   8   9
ATOM      9  O7  <0> d   1      19.672  -2.980   9.937  0.00  0.00    -0.398 OA
ATOM     10  H19 <0> d   1      19.876  -3.417   9.099  0.00  0.00     0.209 HD
ENDBRANCH   8   9
ENDBRANCH   4   8
BRANCH   5  11
ATOM     11  O10 <0> d   1      20.878  -0.402   9.774  0.00  0.00    -0.390 OA
ATOM     12  H20 <0> d   1      20.795  -1.103   9.112  0.00  0.00     0.210 HD
ENDBRANCH   5  11
BRANCH   6  13
ATOM     13  O13 <0> d   1      21.871   0.658  12.203  0.00  0.00    -0.390 OA
ATOM     14  H21 <0> d   1      22.425   0.327  11.483  0.00  0.00     0.210 HD
ENDBRANCH   6  13
BRANCH   7  15
ATOM     15  O16 <0> d   1      19.835   1.264  14.188  0.00  0.00    -0.383 OA
ATOM     16  H22 <0> d   1      20.513   1.218  14.876  0.00  0.00     0.210 HD
ENDBRANCH   7  15
TORSDOF 5
ENDMDL
MODEL 3
REMARK VINA RESULT:      -5.1      1.024      3.418
REMARK  5 active torsions:
REMARK  status: ('A' for Active; 'I' for Inactive)
REMARK    1  A    between atoms: C4_4  and  C6_5 
REMARK    2  A    between atoms: C6_5  and  O7_6 
REMARK    3  A    between atoms: C8_7  and  O10_8 
REMARK    4  A    between atoms: C11_9  and  O13_10 
REMARK    5  A    between atoms: C14_11  and  O16_12 
ROOT
ATOM      1  O1  <0> d   1      16.237  -0.115  11.644  0.00  0.00    -0.262 OA
ATOM      2  C2  <0> d   1      17.369  -0.049  11.229  0.00  0.00     0.291 C 
ATOM      3  O3  <0> d   1      17.942   1.143  10.960  0.00  0.00    -0.309 OA
ATOM      4  C4  <0> d   1      19.253   1.360  11.554  0.00  0.00     0.186 C 
ATOM      5  C8  <0> d   1      20.174   0.196  11.180  0.00  0.00     0.181 C 
ATOM      6  C11 <0> d   1      19.553  -1.118  11.664  0.00  0.00     0.188 C 
ATOM      7  C14 <0> d   1      18.188  -1.300  11.001  0.00  0.00     0.248 C 
ENDROOT
BRANCH   4   8
ATOM      8  C6  <0> d   1      19.842   2.669  11.026  0.00  0.00     0.199 C 
BRANCH   8   9
ATOM      9  O7  <0> d   1      20.960   3.049  11.832  0.00  0.00    -0.398 OA
ATOM     10  H19 <0> d   1      21.624   3.572  11.362  0.00  0.00     0.209 HD
ENDBRANCH   8   9
ENDBRANCH   4   8
BRANCH   5  11
ATOM     11  O10 <0> d   1      21.449   0.379  11.799  0.00  0.00    -0.390 OA
ATOM     12  H20 <0> d   1      21.975   1.093  11.413  0.00  0.00     0.210 HD
ENDBRANCH   5  11
BRANCH   6  13
ATOM     13  O13 <0> d   1      20.409  -2.209  11.315  0.00  0.00    -0.390 OA
ATOM     14  H21 <0> d   1      21.349  -2.031  11.455  0.00  0.00     0.210 HD
ENDBRANCH   6  13
BRANCH   7  15
ATOM     15  O16 <0> d   1      17.521  -2.427  11.574  0.00  0.00    -0.383 OA
ATOM     16  H22 <0> d   1      17.164  -2.266  12.457  0.00  0.00     0.210 HD
ENDBRANCH   7  15
TORSDOF 5
ENDMDL
MODEL 4
REMARK VINA RESULT:      -5.1      1.801      2.185
REMARK  5 active torsions:
REMARK  status: ('A' for Active; 'I' for Inactive)
REMARK    1  A    between atoms: C4_4  and  C6_5 
REMARK    2  A    between atoms: C6_5  and  O7_6 
REMARK    3  A    between atoms: C8_7  and  O10_8 
REMARK    4  A    between atoms: C11_9  and  O13_10 
REMARK    5  A    between atoms: C14_11  and  O16_12 
ROOT
ATOM      1  O1  <0> d   1      17.373   2.467  11.048  0.00  0.00    -0.262 OA
ATOM      2  C2  <0> d   1      18.054   1.478  11.181  0.00  0.00     0.291 C 
ATOM      3  O3  <0> d   1      18.229   0.614  10.159  0.00  0.00    -0.309 OA
ATOM      4  C4  <0> d   1      19.611   0.259   9.866  0.00  0.00     0.186 C 
ATOM      5  C8  <0> d   1      20.286  -0.238  11.146  0.00  0.00     0.181 C 
ATOM      6  C11 <0> d   1      20.207   0.853  12.218  0.00  0.00     0.188 C 
ATOM      7  C14 <0> d   1      18.739   1.176  12.495  0.00  0.00     0.248 C 
ENDROOT
BRANCH   4   8
ATOM      8  C6  <0> d   1      19.639  -0.846   8.809  0.00  0.00     0.199 C 
BRANCH   8   9
ATOM      9  O7  <0> d   1      19.695  -2.121   9.452  0.00  0.00    -0.398 OA
ATOM     10  H19 <0> d   1      20.589  -2.404   9.690  0.00  0.00     0.209 HD
ENDBRANCH   8   9
ENDBRANCH   4   8
BRANCH   5  11
ATOM     11  O10 <0> d   1      21.656  -0.543  10.875  0.00  0.00    -0.390 OA
ATOM     12  H20 <0> d   1      22.007  -0.109  10.085  0.00  0.00     0.210 HD
ENDBRANCH   5  11
BRANCH   6  13
ATOM     13  O13 <0> d   1      20.834   0.393  13.417  0.00  0.00    -0.390 OA
ATOM     14  H21 <0> d   1      20.221   0.013  14.061  0.00  0.00     0.210 HD
ENDBRANCH   6  13
BRANCH   7  15
ATOM     15  O16 <0> d   1      18.650   2.311  13.359  0.00  0.00    -0.383 OA
ATOM     16  H22 <0> d   1      19.240   2.270  14.125  0.00  0.00     0.210 HD
ENDBRANCH   7  15
TORSDOF 5
ENDMDL
MODEL 5
REMARK VINA RESULT:      -5.0      1.837      3.531
REMARK  5 active torsions:
REMARK  status: ('A' for Active; 'I' for Inactive)
REMARK    1  A    between atoms: C4_4  and  C6_5 
REMARK    2  A    between atoms: C6_5  and  O7_6 
REMARK    3  A    between atoms: C8_7  and  O10_8 
REMARK    4  A    between atoms: C11_9  and  O13_10 
REMARK    5  A    between atoms: C14_11  and  O16_12 
ROOT
ATOM      1  O1  <0> d   1      17.522  -0.212   9.201  0.00  0.00    -0.262 OA
ATOM      2  C2  <0> d   1      18.412   0.274   9.858  0.00  0.00     0.291 C 
ATOM      3  O3  <0> d   1      18.150   1.203  10.802  0.00  0.00    -0.309 OA
ATOM      4  C4  <0> d   1      18.730   0.948  12.113  0.00  0.00     0.186 C 
ATOM      5  C8  <0> d   1      20.233   0.708  11.961  0.00  0.00     0.181 C 
ATOM      6  C11 <0> d   1      20.466  -0.471  11.010  0.00  0.00     0.188 C 
ATOM      7  C14 <0> d   1      19.851  -0.144   9.650  0.00  0.00     0.248 C 
ENDROOT
BRANCH   4   8
ATOM      8  C6  <0> d   1      18.492   2.157  13.019  0.00  0.00     0.199 C 
BRANCH   8   9
ATOM      9  O7  <0> d   1      19.668   2.969  13.050  0.00  0.00    -0.398 OA
ATOM     10  H19 <0> d   1      19.491   3.918  13.086  0.00  0.00     0.209 HD
ENDBRANCH   8   9
ENDBRANCH   4   8
BRANCH   5  11
ATOM     11  O10 <0> d   1      20.800   0.410  13.239  0.00  0.00    -0.390 OA
ATOM     12  H20 <0> d   1      20.148   0.172  13.913  0.00  0.00     0.210 HD
ENDBRANCH   5  11
BRANCH   6  13
ATOM     13  O13 <0> d   1      21.869  -0.697  10.864  0.00  0.00    -0.390 OA
ATOM     14  H21 <0> d   1      22.123  -1.630  10.899  0.00  0.00     0.210 HD
ENDBRANCH   6  13
BRANCH   7  15
ATOM     15  O16 <0> d   1      19.903  -1.298   8.809  0.00  0.00    -0.383 OA
ATOM     16  H22 <0> d   1      19.469  -1.181   7.952  0.00  0.00     0.210 HD
ENDBRANCH   7  15
TORSDOF 5
ENDMDL
MODEL 6
REMARK VINA RESULT:      -5.0      2.138      3.055
REMARK  5 active torsions:
REMARK  status: ('A' for Active; 'I' for Inactive)
REMARK    1  A    between atoms: C4_4  and  C6_5 
REMARK    2  A    between atoms: C6_5  and  O7_6 
REMARK    3  A    between atoms: C8_7  and  O10_8 
REMARK    4  A    between atoms: C11_9  and  O13_10 
REMARK    5  A    between atoms: C14_11  and  O16_12 
ROOT
ATOM      1  O1  <0> d   1      17.395   2.511  11.400  0.00  0.00    -0.262 OA
ATOM      2  C2  <0> d   1      18.177   2.068  12.207  0.00  0.00     0.291 C 
ATOM      3  O3  <0> d   1      17.749   1.580  13.391  0.00  0.00    -0.309 OA
ATOM      4  C4  <0> d   1      18.241   0.254  13.739  0.00  0.00     0.186 C 
ATOM      5  C8  <0> d   1      19.768   0.242  13.644  0.00  0.00     0.181 C 
ATOM      6  C11 <0> d   1      20.191   0.639  12.226  0.00  0.00     0.188 C 
ATOM      7  C14 <0> d   1      19.662   2.039  11.920  0.00  0.00     0.248 C 
ENDROOT
BRANCH   4   8
ATOM      8  C6  <0> d   1      17.814  -0.089  15.167  0.00  0.00     0.199 C 
BRANCH   8   9
ATOM      9  O7  <0> d   1      18.853   0.277  16.078  0.00  0.00    -0.398 OA
ATOM     10  H19 <0> d   1      18.991  -0.358  16.793  0.00  0.00     0.209 HD
ENDBRANCH   8   9
ENDBRANCH   4   8
BRANCH   5  11
ATOM     11  O10 <0> d   1      20.254  -1.069  13.938  0.00  0.00    -0.390 OA
ATOM     12  H20 <0> d   1      20.314  -1.263  14.884  0.00  0.00     0.210 HD
ENDBRANCH   5  11
BRANCH   6  13
ATOM     13  O13 <0> d   1      21.618   0.631  12.132  0.00  0.00    -0.390 OA
ATOM     14  H21 <0> d   1      21.952   0.653  11.225  0.00  0.00     0.210 HD
ENDBRANCH   6  13
BRANCH   7  15
ATOM     15  O16 <0> d   1      19.894   2.352  10.545  0.00  0.00    -0.383 OA
ATOM     16  H22 <0> d   1      20.597   1.830  10.135  0.00  0.00     0.210 HD
ENDBRANCH   7  15
TORSDOF 5
ENDMDL
MODEL 7
REMARK VINA RESULT:      -4.9      1.825      3.949
REMARK  5 active torsions:
REMARK  status: ('A' for Active; 'I' for Inactive)
REMARK    1  A    between atoms: C4_4  and  C6_5 
REMARK    2  A    between atoms: C6_5  and  O7_6 
REMARK    3  A    between atoms: C8_7  and  O10_8 
REMARK    4  A    between atoms: C11_9  and  O13_10 
REMARK    5  A    between atoms: C14_11  and  O16_12 
ROOT
ATOM      1  O1  <0> d   1      17.834  -0.223  14.587  0.00  0.00    -0.262 OA
ATOM      2  C2  <0> d   1      18.292   0.271  13.584  0.00  0.00     0.291 C 
ATOM      3  O3  <0> d   1      17.762   1.397  13.061  0.00  0.00    -0.309 OA
ATOM      4  C4  <0> d   1      18.710   2.462  12.769  0.00  0.00     0.186 C 
ATOM      5  C8  <0> d   1      19.834   1.908  11.891  0.00  0.00     0.181 C 
ATOM      6  C11 <0> d   1      20.513   0.740  12.612  0.00  0.00     0.188 C 
ATOM      7  C14 <0> d   1      19.478  -0.351  12.881  0.00  0.00     0.248 C 
ENDROOT
BRANCH   4   8
ATOM      8  C6  <0> d   1      17.994   3.595  12.032  0.00  0.00     0.199 C 
BRANCH   8   9
ATOM      9  O7  <0> d   1      17.098   3.043  11.064  0.00  0.00    -0.398 OA
ATOM     10  H19 <0> d   1      17.112   3.498  10.211  0.00  0.00     0.209 HD
ENDBRANCH   8   9
ENDBRANCH   4   8
BRANCH   5  11
ATOM     11  O10 <0> d   1      20.794   2.937  11.639  0.00  0.00    -0.390 OA
ATOM     12  H20 <0> d   1      20.880   3.579  12.358  0.00  0.00     0.210 HD
ENDBRANCH   5  11
BRANCH   6  13
ATOM     13  O13 <0> d   1      21.563   0.218  11.794  0.00  0.00    -0.390 OA
ATOM     14  H21 <0> d   1      22.144  -0.406  12.251  0.00  0.00     0.210 HD
ENDBRANCH   6  13
BRANCH   7  15
ATOM     15  O16 <0> d   1      20.051  -1.367  13.706  0.00  0.00    -0.383 OA
ATOM     16  H22 <0> d   1      19.890  -1.244  14.651  0.00  0.00     0.210 HD
ENDBRANCH   7  15
TORSDOF 5
ENDMDL
MODEL 8
REMARK VINA RESULT:      -4.9      3.304      4.066
REMARK  5 active torsions:
REMARK  status: ('A' for Active; 'I' for Inactive)
REMARK    1  A    between atoms: C4_4  and  C6_5 
REMARK    2  A    between atoms: C6_5  and  O7_6 
REMARK    3  A    between atoms: C8_7  and  O10_8 
REMARK    4  A    between atoms: C11_9  and  O13_10 
REMARK    5  A    between atoms: C14_11  and  O16_12 
ROOT
ATOM      1  O1  <0> d   1      16.074   4.848  11.164  0.00  0.00    -0.262 OA
ATOM      2  C2  <0> d   1      17.007   4.180  11.541  0.00  0.00     0.291 C 
ATOM      3  O3  <0> d   1      17.381   3.070  10.870  0.00  0.00    -0.309 OA
ATOM      4  C4  <0> d   1      18.796   2.983  10.538  0.00  0.00     0.186 C 
ATOM      5  C8  <0> d   1      19.624   3.179  11.810  0.00  0.00     0.181 C 
ATOM      6  C11 <0> d   1      19.281   4.534  12.436  0.00  0.00     0.188 C 
ATOM      7  C14 <0> d   1      17.792   4.565  12.775  0.00  0.00     0.248 C 
ENDROOT
BRANCH   4   8
ATOM      8  C6  <0> d   1      19.095   1.608   9.938  0.00  0.00     0.199 C 
BRANCH   8   9
ATOM      9  O7  <0> d   1      20.001   1.753   8.842  0.00  0.00    -0.398 OA
ATOM     10  H19 <0> d   1      20.906   1.967   9.105  0.00  0.00     0.209 HD
ENDBRANCH   8   9
ENDBRANCH   4   8
BRANCH   5  11
ATOM     11  O10 <0> d   1      21.015   3.141  11.483  0.00  0.00    -0.390 OA
ATOM     12  H20 <0> d   1      21.536   3.841  11.901  0.00  0.00     0.210 HD
ENDBRANCH   5  11
BRANCH   6  13
ATOM     13  O13 <0> d   1      20.052   4.720  13.626  0.00  0.00    -0.390 OA
ATOM     14  H21 <0> d   1      20.984   4.921  13.463  0.00  0.00     0.210 HD
ENDBRANCH   6  13
BRANCH   7  15
ATOM     15  O16 <0> d   1      17.420   5.879  13.195  0.00  0.00    -0.383 OA
ATOM     16  H22 <0> d   1      18.170   6.463  13.373  0.00  0.00     0.210 HD
ENDBRANCH   7  15
TORSDOF 5
ENDMDL
MODEL 9
REMARK VINA RESULT:      -4.8      2.049      3.187
REMARK  5 active torsions:
REMARK  status: ('A' for Active; 'I' for Inactive)
REMARK    1  A    between atoms: C4_4  and  C6_5 
REMARK    2  A    between atoms: C6_5  and  O7_6 
REMARK    3  A    between atoms: C8_7  and  O10_8 
REMARK    4  A    between atoms: C11_9  and  O13_10 
REMARK    5  A    between atoms: C14_11  and  O16_12 
ROOT
ATOM      1  O1  <0> d   1      15.999   0.102  11.748  0.00  0.00    -0.262 OA
ATOM      2  C2  <0> d   1      17.169   0.305  11.526  0.00  0.00     0.291 C 
ATOM      3  O3  <0> d   1      17.565   0.890  10.375  0.00  0.00    -0.309 OA
ATOM      4  C4  <0> d   1      18.468   2.022  10.524  0.00  0.00     0.186 C 
ATOM      5  C8  <0> d   1      19.663   1.604  11.384  0.00  0.00     0.181 C 
ATOM      6  C11 <0> d   1      19.161   1.110  12.744  0.00  0.00     0.188 C 
ATOM      7  C14 <0> d   1      18.231  -0.084  12.530  0.00  0.00     0.248 C 
ENDROOT
BRANCH   4   8
ATOM      8  C6  <0> d   1      18.959   2.467   9.145  0.00  0.00     0.199 C 
BRANCH   8   9
ATOM      9  O7  <0> d   1      20.104   1.695   8.774  0.00  0.00    -0.398 OA
ATOM     10  H19 <0> d   1      20.820   2.215   8.384  0.00  0.00     0.209 HD
ENDBRANCH   8   9
ENDBRANCH   4   8
BRANCH   5  11
ATOM     11  O10 <0> d   1      20.530   2.725  11.573  0.00  0.00    -0.390 OA
ATOM     12  H20 <0> d   1      20.403   3.434  10.927  0.00  0.00     0.210 HD
ENDBRANCH   5  11
BRANCH   6  13
ATOM     13  O13 <0> d   1      20.274   0.716  13.550  0.00  0.00    -0.390 OA
ATOM     14  H21 <0> d   1      20.085   0.697  14.499  0.00  0.00     0.210 HD
ENDBRANCH   6  13
BRANCH   7  15
ATOM     15  O16 <0> d   1      17.617  -0.445  13.768  0.00  0.00    -0.383 OA
ATOM     16  H22 <0> d   1      17.240  -1.335  13.776  0.00  0.00     0.210 HD
ENDBRANCH   7  15
TORSDOF 5
ENDMDL
