MODEL 1
REMARK VINA RESULT:      -7.6      0.000      0.000
REMARK  1 active torsions:
REMARK  status: ('A' for Active; 'I' for Inactive)
REMARK    1  A    between atoms: C24_21  and  O25_22 
ROOT
ATOM      1  C1  ZIN A   1      17.996  -1.062   7.507  0.00  0.00     0.270 C 
ATOM      2  N2  ZIN A   1      18.607  -1.208   8.835  0.00  0.00    -0.070 N 
ATOM      3  H3  ZIN A   1      18.844  -2.177   8.987  0.00  0.00     0.279 HD
ATOM      4  C4  ZIN A   1      19.827  -0.398   8.895  0.00  0.00     0.236 C 
ATOM      5  C5  ZIN A   1      20.500  -0.563  10.264  0.00  0.00     0.045 C 
ATOM      6  C6  ZIN A   1      19.502  -0.146  11.342  0.00  0.00     0.031 C 
ATOM      7  C7  ZIN A   1      19.051   1.273  11.091  0.00  0.00    -0.003 C 
ATOM      8  C8  ZIN A   1      19.807   2.104  11.904  0.00  0.00     0.110 C 
ATOM      9  O9  ZIN A   1      20.630   1.372  12.687  0.00  0.00    -0.334 OA
ATOM     10  C10 ZIN A   1      20.157  -0.008  12.708  0.00  0.00     0.212 C 
ATOM     11  C12 ZIN A   1      19.178  -0.126  13.840  0.00  0.00     0.157 C 
ATOM     12  O13 ZIN A   1      19.450   0.399  14.892  0.00  0.00    -0.295 OA
ATOM     13  C14 ZIN A   1      17.879  -0.865  13.724  0.00  0.00     0.081 C 
ATOM     14  C15 ZIN A   1      17.241  -0.591  12.361  0.00  0.00     0.015 C 
ATOM     15  C16 ZIN A   1      18.249  -1.002  11.247  0.00  0.00     0.033 C 
ATOM     16  C18 ZIN A   1      17.644  -0.782   9.857  0.00  0.00     0.197 C 
ATOM     17  C20 ZIN A   1      17.201   0.646   9.588  0.00  0.00     0.072 C 
ATOM     18  C21 ZIN A   1      18.008   1.673  10.288  0.00  0.00    -0.046 C 
ATOM     19  C22 ZIN A   1      17.812   3.039  10.186  0.00  0.00     0.011 C 
ATOM     20  C23 ZIN A   1      18.578   3.912  10.942  0.00  0.00     0.040 C 
ATOM     21  C24 ZIN A   1      19.586   3.483  11.816  0.00  0.00     0.099 C 
ENDROOT
BRANCH  21  22
ATOM     22  O25 ZIN A   1      20.297   4.366  12.567  0.00  0.00    -0.358 OA
ATOM     23  H41 ZIN A   1      21.230   4.134  12.668  0.00  0.00     0.217 HD
ENDBRANCH  21  22
TORSDOF 1
ENDMDL
MODEL 2
REMARK VINA RESULT:      -7.3      2.653      4.991
REMARK  1 active torsions:
REMARK  status: ('A' for Active; 'I' for Inactive)
REMARK    1  A    between atoms: C24_21  and  O25_22 
ROOT
ATOM      1  C1  ZIN A   1      18.872   0.855  15.372  0.00  0.00     0.270 C 
ATOM      2  N2  ZIN A   1      19.382   1.254  14.054  0.00  0.00    -0.070 N 
ATOM      3  H3  ZIN A   1      19.853   2.143  14.135  0.00  0.00     0.279 HD
ATOM      4  C4  ZIN A   1      20.336   0.246  13.581  0.00  0.00     0.236 C 
ATOM      5  C5  ZIN A   1      20.906   0.661  12.219  0.00  0.00     0.045 C 
ATOM      6  C6  ZIN A   1      19.744   0.828  11.243  0.00  0.00     0.031 C 
ATOM      7  C7  ZIN A   1      18.958  -0.459  11.168  0.00  0.00    -0.003 C 
ATOM      8  C8  ZIN A   1      19.394  -1.153  10.049  0.00  0.00     0.110 C 
ATOM      9  O9  ZIN A   1      20.310  -0.426   9.374  0.00  0.00    -0.334 OA
ATOM     10  C10 ZIN A   1      20.219   0.966   9.803  0.00  0.00     0.212 C 
ATOM     11  C12 ZIN A   1      19.212   1.641   8.919  0.00  0.00     0.157 C 
ATOM     12  O13 ZIN A   1      19.243   1.412   7.734  0.00  0.00    -0.295 OA
ATOM     13  C14 ZIN A   1      18.169   2.585   9.438  0.00  0.00     0.081 C 
ATOM     14  C15 ZIN A   1      17.602   2.062  10.759  0.00  0.00     0.015 C 
ATOM     15  C16 ZIN A   1      18.775   1.876  11.766  0.00  0.00     0.033 C 
ATOM     16  C18 ZIN A   1      18.256   1.388  13.122  0.00  0.00     0.197 C 
ATOM     17  C20 ZIN A   1      17.476   0.086  13.060  0.00  0.00     0.072 C 
ATOM     18  C21 ZIN A   1      17.920  -0.836  11.988  0.00  0.00    -0.046 C 
ATOM     19  C22 ZIN A   1      17.379  -2.086  11.745  0.00  0.00     0.011 C 
ATOM     20  C23 ZIN A   1      17.819  -2.838  10.669  0.00  0.00     0.040 C 
ATOM     21  C24 ZIN A   1      18.825  -2.406   9.794  0.00  0.00     0.099 C 
ENDROOT
BRANCH  21  22
ATOM     22  O25 ZIN A   1      19.209  -3.157   8.727  0.00  0.00    -0.358 OA
ATOM     23  H41 ZIN A   1      20.166  -3.280   8.657  0.00  0.00     0.217 HD
ENDBRANCH  21  22
TORSDOF 1
ENDMDL
MODEL 3
REMARK VINA RESULT:      -7.1      3.476      5.078
REMARK  1 active torsions:
REMARK  status: ('A' for Active; 'I' for Inactive)
REMARK    1  A    between atoms: C24_21  and  O25_22 
ROOT
ATOM      1  C1  ZIN A   1      19.198   1.207  13.596  0.00  0.00     0.270 C 
ATOM      2  N2  ZIN A   1      18.695  -0.127  13.243  0.00  0.00    -0.070 N 
ATOM      3  H3  ZIN A   1      18.399  -0.603  14.082  0.00  0.00     0.279 HD
ATOM      4  C4  ZIN A   1      17.548   0.015  12.341  0.00  0.00     0.236 C 
ATOM      5  C5  ZIN A   1      16.985  -1.367  11.986  0.00  0.00     0.045 C 
ATOM      6  C6  ZIN A   1      18.101  -2.188  11.343  0.00  0.00     0.031 C 
ATOM      7  C7  ZIN A   1      18.633  -1.458  10.134  0.00  0.00    -0.003 C 
ATOM      8  C8  ZIN A   1      18.014  -1.992   9.013  0.00  0.00     0.110 C 
ATOM      9  O9  ZIN A   1      17.209  -3.017   9.367  0.00  0.00    -0.334 OA
ATOM     10  C10 ZIN A   1      17.577  -3.467  10.705  0.00  0.00     0.212 C 
ATOM     11  C12 ZIN A   1      18.638  -4.517  10.547  0.00  0.00     0.157 C 
ATOM     12  O13 ZIN A   1      18.498  -5.350   9.685  0.00  0.00    -0.295 OA
ATOM     13  C14 ZIN A   1      19.863  -4.578  11.408  0.00  0.00     0.081 C 
ATOM     14  C15 ZIN A   1      20.401  -3.168  11.655  0.00  0.00     0.015 C 
ATOM     15  C16 ZIN A   1      19.273  -2.311  12.303  0.00  0.00     0.033 C 
ATOM     16  C18 ZIN A   1      19.771  -0.894  12.606  0.00  0.00     0.197 C 
ATOM     17  C20 ZIN A   1      20.295  -0.145  11.393  0.00  0.00     0.072 C 
ATOM     18  C21 ZIN A   1      19.630  -0.510  10.121  0.00  0.00    -0.046 C 
ATOM     19  C22 ZIN A   1      19.919   0.048   8.888  0.00  0.00     0.011 C 
ATOM     20  C23 ZIN A   1      19.288  -0.419   7.746  0.00  0.00     0.040 C 
ATOM     21  C24 ZIN A   1      18.330  -1.440   7.766  0.00  0.00     0.099 C 
ENDROOT
BRANCH  21  22
ATOM     22  O25 ZIN A   1      17.754  -1.897   6.622  0.00  0.00    -0.358 OA
ATOM     23  H41 ZIN A   1      17.342  -1.206   6.085  0.00  0.00     0.217 HD
ENDBRANCH  21  22
TORSDOF 1
ENDMDL
MODEL 4
REMARK VINA RESULT:      -7.0      2.964      4.563
REMARK  1 active torsions:
REMARK  status: ('A' for Active; 'I' for Inactive)
REMARK    1  A    between atoms: C24_21  and  O25_22 
ROOT
ATOM      1  C1  ZIN A   1      18.956   3.730  12.401  0.00  0.00     0.270 C 
ATOM      2  N2  ZIN A   1      18.632   2.298  12.361  0.00  0.00    -0.070 N 
ATOM      3  H3  ZIN A   1      18.529   1.955  13.304  0.00  0.00     0.279 HD
ATOM      4  C4  ZIN A   1      17.370   2.110  11.640  0.00  0.00     0.236 C 
ATOM      5  C5  ZIN A   1      16.995   0.623  11.616  0.00  0.00     0.045 C 
ATOM      6  C6  ZIN A   1      18.135  -0.148  10.953  0.00  0.00     0.031 C 
ATOM      7  C7  ZIN A   1      18.380   0.403   9.570  0.00  0.00    -0.003 C 
ATOM      8  C8  ZIN A   1      17.715  -0.413   8.667  0.00  0.00     0.110 C 
ATOM      9  O9  ZIN A   1      17.139  -1.451   9.311  0.00  0.00    -0.334 OA
ATOM     10  C10 ZIN A   1      17.746  -1.584  10.631  0.00  0.00     0.212 C 
ATOM     11  C12 ZIN A   1      18.932  -2.492  10.488  0.00  0.00     0.157 C 
ATOM     12  O13 ZIN A   1      18.816  -3.485   9.811  0.00  0.00    -0.295 OA
ATOM     13  C14 ZIN A   1      20.252  -2.223  11.143  0.00  0.00     0.081 C 
ATOM     14  C15 ZIN A   1      20.583  -0.732  11.060  0.00  0.00     0.015 C 
ATOM     15  C16 ZIN A   1      19.426   0.073  11.724  0.00  0.00     0.033 C 
ATOM     16  C18 ZIN A   1      19.725   1.575  11.701  0.00  0.00     0.197 C 
ATOM     17  C20 ZIN A   1      19.960   2.144  10.312  0.00  0.00     0.072 C 
ATOM     18  C21 ZIN A   1      19.202   1.457   9.240  0.00  0.00    -0.046 C 
ATOM     19  C22 ZIN A   1      19.234   1.803   7.901  0.00  0.00     0.011 C 
ATOM     20  C23 ZIN A   1      18.543   1.047   6.968  0.00  0.00     0.040 C 
ATOM     21  C24 ZIN A   1      17.772  -0.072   7.311  0.00  0.00     0.099 C 
ENDROOT
BRANCH  21  22
ATOM     22  O25 ZIN A   1      17.133  -0.811   6.366  0.00  0.00    -0.358 OA
ATOM     23  H41 ZIN A   1      16.763  -0.289   5.641  0.00  0.00     0.217 HD
ENDBRANCH  21  22
TORSDOF 1
ENDMDL
MODEL 5
REMARK VINA RESULT:      -6.8      3.313      5.686
REMARK  1 active torsions:
REMARK  status: ('A' for Active; 'I' for Inactive)
REMARK    1  A    between atoms: C24_21  and  O25_22 
ROOT
ATOM      1  C1  ZIN A   1      19.188   1.133  13.049  0.00  0.00     0.270 C 
ATOM      2  N2  ZIN A   1      19.412   0.867  11.622  0.00  0.00    -0.070 N 
ATOM      3  H3  ZIN A   1      19.798   1.693  11.188  0.00  0.00     0.279 HD
ATOM      4  C4  ZIN A   1      20.363  -0.240  11.482  0.00  0.00     0.236 C 
ATOM      5  C5  ZIN A   1      20.638  -0.510   9.997  0.00  0.00     0.045 C 
ATOM      6  C6  ZIN A   1      19.309  -0.828   9.314  0.00  0.00     0.031 C 
ATOM      7  C7  ZIN A   1      18.656  -2.003  10.000  0.00  0.00    -0.003 C 
ATOM      8  C8  ZIN A   1      18.954  -3.140   9.263  0.00  0.00     0.110 C 
ATOM      9  O9  ZIN A   1      19.657  -2.810   8.158  0.00  0.00    -0.334 OA
ATOM     10  C10 ZIN A   1      19.504  -1.380   7.909  0.00  0.00     0.212 C 
ATOM     11  C12 ZIN A   1      18.293  -1.206   7.040  0.00  0.00     0.157 C 
ATOM     12  O13 ZIN A   1      18.136  -1.964   6.115  0.00  0.00    -0.295 OA
ATOM     13  C14 ZIN A   1      17.270  -0.134   7.268  0.00  0.00     0.081 C 
ATOM     14  C15 ZIN A   1      17.002   0.023   8.766  0.00  0.00     0.015 C 
ATOM     15  C16 ZIN A   1      18.349   0.338   9.482  0.00  0.00     0.033 C 
ATOM     16  C18 ZIN A   1      18.131   0.542  10.985  0.00  0.00     0.197 C 
ATOM     17  C20 ZIN A   1      17.487  -0.640  11.689  0.00  0.00     0.072 C 
ATOM     18  C21 ZIN A   1      17.824  -1.955  11.095  0.00  0.00    -0.046 C 
ATOM     19  C22 ZIN A   1      17.377  -3.176  11.569  0.00  0.00     0.011 C 
ATOM     20  C23 ZIN A   1      17.691  -4.344  10.894  0.00  0.00     0.040 C 
ATOM     21  C24 ZIN A   1      18.477  -4.368   9.734  0.00  0.00     0.099 C 
ENDROOT
BRANCH  21  22
ATOM     22  O25 ZIN A   1      18.739  -5.530   9.077  0.00  0.00    -0.358 OA
ATOM     23  H41 ZIN A   1      19.059  -6.242   9.649  0.00  0.00     0.217 HD
ENDBRANCH  21  22
TORSDOF 1
ENDMDL
MODEL 6
REMARK VINA RESULT:      -6.8      2.313      4.146
REMARK  1 active torsions:
REMARK  status: ('A' for Active; 'I' for Inactive)
REMARK    1  A    between atoms: C24_21  and  O25_22 
ROOT
ATOM      1  C1  ZIN A   1      18.313  -0.625  15.433  0.00  0.00     0.270 C 
ATOM      2  N2  ZIN A   1      18.170  -0.797  13.981  0.00  0.00    -0.070 N 
ATOM      3  H3  ZIN A   1      18.003  -1.771  13.776  0.00  0.00     0.279 HD
ATOM      4  C4  ZIN A   1      17.029  -0.004  13.513  0.00  0.00     0.236 C 
ATOM      5  C5  ZIN A   1      16.840  -0.196  12.003  0.00  0.00     0.045 C 
ATOM      6  C6  ZIN A   1      18.131   0.220  11.302  0.00  0.00     0.031 C 
ATOM      7  C7  ZIN A   1      18.464   1.648  11.662  0.00  0.00    -0.003 C 
ATOM      8  C8  ZIN A   1      18.007   2.458  10.633  0.00  0.00     0.110 C 
ATOM      9  O9  ZIN A   1      17.490   1.705   9.637  0.00  0.00    -0.334 OA
ATOM     10  C10 ZIN A   1      17.956   0.331   9.794  0.00  0.00     0.212 C 
ATOM     11  C12 ZIN A   1      19.250   0.211   9.045  0.00  0.00     0.157 C 
ATOM     12  O13 ZIN A   1      19.332   0.719   7.953  0.00  0.00    -0.295 OA
ATOM     13  C14 ZIN A   1      20.447  -0.509   9.590  0.00  0.00     0.081 C 
ATOM     14  C15 ZIN A   1      20.604  -0.208  11.081  0.00  0.00     0.015 C 
ATOM     15  C16 ZIN A   1      19.292  -0.618  11.813  0.00  0.00     0.033 C 
ATOM     16  C18 ZIN A   1      19.409  -0.371  13.321  0.00  0.00     0.197 C 
ATOM     17  C20 ZIN A   1      19.729   1.066  13.695  0.00  0.00     0.072 C 
ATOM     18  C21 ZIN A   1      19.185   2.072  12.753  0.00  0.00    -0.046 C 
ATOM     19  C22 ZIN A   1      19.327   3.442  12.890  0.00  0.00     0.011 C 
ATOM     20  C23 ZIN A   1      18.841   4.295  11.912  0.00  0.00     0.040 C 
ATOM     21  C24 ZIN A   1      18.176   3.841  10.765  0.00  0.00     0.099 C 
ENDROOT
BRANCH  21  22
ATOM     22  O25 ZIN A   1      17.741   4.704   9.808  0.00  0.00    -0.358 OA
ATOM     23  H41 ZIN A   1      18.424   4.966   9.175  0.00  0.00     0.217 HD
ENDBRANCH  21  22
TORSDOF 1
ENDMDL
MODEL 7
REMARK VINA RESULT:      -6.7      2.333      3.378
REMARK  1 active torsions:
REMARK  status: ('A' for Active; 'I' for Inactive)
REMARK    1  A    between atoms: C24_21  and  O25_22 
ROOT
ATOM      1  C1  ZIN A   1      18.025  -5.748  10.347  0.00  0.00     0.270 C 
ATOM      2  N2  ZIN A   1      18.598  -4.692  11.192  0.00  0.00    -0.070 N 
ATOM      3  H3  ZIN A   1      18.806  -5.072  12.103  0.00  0.00     0.279 HD
ATOM      4  C4  ZIN A   1      19.838  -4.205  10.580  0.00  0.00     0.236 C 
ATOM      5  C5  ZIN A   1      20.471  -3.124  11.465  0.00  0.00     0.045 C 
ATOM      6  C6  ZIN A   1      19.458  -1.995  11.642  0.00  0.00     0.031 C 
ATOM      7  C7  ZIN A   1      19.052  -1.464  10.288  0.00  0.00    -0.003 C 
ATOM      8  C8  ZIN A   1      19.809  -0.329  10.038  0.00  0.00     0.110 C 
ATOM      9  O9  ZIN A   1      20.592  -0.044  11.101  0.00  0.00    -0.334 OA
ATOM     10  C10 ZIN A   1      20.082  -0.757  12.268  0.00  0.00     0.212 C 
ATOM     11  C12 ZIN A   1      19.072   0.135  12.929  0.00  0.00     0.157 C 
ATOM     12  O13 ZIN A   1      19.331   1.308  13.046  0.00  0.00    -0.295 OA
ATOM     13  C14 ZIN A   1      17.757  -0.362  13.449  0.00  0.00     0.081 C 
ATOM     14  C15 ZIN A   1      17.161  -1.380  12.475  0.00  0.00     0.015 C 
ATOM     15  C16 ZIN A   1      18.186  -2.536  12.274  0.00  0.00     0.033 C 
ATOM     16  C18 ZIN A   1      17.622  -3.606  11.333  0.00  0.00     0.197 C 
ATOM     17  C20 ZIN A   1      17.224  -3.085   9.963  0.00  0.00     0.072 C 
ATOM     18  C21 ZIN A   1      18.040  -1.943   9.488  0.00  0.00    -0.046 C 
ATOM     19  C22 ZIN A   1      17.883  -1.311   8.267  0.00  0.00     0.011 C 
ATOM     20  C23 ZIN A   1      18.653  -0.203   7.951  0.00  0.00     0.040 C 
ATOM     21  C24 ZIN A   1      19.627   0.321   8.812  0.00  0.00     0.099 C 
ENDROOT
BRANCH  21  22
ATOM     22  O25 ZIN A   1      20.342   1.430   8.483  0.00  0.00    -0.358 OA
ATOM     23  H41 ZIN A   1      19.876   2.039   7.895  0.00  0.00     0.217 HD
ENDBRANCH  21  22
TORSDOF 1
ENDMDL
MODEL 8
REMARK VINA RESULT:      -6.7      2.396      4.083
REMARK  1 active torsions:
REMARK  status: ('A' for Active; 'I' for Inactive)
REMARK    1  A    between atoms: C24_21  and  O25_22 
ROOT
ATOM      1  C1  ZIN A   1      18.911   3.636  11.072  0.00  0.00     0.270 C 
ATOM      2  N2  ZIN A   1      19.226   2.207  10.938  0.00  0.00    -0.070 N 
ATOM      3  H3  ZIN A   1      19.594   2.034  10.015  0.00  0.00     0.279 HD
ATOM      4  C4  ZIN A   1      20.236   1.841  11.936  0.00  0.00     0.236 C 
ATOM      5  C5  ZIN A   1      20.605   0.360  11.790  0.00  0.00     0.045 C 
ATOM      6  C6  ZIN A   1      19.333  -0.469  11.957  0.00  0.00     0.031 C 
ATOM      7  C7  ZIN A   1      18.702  -0.163  13.293  0.00  0.00    -0.003 C 
ATOM      8  C8  ZIN A   1      19.095  -1.154  14.181  0.00  0.00     0.110 C 
ATOM      9  O9  ZIN A   1      19.840  -2.084  13.545  0.00  0.00    -0.334 OA
ATOM     10  C10 ZIN A   1      19.631  -1.954  12.107  0.00  0.00     0.212 C 
ATOM     11  C12 ZIN A   1      18.463  -2.823  11.745  0.00  0.00     0.157 C 
ATOM     12  O13 ZIN A   1      18.393  -3.925  12.234  0.00  0.00    -0.295 OA
ATOM     13  C14 ZIN A   1      17.377  -2.387  10.808  0.00  0.00     0.081 C 
ATOM     14  C15 ZIN A   1      17.020  -0.923  11.066  0.00  0.00     0.015 C 
ATOM     15  C16 ZIN A   1      18.309  -0.061  10.911  0.00  0.00     0.033 C 
ATOM     16  C18 ZIN A   1      17.999   1.424  11.123  0.00  0.00     0.197 C 
ATOM     17  C20 ZIN A   1      17.377   1.746  12.471  0.00  0.00     0.072 C 
ATOM     18  C21 ZIN A   1      17.809   0.848  13.567  0.00  0.00    -0.046 C 
ATOM     19  C22 ZIN A   1      17.397   0.951  14.884  0.00  0.00     0.011 C 
ATOM     20  C23 ZIN A   1      17.805   0.013  15.818  0.00  0.00     0.040 C 
ATOM     21  C24 ZIN A   1      18.654  -1.058  15.506  0.00  0.00     0.099 C 
ENDROOT
BRANCH  21  22
ATOM     22  O25 ZIN A   1      19.008  -1.980  16.440  0.00  0.00    -0.358 OA
ATOM     23  H41 ZIN A   1      19.577  -1.632  17.140  0.00  0.00     0.217 HD
ENDBRANCH  21  22
TORSDOF 1
ENDMDL
MODEL 9
REMARK VINA RESULT:      -6.4      2.346      3.998
REMARK  1 active torsions:
REMARK  status: ('A' for Active; 'I' for Inactive)
REMARK    1  A    between atoms: C24_21  and  O25_22 
ROOT
ATOM      1  C1  ZIN A   1      19.152  -3.267  12.255  0.00  0.00     0.270 C 
ATOM      2  N2  ZIN A   1      19.412  -1.825  12.157  0.00  0.00    -0.070 N 
ATOM      3  H3  ZIN A   1      19.788  -1.495  13.034  0.00  0.00     0.279 HD
ATOM      4  C4  ZIN A   1      20.391  -1.584  11.093  0.00  0.00     0.236 C 
ATOM      5  C5  ZIN A   1      20.703  -0.085  10.996  0.00  0.00     0.045 C 
ATOM      6  C6  ZIN A   1      19.397   0.661  10.730  0.00  0.00     0.031 C 
ATOM      7  C7  ZIN A   1      18.757   0.126   9.473  0.00  0.00    -0.003 C 
ATOM      8  C8  ZIN A   1      19.097   0.979   8.432  0.00  0.00     0.110 C 
ATOM      9  O9  ZIN A   1      19.815   2.023   8.899  0.00  0.00    -0.334 OA
ATOM     10  C10 ZIN A   1      19.634   2.113  10.344  0.00  0.00     0.212 C 
ATOM     11  C12 ZIN A   1      18.439   2.986  10.590  0.00  0.00     0.157 C 
ATOM     12  O13 ZIN A   1      18.318   3.994   9.937  0.00  0.00    -0.295 OA
ATOM     13  C14 ZIN A   1      17.386   2.663  11.608  0.00  0.00     0.081 C 
ATOM     14  C15 ZIN A   1      17.083   1.164  11.590  0.00  0.00     0.015 C 
ATOM     15  C16 ZIN A   1      18.407   0.385  11.850  0.00  0.00     0.033 C 
ATOM     16  C18 ZIN A   1      18.153  -1.126  11.879  0.00  0.00     0.197 C 
ATOM     17  C20 ZIN A   1      17.522  -1.677  10.612  0.00  0.00     0.072 C 
ATOM     18  C21 ZIN A   1      17.901  -0.947   9.380  0.00  0.00    -0.046 C 
ATOM     19  C22 ZIN A   1      17.472  -1.271   8.104  0.00  0.00     0.011 C 
ATOM     20  C23 ZIN A   1      17.828  -0.477   7.026  0.00  0.00     0.040 C 
ATOM     21  C24 ZIN A   1      18.639   0.659   7.149  0.00  0.00     0.099 C 
ENDROOT
BRANCH  21  22
ATOM     22  O25 ZIN A   1      18.941   1.436   6.074  0.00  0.00    -0.358 OA
ATOM     23  H41 ZIN A   1      19.208   0.936   5.290  0.00  0.00     0.217 HD
ENDBRANCH  21  22
TORSDOF 1
ENDMDL
