MODEL 1
REMARK VINA RESULT:      -8.0      0.000      0.000
REMARK  2 active torsions:
REMARK  status: ('A' for Active; 'I' for Inactive)
REMARK    1  A    between atoms: C11_11  and  C12_12 
REMARK    2  A    between atoms: C20_20  and  O22_21 
ROOT
ATOM      1  O1  ZIN A   1      19.740   2.193  11.834  0.00  0.00    -0.268 OA
ATOM      2  C2  ZIN A   1      19.830   1.342  10.975  0.00  0.00     0.272 C 
ATOM      3  N3  ZIN A   1      19.005   1.385   9.931  0.00  0.00    -0.323 N 
ATOM      4  C4  ZIN A   1      19.035   0.512   8.853  0.00  0.00     0.047 A 
ATOM      5  C5  ZIN A   1      18.828   1.054   7.584  0.00  0.00     0.032 A 
ATOM      6  C6  ZIN A   1      18.842   0.250   6.466  0.00  0.00     0.026 A 
ATOM      7  C7  ZIN A   1      19.061  -1.113   6.592  0.00  0.00     0.035 A 
ATOM      8 Cl8  ZIN A   1      19.077  -2.124   5.181  0.00  0.00    -0.084 Cl
ATOM      9  C9  ZIN A   1      19.268  -1.664   7.837  0.00  0.00     0.040 A 
ATOM     10  C10 ZIN A   1      19.258  -0.857   8.984  0.00  0.00     0.022 A 
ATOM     11  C11 ZIN A   1      19.490  -1.513  10.281  0.00  0.00     0.079 C 
ATOM     12  N19 ZIN A   1      20.205  -1.028  11.233  0.00  0.00    -0.247 NA
ATOM     13  C20 ZIN A   1      20.877   0.270  11.111  0.00  0.00     0.335 C 
ATOM     14  H23 ZIN A   1      18.329   2.081   9.925  0.00  0.00     0.169 HD
ENDROOT
BRANCH  11  15
ATOM     15  C12 ZIN A   1      18.851  -2.830  10.507  0.00  0.00     0.015 A 
ATOM     16  C17 ZIN A   1      17.667  -2.918  11.242  0.00  0.00     0.046 A 
ATOM     17  C16 ZIN A   1      17.075  -4.150  11.444  0.00  0.00     0.025 A 
ATOM     18 Cl18 ZIN A   1      16.934  -1.483  11.888  0.00  0.00    -0.083 Cl
ATOM     19  C15 ZIN A   1      17.658  -5.294  10.930  0.00  0.00     0.002 A 
ATOM     20  C14 ZIN A   1      18.834  -5.212  10.206  0.00  0.00     0.001 A 
ATOM     21  C13 ZIN A   1      19.433  -3.987   9.992  0.00  0.00     0.015 A 
ENDBRANCH  11  15
BRANCH  13  22
ATOM     22  O22 ZIN A   1      21.664   0.514  12.278  0.00  0.00    -0.367 OA
ATOM     23  H31 ZIN A   1      21.324   0.088  13.078  0.00  0.00     0.212 HD
ENDBRANCH  13  22
TORSDOF 2
ENDMDL
MODEL 2
REMARK VINA RESULT:      -7.9      3.276      5.168
REMARK  2 active torsions:
REMARK  status: ('A' for Active; 'I' for Inactive)
REMARK    1  A    between atoms: C11_11  and  C12_12 
REMARK    2  A    between atoms: C20_20  and  O22_21 
ROOT
ATOM      1  O1  ZIN A   1      19.942   0.032  14.006  0.00  0.00    -0.268 OA
ATOM      2  C2  ZIN A   1      19.708   0.890  13.181  0.00  0.00     0.272 C 
ATOM      3  N3  ZIN A   1      18.549   1.542  13.235  0.00  0.00    -0.323 N 
ATOM      4  C4  ZIN A   1      18.176   2.579  12.393  0.00  0.00     0.047 A 
ATOM      5  C5  ZIN A   1      17.500   3.658  12.965  0.00  0.00     0.032 A 
ATOM      6  C6  ZIN A   1      17.097   4.724  12.192  0.00  0.00     0.026 A 
ATOM      7  C7  ZIN A   1      17.358   4.734  10.831  0.00  0.00     0.035 A 
ATOM      8 Cl8  ZIN A   1      16.847   6.079   9.860  0.00  0.00    -0.084 Cl
ATOM      9  C9  ZIN A   1      18.025   3.679  10.251  0.00  0.00     0.040 A 
ATOM     10  C10 ZIN A   1      18.443   2.587  11.026  0.00  0.00     0.022 A 
ATOM     11  C11 ZIN A   1      19.155   1.496  10.340  0.00  0.00     0.079 C 
ATOM     12  N19 ZIN A   1      20.173   0.871  10.813  0.00  0.00    -0.247 NA
ATOM     13  C20 ZIN A   1      20.738   1.194  12.127  0.00  0.00     0.335 C 
ATOM     14  H23 ZIN A   1      17.915   1.270  13.917  0.00  0.00     0.169 HD
ENDROOT
BRANCH  11  15
ATOM     15  C12 ZIN A   1      18.660   1.089   9.004  0.00  0.00     0.015 A 
ATOM     16  C17 ZIN A   1      17.572   0.219   8.895  0.00  0.00     0.046 A 
ATOM     17  C16 ZIN A   1      17.114  -0.152   7.646  0.00  0.00     0.025 A 
ATOM     18 Cl18 ZIN A   1      16.791  -0.382  10.324  0.00  0.00    -0.083 Cl
ATOM     19  C15 ZIN A   1      17.735   0.328   6.507  0.00  0.00     0.002 A 
ATOM     20  C14 ZIN A   1      18.816   1.185   6.610  0.00  0.00     0.001 A 
ATOM     21  C13 ZIN A   1      19.281   1.568   7.852  0.00  0.00     0.015 A 
ENDBRANCH  11  15
BRANCH  13  22
ATOM     22  O22 ZIN A   1      21.905   0.403  12.355  0.00  0.00    -0.367 OA
ATOM     23  H31 ZIN A   1      21.955  -0.392  11.807  0.00  0.00     0.212 HD
ENDBRANCH  13  22
TORSDOF 2
ENDMDL
MODEL 3
REMARK VINA RESULT:      -7.9      3.543      5.910
REMARK  2 active torsions:
REMARK  status: ('A' for Active; 'I' for Inactive)
REMARK    1  A    between atoms: C11_11  and  C12_12 
REMARK    2  A    between atoms: C20_20  and  O22_21 
ROOT
ATOM      1  O1  ZIN A   1      19.215   4.737  11.987  0.00  0.00    -0.268 OA
ATOM      2  C2  ZIN A   1      18.717   3.792  12.562  0.00  0.00     0.272 C 
ATOM      3  N3  ZIN A   1      19.302   3.322  13.662  0.00  0.00    -0.323 N 
ATOM      4  C4  ZIN A   1      18.811   2.287  14.446  0.00  0.00     0.047 A 
ATOM      5  C5  ZIN A   1      18.917   2.428  15.831  0.00  0.00     0.032 A 
ATOM      6  C6  ZIN A   1      18.454   1.442  16.674  0.00  0.00     0.026 A 
ATOM      7  C7  ZIN A   1      17.878   0.294  16.152  0.00  0.00     0.035 A 
ATOM      8 Cl8  ZIN A   1      17.297  -0.947  17.217  0.00  0.00    -0.084 Cl
ATOM      9  C9  ZIN A   1      17.765   0.141  14.788  0.00  0.00     0.040 A 
ATOM     10  C10 ZIN A   1      18.231   1.137  13.917  0.00  0.00     0.022 A 
ATOM     11  C11 ZIN A   1      18.074   0.907  12.472  0.00  0.00     0.079 C 
ATOM     12  N19 ZIN A   1      17.728   1.804  11.619  0.00  0.00    -0.247 NA
ATOM     13  C20 ZIN A   1      17.452   3.188  12.019  0.00  0.00     0.335 C 
ATOM     14  H23 ZIN A   1      20.136   3.734  13.936  0.00  0.00     0.169 HD
ENDROOT
BRANCH  11  15
ATOM     15  C12 ZIN A   1      18.334  -0.459  11.963  0.00  0.00     0.015 A 
ATOM     16  C17 ZIN A   1      19.640  -0.864  11.677  0.00  0.00     0.046 A 
ATOM     17  C16 ZIN A   1      19.875  -2.142  11.207  0.00  0.00     0.025 A 
ATOM     18 Cl18 ZIN A   1      20.964   0.231  11.923  0.00  0.00    -0.083 Cl
ATOM     19  C15 ZIN A   1      18.819  -3.015  11.011  0.00  0.00     0.002 A 
ATOM     20  C14 ZIN A   1      17.524  -2.616  11.288  0.00  0.00     0.001 A 
ATOM     21  C13 ZIN A   1      17.275  -1.345  11.763  0.00  0.00     0.015 A 
ENDBRANCH  11  15
BRANCH  13  22
ATOM     22  O22 ZIN A   1      17.011   3.936  10.884  0.00  0.00    -0.367 OA
ATOM     23  H31 ZIN A   1      17.190   4.884  10.945  0.00  0.00     0.212 HD
ENDBRANCH  13  22
TORSDOF 2
ENDMDL
MODEL 4
REMARK VINA RESULT:      -7.8      3.471      4.572
REMARK  2 active torsions:
REMARK  status: ('A' for Active; 'I' for Inactive)
REMARK    1  A    between atoms: C11_11  and  C12_12 
REMARK    2  A    between atoms: C20_20  and  O22_21 
ROOT
ATOM      1  O1  ZIN A   1      19.365  -3.727   7.785  0.00  0.00    -0.268 OA
ATOM      2  C2  ZIN A   1      18.916  -2.722   8.294  0.00  0.00     0.272 C 
ATOM      3  N3  ZIN A   1      19.628  -1.598   8.245  0.00  0.00    -0.323 N 
ATOM      4  C4  ZIN A   1      19.212  -0.368   8.736  0.00  0.00     0.047 A 
ATOM      5  C5  ZIN A   1      19.510   0.760   7.971  0.00  0.00     0.032 A 
ATOM      6  C6  ZIN A   1      19.131   2.015   8.393  0.00  0.00     0.026 A 
ATOM      7  C7  ZIN A   1      18.449   2.169   9.590  0.00  0.00     0.035 A 
ATOM      8 Cl8  ZIN A   1      17.974   3.752  10.120  0.00  0.00    -0.084 Cl
ATOM      9  C9  ZIN A   1      18.146   1.066  10.356  0.00  0.00     0.040 A 
ATOM     10  C10 ZIN A   1      18.524  -0.218   9.938  0.00  0.00     0.022 A 
ATOM     11  C11 ZIN A   1      18.163  -1.352  10.804  0.00  0.00     0.079 C 
ATOM     12  N19 ZIN A   1      17.737  -2.490  10.387  0.00  0.00    -0.247 NA
ATOM     13  C20 ZIN A   1      17.567  -2.776   8.958  0.00  0.00     0.335 C 
ATOM     14  H23 ZIN A   1      20.505  -1.643   7.835  0.00  0.00     0.169 HD
ENDROOT
BRANCH  11  15
ATOM     15  C12 ZIN A   1      18.302  -1.166  12.268  0.00  0.00     0.015 A 
ATOM     16  C17 ZIN A   1      19.261  -1.892  12.978  0.00  0.00     0.046 A 
ATOM     17  C16 ZIN A   1      19.388  -1.711  14.342  0.00  0.00     0.025 A 
ATOM     18 Cl18 ZIN A   1      20.299  -3.009  12.148  0.00  0.00    -0.083 Cl
ATOM     19  C15 ZIN A   1      18.562  -0.820  15.003  0.00  0.00     0.002 A 
ATOM     20  C14 ZIN A   1      17.607  -0.104  14.305  0.00  0.00     0.001 A 
ATOM     21  C13 ZIN A   1      17.473  -0.271  12.942  0.00  0.00     0.015 A 
ENDBRANCH  11  15
BRANCH  13  22
ATOM     22  O22 ZIN A   1      17.004  -4.078   8.794  0.00  0.00    -0.367 OA
ATOM     23  H31 ZIN A   1      16.430  -4.354   9.523  0.00  0.00     0.212 HD
ENDBRANCH  13  22
TORSDOF 2
ENDMDL
MODEL 5
REMARK VINA RESULT:      -7.7      3.803      5.286
REMARK  2 active torsions:
REMARK  status: ('A' for Active; 'I' for Inactive)
REMARK    1  A    between atoms: C11_11  and  C12_12 
REMARK    2  A    between atoms: C20_20  and  O22_21 
ROOT
ATOM      1  O1  ZIN A   1      19.253   0.158   7.260  0.00  0.00    -0.268 OA
ATOM      2  C2  ZIN A   1      18.670   0.686   8.183  0.00  0.00     0.272 C 
ATOM      3  N3  ZIN A   1      19.072   1.884   8.603  0.00  0.00    -0.323 N 
ATOM      4  C4  ZIN A   1      18.463   2.623   9.607  0.00  0.00     0.047 A 
ATOM      5  C5  ZIN A   1      18.347   4.000   9.408  0.00  0.00     0.032 A 
ATOM      6  C6  ZIN A   1      17.756   4.800  10.361  0.00  0.00     0.026 A 
ATOM      7  C7  ZIN A   1      17.271   4.242  11.533  0.00  0.00     0.035 A 
ATOM      8 Cl8  ZIN A   1      16.529   5.253  12.733  0.00  0.00    -0.084 Cl
ATOM      9  C9  ZIN A   1      17.377   2.885  11.745  0.00  0.00     0.040 A 
ATOM     10  C10 ZIN A   1      17.975   2.058  10.783  0.00  0.00     0.022 A 
ATOM     11  C11 ZIN A   1      18.051   0.617  11.074  0.00  0.00     0.079 C 
ATOM     12  N19 ZIN A   1      17.845  -0.318  10.217  0.00  0.00    -0.247 NA
ATOM     13  C20 ZIN A   1      17.507  -0.026   8.820  0.00  0.00     0.335 C 
ATOM     14  H23 ZIN A   1      19.851   2.269   8.173  0.00  0.00     0.169 HD
ENDROOT
BRANCH  11  15
ATOM     15  C12 ZIN A   1      18.389   0.215  12.459  0.00  0.00     0.015 A 
ATOM     16  C17 ZIN A   1      19.723   0.180  12.873  0.00  0.00     0.046 A 
ATOM     17  C16 ZIN A   1      20.031  -0.192  14.167  0.00  0.00     0.025 A 
ATOM     18 Cl18 ZIN A   1      20.989   0.614  11.767  0.00  0.00    -0.083 Cl
ATOM     19  C15 ZIN A   1      19.022  -0.538  15.048  0.00  0.00     0.002 A 
ATOM     20  C14 ZIN A   1      17.701  -0.509  14.642  0.00  0.00     0.001 A 
ATOM     21  C13 ZIN A   1      17.378  -0.135  13.353  0.00  0.00     0.015 A 
ENDBRANCH  11  15
BRANCH  13  22
ATOM     22  O22 ZIN A   1      17.253  -1.247   8.123  0.00  0.00    -0.367 OA
ATOM     23  H31 ZIN A   1      17.785  -1.362   7.324  0.00  0.00     0.212 HD
ENDBRANCH  13  22
TORSDOF 2
ENDMDL
MODEL 6
REMARK VINA RESULT:      -7.6      3.880      4.974
REMARK  2 active torsions:
REMARK  status: ('A' for Active; 'I' for Inactive)
REMARK    1  A    between atoms: C11_11  and  C12_12 
REMARK    2  A    between atoms: C20_20  and  O22_21 
ROOT
ATOM      1  O1  ZIN A   1      18.560  -6.845   8.253  0.00  0.00    -0.268 OA
ATOM      2  C2  ZIN A   1      18.311  -5.658   8.242  0.00  0.00     0.272 C 
ATOM      3  N3  ZIN A   1      19.208  -4.813   7.738  0.00  0.00    -0.323 N 
ATOM      4  C4  ZIN A   1      19.030  -3.443   7.612  0.00  0.00     0.047 A 
ATOM      5  C5  ZIN A   1      19.499  -2.840   6.443  0.00  0.00     0.032 A 
ATOM      6  C6  ZIN A   1      19.360  -1.484   6.248  0.00  0.00     0.026 A 
ATOM      7  C7  ZIN A   1      18.753  -0.701   7.217  0.00  0.00     0.035 A 
ATOM      8 Cl8  ZIN A   1      18.581   1.008   6.968  0.00  0.00    -0.084 Cl
ATOM      9  C9  ZIN A   1      18.283  -1.279   8.375  0.00  0.00     0.040 A 
ATOM     10  C10 ZIN A   1      18.417  -2.659   8.587  0.00  0.00     0.022 A 
ATOM     11  C11 ZIN A   1      17.889  -3.210   9.846  0.00  0.00     0.079 C 
ATOM     12  N19 ZIN A   1      17.256  -4.323   9.953  0.00  0.00    -0.247 NA
ATOM     13  C20 ZIN A   1      16.995  -5.180   8.791  0.00  0.00     0.335 C 
ATOM     14  H23 ZIN A   1      20.051  -5.185   7.435  0.00  0.00     0.169 HD
ENDROOT
BRANCH  11  15
ATOM     15  C12 ZIN A   1      18.103  -2.421  11.081  0.00  0.00     0.015 A 
ATOM     16  C17 ZIN A   1      19.205  -2.684  11.898  0.00  0.00     0.046 A 
ATOM     17  C16 ZIN A   1      19.401  -1.942  13.047  0.00  0.00     0.025 A 
ATOM     18 Cl18 ZIN A   1      20.332  -3.932  11.465  0.00  0.00    -0.083 Cl
ATOM     19  C15 ZIN A   1      18.503  -0.948  13.392  0.00  0.00     0.002 A 
ATOM     20  C14 ZIN A   1      17.408  -0.687  12.589  0.00  0.00     0.001 A 
ATOM     21  C13 ZIN A   1      17.203  -1.418  11.436  0.00  0.00     0.015 A 
ENDBRANCH  11  15
BRANCH  13  22
ATOM     22  O22 ZIN A   1      16.206  -6.302   9.191  0.00  0.00    -0.367 OA
ATOM     23  H31 ZIN A   1      16.201  -6.460  10.145  0.00  0.00     0.212 HD
ENDBRANCH  13  22
TORSDOF 2
ENDMDL
MODEL 7
REMARK VINA RESULT:      -7.6      3.006      5.019
REMARK  2 active torsions:
REMARK  status: ('A' for Active; 'I' for Inactive)
REMARK    1  A    between atoms: C11_11  and  C12_12 
REMARK    2  A    between atoms: C20_20  and  O22_21 
ROOT
ATOM      1  O1  ZIN A   1      19.831  -1.523  12.737  0.00  0.00    -0.268 OA
ATOM      2  C2  ZIN A   1      19.689  -0.498  12.104  0.00  0.00     0.272 C 
ATOM      3  N3  ZIN A   1      18.606   0.247  12.313  0.00  0.00    -0.323 N 
ATOM      4  C4  ZIN A   1      18.346   1.465  11.701  0.00  0.00     0.047 A 
ATOM      5  C5  ZIN A   1      17.790   2.473  12.490  0.00  0.00     0.032 A 
ATOM      6  C6  ZIN A   1      17.503   3.708  11.953  0.00  0.00     0.026 A 
ATOM      7  C7  ZIN A   1      17.762   3.962  10.616  0.00  0.00     0.035 A 
ATOM      8 Cl8  ZIN A   1      17.398   5.519   9.942  0.00  0.00    -0.084 Cl
ATOM      9  C9  ZIN A   1      18.313   2.980   9.823  0.00  0.00     0.040 A 
ATOM     10  C10 ZIN A   1      18.612   1.717  10.357  0.00  0.00     0.022 A 
ATOM     11  C11 ZIN A   1      19.201   0.717   9.453  0.00  0.00     0.079 C 
ATOM     12  N19 ZIN A   1      20.147  -0.094   9.770  0.00  0.00    -0.247 NA
ATOM     13  C20 ZIN A   1      20.745  -0.100  11.109  0.00  0.00     0.335 C 
ATOM     14  H23 ZIN A   1      17.948  -0.087  12.941  0.00  0.00     0.169 HD
ENDROOT
BRANCH  11  15
ATOM     15  C12 ZIN A   1      18.665   0.639   8.074  0.00  0.00     0.015 A 
ATOM     16  C17 ZIN A   1      17.493  -0.078   7.818  0.00  0.00     0.046 A 
ATOM     17  C16 ZIN A   1      16.996  -0.142   6.530  0.00  0.00     0.025 A 
ATOM     18 Cl18 ZIN A   1      16.657  -0.873   9.115  0.00  0.00    -0.083 Cl
ATOM     19  C15 ZIN A   1      17.662   0.492   5.496  0.00  0.00     0.002 A 
ATOM     20  C14 ZIN A   1      18.825   1.197   5.745  0.00  0.00     0.001 A 
ATOM     21  C13 ZIN A   1      19.330   1.275   7.027  0.00  0.00     0.015 A 
ENDBRANCH  11  15
BRANCH  13  22
ATOM     22  O22 ZIN A   1      21.821  -1.038  11.149  0.00  0.00    -0.367 OA
ATOM     23  H31 ZIN A   1      21.645  -1.815  11.697  0.00  0.00     0.212 HD
ENDBRANCH  13  22
TORSDOF 2
ENDMDL
MODEL 8
REMARK VINA RESULT:      -7.5      3.788      7.157
REMARK  2 active torsions:
REMARK  status: ('A' for Active; 'I' for Inactive)
REMARK    1  A    between atoms: C11_11  and  C12_12 
REMARK    2  A    between atoms: C20_20  and  O22_21 
ROOT
ATOM      1  O1  ZIN A   1      19.638  -2.239  11.001  0.00  0.00    -0.268 OA
ATOM      2  C2  ZIN A   1      19.714  -1.432  11.902  0.00  0.00     0.272 C 
ATOM      3  N3  ZIN A   1      18.867  -1.521  12.925  0.00  0.00    -0.323 N 
ATOM      4  C4  ZIN A   1      18.878  -0.702  14.045  0.00  0.00     0.047 A 
ATOM      5  C5  ZIN A   1      18.643  -1.304  15.282  0.00  0.00     0.032 A 
ATOM      6  C6  ZIN A   1      18.637  -0.556  16.438  0.00  0.00     0.026 A 
ATOM      7  C7  ZIN A   1      18.864   0.811  16.382  0.00  0.00     0.035 A 
ATOM      8 Cl8  ZIN A   1      18.854   1.752  17.841  0.00  0.00    -0.084 Cl
ATOM      9  C9  ZIN A   1      19.099   1.421  15.170  0.00  0.00     0.040 A 
ATOM     10  C10 ZIN A   1      19.109   0.671  13.985  0.00  0.00     0.022 A 
ATOM     11  C11 ZIN A   1      19.371   1.387  12.727  0.00  0.00     0.079 C 
ATOM     12  N19 ZIN A   1      20.104   0.945  11.768  0.00  0.00    -0.247 NA
ATOM     13  C20 ZIN A   1      20.768  -0.360  11.839  0.00  0.00     0.335 C 
ATOM     14  H23 ZIN A   1      18.188  -2.213  12.884  0.00  0.00     0.169 HD
ENDROOT
BRANCH  11  15
ATOM     15  C12 ZIN A   1      18.742   2.717  12.552  0.00  0.00     0.015 A 
ATOM     16  C17 ZIN A   1      17.778   2.912  11.561  0.00  0.00     0.046 A 
ATOM     17  C16 ZIN A   1      17.192   4.154  11.407  0.00  0.00     0.025 A 
ATOM     18 Cl18 ZIN A   1      17.307   1.595  10.533  0.00  0.00    -0.083 Cl
ATOM     19  C15 ZIN A   1      17.567   5.204  12.226  0.00  0.00     0.002 A 
ATOM     20  C14 ZIN A   1      18.525   5.017  13.206  0.00  0.00     0.001 A 
ATOM     21  C13 ZIN A   1      19.115   3.780  13.374  0.00  0.00     0.015 A 
ENDBRANCH  11  15
BRANCH  13  22
ATOM     22  O22 ZIN A   1      21.577  -0.551  10.678  0.00  0.00    -0.367 OA
ATOM     23  H31 ZIN A   1      21.515  -1.437  10.296  0.00  0.00     0.212 HD
ENDBRANCH  13  22
TORSDOF 2
ENDMDL
MODEL 9
REMARK VINA RESULT:      -7.5      3.167      4.496
REMARK  2 active torsions:
REMARK  status: ('A' for Active; 'I' for Inactive)
REMARK    1  A    between atoms: C11_11  and  C12_12 
REMARK    2  A    between atoms: C20_20  and  O22_21 
ROOT
ATOM      1  O1  ZIN A   1      19.093   0.461   5.493  0.00  0.00    -0.268 OA
ATOM      2  C2  ZIN A   1      18.627   0.612   6.603  0.00  0.00     0.272 C 
ATOM      3  N3  ZIN A   1      19.232   1.439   7.452  0.00  0.00    -0.323 N 
ATOM      4  C4  ZIN A   1      18.777   1.746   8.727  0.00  0.00     0.047 A 
ATOM      5  C5  ZIN A   1      18.887   3.073   9.144  0.00  0.00     0.032 A 
ATOM      6  C6  ZIN A   1      18.459   3.454  10.396  0.00  0.00     0.026 A 
ATOM      7  C7  ZIN A   1      17.914   2.516  11.260  0.00  0.00     0.035 A 
ATOM      8 Cl8  ZIN A   1      17.377   2.999  12.838  0.00  0.00    -0.084 Cl
ATOM      9  C9  ZIN A   1      17.798   1.202  10.864  0.00  0.00     0.040 A 
ATOM     10  C10 ZIN A   1      18.228   0.801   9.591  0.00  0.00     0.022 A 
ATOM     11  C11 ZIN A   1      18.070  -0.618   9.233  0.00  0.00     0.079 C 
ATOM     12  N19 ZIN A   1      17.692  -1.049   8.083  0.00  0.00    -0.247 NA
ATOM     13  C20 ZIN A   1      17.377  -0.135   6.980  0.00  0.00     0.335 C 
ATOM     14  H23 ZIN A   1      20.055   1.859   7.158  0.00  0.00     0.169 HD
ENDROOT
BRANCH  11  15
ATOM     15  C12 ZIN A   1      18.367  -1.625  10.278  0.00  0.00     0.015 A 
ATOM     16  C17 ZIN A   1      19.638  -1.681  10.856  0.00  0.00     0.046 A 
ATOM     17  C16 ZIN A   1      19.907  -2.620  11.834  0.00  0.00     0.025 A 
ATOM     18 Cl18 ZIN A   1      20.871  -0.565  10.358  0.00  0.00    -0.083 Cl
ATOM     19  C15 ZIN A   1      18.924  -3.509  12.231  0.00  0.00     0.002 A 
ATOM     20  C14 ZIN A   1      17.667  -3.461  11.658  0.00  0.00     0.001 A 
ATOM     21  C13 ZIN A   1      17.382  -2.524  10.684  0.00  0.00     0.015 A 
ENDBRANCH  11  15
BRANCH  13  22
ATOM     22  O22 ZIN A   1      16.908  -0.883   5.857  0.00  0.00    -0.367 OA
ATOM     23  H31 ZIN A   1      15.952  -0.830   5.721  0.00  0.00     0.212 HD
ENDBRANCH  13  22
TORSDOF 2
ENDMDL
