MODEL 1
REMARK VINA RESULT:      -6.8      0.000      0.000
REMARK  4 active torsions:
REMARK  status: ('A' for Active; 'I' for Inactive)
REMARK    1  A    between atoms: N2_2  and  C5_5 
REMARK    2  A    between atoms: C5_5  and  C6_6 
REMARK    3  A    between atoms: C6_6  and  C7_7 
REMARK    4  A    between atoms: C7_7  and  N8_8 
ROOT
ATOM      1  N8  <0> d   1      17.667  -0.664  10.660  0.00  0.00    -0.346 N 
ATOM      2  C9  <0> d   1      18.286  -1.866  11.022  0.00  0.00     0.041 A 
ATOM      3  C10 <0> d   1      17.468  -2.939  11.360  0.00  0.00     0.030 A 
ATOM      4  C11 <0> d   1      18.014  -4.160  11.694  0.00  0.00     0.002 A 
ATOM      5  C12 <0> d   1      19.389  -4.308  11.685  0.00  0.00     0.001 A 
ATOM      6  C13 <0> d   1      20.200  -3.243  11.363  0.00  0.00     0.009 A 
ATOM      7  C14 <0> d   1      19.667  -1.994  11.040  0.00  0.00    -0.031 A 
ATOM      8  C15 <0> d   1      20.695  -0.913  10.791  0.00  0.00     0.045 C 
ATOM      9  C16 <0> d   1      20.077   0.446  10.514  0.00  0.00     0.045 C 
ATOM     10  C17 <0> d   1      19.226   0.416   9.270  0.00  0.00    -0.031 A 
ATOM     11  C18 <0> d   1      19.661   0.900   8.058  0.00  0.00     0.009 A 
ATOM     12  C19 <0> d   1      18.797   0.856   6.974  0.00  0.00     0.001 A 
ATOM     13  C20 <0> d   1      17.522   0.337   7.112  0.00  0.00     0.002 A 
ATOM     14  C21 <0> d   1      17.096  -0.156   8.335  0.00  0.00     0.030 A 
ATOM     15  C22 <0> d   1      17.967  -0.124   9.404  0.00  0.00     0.041 A 
ENDROOT
BRANCH   1  16
ATOM     16  C7  <0> d   1      16.728   0.004  11.566  0.00  0.00     0.131 C 
BRANCH  16  17
ATOM     17  C6  <0> d   1      17.399   0.227  12.922  0.00  0.00     0.048 C 
BRANCH  17  18
ATOM     18  C5  <0> d   1      17.935   1.658  12.998  0.00  0.00     0.235 C 
BRANCH  18  19
ATOM     19  N2  <0> d   1      19.142   1.685  13.835  0.00  0.00    -0.079 N 
ATOM     20  C1  <0> d   1      18.868   2.442  15.064  0.00  0.00     0.269 C 
ATOM     21  H3  <0> d   1      19.893   2.129  13.327  0.00  0.00     0.278 HD
ATOM     22  C4  <0> d   1      19.530   0.312  14.180  0.00  0.00     0.269 C 
ENDBRANCH  18  19
ENDBRANCH  17  18
ENDBRANCH  16  17
ENDBRANCH   1  16
TORSDOF 4
ENDMDL
MODEL 2
REMARK VINA RESULT:      -6.7      2.169      4.658
REMARK  4 active torsions:
REMARK  status: ('A' for Active; 'I' for Inactive)
REMARK    1  A    between atoms: N2_2  and  C5_5 
REMARK    2  A    between atoms: C5_5  and  C6_6 
REMARK    3  A    between atoms: C6_6  and  C7_7 
REMARK    4  A    between atoms: C7_7  and  N8_8 
ROOT
ATOM      1  N8  <0> d   1      18.527   1.926  10.711  0.00  0.00    -0.346 N 
ATOM      2  C9  <0> d   1      18.403   1.360   9.437  0.00  0.00     0.041 A 
ATOM      3  C10 <0> d   1      19.152   1.917   8.406  0.00  0.00     0.030 A 
ATOM      4  C11 <0> d   1      19.101   1.385   7.135  0.00  0.00     0.002 A 
ATOM      5  C12 <0> d   1      18.297   0.285   6.897  0.00  0.00     0.001 A 
ATOM      6  C13 <0> d   1      17.545  -0.259   7.913  0.00  0.00     0.009 A 
ATOM      7  C14 <0> d   1      17.569   0.277   9.203  0.00  0.00    -0.031 A 
ATOM      8  C15 <0> d   1      16.626  -0.388  10.181  0.00  0.00     0.045 C 
ATOM      9  C16 <0> d   1      16.628   0.267  11.550  0.00  0.00     0.045 C 
ATOM     10  C17 <0> d   1      17.988   0.183  12.194  0.00  0.00    -0.031 A 
ATOM     11  C18 <0> d   1      18.296  -0.742  13.165  0.00  0.00     0.009 A 
ATOM     12  C19 <0> d   1      19.567  -0.725  13.721  0.00  0.00     0.001 A 
ATOM     13  C20 <0> d   1      20.503   0.205  13.307  0.00  0.00     0.002 A 
ATOM     14  C21 <0> d   1      20.186   1.127  12.323  0.00  0.00     0.030 A 
ATOM     15  C22 <0> d   1      18.925   1.094  11.763  0.00  0.00     0.041 A 
ENDROOT
BRANCH   1  16
ATOM     16  C7  <0> d   1      18.253   3.348  10.934  0.00  0.00     0.131 C 
BRANCH  16  17
ATOM     17  C6  <0> d   1      17.784   3.558  12.375  0.00  0.00     0.048 C 
BRANCH  17  18
ATOM     18  C5  <0> d   1      18.605   4.675  13.022  0.00  0.00     0.235 C 
BRANCH  18  19
ATOM     19  N2  <0> d   1      19.356   4.133  14.162  0.00  0.00    -0.079 N 
ATOM     20  C1  <0> d   1      19.743   5.230  15.059  0.00  0.00     0.269 C 
ATOM     21  H3  <0> d   1      20.185   3.664  13.827  0.00  0.00     0.278 HD
ATOM     22  C4  <0> d   1      18.515   3.176  14.892  0.00  0.00     0.269 C 
ENDBRANCH  18  19
ENDBRANCH  17  18
ENDBRANCH  16  17
ENDBRANCH   1  16
TORSDOF 4
ENDMDL
MODEL 3
REMARK VINA RESULT:      -6.6      2.056      5.797
REMARK  4 active torsions:
REMARK  status: ('A' for Active; 'I' for Inactive)
REMARK    1  A    between atoms: N2_2  and  C5_5 
REMARK    2  A    between atoms: C5_5  and  C6_6 
REMARK    3  A    between atoms: C6_6  and  C7_7 
REMARK    4  A    between atoms: C7_7  and  N8_8 
ROOT
ATOM      1  N8  <0> d   1      17.649   0.664  12.508  0.00  0.00    -0.346 N 
ATOM      2  C9  <0> d   1      18.329   1.849  12.207  0.00  0.00     0.041 A 
ATOM      3  C10 <0> d   1      17.571   3.001  12.027  0.00  0.00     0.030 A 
ATOM      4  C11 <0> d   1      18.182   4.209  11.761  0.00  0.00     0.002 A 
ATOM      5  C12 <0> d   1      19.562   4.263  11.679  0.00  0.00     0.001 A 
ATOM      6  C13 <0> d   1      20.312   3.120  11.844  0.00  0.00     0.009 A 
ATOM      7  C14 <0> d   1      19.711   1.885  12.095  0.00  0.00    -0.031 A 
ATOM      8  C15 <0> d   1      20.672   0.719  12.171  0.00  0.00     0.045 C 
ATOM      9  C16 <0> d   1      19.975  -0.615  12.374  0.00  0.00     0.045 C 
ATOM     10  C17 <0> d   1      19.217  -0.643  13.676  0.00  0.00    -0.031 A 
ATOM     11  C18 <0> d   1      19.699  -1.265  14.805  0.00  0.00     0.009 A 
ATOM     12  C19 <0> d   1      18.917  -1.264  15.951  0.00  0.00     0.001 A 
ATOM     13  C20 <0> d   1      17.677  -0.650  15.955  0.00  0.00     0.002 A 
ATOM     14  C21 <0> d   1      17.205  -0.018  14.816  0.00  0.00     0.030 A 
ATOM     15  C22 <0> d   1      17.996  -0.010  13.685  0.00  0.00     0.041 A 
ENDROOT
BRANCH   1  16
ATOM     16  C7  <0> d   1      16.604   0.147  11.621  0.00  0.00     0.131 C 
BRANCH  16  17
ATOM     17  C6  <0> d   1      17.241  -0.704  10.522  0.00  0.00     0.048 C 
BRANCH  17  18
ATOM     18  C5  <0> d   1      17.436   0.147   9.265  0.00  0.00     0.235 C 
BRANCH  18  19
ATOM     19  N2  <0> d   1      18.870   0.250   8.961  0.00  0.00    -0.079 N 
ATOM     20  C1  <0> d   1      19.228  -0.749   7.945  0.00  0.00     0.269 C 
ATOM     21  H3  <0> d   1      19.404   0.082   9.801  0.00  0.00     0.278 HD
ATOM     22  C4  <0> d   1      19.168   1.595   8.454  0.00  0.00     0.269 C 
ENDBRANCH  18  19
ENDBRANCH  17  18
ENDBRANCH  16  17
ENDBRANCH   1  16
TORSDOF 4
ENDMDL
MODEL 4
REMARK VINA RESULT:      -6.4      2.030      4.599
REMARK  4 active torsions:
REMARK  status: ('A' for Active; 'I' for Inactive)
REMARK    1  A    between atoms: N2_2  and  C5_5 
REMARK    2  A    between atoms: C5_5  and  C6_6 
REMARK    3  A    between atoms: C6_6  and  C7_7 
REMARK    4  A    between atoms: C7_7  and  N8_8 
ROOT
ATOM      1  N8  <0> d   1      19.214  -0.307  12.738  0.00  0.00    -0.346 N 
ATOM      2  C9  <0> d   1      19.056   0.819  11.921  0.00  0.00     0.041 A 
ATOM      3  C10 <0> d   1      20.099   1.738  11.877  0.00  0.00     0.030 A 
ATOM      4  C11 <0> d   1      20.020   2.851  11.067  0.00  0.00     0.002 A 
ATOM      5  C12 <0> d   1      18.890   3.042  10.293  0.00  0.00     0.001 A 
ATOM      6  C13 <0> d   1      17.851   2.140  10.346  0.00  0.00     0.009 A 
ATOM      7  C14 <0> d   1      17.905   1.016  11.173  0.00  0.00    -0.031 A 
ATOM      8  C15 <0> d   1      16.650   0.171  11.173  0.00  0.00     0.045 C 
ATOM      9  C16 <0> d   1      16.720  -0.999  12.138  0.00  0.00     0.045 C 
ATOM     10  C17 <0> d   1      17.833  -1.946  11.769  0.00  0.00    -0.031 A 
ATOM     11  C18 <0> d   1      17.615  -3.128  11.101  0.00  0.00     0.009 A 
ATOM     12  C19 <0> d   1      18.700  -3.950  10.830  0.00  0.00     0.001 A 
ATOM     13  C20 <0> d   1      19.974  -3.585  11.227  0.00  0.00     0.002 A 
ATOM     14  C21 <0> d   1      20.185  -2.388  11.892  0.00  0.00     0.030 A 
ATOM     15  C22 <0> d   1      19.103  -1.569  12.143  0.00  0.00     0.041 A 
ENDROOT
BRANCH   1  16
ATOM     16  C7  <0> d   1      19.494  -0.167  14.169  0.00  0.00     0.131 C 
BRANCH  16  17
ATOM     17  C6  <0> d   1      18.381   0.649  14.830  0.00  0.00     0.048 C 
BRANCH  17  18
ATOM     18  C5  <0> d   1      18.998   1.798  15.631  0.00  0.00     0.235 C 
BRANCH  18  19
ATOM     19  N2  <0> d   1      18.067   2.934  15.654  0.00  0.00    -0.079 N 
ATOM     20  C1  <0> d   1      18.585   3.973  16.554  0.00  0.00     0.269 C 
ATOM     21  H3  <0> d   1      17.165   2.623  15.984  0.00  0.00     0.278 HD
ATOM     22  C4  <0> d   1      17.929   3.482  14.299  0.00  0.00     0.269 C 
ENDBRANCH  18  19
ENDBRANCH  17  18
ENDBRANCH  16  17
ENDBRANCH   1  16
TORSDOF 4
ENDMDL
MODEL 5
REMARK VINA RESULT:      -6.4      2.451      3.406
REMARK  4 active torsions:
REMARK  status: ('A' for Active; 'I' for Inactive)
REMARK    1  A    between atoms: N2_2  and  C5_5 
REMARK    2  A    between atoms: C5_5  and  C6_6 
REMARK    3  A    between atoms: C6_6  and  C7_7 
REMARK    4  A    between atoms: C7_7  and  N8_8 
ROOT
ATOM      1  N8  <0> d   1      18.632  -2.231   9.242  0.00  0.00    -0.346 N 
ATOM      2  C9  <0> d   1      18.103  -3.499   9.509  0.00  0.00     0.041 A 
ATOM      3  C10 <0> d   1      17.369  -3.658  10.680  0.00  0.00     0.030 A 
ATOM      4  C11 <0> d   1      16.793  -4.873  10.987  0.00  0.00     0.002 A 
ATOM      5  C12 <0> d   1      16.949  -5.933  10.112  0.00  0.00     0.001 A 
ATOM      6  C13 <0> d   1      17.686  -5.779   8.960  0.00  0.00     0.009 A 
ATOM      7  C14 <0> d   1      18.293  -4.563   8.641  0.00  0.00    -0.031 A 
ATOM      8  C15 <0> d   1      19.132  -4.586   7.382  0.00  0.00     0.045 C 
ATOM      9  C16 <0> d   1      19.832  -3.267   7.108  0.00  0.00     0.045 C 
ATOM     10  C17 <0> d   1      18.838  -2.153   6.900  0.00  0.00    -0.031 A 
ATOM     11  C18 <0> d   1      18.497  -1.682   5.653  0.00  0.00     0.009 A 
ATOM     12  C19 <0> d   1      17.594  -0.633   5.561  0.00  0.00     0.001 A 
ATOM     13  C20 <0> d   1      17.049  -0.074   6.703  0.00  0.00     0.002 A 
ATOM     14  C21 <0> d   1      17.392  -0.560   7.954  0.00  0.00     0.030 A 
ATOM     15  C22 <0> d   1      18.279  -1.614   8.036  0.00  0.00     0.041 A 
ENDROOT
BRANCH   1  16
ATOM     16  C7  <0> d   1      19.525  -1.569  10.197  0.00  0.00     0.131 C 
BRANCH  16  17
ATOM     17  C6  <0> d   1      19.828  -0.150   9.713  0.00  0.00     0.048 C 
BRANCH  17  18
ATOM     18  C5  <0> d   1      19.666   0.832  10.875  0.00  0.00     0.235 C 
BRANCH  18  19
ATOM     19  N2  <0> d   1      19.880   2.203  10.392  0.00  0.00    -0.079 N 
ATOM     20  C1  <0> d   1      18.807   2.565   9.457  0.00  0.00     0.269 C 
ATOM     21  H3  <0> d   1      20.771   2.257   9.919  0.00  0.00     0.278 HD
ATOM     22  C4  <0> d   1      19.873   3.130  11.530  0.00  0.00     0.269 C 
ENDBRANCH  18  19
ENDBRANCH  17  18
ENDBRANCH  16  17
ENDBRANCH   1  16
TORSDOF 4
ENDMDL
MODEL 6
REMARK VINA RESULT:      -6.4      1.948      4.899
REMARK  4 active torsions:
REMARK  status: ('A' for Active; 'I' for Inactive)
REMARK    1  A    between atoms: N2_2  and  C5_5 
REMARK    2  A    between atoms: C5_5  and  C6_6 
REMARK    3  A    between atoms: C6_6  and  C7_7 
REMARK    4  A    between atoms: C7_7  and  N8_8 
ROOT
ATOM      1  N8  <0> d   1      18.732  -1.628  11.356  0.00  0.00    -0.346 N 
ATOM      2  C9  <0> d   1      18.664  -1.242  12.700  0.00  0.00     0.041 A 
ATOM      3  C10 <0> d   1      19.576  -1.810  13.583  0.00  0.00     0.030 A 
ATOM      4  C11 <0> d   1      19.583  -1.448  14.913  0.00  0.00     0.002 A 
ATOM      5  C12 <0> d   1      18.673  -0.507  15.361  0.00  0.00     0.001 A 
ATOM      6  C13 <0> d   1      17.762   0.046  14.490  0.00  0.00     0.009 A 
ATOM      7  C14 <0> d   1      17.726  -0.321  13.143  0.00  0.00    -0.031 A 
ATOM      8  C15 <0> d   1      16.614   0.319  12.342  0.00  0.00     0.045 C 
ATOM      9  C16 <0> d   1      16.564  -0.159  10.902  0.00  0.00     0.045 C 
ATOM     10  C17 <0> d   1      17.832   0.190  10.166  0.00  0.00    -0.031 A 
ATOM     11  C18 <0> d   1      17.923   1.259   9.305  0.00  0.00     0.009 A 
ATOM     12  C19 <0> d   1      19.124   1.486   8.649  0.00  0.00     0.001 A 
ATOM     13  C20 <0> d   1      20.207   0.651   8.859  0.00  0.00     0.002 A 
ATOM     14  C21 <0> d   1      20.109  -0.418   9.734  0.00  0.00     0.030 A 
ATOM     15  C22 <0> d   1      18.915  -0.627  10.395  0.00  0.00     0.041 A 
ENDROOT
BRANCH   1  16
ATOM     16  C7  <0> d   1      18.621  -3.037  10.969  0.00  0.00     0.131 C 
BRANCH  16  17
ATOM     17  C6  <0> d   1      17.257  -3.579  11.401  0.00  0.00     0.048 C 
BRANCH  17  18
ATOM     18  C5  <0> d   1      17.142  -5.050  10.996  0.00  0.00     0.235 C 
BRANCH  18  19
ATOM     19  N2  <0> d   1      17.158  -5.158   9.531  0.00  0.00    -0.079 N 
ATOM     20  C1  <0> d   1      18.097  -6.215   9.129  0.00  0.00     0.269 C 
ATOM     21  H3  <0> d   1      17.452  -4.278   9.133  0.00  0.00     0.278 HD
ATOM     22  C4  <0> d   1      15.812  -5.488   9.048  0.00  0.00     0.269 C 
ENDBRANCH  18  19
ENDBRANCH  17  18
ENDBRANCH  16  17
ENDBRANCH   1  16
TORSDOF 4
ENDMDL
MODEL 7
REMARK VINA RESULT:      -6.2      2.055      2.763
REMARK  4 active torsions:
REMARK  status: ('A' for Active; 'I' for Inactive)
REMARK    1  A    between atoms: N2_2  and  C5_5 
REMARK    2  A    between atoms: C5_5  and  C6_6 
REMARK    3  A    between atoms: C6_6  and  C7_7 
REMARK    4  A    between atoms: C7_7  and  N8_8 
ROOT
ATOM      1  N8  <0> d   1      18.841  -0.877  11.826  0.00  0.00    -0.346 N 
ATOM      2  C9  <0> d   1      18.368  -1.970  11.091  0.00  0.00     0.041 A 
ATOM      3  C10 <0> d   1      17.554  -2.887  11.748  0.00  0.00     0.030 A 
ATOM      4  C11 <0> d   1      17.028  -3.969  11.073  0.00  0.00     0.002 A 
ATOM      5  C12 <0> d   1      17.316  -4.129   9.729  0.00  0.00     0.001 A 
ATOM      6  C13 <0> d   1      18.133  -3.230   9.082  0.00  0.00     0.009 A 
ATOM      7  C14 <0> d   1      18.690  -2.139   9.753  0.00  0.00    -0.031 A 
ATOM      8  C15 <0> d   1      19.626  -1.294   8.916  0.00  0.00     0.045 C 
ATOM      9  C16 <0> d   1      20.266  -0.162   9.699  0.00  0.00     0.045 C 
ATOM     10  C17 <0> d   1      19.228   0.798  10.221  0.00  0.00    -0.031 A 
ATOM     11  C18 <0> d   1      18.960   2.006   9.618  0.00  0.00     0.009 A 
ATOM     12  C19 <0> d   1      18.006   2.837  10.187  0.00  0.00     0.001 A 
ATOM     13  C20 <0> d   1      17.340   2.457  11.339  0.00  0.00     0.002 A 
ATOM     14  C21 <0> d   1      17.610   1.235  11.934  0.00  0.00     0.030 A 
ATOM     15  C22 <0> d   1      18.549   0.407  11.352  0.00  0.00     0.041 A 
ENDROOT
BRANCH   1  16
ATOM     16  C7  <0> d   1      19.614  -1.072  13.055  0.00  0.00     0.131 C 
BRANCH  16  17
ATOM     17  C6  <0> d   1      18.659  -1.228  14.240  0.00  0.00     0.048 C 
BRANCH  17  18
ATOM     18  C5  <0> d   1      19.043  -0.236  15.340  0.00  0.00     0.235 C 
BRANCH  18  19
ATOM     19  N2  <0> d   1      18.660  -0.784  16.648  0.00  0.00    -0.079 N 
ATOM     20  C1  <0> d   1      19.206   0.068  17.713  0.00  0.00     0.269 C 
ATOM     21  H3  <0> d   1      19.030  -1.719  16.742  0.00  0.00     0.278 HD
ATOM     22  C4  <0> d   1      17.196  -0.825  16.754  0.00  0.00     0.269 C 
ENDBRANCH  18  19
ENDBRANCH  17  18
ENDBRANCH  16  17
ENDBRANCH   1  16
TORSDOF 4
ENDMDL
MODEL 8
REMARK VINA RESULT:      -6.2      2.218      4.996
REMARK  4 active torsions:
REMARK  status: ('A' for Active; 'I' for Inactive)
REMARK    1  A    between atoms: N2_2  and  C5_5 
REMARK    2  A    between atoms: C5_5  and  C6_6 
REMARK    3  A    between atoms: C6_6  and  C7_7 
REMARK    4  A    between atoms: C7_7  and  N8_8 
ROOT
ATOM      1  N8  <0> d   1      19.620   0.563  11.763  0.00  0.00    -0.346 N 
ATOM      2  C9  <0> d   1      19.134  -0.064  12.915  0.00  0.00     0.041 A 
ATOM      3  C10 <0> d   1      20.065  -0.557  13.824  0.00  0.00     0.030 A 
ATOM      4  C11 <0> d   1      19.653  -1.158  14.995  0.00  0.00     0.002 A 
ATOM      5  C12 <0> d   1      18.299  -1.260  15.259  0.00  0.00     0.001 A 
ATOM      6  C13 <0> d   1      17.377  -0.785  14.354  0.00  0.00     0.009 A 
ATOM      7  C14 <0> d   1      17.774  -0.191  13.155  0.00  0.00    -0.031 A 
ATOM      8  C15 <0> d   1      16.637   0.204  12.239  0.00  0.00     0.045 C 
ATOM      9  C16 <0> d   1      17.110   0.780  10.916  0.00  0.00     0.045 C 
ATOM     10  C17 <0> d   1      17.907   2.042  11.123  0.00  0.00    -0.031 A 
ATOM     11  C18 <0> d   1      17.377   3.297  10.932  0.00  0.00     0.009 A 
ATOM     12  C19 <0> d   1      18.196   4.402  11.119  0.00  0.00     0.001 A 
ATOM     13  C20 <0> d   1      19.519   4.241  11.488  0.00  0.00     0.002 A 
ATOM     14  C21 <0> d   1      20.041   2.973  11.686  0.00  0.00     0.030 A 
ATOM     15  C22 <0> d   1      19.216   1.880  11.514  0.00  0.00     0.041 A 
ENDROOT
BRANCH   1  16
ATOM     16  C7  <0> d   1      20.527  -0.135  10.848  0.00  0.00     0.131 C 
BRANCH  16  17
ATOM     17  C6  <0> d   1      19.802  -1.327  10.221  0.00  0.00     0.048 C 
BRANCH  17  18
ATOM     18  C5  <0> d   1      19.418  -0.991   8.779  0.00  0.00     0.235 C 
BRANCH  18  19
ATOM     19  N2  <0> d   1      19.616  -2.174   7.931  0.00  0.00    -0.079 N 
ATOM     20  C1  <0> d   1      18.770  -3.272   8.418  0.00  0.00     0.269 C 
ATOM     21  H3  <0> d   1      20.585  -2.455   7.967  0.00  0.00     0.278 HD
ATOM     22  C4  <0> d   1      19.252  -1.851   6.546  0.00  0.00     0.269 C 
ENDBRANCH  18  19
ENDBRANCH  17  18
ENDBRANCH  16  17
ENDBRANCH   1  16
TORSDOF 4
ENDMDL
MODEL 9
REMARK VINA RESULT:      -6.2      2.083      4.995
REMARK  4 active torsions:
REMARK  status: ('A' for Active; 'I' for Inactive)
REMARK    1  A    between atoms: N2_2  and  C5_5 
REMARK    2  A    between atoms: C5_5  and  C6_6 
REMARK    3  A    between atoms: C6_6  and  C7_7 
REMARK    4  A    between atoms: C7_7  and  N8_8 
ROOT
ATOM      1  N8  <0> d   1      17.845  -0.552   9.354  0.00  0.00    -0.346 N 
ATOM      2  C9  <0> d   1      18.275  -1.651  10.105  0.00  0.00     0.041 A 
ATOM      3  C10 <0> d   1      19.053  -2.609   9.462  0.00  0.00     0.030 A 
ATOM      4  C11 <0> d   1      19.536  -3.700  10.153  0.00  0.00     0.002 A 
ATOM      5  C12 <0> d   1      19.241  -3.830  11.499  0.00  0.00     0.001 A 
ATOM      6  C13 <0> d   1      18.459  -2.890  12.132  0.00  0.00     0.009 A 
ATOM      7  C14 <0> d   1      17.945  -1.788  11.445  0.00  0.00    -0.031 A 
ATOM      8  C15 <0> d   1      17.042  -0.896  12.267  0.00  0.00     0.045 C 
ATOM      9  C16 <0> d   1      16.447   0.249  11.467  0.00  0.00     0.045 C 
ATOM     10  C17 <0> d   1      17.522   1.160  10.934  0.00  0.00    -0.031 A 
ATOM     11  C18 <0> d   1      17.836   2.365  11.520  0.00  0.00     0.009 A 
ATOM     12  C19 <0> d   1      18.822   3.150  10.941  0.00  0.00     0.001 A 
ATOM     13  C20 <0> d   1      19.474   2.729   9.796  0.00  0.00     0.002 A 
ATOM     14  C21 <0> d   1      19.157   1.510   9.218  0.00  0.00     0.030 A 
ATOM     15  C22 <0> d   1      18.187   0.727   9.809  0.00  0.00     0.041 A 
ENDROOT
BRANCH   1  16
ATOM     16  C7  <0> d   1      17.066  -0.734   8.126  0.00  0.00     0.131 C 
BRANCH  16  17
ATOM     17  C6  <0> d   1      17.737   0.024   6.979  0.00  0.00     0.048 C 
BRANCH  17  18
ATOM     18  C5  <0> d   1      18.629  -0.933   6.186  0.00  0.00     0.235 C 
BRANCH  18  19
ATOM     19  N2  <0> d   1      17.830  -2.075   5.721  0.00  0.00    -0.079 N 
ATOM     20  C1  <0> d   1      17.386  -1.831   4.342  0.00  0.00     0.269 C 
ATOM     21  H3  <0> d   1      17.024  -2.187   6.319  0.00  0.00     0.278 HD
ATOM     22  C4  <0> d   1      18.645  -3.295   5.766  0.00  0.00     0.269 C 
ENDBRANCH  18  19
ENDBRANCH  17  18
ENDBRANCH  16  17
ENDBRANCH   1  16
TORSDOF 4
ENDMDL
