MODEL 1
REMARK VINA RESULT:      -9.0      0.000      0.000
REMARK  4 active torsions:
REMARK  status: ('A' for Active; 'I' for Inactive)
REMARK    1  A    between atoms: C24_20  and  O26_21 
REMARK    2  A    between atoms: C30_25  and  C31_26 
REMARK    3  A    between atoms: C31_26  and  C33_28 
REMARK    4  A    between atoms: C33_28  and  O34_29 
ROOT
ATOM      1  C1  ZIN A   1      16.834  -7.459   8.228  0.00  0.00     0.078 C 
ATOM      2  C2  ZIN A   1      16.308  -6.109   8.720  0.00  0.00     0.159 C 
ATOM      3  C3  ZIN A   1      14.841  -5.933   8.325  0.00  0.00     0.078 C 
ATOM      4  O4  ZIN A   1      16.463  -5.999  10.151  0.00  0.00    -0.347 OA
ATOM      5  C5  ZIN A   1      17.849  -5.654  10.351  0.00  0.00     0.168 C 
ATOM      6  C7  ZIN A   1      17.912  -4.526  11.416  0.00  0.00     0.041 C 
ATOM      7  C8  ZIN A   1      17.772  -3.249  10.580  0.00  0.00     0.004 C 
ATOM      8  C10 ZIN A   1      18.297  -1.979  11.224  0.00  0.00    -0.001 C 
ATOM      9  C12 ZIN A   1      17.496  -1.670  12.490  0.00  0.00     0.010 C 
ATOM     10  C13 ZIN A   1      18.051  -0.409  13.158  0.00  0.00     0.036 C 
ATOM     11  C14 ZIN A   1      18.040   0.710  12.134  0.00  0.00    -0.064 A 
ATOM     12  C15 ZIN A   1      17.470   1.865  12.450  0.00  0.00     0.058 A 
ATOM     13  C16 ZIN A   1      17.421   2.967  11.476  0.00  0.00     0.172 A 
ATOM     14  O17 ZIN A   1      16.933   4.040  11.775  0.00  0.00    -0.289 OA
ATOM     15  C18 ZIN A   1      17.977   2.739  10.130  0.00  0.00     0.052 A 
ATOM     16  C19 ZIN A   1      18.547   1.581   9.840  0.00  0.00    -0.009 A 
ATOM     17  C20 ZIN A   1      18.683   0.453  10.804  0.00  0.00     0.004 A 
ATOM     18  C21 ZIN A   1      20.176   0.218  11.043  0.00  0.00     0.025 C 
ATOM     19  C22 ZIN A   1      18.138  -0.845  10.200  0.00  0.00     0.035 C 
ATOM     20  C24 ZIN A   1      18.882  -1.149   8.903  0.00  0.00     0.124 C 
ATOM     21  C27 ZIN A   1      18.461  -2.506   8.315  0.00  0.00     0.045 C 
ATOM     22  C28 ZIN A   1      18.675  -3.572   9.359  0.00  0.00     0.004 C 
ATOM     23  C29 ZIN A   1      20.121  -3.529   9.857  0.00  0.00     0.019 C 
ATOM     24  C30 ZIN A   1      18.293  -5.018   9.001  0.00  0.00     0.160 C 
ATOM     25  O35 ZIN A   1      17.106  -5.032   8.185  0.00  0.00    -0.334 OA
ENDROOT
BRANCH  24  26
ATOM     26  C31 ZIN A   1      19.457  -5.775   8.415  0.00  0.00     0.188 C 
ATOM     27  O32 ZIN A   1      20.025  -6.613   9.074  0.00  0.00    -0.292 OA
BRANCH  26  28
ATOM     28  C33 ZIN A   1      19.912  -5.487   7.008  0.00  0.00     0.245 C 
BRANCH  28  29
ATOM     29  O34 ZIN A   1      19.196  -6.322   6.096  0.00  0.00    -0.393 OA
ATOM     30  H62 ZIN A   1      18.994  -5.899   5.250  0.00  0.00     0.209 HD
ENDBRANCH  28  29
ENDBRANCH  26  28
ENDBRANCH  24  26
BRANCH  20  31
ATOM     31  O26 ZIN A   1      20.286  -1.171   9.166  0.00  0.00    -0.395 OA
ATOM     32  H54 ZIN A   1      20.611  -2.022   9.495  0.00  0.00     0.210 HD
ENDBRANCH  20  31
TORSDOF 4
ENDMDL
MODEL 2
REMARK VINA RESULT:      -8.5      2.018      7.298
REMARK  4 active torsions:
REMARK  status: ('A' for Active; 'I' for Inactive)
REMARK    1  A    between atoms: C24_20  and  O26_21 
REMARK    2  A    between atoms: C30_25  and  C31_26 
REMARK    3  A    between atoms: C31_26  and  C33_28 
REMARK    4  A    between atoms: C33_28  and  O34_29 
ROOT
ATOM      1  C1  ZIN A   1      19.140   2.920  12.511  0.00  0.00     0.078 C 
ATOM      2  C2  ZIN A   1      18.487   2.124  11.379  0.00  0.00     0.159 C 
ATOM      3  C3  ZIN A   1      17.391   2.954  10.708  0.00  0.00     0.078 C 
ATOM      4  O4  ZIN A   1      19.478   1.719  10.412  0.00  0.00    -0.347 OA
ATOM      5  C5  ZIN A   1      20.121   0.567  10.996  0.00  0.00     0.168 C 
ATOM      6  C7  ZIN A   1      20.271  -0.510   9.888  0.00  0.00     0.041 C 
ATOM      7  C8  ZIN A   1      18.948  -1.278   9.967  0.00  0.00     0.004 C 
ATOM      8  C10 ZIN A   1      18.966  -2.684   9.394  0.00  0.00    -0.001 C 
ATOM      9  C12 ZIN A   1      19.262  -2.628   7.894  0.00  0.00     0.010 C 
ATOM     10  C13 ZIN A   1      19.316  -4.049   7.326  0.00  0.00     0.036 C 
ATOM     11  C14 ZIN A   1      18.014  -4.745   7.671  0.00  0.00    -0.064 A 
ATOM     12  C15 ZIN A   1      17.324  -5.335   6.705  0.00  0.00     0.058 A 
ATOM     13  C16 ZIN A   1      16.046  -6.003   6.998  0.00  0.00     0.172 A 
ATOM     14  O17 ZIN A   1      15.429  -6.578   6.121  0.00  0.00    -0.289 OA
ATOM     15  C18 ZIN A   1      15.530  -5.958   8.377  0.00  0.00     0.052 A 
ATOM     16  C19 ZIN A   1      16.239  -5.368   9.326  0.00  0.00    -0.009 A 
ATOM     17  C20 ZIN A   1      17.568  -4.733   9.103  0.00  0.00     0.004 A 
ATOM     18  C21 ZIN A   1      18.602  -5.508   9.922  0.00  0.00     0.025 C 
ATOM     19  C22 ZIN A   1      17.581  -3.300   9.644  0.00  0.00     0.035 C 
ATOM     20  C24 ZIN A   1      17.234  -3.319  11.130  0.00  0.00     0.124 C 
ATOM     21  C27 ZIN A   1      17.352  -1.920  11.756  0.00  0.00     0.045 C 
ATOM     22  C28 ZIN A   1      18.742  -1.393  11.501  0.00  0.00     0.004 C 
ATOM     23  C29 ZIN A   1      19.779  -2.394  12.012  0.00  0.00     0.019 C 
ATOM     24  C30 ZIN A   1      19.083   0.015  12.017  0.00  0.00     0.160 C 
ATOM     25  O35 ZIN A   1      17.943   0.885  11.883  0.00  0.00    -0.334 OA
ENDROOT
BRANCH  24  26
ATOM     26  C31 ZIN A   1      19.672  -0.024  13.404  0.00  0.00     0.188 C 
ATOM     27  O32 ZIN A   1      20.844   0.218  13.569  0.00  0.00    -0.292 OA
BRANCH  26  28
ATOM     28  C33 ZIN A   1      18.800  -0.368  14.584  0.00  0.00     0.245 C 
BRANCH  28  29
ATOM     29  O34 ZIN A   1      17.653   0.485  14.591  0.00  0.00    -0.393 OA
ATOM     30  H62 ZIN A   1      17.774   1.312  14.103  0.00  0.00     0.209 HD
ENDBRANCH  28  29
ENDBRANCH  26  28
ENDBRANCH  24  26
BRANCH  20  31
ATOM     31  O26 ZIN A   1      18.126  -4.208  11.805  0.00  0.00    -0.395 OA
ATOM     32  H54 ZIN A   1      19.034  -4.182  11.472  0.00  0.00     0.210 HD
ENDBRANCH  20  31
TORSDOF 4
ENDMDL
MODEL 3
REMARK VINA RESULT:      -8.2      1.773      2.474
REMARK  4 active torsions:
REMARK  status: ('A' for Active; 'I' for Inactive)
REMARK    1  A    between atoms: C24_20  and  O26_21 
REMARK    2  A    between atoms: C30_25  and  C31_26 
REMARK    3  A    between atoms: C31_26  and  C33_28 
REMARK    4  A    between atoms: C33_28  and  O34_29 
ROOT
ATOM      1  C1  ZIN A   1      17.702  -6.109   9.698  0.00  0.00     0.078 C 
ATOM      2  C2  ZIN A   1      17.464  -4.873  10.569  0.00  0.00     0.159 C 
ATOM      3  C3  ZIN A   1      16.326  -5.131  11.557  0.00  0.00     0.078 C 
ATOM      4  O4  ZIN A   1      18.672  -4.512  11.271  0.00  0.00    -0.347 OA
ATOM      5  C5  ZIN A   1      19.471  -3.806  10.300  0.00  0.00     0.168 C 
ATOM      6  C7  ZIN A   1      20.065  -2.550  10.992  0.00  0.00     0.041 C 
ATOM      7  C8  ZIN A   1      18.978  -1.491  10.784  0.00  0.00     0.004 C 
ATOM      8  C10 ZIN A   1      19.437  -0.047  10.878  0.00  0.00    -0.001 C 
ATOM      9  C12 ZIN A   1      19.956   0.241  12.287  0.00  0.00     0.010 C 
ATOM     10  C13 ZIN A   1      20.453   1.688  12.369  0.00  0.00     0.036 C 
ATOM     11  C14 ZIN A   1      19.323   2.599  11.930  0.00  0.00    -0.064 A 
ATOM     12  C15 ZIN A   1      18.971   3.610  12.713  0.00  0.00     0.058 A 
ATOM     13  C16 ZIN A   1      17.867   4.504  12.331  0.00  0.00     0.172 A 
ATOM     14  O17 ZIN A   1      17.566   5.455  13.028  0.00  0.00    -0.289 OA
ATOM     15  C18 ZIN A   1      17.133   4.220  11.085  0.00  0.00     0.052 A 
ATOM     16  C19 ZIN A   1      17.506   3.210  10.317  0.00  0.00    -0.009 A 
ATOM     17  C20 ZIN A   1      18.656   2.311  10.618  0.00  0.00     0.004 A 
ATOM     18  C21 ZIN A   1      19.697   2.495   9.512  0.00  0.00     0.025 C 
ATOM     19  C22 ZIN A   1      18.225   0.842  10.561  0.00  0.00     0.035 C 
ATOM     20  C24 ZIN A   1      17.650   0.539   9.181  0.00  0.00     0.124 C 
ATOM     21  C27 ZIN A   1      17.314  -0.953   9.023  0.00  0.00     0.045 C 
ATOM     22  C28 ZIN A   1      18.553  -1.761   9.315  0.00  0.00     0.004 C 
ATOM     23  C29 ZIN A   1      19.704  -1.284   8.428  0.00  0.00     0.019 C 
ATOM     24  C30 ZIN A   1      18.446  -3.293   9.247  0.00  0.00     0.160 C 
ATOM     25  O35 ZIN A   1      17.166  -3.726   9.745  0.00  0.00    -0.334 OA
ENDROOT
BRANCH  24  26
ATOM     26  C31 ZIN A   1      18.786  -3.817   7.875  0.00  0.00     0.188 C 
ATOM     27  O32 ZIN A   1      18.072  -3.559   6.936  0.00  0.00    -0.292 OA
BRANCH  26  28
ATOM     28  C33 ZIN A   1      20.017  -4.664   7.677  0.00  0.00     0.245 C 
BRANCH  28  29
ATOM     29  O34 ZIN A   1      20.843  -4.074   6.670  0.00  0.00    -0.393 OA
ATOM     30  H62 ZIN A   1      21.791  -4.187   6.823  0.00  0.00     0.209 HD
ENDBRANCH  28  29
ENDBRANCH  26  28
ENDBRANCH  24  26
BRANCH  20  31
ATOM     31  O26 ZIN A   1      18.607   0.907   8.186  0.00  0.00    -0.395 OA
ATOM     32  H54 ZIN A   1      18.533   0.404   7.363  0.00  0.00     0.210 HD
ENDBRANCH  20  31
TORSDOF 4
ENDMDL
MODEL 4
REMARK VINA RESULT:      -8.2      3.216      9.542
REMARK  4 active torsions:
REMARK  status: ('A' for Active; 'I' for Inactive)
REMARK    1  A    between atoms: C24_20  and  O26_21 
REMARK    2  A    between atoms: C30_25  and  C31_26 
REMARK    3  A    between atoms: C31_26  and  C33_28 
REMARK    4  A    between atoms: C33_28  and  O34_29 
ROOT
ATOM      1  C1  ZIN A   1      16.285   7.481  15.036  0.00  0.00     0.078 C 
ATOM      2  C2  ZIN A   1      15.871   6.169  14.365  0.00  0.00     0.159 C 
ATOM      3  C3  ZIN A   1      14.379   5.910  14.579  0.00  0.00     0.078 C 
ATOM      4  O4  ZIN A   1      16.182   6.205  12.956  0.00  0.00    -0.347 OA
ATOM      5  C5  ZIN A   1      17.595   5.924  12.879  0.00  0.00     0.168 C 
ATOM      6  C7  ZIN A   1      17.818   4.908  11.726  0.00  0.00     0.041 C 
ATOM      7  C8  ZIN A   1      17.644   3.552  12.418  0.00  0.00     0.004 C 
ATOM      8  C10 ZIN A   1      18.286   2.368  11.720  0.00  0.00    -0.001 C 
ATOM      9  C12 ZIN A   1      17.638   2.159  10.350  0.00  0.00     0.010 C 
ATOM     10  C13 ZIN A   1      18.314   0.987   9.632  0.00  0.00     0.036 C 
ATOM     11  C14 ZIN A   1      18.241  -0.226  10.540  0.00  0.00    -0.064 A 
ATOM     12  C15 ZIN A   1      17.756  -1.362  10.057  0.00  0.00     0.058 A 
ATOM     13  C16 ZIN A   1      17.650  -2.555  10.912  0.00  0.00     0.172 A 
ATOM     14  O17 ZIN A   1      17.242  -3.609  10.462  0.00  0.00    -0.289 OA
ATOM     15  C18 ZIN A   1      18.050  -2.442  12.326  0.00  0.00     0.052 A 
ATOM     16  C19 ZIN A   1      18.536  -1.300  12.784  0.00  0.00    -0.009 A 
ATOM     17  C20 ZIN A   1      18.727  -0.080  11.951  0.00  0.00     0.004 A 
ATOM     18  C21 ZIN A   1      20.226   0.224  11.901  0.00  0.00     0.025 C 
ATOM     19  C22 ZIN A   1      18.067   1.135  12.610  0.00  0.00     0.035 C 
ATOM     20  C24 ZIN A   1      18.655   1.334  14.003  0.00  0.00     0.124 C 
ATOM     21  C27 ZIN A   1      18.118   2.613  14.666  0.00  0.00     0.045 C 
ATOM     22  C28 ZIN A   1      18.397   3.783  13.756  0.00  0.00     0.004 C 
ATOM     23  C29 ZIN A   1      19.888   3.834  13.419  0.00  0.00     0.019 C 
ATOM     24  C30 ZIN A   1      17.919   5.174  14.204  0.00  0.00     0.160 C 
ATOM     25  O35 ZIN A   1      16.652   5.071  14.882  0.00  0.00    -0.334 OA
ENDROOT
BRANCH  24  26
ATOM     26  C31 ZIN A   1      18.981   5.907  14.983  0.00  0.00     0.188 C 
ATOM     27  O32 ZIN A   1      19.612   6.792  14.457  0.00  0.00    -0.292 OA
BRANCH  26  28
ATOM     28  C33 ZIN A   1      19.256   5.534  16.417  0.00  0.00     0.245 C 
BRANCH  28  29
ATOM     29  O34 ZIN A   1      18.972   6.652  17.261  0.00  0.00    -0.393 OA
ATOM     30  H62 ZIN A   1      19.724   7.245  17.395  0.00  0.00     0.209 HD
ENDBRANCH  28  29
ENDBRANCH  26  28
ENDBRANCH  24  26
BRANCH  20  31
ATOM     31  O26 ZIN A   1      20.077   1.426  13.900  0.00  0.00    -0.395 OA
ATOM     32  H54 ZIN A   1      20.548   0.660  14.258  0.00  0.00     0.210 HD
ENDBRANCH  20  31
TORSDOF 4
ENDMDL
MODEL 5
REMARK VINA RESULT:      -7.6      4.586     10.913
REMARK  4 active torsions:
REMARK  status: ('A' for Active; 'I' for Inactive)
REMARK    1  A    between atoms: C24_20  and  O26_21 
REMARK    2  A    between atoms: C30_25  and  C31_26 
REMARK    3  A    between atoms: C31_26  and  C33_28 
REMARK    4  A    between atoms: C33_28  and  O34_29 
ROOT
ATOM      1  C1  ZIN A   1      14.810   7.972  17.301  0.00  0.00     0.078 C 
ATOM      2  C2  ZIN A   1      14.659   6.922  16.197  0.00  0.00     0.159 C 
ATOM      3  C3  ZIN A   1      13.276   6.273  16.266  0.00  0.00     0.078 C 
ATOM      4  O4  ZIN A   1      14.873   7.521  14.901  0.00  0.00    -0.347 OA
ATOM      5  C5  ZIN A   1      16.306   7.614  14.765  0.00  0.00     0.168 C 
ATOM      6  C7  ZIN A   1      16.682   7.147  13.332  0.00  0.00     0.041 C 
ATOM      7  C8  ZIN A   1      16.851   5.633  13.493  0.00  0.00     0.004 C 
ATOM      8  C10 ZIN A   1      17.699   4.949  12.436  0.00  0.00    -0.001 C 
ATOM      9  C12 ZIN A   1      17.036   5.094  11.065  0.00  0.00     0.010 C 
ATOM     10  C13 ZIN A   1      17.912   4.435   9.995  0.00  0.00     0.036 C 
ATOM     11  C14 ZIN A   1      18.160   2.998  10.410  0.00  0.00    -0.064 A 
ATOM     12  C15 ZIN A   1      17.912   2.026   9.542  0.00  0.00     0.058 A 
ATOM     13  C16 ZIN A   1      18.122   0.618   9.915  0.00  0.00     0.172 A 
ATOM     14  O17 ZIN A   1      17.932  -0.274   9.110  0.00  0.00    -0.289 OA
ATOM     15  C18 ZIN A   1      18.567   0.314  11.286  0.00  0.00     0.052 A 
ATOM     16  C19 ZIN A   1      18.815   1.300  12.133  0.00  0.00    -0.009 A 
ATOM     17  C20 ZIN A   1      18.683   2.745  11.793  0.00  0.00     0.004 A 
ATOM     18  C21 ZIN A   1      20.072   3.379  11.892  0.00  0.00     0.025 C 
ATOM     19  C22 ZIN A   1      17.809   3.466  12.823  0.00  0.00     0.035 C 
ATOM     20  C24 ZIN A   1      18.418   3.291  14.211  0.00  0.00     0.124 C 
ATOM     21  C27 ZIN A   1      17.650   4.098  15.271  0.00  0.00     0.045 C 
ATOM     22  C28 ZIN A   1      17.611   5.543  14.844  0.00  0.00     0.004 C 
ATOM     23  C29 ZIN A   1      19.032   6.046  14.585  0.00  0.00     0.019 C 
ATOM     24  C30 ZIN A   1      16.864   6.540  15.745  0.00  0.00     0.160 C 
ATOM     25  O35 ZIN A   1      15.692   5.920  16.309  0.00  0.00    -0.334 OA
ENDROOT
BRANCH  24  26
ATOM     26  C31 ZIN A   1      17.780   7.173  16.760  0.00  0.00     0.188 C 
ATOM     27  O32 ZIN A   1      18.179   8.300  16.592  0.00  0.00    -0.292 OA
BRANCH  26  28
ATOM     28  C33 ZIN A   1      18.199   6.399  17.983  0.00  0.00     0.245 C 
BRANCH  28  29
ATOM     29  O34 ZIN A   1      18.150   7.254  19.127  0.00  0.00    -0.393 OA
ATOM     30  H62 ZIN A   1      18.828   7.064  19.790  0.00  0.00     0.209 HD
ENDBRANCH  28  29
ENDBRANCH  26  28
ENDBRANCH  24  26
BRANCH  20  31
ATOM     31  O26 ZIN A   1      19.776   3.734  14.184  0.00  0.00    -0.395 OA
ATOM     32  H54 ZIN A   1      19.950   4.505  14.742  0.00  0.00     0.210 HD
ENDBRANCH  20  31
TORSDOF 4
ENDMDL
MODEL 6
REMARK VINA RESULT:      -7.6      2.765      8.599
REMARK  4 active torsions:
REMARK  status: ('A' for Active; 'I' for Inactive)
REMARK    1  A    between atoms: C24_20  and  O26_21 
REMARK    2  A    between atoms: C30_25  and  C31_26 
REMARK    3  A    between atoms: C31_26  and  C33_28 
REMARK    4  A    between atoms: C33_28  and  O34_29 
ROOT
ATOM      1  C1  ZIN A   1      17.656   6.085  14.526  0.00  0.00     0.078 C 
ATOM      2  C2  ZIN A   1      17.272   5.055  13.461  0.00  0.00     0.159 C 
ATOM      3  C3  ZIN A   1      15.947   5.440  12.803  0.00  0.00     0.078 C 
ATOM      4  O4  ZIN A   1      18.315   4.942  12.471  0.00  0.00    -0.347 OA
ATOM      5  C5  ZIN A   1      19.317   4.100  13.078  0.00  0.00     0.168 C 
ATOM      6  C7  ZIN A   1      19.784   3.069  12.015  0.00  0.00     0.041 C 
ATOM      7  C8  ZIN A   1      18.790   1.916  12.188  0.00  0.00     0.004 C 
ATOM      8  C10 ZIN A   1      19.255   0.564  11.679  0.00  0.00    -0.001 C 
ATOM      9  C12 ZIN A   1      19.475   0.626  10.166  0.00  0.00     0.010 C 
ATOM     10  C13 ZIN A   1      19.980  -0.729   9.662  0.00  0.00     0.036 C 
ATOM     11  C14 ZIN A   1      18.989  -1.792  10.096  0.00  0.00    -0.064 A 
ATOM     12  C15 ZIN A   1      18.506  -2.630   9.189  0.00  0.00     0.058 A 
ATOM     13  C16 ZIN A   1      17.528  -3.662   9.569  0.00  0.00     0.172 A 
ATOM     14  O17 ZIN A   1      17.112  -4.457   8.748  0.00  0.00    -0.289 OA
ATOM     15  C18 ZIN A   1      17.064  -3.708  10.966  0.00  0.00     0.052 A 
ATOM     16  C19 ZIN A   1      17.564  -2.865  11.855  0.00  0.00    -0.009 A 
ATOM     17  C20 ZIN A   1      18.603  -1.844  11.544  0.00  0.00     0.004 A 
ATOM     18  C21 ZIN A   1      19.856  -2.189  12.351  0.00  0.00     0.025 C 
ATOM     19  C22 ZIN A   1      18.158  -0.457  12.018  0.00  0.00     0.035 C 
ATOM     20  C24 ZIN A   1      17.877  -0.503  13.517  0.00  0.00     0.124 C 
ATOM     21  C27 ZIN A   1      17.544   0.891  14.073  0.00  0.00     0.045 C 
ATOM     22  C28 ZIN A   1      18.674   1.830  13.733  0.00  0.00     0.004 C 
ATOM     23  C29 ZIN A   1      19.997   1.254  14.243  0.00  0.00     0.019 C 
ATOM     24  C30 ZIN A   1      18.547   3.298  14.169  0.00  0.00     0.160 C 
ATOM     25  O35 ZIN A   1      17.181   3.738  14.045  0.00  0.00    -0.334 OA
ENDROOT
BRANCH  24  26
ATOM     26  C31 ZIN A   1      19.153   3.535  15.528  0.00  0.00     0.188 C 
ATOM     27  O32 ZIN A   1      20.097   4.278  15.647  0.00  0.00    -0.292 OA
BRANCH  26  28
ATOM     28  C33 ZIN A   1      18.581   2.843  16.739  0.00  0.00     0.245 C 
BRANCH  28  29
ATOM     29  O34 ZIN A   1      19.589   2.738  17.746  0.00  0.00    -0.393 OA
ATOM     30  H62 ZIN A   1      20.473   2.553  17.401  0.00  0.00     0.209 HD
ENDBRANCH  28  29
ENDBRANCH  26  28
ENDBRANCH  24  26
BRANCH  20  31
ATOM     31  O26 ZIN A   1      19.029  -1.010  14.193  0.00  0.00    -0.395 OA
ATOM     32  H54 ZIN A   1      19.538  -1.650  13.675  0.00  0.00     0.210 HD
ENDBRANCH  20  31
TORSDOF 4
ENDMDL
MODEL 7
REMARK VINA RESULT:      -7.5      3.183      5.740
REMARK  4 active torsions:
REMARK  status: ('A' for Active; 'I' for Inactive)
REMARK    1  A    between atoms: C24_20  and  O26_21 
REMARK    2  A    between atoms: C30_25  and  C31_26 
REMARK    3  A    between atoms: C31_26  and  C33_28 
REMARK    4  A    between atoms: C33_28  and  O34_29 
ROOT
ATOM      1  C1  ZIN A   1      18.822  -2.699  10.110  0.00  0.00     0.078 C 
ATOM      2  C2  ZIN A   1      18.200  -1.957  11.296  0.00  0.00     0.159 C 
ATOM      3  C3  ZIN A   1      17.019  -2.749  11.858  0.00  0.00     0.078 C 
ATOM      4  O4  ZIN A   1      19.190  -1.728  12.321  0.00  0.00    -0.347 OA
ATOM      5  C5  ZIN A   1      19.944  -0.587  11.863  0.00  0.00     0.168 C 
ATOM      6  C7  ZIN A   1      20.147   0.367  13.071  0.00  0.00     0.041 C 
ATOM      7  C8  ZIN A   1      18.895   1.249  13.032  0.00  0.00     0.004 C 
ATOM      8  C10 ZIN A   1      19.010   2.590  13.736  0.00  0.00    -0.001 C 
ATOM      9  C12 ZIN A   1      19.252   2.372  15.230  0.00  0.00     0.010 C 
ATOM     10  C13 ZIN A   1      19.405   3.725  15.931  0.00  0.00     0.036 C 
ATOM     11  C14 ZIN A   1      18.176   4.558  15.621  0.00  0.00    -0.064 A 
ATOM     12  C15 ZIN A   1      17.507   5.113  16.621  0.00  0.00     0.058 A 
ATOM     13  C16 ZIN A   1      16.298   5.912  16.361  0.00  0.00     0.172 A 
ATOM     14  O17 ZIN A   1      15.703   6.455  17.273  0.00  0.00    -0.289 OA
ATOM     15  C18 ZIN A   1      15.826   6.037  14.971  0.00  0.00     0.052 A 
ATOM     16  C19 ZIN A   1      16.514   5.479  13.988  0.00  0.00    -0.009 A 
ATOM     17  C20 ZIN A   1      17.778   4.715  14.184  0.00  0.00     0.004 A 
ATOM     18  C21 ZIN A   1      18.898   5.472  13.467  0.00  0.00     0.025 C 
ATOM     19  C22 ZIN A   1      17.691   3.342  13.511  0.00  0.00     0.035 C 
ATOM     20  C24 ZIN A   1      17.394   3.527  12.025  0.00  0.00     0.124 C 
ATOM     21  C27 ZIN A   1      17.417   2.186  11.273  0.00  0.00     0.045 C 
ATOM     22  C28 ZIN A   1      18.749   1.521  11.511  0.00  0.00     0.004 C 
ATOM     23  C29 ZIN A   1      19.881   2.474  11.122  0.00  0.00     0.019 C 
ATOM     24  C30 ZIN A   1      18.989   0.143  10.873  0.00  0.00     0.160 C 
ATOM     25  O35 ZIN A   1      17.777  -0.635  10.897  0.00  0.00    -0.334 OA
ENDROOT
BRANCH  24  26
ATOM     26  C31 ZIN A   1      19.624   0.259   9.511  0.00  0.00     0.188 C 
ATOM     27  O32 ZIN A   1      20.752  -0.135   9.336  0.00  0.00    -0.292 OA
BRANCH  26  28
ATOM     28  C33 ZIN A   1      18.852   0.867   8.369  0.00  0.00     0.245 C 
BRANCH  28  29
ATOM     29  O34 ZIN A   1      17.611   0.176   8.214  0.00  0.00    -0.393 OA
ATOM     30  H62 ZIN A   1      17.220   0.261   7.333  0.00  0.00     0.209 HD
ENDBRANCH  28  29
ENDBRANCH  26  28
ENDBRANCH  24  26
BRANCH  20  31
ATOM     31  O26 ZIN A   1      18.378   4.395  11.458  0.00  0.00    -0.395 OA
ATOM     32  H54 ZIN A   1      18.866   4.006  10.718  0.00  0.00     0.210 HD
ENDBRANCH  20  31
TORSDOF 4
ENDMDL
MODEL 8
REMARK VINA RESULT:      -7.2      3.852      8.578
REMARK  4 active torsions:
REMARK  status: ('A' for Active; 'I' for Inactive)
REMARK    1  A    between atoms: C24_20  and  O26_21 
REMARK    2  A    between atoms: C30_25  and  C31_26 
REMARK    3  A    between atoms: C31_26  and  C33_28 
REMARK    4  A    between atoms: C33_28  and  O34_29 
ROOT
ATOM      1  C1  ZIN A   1      17.373   5.509  15.922  0.00  0.00     0.078 C 
ATOM      2  C2  ZIN A   1      17.041   5.176  14.466  0.00  0.00     0.159 C 
ATOM      3  C3  ZIN A   1      15.742   5.865  14.045  0.00  0.00     0.078 C 
ATOM      4  O4  ZIN A   1      18.126   5.570  13.600  0.00  0.00    -0.347 OA
ATOM      5  C5  ZIN A   1      19.107   4.520  13.729  0.00  0.00     0.168 C 
ATOM      6  C7  ZIN A   1      19.626   4.173  12.308  0.00  0.00     0.041 C 
ATOM      7  C8  ZIN A   1      18.634   3.110  11.825  0.00  0.00     0.004 C 
ATOM      8  C10 ZIN A   1      19.129   2.202  10.713  0.00  0.00    -0.001 C 
ATOM      9  C12 ZIN A   1      19.413   3.028   9.457  0.00  0.00     0.010 C 
ATOM     10  C13 ZIN A   1      19.948   2.115   8.350  0.00  0.00     0.036 C 
ATOM     11  C14 ZIN A   1      18.947   0.995   8.138  0.00  0.00    -0.064 A 
ATOM     12  C15 ZIN A   1      18.509   0.748   6.911  0.00  0.00     0.058 A 
ATOM     13  C16 ZIN A   1      17.523  -0.316   6.669  0.00  0.00     0.172 A 
ATOM     14  O17 ZIN A   1      17.148  -0.572   5.540  0.00  0.00    -0.289 OA
ATOM     15  C18 ZIN A   1      17.000  -1.065   7.824  0.00  0.00     0.052 A 
ATOM     16  C19 ZIN A   1      17.456  -0.805   9.039  0.00  0.00    -0.009 A 
ATOM     17  C20 ZIN A   1      18.500   0.215   9.338  0.00  0.00     0.004 A 
ATOM     18  C21 ZIN A   1      19.720  -0.515   9.903  0.00  0.00     0.025 C 
ATOM     19  C22 ZIN A   1      18.026   1.169  10.437  0.00  0.00     0.035 C 
ATOM     20  C24 ZIN A   1      17.681   0.366  11.688  0.00  0.00     0.124 C 
ATOM     21  C27 ZIN A   1      17.316   1.284  12.867  0.00  0.00     0.045 C 
ATOM     22  C28 ZIN A   1      18.453   2.245  13.101  0.00  0.00     0.004 C 
ATOM     23  C29 ZIN A   1      19.757   1.469  13.296  0.00  0.00     0.019 C 
ATOM     24  C30 ZIN A   1      18.297   3.285  14.223  0.00  0.00     0.160 C 
ATOM     25  O35 ZIN A   1      16.934   3.747  14.287  0.00  0.00    -0.334 OA
ENDROOT
BRANCH  24  26
ATOM     26  C31 ZIN A   1      18.843   2.782  15.534  0.00  0.00     0.188 C 
ATOM     27  O32 ZIN A   1      18.371   1.795  16.045  0.00  0.00    -0.292 OA
BRANCH  26  28
ATOM     28  C33 ZIN A   1      19.977   3.511  16.207  0.00  0.00     0.245 C 
BRANCH  28  29
ATOM     29  O34 ZIN A   1      19.908   3.298  17.619  0.00  0.00    -0.393 OA
ATOM     30  H62 ZIN A   1      20.650   3.676  18.111  0.00  0.00     0.209 HD
ENDBRANCH  28  29
ENDBRANCH  26  28
ENDBRANCH  24  26
BRANCH  20  31
ATOM     31  O26 ZIN A   1      18.808  -0.433  12.054  0.00  0.00    -0.395 OA
ATOM     32  H54 ZIN A   1      18.698  -0.908  12.890  0.00  0.00     0.210 HD
ENDBRANCH  20  31
TORSDOF 4
ENDMDL
MODEL 9
REMARK VINA RESULT:      -6.8      3.072      8.270
REMARK  4 active torsions:
REMARK  status: ('A' for Active; 'I' for Inactive)
REMARK    1  A    between atoms: C24_20  and  O26_21 
REMARK    2  A    between atoms: C30_25  and  C31_26 
REMARK    3  A    between atoms: C31_26  and  C33_28 
REMARK    4  A    between atoms: C33_28  and  O34_29 
ROOT
ATOM      1  C1  ZIN A   1      19.218  -1.405   9.754  0.00  0.00     0.078 C 
ATOM      2  C2  ZIN A   1      18.342  -1.821   8.569  0.00  0.00     0.159 C 
ATOM      3  C3  ZIN A   1      17.544  -0.624   8.052  0.00  0.00     0.078 C 
ATOM      4  O4  ZIN A   1      19.155  -2.381   7.515  0.00  0.00    -0.347 OA
ATOM      5  C5  ZIN A   1      19.423  -3.736   7.932  0.00  0.00     0.168 C 
ATOM      6  C7  ZIN A   1      19.229  -4.662   6.700  0.00  0.00     0.041 C 
ATOM      7  C8  ZIN A   1      17.736  -5.001   6.752  0.00  0.00     0.004 C 
ATOM      8  C10 ZIN A   1      17.321  -6.264   6.020  0.00  0.00    -0.001 C 
ATOM      9  C12 ZIN A   1      17.604  -6.113   4.524  0.00  0.00     0.010 C 
ATOM     10  C13 ZIN A   1      17.219  -7.402   3.793  0.00  0.00     0.036 C 
ATOM     11  C14 ZIN A   1      15.770  -7.713   4.117  0.00  0.00    -0.064 A 
ATOM     12  C15 ZIN A   1      14.925  -7.943   3.122  0.00  0.00     0.058 A 
ATOM     13  C16 ZIN A   1      13.507  -8.229   3.396  0.00  0.00     0.172 A 
ATOM     14  O17 ZIN A   1      12.736  -8.479   2.489  0.00  0.00    -0.289 OA
ATOM     15  C18 ZIN A   1      13.043  -8.204   4.794  0.00  0.00     0.052 A 
ATOM     16  C19 ZIN A   1      13.907  -7.977   5.771  0.00  0.00    -0.009 A 
ATOM     17  C20 ZIN A   1      15.364  -7.747   5.560  0.00  0.00     0.004 A 
ATOM     18  C21 ZIN A   1      16.122  -8.893   6.233  0.00  0.00     0.025 C 
ATOM     19  C22 ZIN A   1      15.817  -6.463   6.262  0.00  0.00     0.035 C 
ATOM     20  C24 ZIN A   1      15.495  -6.563   7.750  0.00  0.00     0.124 C 
ATOM     21  C27 ZIN A   1      16.039  -5.353   8.528  0.00  0.00     0.045 C 
ATOM     22  C28 ZIN A   1      17.520  -5.239   8.271  0.00  0.00     0.004 C 
ATOM     23  C29 ZIN A   1      18.209  -6.561   8.613  0.00  0.00     0.019 C 
ATOM     24  C30 ZIN A   1      18.277  -4.074   8.930  0.00  0.00     0.160 C 
ATOM     25  O35 ZIN A   1      17.454  -2.893   8.951  0.00  0.00    -0.334 OA
ENDROOT
BRANCH  24  26
ATOM     26  C31 ZIN A   1      18.841  -4.461  10.273  0.00  0.00     0.188 C 
ATOM     27  O32 ZIN A   1      20.031  -4.622  10.404  0.00  0.00    -0.292 OA
BRANCH  26  28
ATOM     28  C33 ZIN A   1      17.920  -4.648  11.451  0.00  0.00     0.245 C 
BRANCH  28  29
ATOM     29  O34 ZIN A   1      17.032  -3.532  11.541  0.00  0.00    -0.393 OA
ATOM     30  H62 ZIN A   1      16.383  -3.602  12.256  0.00  0.00     0.209 HD
ENDBRANCH  28  29
ENDBRANCH  26  28
ENDBRANCH  24  26
BRANCH  20  31
ATOM     31  O26 ZIN A   1      16.082  -7.755   8.275  0.00  0.00    -0.395 OA
ATOM     32  H54 ZIN A   1      16.768  -7.596   8.940  0.00  0.00     0.210 HD
ENDBRANCH  20  31
TORSDOF 4
ENDMDL
