MODEL 1
REMARK VINA RESULT:      -3.1      0.000      0.000
REMARK  0 active torsions:
REMARK  status: ('A' for Active; 'I' for Inactive)
REMARK       I    between atoms: C2_2  and  N4_4 
ROOT
ATOM      1  C1  <0> d   1      18.472   0.238   5.777  0.00  0.00     0.119 C 
ATOM      2  C2  <0> d   1      19.282  -0.999   5.486  0.00  0.00     0.239 C 
ATOM      3  O3  <0> d   1      19.937  -1.069   4.467  0.00  0.00    -0.272 OA
ATOM      4  N4  <0> d   1      19.280  -2.027   6.358  0.00  0.00    -0.201 N 
ATOM      5  O5  <0> d   1      20.040  -3.189   6.084  0.00  0.00    -0.086 OA
ATOM      6  H9  <0> d   1      18.756  -1.970   7.172  0.00  0.00     0.200 HD
ENDROOT
TORSDOF 0
ENDMDL
MODEL 2
REMARK VINA RESULT:      -3.0      2.070      2.966
REMARK  0 active torsions:
REMARK  status: ('A' for Active; 'I' for Inactive)
REMARK       I    between atoms: C2_2  and  N4_4 
ROOT
ATOM      1  C1  <0> d   1      18.048  -4.136   4.613  0.00  0.00     0.119 C 
ATOM      2  C2  <0> d   1      19.043  -3.052   4.934  0.00  0.00     0.239 C 
ATOM      3  O3  <0> d   1      19.856  -3.217   5.819  0.00  0.00    -0.272 OA
ATOM      4  N4  <0> d   1      19.031  -1.897   4.238  0.00  0.00    -0.201 N 
ATOM      5  O5  <0> d   1      19.965  -0.878   4.540  0.00  0.00    -0.086 OA
ATOM      6  H9  <0> d   1      18.381  -1.765   3.530  0.00  0.00     0.200 HD
ENDROOT
TORSDOF 0
ENDMDL
MODEL 3
REMARK VINA RESULT:      -3.0     11.561     11.813
REMARK  0 active torsions:
REMARK  status: ('A' for Active; 'I' for Inactive)
REMARK       I    between atoms: C2_2  and  N4_4 
ROOT
ATOM      1  C1  <0> d   1      18.227  -1.484  16.379  0.00  0.00     0.119 C 
ATOM      2  C2  <0> d   1      18.878  -0.200  16.825  0.00  0.00     0.239 C 
ATOM      3  O3  <0> d   1      19.026   0.711  16.038  0.00  0.00    -0.272 OA
ATOM      4  N4  <0> d   1      19.297  -0.063  18.099  0.00  0.00    -0.201 N 
ATOM      5  O5  <0> d   1      19.908   1.142  18.518  0.00  0.00    -0.086 OA
ATOM      6  H9  <0> d   1      19.178  -0.792  18.729  0.00  0.00     0.200 HD
ENDROOT
TORSDOF 0
ENDMDL
MODEL 4
REMARK VINA RESULT:      -3.0      1.769      2.150
REMARK  0 active torsions:
REMARK  status: ('A' for Active; 'I' for Inactive)
REMARK       I    between atoms: C2_2  and  N4_4 
ROOT
ATOM      1  C1  <0> d   1      18.884   1.396   6.735  0.00  0.00     0.119 C 
ATOM      2  C2  <0> d   1      19.008   0.038   6.092  0.00  0.00     0.239 C 
ATOM      3  O3  <0> d   1      18.528  -0.935   6.633  0.00  0.00    -0.272 OA
ATOM      4  N4  <0> d   1      19.653  -0.094   4.916  0.00  0.00    -0.201 N 
ATOM      5  O5  <0> d   1      19.770  -1.369   4.312  0.00  0.00    -0.086 OA
ATOM      6  H9  <0> d   1      20.037   0.685   4.483  0.00  0.00     0.200 HD
ENDROOT
TORSDOF 0
ENDMDL
MODEL 5
REMARK VINA RESULT:      -2.9     12.299     12.555
REMARK  0 active torsions:
REMARK  status: ('A' for Active; 'I' for Inactive)
REMARK       I    between atoms: C2_2  and  N4_4 
ROOT
ATOM      1  C1  <0> d   1      17.974   0.280  17.527  0.00  0.00     0.119 C 
ATOM      2  C2  <0> d   1      19.052   1.322  17.681  0.00  0.00     0.239 C 
ATOM      3  O3  <0> d   1      19.900   1.195  18.539  0.00  0.00    -0.272 OA
ATOM      4  N4  <0> d   1      19.073   2.396  16.866  0.00  0.00    -0.201 N 
ATOM      5  O5  <0> d   1      20.085   3.375  17.011  0.00  0.00    -0.086 OA
ATOM      6  H9  <0> d   1      18.395   2.497  16.180  0.00  0.00     0.200 HD
ENDROOT
TORSDOF 0
ENDMDL
MODEL 6
REMARK VINA RESULT:      -2.9      6.172      6.335
REMARK  0 active torsions:
REMARK  status: ('A' for Active; 'I' for Inactive)
REMARK       I    between atoms: C2_2  and  N4_4 
ROOT
ATOM      1  C1  <0> d   1      18.838   2.220   9.560  0.00  0.00     0.119 C 
ATOM      2  C2  <0> d   1      17.684   1.824  10.444  0.00  0.00     0.239 C 
ATOM      3  O3  <0> d   1      17.116   2.662  11.112  0.00  0.00    -0.272 OA
ATOM      4  N4  <0> d   1      17.283   0.538  10.494  0.00  0.00    -0.201 N 
ATOM      5  O5  <0> d   1      16.199   0.165  11.324  0.00  0.00    -0.086 OA
ATOM      6  H9  <0> d   1      17.737  -0.132   9.959  0.00  0.00     0.200 HD
ENDROOT
TORSDOF 0
ENDMDL
MODEL 7
REMARK VINA RESULT:      -2.7      7.485      7.796
REMARK  0 active torsions:
REMARK  status: ('A' for Active; 'I' for Inactive)
REMARK       I    between atoms: C2_2  and  N4_4 
ROOT
ATOM      1  C1  <0> d   1      18.919   2.549   9.923  0.00  0.00     0.119 C 
ATOM      2  C2  <0> d   1      17.722   3.007  10.717  0.00  0.00     0.239 C 
ATOM      3  O3  <0> d   1      17.071   2.204  11.351  0.00  0.00    -0.272 OA
ATOM      4  N4  <0> d   1      17.376   4.310  10.722  0.00  0.00    -0.201 N 
ATOM      5  O5  <0> d   1      16.252   4.741  11.467  0.00  0.00    -0.086 OA
ATOM      6  H9  <0> d   1      17.897   4.952  10.215  0.00  0.00     0.200 HD
ENDROOT
TORSDOF 0
ENDMDL
MODEL 8
REMARK VINA RESULT:      -2.6      6.238      6.396
REMARK  0 active torsions:
REMARK  status: ('A' for Active; 'I' for Inactive)
REMARK       I    between atoms: C2_2  and  N4_4 
ROOT
ATOM      1  C1  <0> d   1      19.252   1.743   8.447  0.00  0.00     0.119 C 
ATOM      2  C2  <0> d   1      19.012   2.423   9.770  0.00  0.00     0.239 C 
ATOM      3  O3  <0> d   1      17.928   2.911  10.014  0.00  0.00    -0.272 OA
ATOM      4  N4  <0> d   1      20.002   2.490  10.683  0.00  0.00    -0.201 N 
ATOM      5  O5  <0> d   1      19.777   3.129  11.925  0.00  0.00    -0.086 OA
ATOM      6  H9  <0> d   1      20.868   2.100  10.487  0.00  0.00     0.200 HD
ENDROOT
TORSDOF 0
ENDMDL
MODEL 9
REMARK VINA RESULT:      -2.6     12.342     12.545
REMARK  0 active torsions:
REMARK  status: ('A' for Active; 'I' for Inactive)
REMARK       I    between atoms: C2_2  and  N4_4 
ROOT
ATOM      1  C1  <0> d   1      19.644   3.405  16.783  0.00  0.00     0.119 C 
ATOM      2  C2  <0> d   1      19.099   2.229  17.554  0.00  0.00     0.239 C 
ATOM      3  O3  <0> d   1      19.703   1.801  18.514  0.00  0.00    -0.272 OA
ATOM      4  N4  <0> d   1      17.940   1.654  17.175  0.00  0.00    -0.201 N 
ATOM      5  O5  <0> d   1      17.429   0.550  17.897  0.00  0.00    -0.086 OA
ATOM      6  H9  <0> d   1      17.458   1.997  16.406  0.00  0.00     0.200 HD
ENDROOT
TORSDOF 0
ENDMDL
