MODEL 1
REMARK VINA RESULT:      -9.8      0.000      0.000
REMARK  4 active torsions:
REMARK  status: ('A' for Active; 'I' for Inactive)
REMARK       I    between atoms: N9_9  and  C10_10 
REMARK    1  A    between atoms: C10_10  and  C12_12 
REMARK    2  A    between atoms: C15_15  and  N16_16 
REMARK       I    between atoms: N16_16  and  C17_17 
REMARK    3  A    between atoms: C17_17  and  C19_19 
REMARK    4  A    between atoms: C24_24  and  C25_25 
ROOT
ATOM      1  C12 ZIN A   1      18.441  -2.239   7.791  0.00  0.00     0.032 A 
ATOM      2  C13 ZIN A   1      19.371  -1.229   8.048  0.00  0.00     0.019 A 
ATOM      3  C14 ZIN A   1      19.620  -0.838   9.345  0.00  0.00     0.030 A 
ATOM      4  C15 ZIN A   1      18.949  -1.451  10.398  0.00  0.00     0.035 A 
ATOM      5  C31 ZIN A   1      18.023  -2.459  10.146  0.00  0.00     0.030 A 
ATOM      6  C32 ZIN A   1      17.764  -2.849   8.852  0.00  0.00     0.019 A 
ENDROOT
BRANCH   1   7
ATOM      7  C10 ZIN A   1      18.171  -2.660   6.403  0.00  0.00     0.258 C 
ATOM      8  N9  ZIN A   1      18.462  -3.916   6.009  0.00  0.00    -0.313 N 
ATOM      9  C8  ZIN A   1      18.077  -4.339   4.659  0.00  0.00     0.138 C 
ATOM     10  C33 ZIN A   1      19.116  -4.763   6.903  0.00  0.00     0.050 A 
ATOM     11  C7  ZIN A   1      17.459  -5.742   4.709  0.00  0.00     0.080 C 
ATOM     12  C6  ZIN A   1      16.522  -5.852   5.879  0.00  0.00     0.040 A 
ATOM     13  C5  ZIN A   1      16.933  -5.876   7.182  0.00  0.00     0.069 A 
ATOM     14  N39 ZIN A   1      15.168  -5.957   5.894  0.00  0.00    -0.348 N 
ATOM     15  N3  ZIN A   1      15.848  -6.005   7.953  0.00  0.00    -0.344 N 
ATOM     16  C38 ZIN A   1      18.362  -5.754   7.555  0.00  0.00     0.020 A 
ATOM     17  C2  ZIN A   1      14.786  -6.050   7.191  0.00  0.00     0.077 A 
ATOM     18  H4  ZIN A   1      15.848  -6.057   8.922  0.00  0.00     0.167 HD
ATOM     19  C1  ZIN A   1      13.367  -6.188   7.675  0.00  0.00     0.089 C 
ATOM     20  C37 ZIN A   1      18.960  -6.587   8.485  0.00  0.00     0.016 A 
ATOM     21  C36 ZIN A   1      20.310  -6.447   8.755  0.00  0.00     0.001 A 
ATOM     22  C35 ZIN A   1      21.058  -5.490   8.095  0.00  0.00     0.002 A 
ATOM     23  C34 ZIN A   1      20.467  -4.648   7.170  0.00  0.00     0.031 A 
ATOM     24  H65 ZIN A   1      14.583  -5.959   5.120  0.00  0.00     0.167 HD
ATOM     25  O11 ZIN A   1      17.685  -1.873   5.613  0.00  0.00    -0.267 OA
ENDBRANCH   1   7
BRANCH   4  26
ATOM     26  N16 ZIN A   1      19.204  -1.053  11.710  0.00  0.00    -0.323 N 
ATOM     27  C17 ZIN A   1      18.211  -0.544  12.464  0.00  0.00     0.257 C 
ATOM     28  O18 ZIN A   1      17.116  -0.343  11.973  0.00  0.00    -0.267 OA
ATOM     29  H49 ZIN A   1      20.097  -1.143  12.079  0.00  0.00     0.169 HD
BRANCH  27  30
ATOM     30  C19 ZIN A   1      18.449  -0.230  13.886  0.00  0.00     0.043 A 
ATOM     31  C24 ZIN A   1      18.679   1.098  14.290  0.00  0.00    -0.010 A 
ATOM     32  C23 ZIN A   1      18.895   1.380  15.635  0.00  0.00     0.013 A 
ATOM     33  C22 ZIN A   1      18.898   0.358  16.563  0.00  0.00     0.001 A 
ATOM     34  C21 ZIN A   1      18.679  -0.951  16.166  0.00  0.00     0.001 A 
ATOM     35  C20 ZIN A   1      18.455  -1.250  14.838  0.00  0.00     0.018 A 
BRANCH  31  36
ATOM     36  C25 ZIN A   1      18.675   2.192  13.290  0.00  0.00    -0.025 A 
ATOM     37  C30 ZIN A   1      19.719   2.304  12.372  0.00  0.00     0.012 A 
ATOM     38  C29 ZIN A   1      19.707   3.322  11.440  0.00  0.00     0.001 A 
ATOM     39  C28 ZIN A   1      18.669   4.236  11.423  0.00  0.00     0.000 A 
ATOM     40  C27 ZIN A   1      17.633   4.133  12.335  0.00  0.00     0.001 A 
ATOM     41  C26 ZIN A   1      17.632   3.116  13.268  0.00  0.00     0.012 A 
ENDBRANCH  31  36
ENDBRANCH  27  30
ENDBRANCH   4  26
TORSDOF 4
ENDMDL
MODEL 2
REMARK VINA RESULT:      -9.7      3.873     10.944
REMARK  4 active torsions:
REMARK  status: ('A' for Active; 'I' for Inactive)
REMARK       I    between atoms: N9_9  and  C10_10 
REMARK    1  A    between atoms: C10_10  and  C12_12 
REMARK    2  A    between atoms: C15_15  and  N16_16 
REMARK       I    between atoms: N16_16  and  C17_17 
REMARK    3  A    between atoms: C17_17  and  C19_19 
REMARK    4  A    between atoms: C24_24  and  C25_25 
ROOT
ATOM      1  C12 ZIN A   1      18.497   2.333  15.400  0.00  0.00     0.032 A 
ATOM      2  C13 ZIN A   1      19.360   1.264  15.147  0.00  0.00     0.019 A 
ATOM      3  C14 ZIN A   1      19.641   0.901  13.848  0.00  0.00     0.030 A 
ATOM      4  C15 ZIN A   1      19.070   1.599  12.790  0.00  0.00     0.035 A 
ATOM      5  C31 ZIN A   1      18.210   2.665  13.039  0.00  0.00     0.030 A 
ATOM      6  C32 ZIN A   1      17.920   3.029  14.333  0.00  0.00     0.019 A 
ENDROOT
BRANCH   1   7
ATOM      7  C10 ZIN A   1      18.192   2.725  16.789  0.00  0.00     0.258 C 
ATOM      8  N9  ZIN A   1      18.471   3.974  17.215  0.00  0.00    -0.313 N 
ATOM      9  C8  ZIN A   1      18.053   4.368  18.564  0.00  0.00     0.138 C 
ATOM     10  C33 ZIN A   1      19.143   4.839  16.354  0.00  0.00     0.050 A 
ATOM     11  C7  ZIN A   1      17.433   5.770  18.528  0.00  0.00     0.080 C 
ATOM     12  C6  ZIN A   1      16.523   5.902  17.338  0.00  0.00     0.040 A 
ATOM     13  C5  ZIN A   1      16.965   5.953  16.046  0.00  0.00     0.069 A 
ATOM     14  N39 ZIN A   1      15.170   6.004  17.293  0.00  0.00    -0.348 N 
ATOM     15  N3  ZIN A   1      15.898   6.095  15.252  0.00  0.00    -0.344 N 
ATOM     16  C38 ZIN A   1      18.402   5.842  15.704  0.00  0.00     0.020 A 
ATOM     17  C2  ZIN A   1      14.818   6.122  15.990  0.00  0.00     0.077 A 
ATOM     18  H4  ZIN A   1      15.921   6.167  14.285  0.00  0.00     0.167 HD
ATOM     19  C1  ZIN A   1      13.410   6.267  15.475  0.00  0.00     0.089 C 
ATOM     20  C37 ZIN A   1      19.021   6.695  14.806  0.00  0.00     0.016 A 
ATOM     21  C36 ZIN A   1      20.376   6.564  14.566  0.00  0.00     0.001 A 
ATOM     22  C35 ZIN A   1      21.112   5.595  15.224  0.00  0.00     0.002 A 
ATOM     23  C34 ZIN A   1      20.501   4.733  16.117  0.00  0.00     0.031 A 
ATOM     24  H65 ZIN A   1      14.566   5.988  18.053  0.00  0.00     0.167 HD
ATOM     25  O11 ZIN A   1      17.691   1.921  17.552  0.00  0.00    -0.267 OA
ENDBRANCH   1   7
BRANCH   4  26
ATOM     26  N16 ZIN A   1      19.356   1.228  11.477  0.00  0.00    -0.323 N 
ATOM     27  C17 ZIN A   1      18.394   0.687  10.705  0.00  0.00     0.257 C 
ATOM     28  O18 ZIN A   1      17.303   0.434  11.180  0.00  0.00    -0.267 OA
ATOM     29  H49 ZIN A   1      20.249   1.360  11.120  0.00  0.00     0.169 HD
BRANCH  27  30
ATOM     30  C19 ZIN A   1      18.663   0.401   9.282  0.00  0.00     0.043 A 
ATOM     31  C24 ZIN A   1      18.883  -0.921   8.854  0.00  0.00    -0.010 A 
ATOM     32  C23 ZIN A   1      19.128  -1.176   7.508  0.00  0.00     0.013 A 
ATOM     33  C22 ZIN A   1      19.168  -0.134   6.604  0.00  0.00     0.001 A 
ATOM     34  C21 ZIN A   1      18.959   1.169   7.025  0.00  0.00     0.001 A 
ATOM     35  C20 ZIN A   1      18.707   1.442   8.354  0.00  0.00     0.018 A 
BRANCH  31  36
ATOM     36  C25 ZIN A   1      18.839  -2.036   9.829  0.00  0.00    -0.025 A 
ATOM     37  C30 ZIN A   1      19.890  -2.224  10.726  0.00  0.00     0.012 A 
ATOM     38  C29 ZIN A   1      19.841  -3.262  11.634  0.00  0.00     0.001 A 
ATOM     39  C28 ZIN A   1      18.757  -4.121  11.648  0.00  0.00     0.000 A 
ATOM     40  C27 ZIN A   1      17.713  -3.944  10.758  0.00  0.00     0.001 A 
ATOM     41  C26 ZIN A   1      17.749  -2.906   9.848  0.00  0.00     0.012 A 
ENDBRANCH  31  36
ENDBRANCH  27  30
ENDBRANCH   4  26
TORSDOF 4
ENDMDL
MODEL 3
REMARK VINA RESULT:      -9.7      1.682      3.343
REMARK  4 active torsions:
REMARK  status: ('A' for Active; 'I' for Inactive)
REMARK       I    between atoms: N9_9  and  C10_10 
REMARK    1  A    between atoms: C10_10  and  C12_12 
REMARK    2  A    between atoms: C15_15  and  N16_16 
REMARK       I    between atoms: N16_16  and  C17_17 
REMARK    3  A    between atoms: C17_17  and  C19_19 
REMARK    4  A    between atoms: C24_24  and  C25_25 
ROOT
ATOM      1  C12 ZIN A   1      18.553  -2.774   7.612  0.00  0.00     0.032 A 
ATOM      2  C13 ZIN A   1      19.628  -1.883   7.591  0.00  0.00     0.019 A 
ATOM      3  C14 ZIN A   1      19.515  -0.655   8.206  0.00  0.00     0.030 A 
ATOM      4  C15 ZIN A   1      18.332  -0.304   8.849  0.00  0.00     0.035 A 
ATOM      5  C31 ZIN A   1      17.259  -1.191   8.872  0.00  0.00     0.030 A 
ATOM      6  C32 ZIN A   1      17.363  -2.416   8.254  0.00  0.00     0.019 A 
ENDROOT
BRANCH   1   7
ATOM      7  C10 ZIN A   1      18.670  -4.090   6.954  0.00  0.00     0.258 C 
ATOM      8  N9  ZIN A   1      18.715  -5.214   7.697  0.00  0.00    -0.313 N 
ATOM      9  C8  ZIN A   1      18.716  -6.512   7.013  0.00  0.00     0.138 C 
ATOM     10  C33 ZIN A   1      18.757  -5.098   9.085  0.00  0.00     0.050 A 
ATOM     11  C7  ZIN A   1      17.753  -7.473   7.719  0.00  0.00     0.080 C 
ATOM     12  C6  ZIN A   1      16.480  -6.759   8.078  0.00  0.00     0.040 A 
ATOM     13  C5  ZIN A   1      16.394  -5.799   9.047  0.00  0.00     0.069 A 
ATOM     14  N39 ZIN A   1      15.232  -6.909   7.564  0.00  0.00    -0.348 N 
ATOM     15  N3  ZIN A   1      15.120  -5.398   9.116  0.00  0.00    -0.344 N 
ATOM     16  C38 ZIN A   1      17.580  -5.350   9.812  0.00  0.00     0.020 A 
ATOM     17  C2  ZIN A   1      14.418  -6.054   8.229  0.00  0.00     0.077 A 
ATOM     18  H4  ZIN A   1      14.772  -4.728   9.726  0.00  0.00     0.167 HD
ATOM     19  C1  ZIN A   1      12.940  -5.890   7.988  0.00  0.00     0.089 C 
ATOM     20  C37 ZIN A   1      17.565  -5.201  11.188  0.00  0.00     0.016 A 
ATOM     21  C36 ZIN A   1      18.721  -4.820  11.845  0.00  0.00     0.001 A 
ATOM     22  C35 ZIN A   1      19.886  -4.597  11.134  0.00  0.00     0.002 A 
ATOM     23  C34 ZIN A   1      19.909  -4.735   9.758  0.00  0.00     0.031 A 
ATOM     24  H65 ZIN A   1      14.972  -7.513   6.850  0.00  0.00     0.167 HD
ATOM     25  O11 ZIN A   1      18.726  -4.160   5.741  0.00  0.00    -0.267 OA
ENDBRANCH   1   7
BRANCH   4  26
ATOM     26  N16 ZIN A   1      18.221   0.938   9.469  0.00  0.00    -0.323 N 
ATOM     27  C17 ZIN A   1      17.651   1.035  10.686  0.00  0.00     0.257 C 
ATOM     28  O18 ZIN A   1      17.149   0.054  11.202  0.00  0.00    -0.267 OA
ATOM     29  H49 ZIN A   1      18.554   1.734   9.025  0.00  0.00     0.169 HD
BRANCH  27  30
ATOM     30  C19 ZIN A   1      17.635   2.330  11.394  0.00  0.00     0.043 A 
ATOM     31  C24 ZIN A   1      17.982   2.398  12.755  0.00  0.00    -0.010 A 
ATOM     32  C23 ZIN A   1      17.969   3.627  13.408  0.00  0.00     0.013 A 
ATOM     33  C22 ZIN A   1      17.604   4.769  12.723  0.00  0.00     0.001 A 
ATOM     34  C21 ZIN A   1      17.256   4.702  11.384  0.00  0.00     0.001 A 
ATOM     35  C20 ZIN A   1      17.269   3.494  10.717  0.00  0.00     0.018 A 
BRANCH  31  36
ATOM     36  C25 ZIN A   1      18.372   1.169  13.487  0.00  0.00    -0.025 A 
ATOM     37  C30 ZIN A   1      17.501   0.601  14.416  0.00  0.00     0.012 A 
ATOM     38  C29 ZIN A   1      17.868  -0.546  15.090  0.00  0.00     0.001 A 
ATOM     39  C28 ZIN A   1      19.102  -1.124  14.854  0.00  0.00     0.000 A 
ATOM     40  C27 ZIN A   1      19.974  -0.563  13.938  0.00  0.00     0.001 A 
ATOM     41  C26 ZIN A   1      19.614   0.581  13.253  0.00  0.00     0.012 A 
ENDBRANCH  31  36
ENDBRANCH  27  30
ENDBRANCH   4  26
TORSDOF 4
ENDMDL
MODEL 4
REMARK VINA RESULT:      -9.5      1.728      3.318
REMARK  4 active torsions:
REMARK  status: ('A' for Active; 'I' for Inactive)
REMARK       I    between atoms: N9_9  and  C10_10 
REMARK    1  A    between atoms: C10_10  and  C12_12 
REMARK    2  A    between atoms: C15_15  and  N16_16 
REMARK       I    between atoms: N16_16  and  C17_17 
REMARK    3  A    between atoms: C17_17  and  C19_19 
REMARK    4  A    between atoms: C24_24  and  C25_25 
ROOT
ATOM      1  C12 ZIN A   1      18.318  -3.020   5.938  0.00  0.00     0.032 A 
ATOM      2  C13 ZIN A   1      19.010  -1.912   5.442  0.00  0.00     0.019 A 
ATOM      3  C14 ZIN A   1      19.277  -0.844   6.270  0.00  0.00     0.030 A 
ATOM      4  C15 ZIN A   1      18.863  -0.869   7.597  0.00  0.00     0.035 A 
ATOM      5  C31 ZIN A   1      18.175  -1.972   8.094  0.00  0.00     0.030 A 
ATOM      6  C32 ZIN A   1      17.898  -3.040   7.271  0.00  0.00     0.019 A 
ENDROOT
BRANCH   1   7
ATOM      7  C10 ZIN A   1      18.029  -4.166   5.055  0.00  0.00     0.258 C 
ATOM      8  N9  ZIN A   1      18.256  -5.424   5.484  0.00  0.00    -0.313 N 
ATOM      9  C8  ZIN A   1      17.853  -6.545   4.630  0.00  0.00     0.138 C 
ATOM     10  C33 ZIN A   1      18.865  -5.607   6.725  0.00  0.00     0.050 A 
ATOM     11  C7  ZIN A   1      17.164  -7.623   5.475  0.00  0.00     0.080 C 
ATOM     12  C6  ZIN A   1      16.221  -6.985   6.457  0.00  0.00     0.040 A 
ATOM     13  C5  ZIN A   1      16.628  -6.254   7.537  0.00  0.00     0.069 A 
ATOM     14  N39 ZIN A   1      14.864  -7.007   6.489  0.00  0.00    -0.348 N 
ATOM     15  N3  ZIN A   1      15.537  -5.860   8.202  0.00  0.00    -0.344 N 
ATOM     16  C38 ZIN A   1      18.061  -5.993   7.812  0.00  0.00     0.020 A 
ATOM     17  C2  ZIN A   1      14.476  -6.303   7.579  0.00  0.00     0.077 A 
ATOM     18  H4  ZIN A   1      15.533  -5.332   9.016  0.00  0.00     0.167 HD
ATOM     19  C1  ZIN A   1      13.050  -6.072   8.009  0.00  0.00     0.089 C 
ATOM     20  C37 ZIN A   1      18.615  -6.142   9.071  0.00  0.00     0.016 A 
ATOM     21  C36 ZIN A   1      19.970  -5.925   9.249  0.00  0.00     0.001 A 
ATOM     22  C35 ZIN A   1      20.767  -5.571   8.176  0.00  0.00     0.002 A 
ATOM     23  C34 ZIN A   1      20.220  -5.411   6.915  0.00  0.00     0.031 A 
ATOM     24  H65 ZIN A   1      14.280  -7.440   5.846  0.00  0.00     0.167 HD
ATOM     25  O11 ZIN A   1      17.585  -3.976   3.938  0.00  0.00    -0.267 OA
ENDBRANCH   1   7
BRANCH   4  26
ATOM     26  N16 ZIN A   1      19.135   0.214   8.431  0.00  0.00    -0.323 N 
ATOM     27  C17 ZIN A   1      18.145   0.775   9.152  0.00  0.00     0.257 C 
ATOM     28  O18 ZIN A   1      16.997   0.400   9.004  0.00  0.00    -0.267 OA
ATOM     29  H49 ZIN A   1      20.038   0.564   8.493  0.00  0.00     0.169 HD
BRANCH  27  30
ATOM     30  C19 ZIN A   1      18.451   1.845  10.121  0.00  0.00     0.043 A 
ATOM     31  C24 ZIN A   1      18.870   1.523  11.424  0.00  0.00    -0.010 A 
ATOM     32  C23 ZIN A   1      19.161   2.544  12.324  0.00  0.00     0.013 A 
ATOM     33  C22 ZIN A   1      19.027   3.863  11.941  0.00  0.00     0.001 A 
ATOM     34  C21 ZIN A   1      18.608   4.182  10.660  0.00  0.00     0.001 A 
ATOM     35  C20 ZIN A   1      18.320   3.185   9.750  0.00  0.00     0.018 A 
BRANCH  31  36
ATOM     36  C25 ZIN A   1      19.013   0.106  11.831  0.00  0.00    -0.025 A 
ATOM     37  C30 ZIN A   1      20.100  -0.644  11.384  0.00  0.00     0.012 A 
ATOM     38  C29 ZIN A   1      20.230  -1.963  11.772  0.00  0.00     0.001 A 
ATOM     39  C28 ZIN A   1      19.280  -2.543  12.592  0.00  0.00     0.000 A 
ATOM     40  C27 ZIN A   1      18.196  -1.805  13.035  0.00  0.00     0.001 A 
ATOM     41  C26 ZIN A   1      18.058  -0.484  12.658  0.00  0.00     0.012 A 
ENDBRANCH  31  36
ENDBRANCH  27  30
ENDBRANCH   4  26
TORSDOF 4
ENDMDL
MODEL 5
REMARK VINA RESULT:      -9.4      2.668      5.221
REMARK  4 active torsions:
REMARK  status: ('A' for Active; 'I' for Inactive)
REMARK       I    between atoms: N9_9  and  C10_10 
REMARK    1  A    between atoms: C10_10  and  C12_12 
REMARK    2  A    between atoms: C15_15  and  N16_16 
REMARK       I    between atoms: N16_16  and  C17_17 
REMARK    3  A    between atoms: C17_17  and  C19_19 
REMARK    4  A    between atoms: C24_24  and  C25_25 
ROOT
ATOM      1  C12 ZIN A   1      17.256  -7.127   7.696  0.00  0.00     0.032 A 
ATOM      2  C13 ZIN A   1      17.072  -7.266   9.074  0.00  0.00     0.019 A 
ATOM      3  C14 ZIN A   1      17.126  -6.158   9.889  0.00  0.00     0.030 A 
ATOM      4  C15 ZIN A   1      17.363  -4.901   9.342  0.00  0.00     0.035 A 
ATOM      5  C31 ZIN A   1      17.547  -4.760   7.969  0.00  0.00     0.030 A 
ATOM      6  C32 ZIN A   1      17.500  -5.864   7.150  0.00  0.00     0.019 A 
ENDROOT
BRANCH   1   7
ATOM      7  C10 ZIN A   1      17.199  -8.313   6.819  0.00  0.00     0.258 C 
ATOM      8  N9  ZIN A   1      16.046  -8.641   6.202  0.00  0.00    -0.313 N 
ATOM      9  C8  ZIN A   1      16.048  -9.756   5.249  0.00  0.00     0.138 C 
ATOM     10  C33 ZIN A   1      14.898  -7.907   6.495  0.00  0.00     0.050 A 
ATOM     11  C7  ZIN A   1      15.254  -9.370   3.995  0.00  0.00     0.080 C 
ATOM     12  C6  ZIN A   1      15.590  -7.964   3.583  0.00  0.00     0.040 A 
ATOM     13  C5  ZIN A   1      15.212  -6.855   4.287  0.00  0.00     0.069 A 
ATOM     14  N39 ZIN A   1      16.277  -7.523   2.498  0.00  0.00    -0.348 N 
ATOM     15  N3  ZIN A   1      15.655  -5.779   3.628  0.00  0.00    -0.344 N 
ATOM     16  C38 ZIN A   1      14.459  -6.953   5.559  0.00  0.00     0.020 A 
ATOM     17  C2  ZIN A   1      16.298  -6.170   2.558  0.00  0.00     0.077 A 
ATOM     18  H4  ZIN A   1      15.522  -4.857   3.900  0.00  0.00     0.167 HD
ATOM     19  C1  ZIN A   1      16.951  -5.261   1.549  0.00  0.00     0.089 C 
ATOM     20  C37 ZIN A   1      13.351  -6.170   5.829  0.00  0.00     0.016 A 
ATOM     21  C36 ZIN A   1      12.668  -6.343   7.019  0.00  0.00     0.001 A 
ATOM     22  C35 ZIN A   1      13.082  -7.299   7.929  0.00  0.00     0.002 A 
ATOM     23  C34 ZIN A   1      14.194  -8.081   7.672  0.00  0.00     0.031 A 
ATOM     24  H65 ZIN A   1      16.683  -8.075   1.811  0.00  0.00     0.167 HD
ATOM     25  O11 ZIN A   1      18.193  -8.995   6.652  0.00  0.00    -0.267 OA
ENDBRANCH   1   7
BRANCH   4  26
ATOM     26  N16 ZIN A   1      17.418  -3.781  10.170  0.00  0.00    -0.323 N 
ATOM     27  C17 ZIN A   1      18.602  -3.359  10.653  0.00  0.00     0.257 C 
ATOM     28  O18 ZIN A   1      19.611  -4.007  10.445  0.00  0.00    -0.267 OA
ATOM     29  H49 ZIN A   1      16.603  -3.306  10.398  0.00  0.00     0.169 HD
BRANCH  27  30
ATOM     30  C19 ZIN A   1      18.678  -2.109  11.435  0.00  0.00     0.043 A 
ATOM     31  C24 ZIN A   1      18.604  -0.863  10.788  0.00  0.00    -0.010 A 
ATOM     32  C23 ZIN A   1      18.670   0.307  11.539  0.00  0.00     0.013 A 
ATOM     33  C22 ZIN A   1      18.821   0.240  12.910  0.00  0.00     0.001 A 
ATOM     34  C21 ZIN A   1      18.900  -0.987  13.547  0.00  0.00     0.001 A 
ATOM     35  C20 ZIN A   1      18.830  -2.158  12.821  0.00  0.00     0.018 A 
BRANCH  31  36
ATOM     36  C25 ZIN A   1      18.442  -0.796   9.316  0.00  0.00    -0.025 A 
ATOM     37  C30 ZIN A   1      19.470  -1.228   8.479  0.00  0.00     0.012 A 
ATOM     38  C29 ZIN A   1      19.311  -1.168   7.109  0.00  0.00     0.001 A 
ATOM     39  C28 ZIN A   1      18.140  -0.669   6.567  0.00  0.00     0.000 A 
ATOM     40  C27 ZIN A   1      17.119  -0.233   7.393  0.00  0.00     0.001 A 
ATOM     41  C26 ZIN A   1      17.265  -0.294   8.764  0.00  0.00     0.012 A 
ENDBRANCH  31  36
ENDBRANCH  27  30
ENDBRANCH   4  26
TORSDOF 4
ENDMDL
MODEL 6
REMARK VINA RESULT:      -9.0      3.342      9.794
REMARK  4 active torsions:
REMARK  status: ('A' for Active; 'I' for Inactive)
REMARK       I    between atoms: N9_9  and  C10_10 
REMARK    1  A    between atoms: C10_10  and  C12_12 
REMARK    2  A    between atoms: C15_15  and  N16_16 
REMARK       I    between atoms: N16_16  and  C17_17 
REMARK    3  A    between atoms: C17_17  and  C19_19 
REMARK    4  A    between atoms: C24_24  and  C25_25 
ROOT
ATOM      1  C12 ZIN A   1      18.679   2.256  14.716  0.00  0.00     0.032 A 
ATOM      2  C13 ZIN A   1      17.513   2.241  13.947  0.00  0.00     0.019 A 
ATOM      3  C14 ZIN A   1      17.123   1.083  13.312  0.00  0.00     0.030 A 
ATOM      4  C15 ZIN A   1      17.888  -0.071  13.436  0.00  0.00     0.035 A 
ATOM      5  C31 ZIN A   1      19.051  -0.060  14.201  0.00  0.00     0.030 A 
ATOM      6  C32 ZIN A   1      19.450   1.095  14.834  0.00  0.00     0.019 A 
ENDROOT
BRANCH   1   7
ATOM      7  C10 ZIN A   1      19.101   3.495  15.398  0.00  0.00     0.258 C 
ATOM      8  N9  ZIN A   1      19.198   4.647  14.705  0.00  0.00    -0.313 N 
ATOM      9  C8  ZIN A   1      19.508   5.883  15.432  0.00  0.00     0.138 C 
ATOM     10  C33 ZIN A   1      18.998   4.617  13.326  0.00  0.00     0.050 A 
ATOM     11  C7  ZIN A   1      18.602   7.018  14.938  0.00  0.00     0.080 C 
ATOM     12  C6  ZIN A   1      17.194   6.520  14.771  0.00  0.00     0.040 A 
ATOM     13  C5  ZIN A   1      16.807   5.649  13.791  0.00  0.00     0.069 A 
ATOM     14  N39 ZIN A   1      16.082   6.814  15.493  0.00  0.00    -0.348 N 
ATOM     15  N3  ZIN A   1      15.493   5.441  13.922  0.00  0.00    -0.344 N 
ATOM     16  C38 ZIN A   1      17.773   5.084  12.819  0.00  0.00     0.020 A 
ATOM     17  C2  ZIN A   1      15.051   6.131  14.941  0.00  0.00     0.077 A 
ATOM     18  H4  ZIN A   1      14.953   4.869  13.352  0.00  0.00     0.167 HD
ATOM     19  C1  ZIN A   1      13.623   6.167  15.421  0.00  0.00     0.089 C 
ATOM     20  C37 ZIN A   1      17.514   5.030  11.461  0.00  0.00     0.016 A 
ATOM     21  C36 ZIN A   1      18.477   4.530  10.603  0.00  0.00     0.001 A 
ATOM     22  C35 ZIN A   1      19.693   4.096  11.097  0.00  0.00     0.002 A 
ATOM     23  C34 ZIN A   1      19.958   4.138  12.454  0.00  0.00     0.031 A 
ATOM     24  H65 ZIN A   1      16.037   7.400  16.265  0.00  0.00     0.167 HD
ATOM     25  O11 ZIN A   1      19.361   3.476  16.586  0.00  0.00    -0.267 OA
ENDBRANCH   1   7
BRANCH   4  26
ATOM     26  N16 ZIN A   1      17.491  -1.241  12.792  0.00  0.00    -0.323 N 
ATOM     27  C17 ZIN A   1      18.335  -1.863  11.944  0.00  0.00     0.257 C 
ATOM     28  O18 ZIN A   1      19.405  -1.354  11.669  0.00  0.00    -0.267 OA
ATOM     29  H49 ZIN A   1      16.608  -1.608  12.952  0.00  0.00     0.169 HD
BRANCH  27  30
ATOM     30  C19 ZIN A   1      17.961  -3.161  11.350  0.00  0.00     0.043 A 
ATOM     31  C24 ZIN A   1      17.800  -3.283   9.958  0.00  0.00    -0.010 A 
ATOM     32  C23 ZIN A   1      17.454  -4.515   9.411  0.00  0.00     0.013 A 
ATOM     33  C22 ZIN A   1      17.258  -5.606  10.235  0.00  0.00     0.001 A 
ATOM     34  C21 ZIN A   1      17.410  -5.485  11.606  0.00  0.00     0.001 A 
ATOM     35  C20 ZIN A   1      17.759  -4.274  12.167  0.00  0.00     0.018 A 
BRANCH  31  36
ATOM     36  C25 ZIN A   1      18.012  -2.110   9.078  0.00  0.00    -0.025 A 
ATOM     37  C30 ZIN A   1      19.075  -2.094   8.175  0.00  0.00     0.012 A 
ATOM     38  C29 ZIN A   1      19.263  -1.001   7.354  0.00  0.00     0.001 A 
ATOM     39  C28 ZIN A   1      18.406   0.083   7.434  0.00  0.00     0.000 A 
ATOM     40  C27 ZIN A   1      17.353   0.076   8.331  0.00  0.00     0.001 A 
ATOM     41  C26 ZIN A   1      17.152  -1.015   9.153  0.00  0.00     0.012 A 
ENDBRANCH  31  36
ENDBRANCH  27  30
ENDBRANCH   4  26
TORSDOF 4
ENDMDL
MODEL 7
REMARK VINA RESULT:      -8.9      3.017      6.030
REMARK  4 active torsions:
REMARK  status: ('A' for Active; 'I' for Inactive)
REMARK       I    between atoms: N9_9  and  C10_10 
REMARK    1  A    between atoms: C10_10  and  C12_12 
REMARK    2  A    between atoms: C15_15  and  N16_16 
REMARK       I    between atoms: N16_16  and  C17_17 
REMARK    3  A    between atoms: C17_17  and  C19_19 
REMARK    4  A    between atoms: C24_24  and  C25_25 
ROOT
ATOM      1  C12 ZIN A   1      17.419  -7.042   7.392  0.00  0.00     0.032 A 
ATOM      2  C13 ZIN A   1      17.425  -6.546   8.698  0.00  0.00     0.019 A 
ATOM      3  C14 ZIN A   1      17.536  -5.191   8.917  0.00  0.00     0.030 A 
ATOM      4  C15 ZIN A   1      17.640  -4.317   7.841  0.00  0.00     0.035 A 
ATOM      5  C31 ZIN A   1      17.633  -4.808   6.538  0.00  0.00     0.030 A 
ATOM      6  C32 ZIN A   1      17.529  -6.161   6.312  0.00  0.00     0.019 A 
ENDROOT
BRANCH   1   7
ATOM      7  C10 ZIN A   1      17.300  -8.494   7.152  0.00  0.00     0.258 C 
ATOM      8  N9  ZIN A   1      16.132  -9.014   6.726  0.00  0.00    -0.313 N 
ATOM      9  C8  ZIN A   1      16.077 -10.440   6.388  0.00  0.00     0.138 C 
ATOM     10  C33 ZIN A   1      15.023  -8.175   6.624  0.00  0.00     0.050 A 
ATOM     11  C7  ZIN A   1      15.304 -10.635   5.078  0.00  0.00     0.080 C 
ATOM     12  C6  ZIN A   1      15.712  -9.590   4.077  0.00  0.00     0.040 A 
ATOM     13  C5  ZIN A   1      15.392  -8.266   4.187  0.00  0.00     0.069 A 
ATOM     14  N39 ZIN A   1      16.422  -9.727   2.927  0.00  0.00    -0.348 N 
ATOM     15  N3  ZIN A   1      15.890  -7.632   3.120  0.00  0.00    -0.344 N 
ATOM     16  C38 ZIN A   1      14.635  -7.737   5.346  0.00  0.00     0.020 A 
ATOM     17  C2  ZIN A   1      16.512  -8.498   2.362  0.00  0.00     0.077 A 
ATOM     18  H4  ZIN A   1      15.805  -6.684   2.937  0.00  0.00     0.167 HD
ATOM     19  C1  ZIN A   1      17.212  -8.183   1.066  0.00  0.00     0.089 C 
ATOM     20  C37 ZIN A   1      13.568  -6.867   5.201  0.00  0.00     0.016 A 
ATOM     21  C36 ZIN A   1      12.877  -6.445   6.322  0.00  0.00     0.001 A 
ATOM     22  C35 ZIN A   1      13.241  -6.896   7.578  0.00  0.00     0.002 A 
ATOM     23  C34 ZIN A   1      14.311  -7.760   7.733  0.00  0.00     0.031 A 
ATOM     24  H65 ZIN A   1      16.799 -10.549   2.578  0.00  0.00     0.167 HD
ATOM     25  O11 ZIN A   1      18.258  -9.220   7.339  0.00  0.00    -0.267 OA
ENDBRANCH   1   7
BRANCH   4  26
ATOM     26  N16 ZIN A   1      17.752  -2.946   8.066  0.00  0.00    -0.323 N 
ATOM     27  C17 ZIN A   1      18.866  -2.290   7.686  0.00  0.00     0.257 C 
ATOM     28  O18 ZIN A   1      19.811  -2.908   7.232  0.00  0.00    -0.267 OA
ATOM     29  H49 ZIN A   1      17.029  -2.465   8.498  0.00  0.00     0.169 HD
BRANCH  27  30
ATOM     30  C19 ZIN A   1      18.941  -0.822   7.819  0.00  0.00     0.043 A 
ATOM     31  C24 ZIN A   1      18.886  -0.222   9.090  0.00  0.00    -0.010 A 
ATOM     32  C23 ZIN A   1      18.965   1.163   9.200  0.00  0.00     0.013 A 
ATOM     33  C22 ZIN A   1      19.083   1.941   8.066  0.00  0.00     0.001 A 
ATOM     34  C21 ZIN A   1      19.130   1.351   6.813  0.00  0.00     0.001 A 
ATOM     35  C20 ZIN A   1      19.060  -0.020   6.683  0.00  0.00     0.018 A 
BRANCH  31  36
ATOM     36  C25 ZIN A   1      18.759  -1.061  10.305  0.00  0.00    -0.025 A 
ATOM     37  C30 ZIN A   1      19.859  -1.772  10.783  0.00  0.00     0.012 A 
ATOM     38  C29 ZIN A   1      19.736  -2.547  11.918  0.00  0.00     0.001 A 
ATOM     39  C28 ZIN A   1      18.521  -2.628  12.575  0.00  0.00     0.000 A 
ATOM     40  C27 ZIN A   1      17.425  -1.929  12.103  0.00  0.00     0.001 A 
ATOM     41  C26 ZIN A   1      17.538  -1.146  10.972  0.00  0.00     0.012 A 
ENDBRANCH  31  36
ENDBRANCH  27  30
ENDBRANCH   4  26
TORSDOF 4
ENDMDL
MODEL 8
REMARK VINA RESULT:      -8.7      5.690     12.506
REMARK  4 active torsions:
REMARK  status: ('A' for Active; 'I' for Inactive)
REMARK       I    between atoms: N9_9  and  C10_10 
REMARK    1  A    between atoms: C10_10  and  C12_12 
REMARK    2  A    between atoms: C15_15  and  N16_16 
REMARK       I    between atoms: N16_16  and  C17_17 
REMARK    3  A    between atoms: C17_17  and  C19_19 
REMARK    4  A    between atoms: C24_24  and  C25_25 
ROOT
ATOM      1  C12 ZIN A   1      17.183   6.947  15.392  0.00  0.00     0.032 A 
ATOM      2  C13 ZIN A   1      17.408   5.610  15.728  0.00  0.00     0.019 A 
ATOM      3  C14 ZIN A   1      17.470   4.654  14.738  0.00  0.00     0.030 A 
ATOM      4  C15 ZIN A   1      17.312   5.020  13.406  0.00  0.00     0.035 A 
ATOM      5  C31 ZIN A   1      17.088   6.352  13.068  0.00  0.00     0.030 A 
ATOM      6  C32 ZIN A   1      17.018   7.310  14.052  0.00  0.00     0.019 A 
ENDROOT
BRANCH   1   7
ATOM      7  C10 ZIN A   1      17.115   7.974  16.450  0.00  0.00     0.258 C 
ATOM      8  N9  ZIN A   1      15.931   8.280  17.019  0.00  0.00    -0.313 N 
ATOM      9  C8  ZIN A   1      15.911   9.220  18.144  0.00  0.00     0.138 C 
ATOM     10  C33 ZIN A   1      14.774   7.688  16.515  0.00  0.00     0.050 A 
ATOM     11  C7  ZIN A   1      14.985   8.693  19.247  0.00  0.00     0.080 C 
ATOM     12  C6  ZIN A   1      15.200   7.217  19.441  0.00  0.00     0.040 A 
ATOM     13  C5  ZIN A   1      14.824   6.269  18.531  0.00  0.00     0.069 A 
ATOM     14  N39 ZIN A   1      15.759   6.556  20.487  0.00  0.00    -0.348 N 
ATOM     15  N3  ZIN A   1      15.142   5.071  19.032  0.00  0.00    -0.344 N 
ATOM     16  C38 ZIN A   1      14.198   6.629  17.238  0.00  0.00     0.020 A 
ATOM     17  C2  ZIN A   1      15.707   5.233  20.201  0.00  0.00     0.077 A 
ATOM     18  H4  ZIN A   1      14.981   4.218  18.598  0.00  0.00     0.167 HD
ATOM     19  C1  ZIN A   1      16.211   4.127  21.090  0.00  0.00     0.089 C 
ATOM     20  C37 ZIN A   1      13.075   5.982  16.751  0.00  0.00     0.016 A 
ATOM     21  C36 ZIN A   1      12.514   6.397  15.557  0.00  0.00     0.001 A 
ATOM     22  C35 ZIN A   1      13.064   7.456  14.858  0.00  0.00     0.002 A 
ATOM     23  C34 ZIN A   1      14.191   8.103  15.332  0.00  0.00     0.031 A 
ATOM     24  H65 ZIN A   1      16.132   6.958  21.287  0.00  0.00     0.167 HD
ATOM     25  O11 ZIN A   1      18.127   8.545  16.809  0.00  0.00    -0.267 OA
ENDBRANCH   1   7
BRANCH   4  26
ATOM     26  N16 ZIN A   1      17.375   4.051  12.407  0.00  0.00    -0.323 N 
ATOM     27  C17 ZIN A   1      18.567   3.697  11.886  0.00  0.00     0.257 C 
ATOM     28  O18 ZIN A   1      19.576   4.288  12.219  0.00  0.00    -0.267 OA
ATOM     29  H49 ZIN A   1      16.562   3.631  12.085  0.00  0.00     0.169 HD
BRANCH  27  30
ATOM     30  C19 ZIN A   1      18.648   2.591  10.912  0.00  0.00     0.043 A 
ATOM     31  C24 ZIN A   1      18.652   1.256  11.353  0.00  0.00    -0.010 A 
ATOM     32  C23 ZIN A   1      18.723   0.224  10.422  0.00  0.00     0.013 A 
ATOM     33  C22 ZIN A   1      18.802   0.514   9.075  0.00  0.00     0.001 A 
ATOM     34  C21 ZIN A   1      18.804   1.828   8.639  0.00  0.00     0.001 A 
ATOM     35  C20 ZIN A   1      18.729   2.865   9.546  0.00  0.00     0.018 A 
BRANCH  31  36
ATOM     36  C25 ZIN A   1      18.567   0.950  12.801  0.00  0.00    -0.025 A 
ATOM     37  C30 ZIN A   1      19.714   0.992  13.593  0.00  0.00     0.012 A 
ATOM     38  C29 ZIN A   1      19.627   0.710  14.942  0.00  0.00     0.001 A 
ATOM     39  C28 ZIN A   1      18.408   0.376  15.504  0.00  0.00     0.000 A 
ATOM     40  C27 ZIN A   1      17.268   0.328  14.722  0.00  0.00     0.001 A 
ATOM     41  C26 ZIN A   1      17.342   0.613  13.374  0.00  0.00     0.012 A 
ENDBRANCH  31  36
ENDBRANCH  27  30
ENDBRANCH   4  26
TORSDOF 4
ENDMDL
MODEL 9
REMARK VINA RESULT:      -8.5      4.404     10.863
REMARK  4 active torsions:
REMARK  status: ('A' for Active; 'I' for Inactive)
REMARK       I    between atoms: N9_9  and  C10_10 
REMARK    1  A    between atoms: C10_10  and  C12_12 
REMARK    2  A    between atoms: C15_15  and  N16_16 
REMARK       I    between atoms: N16_16  and  C17_17 
REMARK    3  A    between atoms: C17_17  and  C19_19 
REMARK    4  A    between atoms: C24_24  and  C25_25 
ROOT
ATOM      1  C12 ZIN A   1      18.273   3.022  16.943  0.00  0.00     0.032 A 
ATOM      2  C13 ZIN A   1      17.949   3.222  15.599  0.00  0.00     0.019 A 
ATOM      3  C14 ZIN A   1      18.277   2.265  14.664  0.00  0.00     0.030 A 
ATOM      4  C15 ZIN A   1      18.928   1.101  15.056  0.00  0.00     0.035 A 
ATOM      5  C31 ZIN A   1      19.252   0.898  16.395  0.00  0.00     0.030 A 
ATOM      6  C32 ZIN A   1      18.933   1.853  17.333  0.00  0.00     0.019 A 
ENDROOT
BRANCH   1   7
ATOM      7  C10 ZIN A   1      17.925   4.045  17.948  0.00  0.00     0.258 C 
ATOM      8  N9  ZIN A   1      18.147   5.349  17.689  0.00  0.00    -0.313 N 
ATOM      9  C8  ZIN A   1      17.686   6.349  18.658  0.00  0.00     0.138 C 
ATOM     10  C33 ZIN A   1      18.805   5.694  16.510  0.00  0.00     0.050 A 
ATOM     11  C7  ZIN A   1      17.015   7.515  17.923  0.00  0.00     0.080 C 
ATOM     12  C6  ZIN A   1      16.127   6.993  16.827  0.00  0.00     0.040 A 
ATOM     13  C5  ZIN A   1      16.594   6.408  15.684  0.00  0.00     0.069 A 
ATOM     14  N39 ZIN A   1      14.772   7.000  16.738  0.00  0.00    -0.348 N 
ATOM     15  N3  ZIN A   1      15.540   6.087  14.927  0.00  0.00    -0.344 N 
ATOM     16  C38 ZIN A   1      18.042   6.203  15.444  0.00  0.00     0.020 A 
ATOM     17  C2  ZIN A   1      14.444   6.434  15.551  0.00  0.00     0.077 A 
ATOM     18  H4  ZIN A   1      15.581   5.664  14.054  0.00  0.00     0.167 HD
ATOM     19  C1  ZIN A   1      13.043   6.240  15.033  0.00  0.00     0.089 C 
ATOM     20  C37 ZIN A   1      18.647   6.516  14.240  0.00  0.00     0.016 A 
ATOM     21  C36 ZIN A   1      20.011   6.340  14.097  0.00  0.00     0.001 A 
ATOM     22  C35 ZIN A   1      20.768   5.865  15.153  0.00  0.00     0.002 A 
ATOM     23  C34 ZIN A   1      20.171   5.542  16.358  0.00  0.00     0.031 A 
ATOM     24  H65 ZIN A   1      14.153   7.342  17.402  0.00  0.00     0.167 HD
ATOM     25  O11 ZIN A   1      17.437   3.710  19.011  0.00  0.00    -0.267 OA
ENDBRANCH   1   7
BRANCH   4  26
ATOM     26  N16 ZIN A   1      19.258   0.135  14.108  0.00  0.00    -0.323 N 
ATOM     27  C17 ZIN A   1      18.284  -0.536  13.462  0.00  0.00     0.257 C 
ATOM     28  O18 ZIN A   1      17.120  -0.368  13.774  0.00  0.00    -0.267 OA
ATOM     29  H49 ZIN A   1      20.189  -0.054  13.912  0.00  0.00     0.169 HD
BRANCH  27  30
ATOM     30  C19 ZIN A   1      18.628  -1.476  12.377  0.00  0.00     0.043 A 
ATOM     31  C24 ZIN A   1      18.923  -0.994  11.090  0.00  0.00    -0.010 A 
ATOM     32  C23 ZIN A   1      19.252  -1.891  10.078  0.00  0.00     0.013 A 
ATOM     33  C22 ZIN A   1      19.275  -3.247  10.338  0.00  0.00     0.001 A 
ATOM     34  C21 ZIN A   1      18.979  -3.723  11.604  0.00  0.00     0.001 A 
ATOM     35  C20 ZIN A   1      18.657  -2.850  12.622  0.00  0.00     0.018 A 
BRANCH  31  36
ATOM     36  C25 ZIN A   1      18.896   0.462  10.815  0.00  0.00    -0.025 A 
ATOM     37  C30 ZIN A   1      17.773   1.043  10.227  0.00  0.00     0.012 A 
ATOM     38  C29 ZIN A   1      17.752   2.401   9.979  0.00  0.00     0.001 A 
ATOM     39  C28 ZIN A   1      18.847   3.182  10.301  0.00  0.00     0.000 A 
ATOM     40  C27 ZIN A   1      19.967   2.611  10.879  0.00  0.00     0.001 A 
ATOM     41  C26 ZIN A   1      19.996   1.255  11.137  0.00  0.00     0.012 A 
ENDBRANCH  31  36
ENDBRANCH  27  30
ENDBRANCH   4  26
TORSDOF 4
ENDMDL
