MODEL 1
REMARK VINA RESULT:      -7.0      0.000      0.000
REMARK  5 active torsions:
REMARK  status: ('A' for Active; 'I' for Inactive)
REMARK    1  A    between atoms: C2_2  and  C3_3 
REMARK    2  A    between atoms: C3_3  and  C4_4 
REMARK    3  A    between atoms: C4_4  and  N5_5 
REMARK       I    between atoms: N5_5  and  C6_6 
REMARK       I    between atoms: C6_6  and  N8_8 
REMARK    4  A    between atoms: N8_8  and  S9_9 
REMARK    5  A    between atoms: S9_9  and  C12_12 
ROOT
ATOM      1  S9  ZIN A   1      17.294   0.989  11.053  0.00  0.00     0.287 S 
ATOM      2  O10 ZIN A   1      16.211   0.084  11.220  0.00  0.00    -0.198 OA
ATOM      3  O11 ZIN A   1      17.187   2.383  11.301  0.00  0.00    -0.198 OA
ENDROOT
BRANCH   1   4
ATOM      4  N8  ZIN A   1      18.519   0.434  12.019  0.00  0.00    -0.102 NA
ATOM      5  C6  ZIN A   1      18.386   0.460  13.359  0.00  0.00     0.352 C 
ATOM      6  N5  ZIN A   1      19.383   0.009  14.146  0.00  0.00    -0.341 N 
ATOM      7  O7  ZIN A   1      17.364   0.891  13.859  0.00  0.00    -0.244 OA
ATOM      8  H28 ZIN A   1      20.197  -0.334  13.747  0.00  0.00     0.164 HD
BRANCH   6   9
ATOM      9  C4  ZIN A   1      19.237   0.037  15.603  0.00  0.00     0.124 C 
BRANCH   9  10
ATOM     10  C3  ZIN A   1      18.800  -1.343  16.098  0.00  0.00     0.019 C 
BRANCH  10  11
ATOM     11  C2  ZIN A   1      17.395  -1.249  16.698  0.00  0.00    -0.003 C 
ATOM     12  C1  ZIN A   1      17.198   0.134  17.322  0.00  0.00     0.005 C 
ENDBRANCH  10  11
ENDBRANCH   9  10
ENDBRANCH   6   9
ENDBRANCH   1   4
BRANCH   1  13
ATOM     13  C12 ZIN A   1      17.829   0.821   9.383  0.00  0.00     0.081 A 
ATOM     14  C18 ZIN A   1      17.305  -0.181   8.587  0.00  0.00     0.026 A 
ATOM     15  C17 ZIN A   1      17.723  -0.311   7.275  0.00  0.00     0.008 A 
ATOM     16  C15 ZIN A   1      18.670   0.556   6.762  0.00  0.00    -0.062 A 
ATOM     17  C14 ZIN A   1      19.196   1.555   7.560  0.00  0.00     0.008 A 
ATOM     18  C16 ZIN A   1      19.127   0.412   5.333  0.00  0.00     0.048 C 
ATOM     19  C13 ZIN A   1      18.776   1.687   8.870  0.00  0.00     0.026 A 
ENDBRANCH   1  13
TORSDOF 5
ENDMDL
MODEL 2
REMARK VINA RESULT:      -6.7      1.225      1.421
REMARK  5 active torsions:
REMARK  status: ('A' for Active; 'I' for Inactive)
REMARK    1  A    between atoms: C2_2  and  C3_3 
REMARK    2  A    between atoms: C3_3  and  C4_4 
REMARK    3  A    between atoms: C4_4  and  N5_5 
REMARK       I    between atoms: N5_5  and  C6_6 
REMARK       I    between atoms: C6_6  and  N8_8 
REMARK    4  A    between atoms: N8_8  and  S9_9 
REMARK    5  A    between atoms: S9_9  and  C12_12 
ROOT
ATOM      1  S9  ZIN A   1      18.250   1.928  11.265  0.00  0.00     0.287 S 
ATOM      2  O10 ZIN A   1      17.095   2.743  11.405  0.00  0.00    -0.198 OA
ATOM      3  O11 ZIN A   1      19.565   2.389  11.541  0.00  0.00    -0.198 OA
ENDROOT
BRANCH   1   4
ATOM      4  N8  ZIN A   1      18.007   0.603  12.227  0.00  0.00    -0.102 NA
ATOM      5  C6  ZIN A   1      17.958   0.742  13.567  0.00  0.00     0.352 C 
ATOM      6  N5  ZIN A   1      17.760  -0.336  14.351  0.00  0.00    -0.341 N 
ATOM      7  O7  ZIN A   1      18.093   1.843  14.067  0.00  0.00    -0.244 OA
ATOM      8  H28 ZIN A   1      17.653  -1.213  13.951  0.00  0.00     0.164 HD
BRANCH   6   9
ATOM      9  C4  ZIN A   1      17.707  -0.183  15.806  0.00  0.00     0.124 C 
BRANCH   9  10
ATOM     10  C3  ZIN A   1      18.819  -1.017  16.447  0.00  0.00     0.019 C 
BRANCH  10  11
ATOM     11  C2  ZIN A   1      19.115  -0.481  17.849  0.00  0.00    -0.003 C 
ATOM     12  C1  ZIN A   1      19.283   1.039  17.791  0.00  0.00     0.005 C 
ENDBRANCH  10  11
ENDBRANCH   9  10
ENDBRANCH   6   9
ENDBRANCH   1   4
BRANCH   1  13
ATOM     13  C12 ZIN A   1      18.261   1.365   9.595  0.00  0.00     0.081 A 
ATOM     14  C18 ZIN A   1      17.456   0.307   9.217  0.00  0.00     0.026 A 
ATOM     15  C17 ZIN A   1      17.462  -0.133   7.906  0.00  0.00     0.008 A 
ATOM     16  C15 ZIN A   1      18.279   0.480   6.975  0.00  0.00    -0.062 A 
ATOM     17  C14 ZIN A   1      19.087   1.536   7.354  0.00  0.00     0.008 A 
ATOM     18  C16 ZIN A   1      18.288  -0.001   5.547  0.00  0.00     0.048 C 
ATOM     19  C13 ZIN A   1      19.079   1.978   8.665  0.00  0.00     0.026 A 
ENDBRANCH   1  13
TORSDOF 5
ENDMDL
MODEL 3
REMARK VINA RESULT:      -6.5      1.541      1.838
REMARK  5 active torsions:
REMARK  status: ('A' for Active; 'I' for Inactive)
REMARK    1  A    between atoms: C2_2  and  C3_3 
REMARK    2  A    between atoms: C3_3  and  C4_4 
REMARK    3  A    between atoms: C4_4  and  N5_5 
REMARK       I    between atoms: N5_5  and  C6_6 
REMARK       I    between atoms: C6_6  and  N8_8 
REMARK    4  A    between atoms: N8_8  and  S9_9 
REMARK    5  A    between atoms: S9_9  and  C12_12 
ROOT
ATOM      1  S9  ZIN A   1      18.273   2.729  11.079  0.00  0.00     0.287 S 
ATOM      2  O10 ZIN A   1      17.046   3.444  11.107  0.00  0.00    -0.198 OA
ATOM      3  O11 ZIN A   1      19.544   3.364  11.104  0.00  0.00    -0.198 OA
ENDROOT
BRANCH   1   4
ATOM      4  N8  ZIN A   1      18.241   1.695  12.372  0.00  0.00    -0.102 NA
ATOM      5  C6  ZIN A   1      18.421   2.170  13.620  0.00  0.00     0.352 C 
ATOM      6  N5  ZIN A   1      18.394   1.330  14.673  0.00  0.00    -0.341 N 
ATOM      7  O7  ZIN A   1      18.605   3.360  13.796  0.00  0.00    -0.244 OA
ATOM      8  H28 ZIN A   1      18.247   0.381  14.532  0.00  0.00     0.164 HD
BRANCH   6   9
ATOM      9  C4  ZIN A   1      18.590   1.847  16.029  0.00  0.00     0.124 C 
BRANCH   9  10
ATOM     10  C3  ZIN A   1      18.405   0.712  17.039  0.00  0.00     0.019 C 
BRANCH  10  11
ATOM     11  C2  ZIN A   1      17.397  -0.300  16.490  0.00  0.00    -0.003 C 
ATOM     12  C1  ZIN A   1      18.046  -1.684  16.424  0.00  0.00     0.005 C 
ENDBRANCH  10  11
ENDBRANCH   9  10
ENDBRANCH   6   9
ENDBRANCH   1   4
BRANCH   1  13
ATOM     13  C12 ZIN A   1      18.240   1.742   9.621  0.00  0.00     0.081 A 
ATOM     14  C18 ZIN A   1      17.432   0.622   9.563  0.00  0.00     0.026 A 
ATOM     15  C17 ZIN A   1      17.403  -0.152   8.416  0.00  0.00     0.008 A 
ATOM     16  C15 ZIN A   1      18.188   0.191   7.332  0.00  0.00    -0.062 A 
ATOM     17  C14 ZIN A   1      19.000   1.308   7.392  0.00  0.00     0.008 A 
ATOM     18  C16 ZIN A   1      18.160  -0.653   6.084  0.00  0.00     0.048 C 
ATOM     19  C13 ZIN A   1      19.026   2.084   8.536  0.00  0.00     0.026 A 
ENDBRANCH   1  13
TORSDOF 5
ENDMDL
MODEL 4
REMARK VINA RESULT:      -6.5      1.605      7.545
REMARK  5 active torsions:
REMARK  status: ('A' for Active; 'I' for Inactive)
REMARK    1  A    between atoms: C2_2  and  C3_3 
REMARK    2  A    between atoms: C3_3  and  C4_4 
REMARK    3  A    between atoms: C4_4  and  N5_5 
REMARK       I    between atoms: N5_5  and  C6_6 
REMARK       I    between atoms: C6_6  and  N8_8 
REMARK    4  A    between atoms: N8_8  and  S9_9 
REMARK    5  A    between atoms: S9_9  and  C12_12 
ROOT
ATOM      1  S9  ZIN A   1      17.256  -0.657  11.865  0.00  0.00     0.287 S 
ATOM      2  O10 ZIN A   1      16.153   0.232  11.752  0.00  0.00    -0.198 OA
ATOM      3  O11 ZIN A   1      17.173  -2.041  11.559  0.00  0.00    -0.198 OA
ENDROOT
BRANCH   1   4
ATOM      4  N8  ZIN A   1      18.456  -0.036  10.907  0.00  0.00    -0.102 NA
ATOM      5  C6  ZIN A   1      18.205   0.251   9.614  0.00  0.00     0.352 C 
ATOM      6  N5  ZIN A   1      19.180   0.757   8.834  0.00  0.00    -0.341 N 
ATOM      7  O7  ZIN A   1      17.096   0.056   9.153  0.00  0.00    -0.244 OA
ATOM      8  H28 ZIN A   1      20.064   0.912   9.202  0.00  0.00     0.164 HD
BRANCH   6   9
ATOM      9  C4  ZIN A   1      18.907   1.069   7.429  0.00  0.00     0.124 C 
BRANCH   9  10
ATOM     10  C3  ZIN A   1      19.117  -0.184   6.578  0.00  0.00     0.019 C 
BRANCH  10  11
ATOM     11  C2  ZIN A   1      19.230   0.213   5.104  0.00  0.00    -0.003 C 
ATOM     12  C1  ZIN A   1      18.327  -0.689   4.261  0.00  0.00     0.005 C 
ENDBRANCH  10  11
ENDBRANCH   9  10
ENDBRANCH   6   9
ENDBRANCH   1   4
BRANCH   1  13
ATOM     13  C12 ZIN A   1      17.812  -0.548  13.533  0.00  0.00     0.081 A 
ATOM     14  C18 ZIN A   1      18.662  -1.512  14.042  0.00  0.00     0.026 A 
ATOM     15  C17 ZIN A   1      19.101  -1.425  15.351  0.00  0.00     0.008 A 
ATOM     16  C15 ZIN A   1      18.684  -0.379  16.152  0.00  0.00    -0.062 A 
ATOM     17  C14 ZIN A   1      17.830   0.583  15.644  0.00  0.00     0.008 A 
ATOM     18  C16 ZIN A   1      19.160  -0.286  17.579  0.00  0.00     0.048 C 
ATOM     19  C13 ZIN A   1      17.394   0.498  14.334  0.00  0.00     0.026 A 
ENDBRANCH   1  13
TORSDOF 5
ENDMDL
MODEL 5
REMARK VINA RESULT:      -6.4      2.325      7.633
REMARK  5 active torsions:
REMARK  status: ('A' for Active; 'I' for Inactive)
REMARK    1  A    between atoms: C2_2  and  C3_3 
REMARK    2  A    between atoms: C3_3  and  C4_4 
REMARK    3  A    between atoms: C4_4  and  N5_5 
REMARK       I    between atoms: N5_5  and  C6_6 
REMARK       I    between atoms: C6_6  and  N8_8 
REMARK    4  A    between atoms: N8_8  and  S9_9 
REMARK    5  A    between atoms: S9_9  and  C12_12 
ROOT
ATOM      1  S9  ZIN A   1      19.552  -0.810  11.537  0.00  0.00     0.287 S 
ATOM      2  O10 ZIN A   1      19.772  -2.203  11.363  0.00  0.00    -0.198 OA
ATOM      3  O11 ZIN A   1      20.581   0.161  11.413  0.00  0.00    -0.198 OA
ENDROOT
BRANCH   1   4
ATOM      4  N8  ZIN A   1      18.374  -0.384  10.454  0.00  0.00    -0.102 NA
ATOM      5  C6  ZIN A   1      18.547  -0.627   9.140  0.00  0.00     0.352 C 
ATOM      6  N5  ZIN A   1      17.588  -0.281   8.258  0.00  0.00    -0.341 N 
ATOM      7  O7  ZIN A   1      19.569  -1.159   8.750  0.00  0.00    -0.244 OA
ATOM      8  H28 ZIN A   1      16.774   0.144   8.569  0.00  0.00     0.164 HD
BRANCH   6   9
ATOM      9  C4  ZIN A   1      17.777  -0.545   6.829  0.00  0.00     0.124 C 
BRANCH   9  10
ATOM     10  C3  ZIN A   1      18.354   0.701   6.153  0.00  0.00     0.019 C 
BRANCH  10  11
ATOM     11  C2  ZIN A   1      19.304   0.278   5.030  0.00  0.00    -0.003 C 
ATOM     12  C1  ZIN A   1      19.156  -1.224   4.775  0.00  0.00     0.005 C 
ENDBRANCH  10  11
ENDBRANCH   9  10
ENDBRANCH   6   9
ENDBRANCH   1   4
BRANCH   1  13
ATOM     13  C12 ZIN A   1      18.873  -0.612  13.150  0.00  0.00     0.081 A 
ATOM     14  C18 ZIN A   1      19.242  -1.474  14.166  0.00  0.00     0.026 A 
ATOM     15  C17 ZIN A   1      18.712  -1.317  15.434  0.00  0.00     0.008 A 
ATOM     16  C15 ZIN A   1      17.807  -0.302  15.683  0.00  0.00    -0.062 A 
ATOM     17  C14 ZIN A   1      17.435   0.557  14.666  0.00  0.00     0.008 A 
ATOM     18  C16 ZIN A   1      17.227  -0.132  17.064  0.00  0.00     0.048 C 
ATOM     19  C13 ZIN A   1      17.968   0.402  13.400  0.00  0.00     0.026 A 
ENDBRANCH   1  13
TORSDOF 5
ENDMDL
MODEL 6
REMARK VINA RESULT:      -6.2      2.832      3.940
REMARK  5 active torsions:
REMARK  status: ('A' for Active; 'I' for Inactive)
REMARK    1  A    between atoms: C2_2  and  C3_3 
REMARK    2  A    between atoms: C3_3  and  C4_4 
REMARK    3  A    between atoms: C4_4  and  N5_5 
REMARK       I    between atoms: N5_5  and  C6_6 
REMARK       I    between atoms: C6_6  and  N8_8 
REMARK    4  A    between atoms: N8_8  and  S9_9 
REMARK    5  A    between atoms: S9_9  and  C12_12 
ROOT
ATOM      1  S9  ZIN A   1      18.309   1.426  10.720  0.00  0.00     0.287 S 
ATOM      2  O10 ZIN A   1      17.150   2.211  10.966  0.00  0.00    -0.198 OA
ATOM      3  O11 ZIN A   1      19.626   1.877  11.002  0.00  0.00    -0.198 OA
ENDROOT
BRANCH   1   4
ATOM      4  N8  ZIN A   1      18.106   0.016  11.564  0.00  0.00    -0.102 NA
ATOM      5  C6  ZIN A   1      19.009  -0.977  11.444  0.00  0.00     0.352 C 
ATOM      6  N5  ZIN A   1      18.845  -2.125  12.130  0.00  0.00    -0.341 N 
ATOM      7  O7  ZIN A   1      19.974  -0.835  10.718  0.00  0.00    -0.244 OA
ATOM      8  H28 ZIN A   1      18.076  -2.237  12.710  0.00  0.00     0.164 HD
BRANCH   6   9
ATOM      9  C4  ZIN A   1      19.828  -3.203  12.000  0.00  0.00     0.124 C 
BRANCH   9  10
ATOM     10  C3  ZIN A   1      19.147  -4.446  11.424  0.00  0.00     0.019 C 
BRANCH  10  11
ATOM     11  C2  ZIN A   1      19.661  -4.697  10.004  0.00  0.00    -0.003 C 
ATOM     12  C1  ZIN A   1      18.761  -3.974   9.000  0.00  0.00     0.005 C 
ENDBRANCH  10  11
ENDBRANCH   9  10
ENDBRANCH   6   9
ENDBRANCH   1   4
BRANCH   1  13
ATOM     13  C12 ZIN A   1      18.278   1.019   9.007  0.00  0.00     0.081 A 
ATOM     14  C18 ZIN A   1      19.136   1.655   8.129  0.00  0.00     0.026 A 
ATOM     15  C17 ZIN A   1      19.115   1.332   6.784  0.00  0.00     0.008 A 
ATOM     16  C15 ZIN A   1      18.229   0.380   6.316  0.00  0.00    -0.062 A 
ATOM     17  C14 ZIN A   1      17.367  -0.253   7.193  0.00  0.00     0.008 A 
ATOM     18  C16 ZIN A   1      18.203   0.031   4.851  0.00  0.00     0.048 C 
ATOM     19  C13 ZIN A   1      17.391   0.067   8.538  0.00  0.00     0.026 A 
ENDBRANCH   1  13
TORSDOF 5
ENDMDL
MODEL 7
REMARK VINA RESULT:      -6.1      5.913      8.789
REMARK  5 active torsions:
REMARK  status: ('A' for Active; 'I' for Inactive)
REMARK    1  A    between atoms: C2_2  and  C3_3 
REMARK    2  A    between atoms: C3_3  and  C4_4 
REMARK    3  A    between atoms: C4_4  and  N5_5 
REMARK       I    between atoms: N5_5  and  C6_6 
REMARK       I    between atoms: C6_6  and  N8_8 
REMARK    4  A    between atoms: N8_8  and  S9_9 
REMARK    5  A    between atoms: S9_9  and  C12_12 
ROOT
ATOM      1  S9  ZIN A   1      19.263  -1.856   5.526  0.00  0.00     0.287 S 
ATOM      2  O10 ZIN A   1      19.852  -2.979   6.169  0.00  0.00    -0.198 OA
ATOM      3  O11 ZIN A   1      19.808  -1.255   4.361  0.00  0.00    -0.198 OA
ENDROOT
BRANCH   1   4
ATOM      4  N8  ZIN A   1      17.713  -2.295   5.146  0.00  0.00    -0.102 NA
ATOM      5  C6  ZIN A   1      17.490  -3.268   4.241  0.00  0.00     0.352 C 
ATOM      6  N5  ZIN A   1      16.229  -3.626   3.931  0.00  0.00    -0.341 N 
ATOM      7  O7  ZIN A   1      18.430  -3.825   3.705  0.00  0.00    -0.244 OA
ATOM      8  H28 ZIN A   1      15.480  -3.182   4.359  0.00  0.00     0.164 HD
BRANCH   6   9
ATOM      9  C4  ZIN A   1      15.988  -4.685   2.948  0.00  0.00     0.124 C 
BRANCH   9  10
ATOM     10  C3  ZIN A   1      14.699  -5.428   3.305  0.00  0.00     0.019 C 
BRANCH  10  11
ATOM     11  C2  ZIN A   1      14.922  -6.256   4.573  0.00  0.00    -0.003 C 
ATOM     12  C1  ZIN A   1      13.595  -6.417   5.317  0.00  0.00     0.005 C 
ENDBRANCH  10  11
ENDBRANCH   9  10
ENDBRANCH   6   9
ENDBRANCH   1   4
BRANCH   1  13
ATOM     13  C12 ZIN A   1      19.163  -0.584   6.742  0.00  0.00     0.081 A 
ATOM     14  C18 ZIN A   1      19.251  -0.903   8.084  0.00  0.00     0.026 A 
ATOM     15  C17 ZIN A   1      19.175   0.096   9.038  0.00  0.00     0.008 A 
ATOM     16  C15 ZIN A   1      19.002   1.411   8.649  0.00  0.00    -0.062 A 
ATOM     17  C14 ZIN A   1      18.909   1.729   7.307  0.00  0.00     0.008 A 
ATOM     18  C16 ZIN A   1      18.916   2.499   9.688  0.00  0.00     0.048 C 
ATOM     19  C13 ZIN A   1      18.989   0.731   6.353  0.00  0.00     0.026 A 
ENDBRANCH   1  13
TORSDOF 5
ENDMDL
MODEL 8
REMARK VINA RESULT:      -6.0      3.245      3.654
REMARK  5 active torsions:
REMARK  status: ('A' for Active; 'I' for Inactive)
REMARK    1  A    between atoms: C2_2  and  C3_3 
REMARK    2  A    between atoms: C3_3  and  C4_4 
REMARK    3  A    between atoms: C4_4  and  N5_5 
REMARK       I    between atoms: N5_5  and  C6_6 
REMARK       I    between atoms: C6_6  and  N8_8 
REMARK    4  A    between atoms: N8_8  and  S9_9 
REMARK    5  A    between atoms: S9_9  and  C12_12 
ROOT
ATOM      1  S9  ZIN A   1      17.801   0.941  10.380  0.00  0.00     0.287 S 
ATOM      2  O10 ZIN A   1      18.995   0.496  11.008  0.00  0.00    -0.198 OA
ATOM      3  O11 ZIN A   1      16.516   0.427  10.700  0.00  0.00    -0.198 OA
ENDROOT
BRANCH   1   4
ATOM      4  N8  ZIN A   1      17.725   2.577  10.626  0.00  0.00    -0.102 NA
ATOM      5  C6  ZIN A   1      17.725   3.070  11.880  0.00  0.00     0.352 C 
ATOM      6  N5  ZIN A   1      17.664   4.401  12.081  0.00  0.00    -0.341 N 
ATOM      7  O7  ZIN A   1      17.782   2.313  12.830  0.00  0.00    -0.244 OA
ATOM      8  H28 ZIN A   1      17.619   5.005  11.323  0.00  0.00     0.164 HD
BRANCH   6   9
ATOM      9  C4  ZIN A   1      17.665   4.937  13.444  0.00  0.00     0.124 C 
BRANCH   9  10
ATOM     10  C3  ZIN A   1      19.078   5.393  13.812  0.00  0.00     0.019 C 
BRANCH  10  11
ATOM     11  C2  ZIN A   1      19.304   5.196  15.312  0.00  0.00    -0.003 C 
ATOM     12  C1  ZIN A   1      20.675   5.753  15.701  0.00  0.00     0.005 C 
ENDBRANCH  10  11
ENDBRANCH   9  10
ENDBRANCH   6   9
ENDBRANCH   1   4
BRANCH   1  13
ATOM     13  C12 ZIN A   1      18.023   0.683   8.651  0.00  0.00     0.081 A 
ATOM     14  C18 ZIN A   1      17.284  -0.285   7.996  0.00  0.00     0.026 A 
ATOM     15  C17 ZIN A   1      17.456  -0.485   6.638  0.00  0.00     0.008 A 
ATOM     16  C15 ZIN A   1      18.373   0.277   5.938  0.00  0.00    -0.062 A 
ATOM     17  C14 ZIN A   1      19.114   1.242   6.594  0.00  0.00     0.008 A 
ATOM     18  C16 ZIN A   1      18.563   0.057   4.459  0.00  0.00     0.048 C 
ATOM     19  C13 ZIN A   1      18.940   1.444   7.951  0.00  0.00     0.026 A 
ENDBRANCH   1  13
TORSDOF 5
ENDMDL
MODEL 9
REMARK VINA RESULT:      -6.0      3.386      4.122
REMARK  5 active torsions:
REMARK  status: ('A' for Active; 'I' for Inactive)
REMARK    1  A    between atoms: C2_2  and  C3_3 
REMARK    2  A    between atoms: C3_3  and  C4_4 
REMARK    3  A    between atoms: C4_4  and  N5_5 
REMARK       I    between atoms: N5_5  and  C6_6 
REMARK       I    between atoms: C6_6  and  N8_8 
REMARK    4  A    between atoms: N8_8  and  S9_9 
REMARK    5  A    between atoms: S9_9  and  C12_12 
ROOT
ATOM      1  S9  ZIN A   1      17.949   1.101  10.616  0.00  0.00     0.287 S 
ATOM      2  O10 ZIN A   1      19.143   0.640  11.233  0.00  0.00    -0.198 OA
ATOM      3  O11 ZIN A   1      16.659   0.621  10.965  0.00  0.00    -0.198 OA
ENDROOT
BRANCH   1   4
ATOM      4  N8  ZIN A   1      17.914   2.742  10.837  0.00  0.00    -0.102 NA
ATOM      5  C6  ZIN A   1      17.815   3.253  12.080  0.00  0.00     0.352 C 
ATOM      6  N5  ZIN A   1      17.787   4.588  12.260  0.00  0.00    -0.341 N 
ATOM      7  O7  ZIN A   1      17.754   2.508  13.039  0.00  0.00    -0.244 OA
ATOM      8  H28 ZIN A   1      17.836   5.182  11.495  0.00  0.00     0.164 HD
BRANCH   6   9
ATOM      9  C4  ZIN A   1      17.680   5.143  13.612  0.00  0.00     0.124 C 
BRANCH   9  10
ATOM     10  C3  ZIN A   1      16.671   6.294  13.612  0.00  0.00     0.019 C 
BRANCH  10  11
ATOM     11  C2  ZIN A   1      15.470   5.919  14.484  0.00  0.00    -0.003 C 
ATOM     12  C1  ZIN A   1      14.997   7.151  15.258  0.00  0.00     0.005 C 
ENDBRANCH  10  11
ENDBRANCH   9  10
ENDBRANCH   6   9
ENDBRANCH   1   4
BRANCH   1  13
ATOM     13  C12 ZIN A   1      18.138   0.811   8.889  0.00  0.00     0.081 A 
ATOM     14  C18 ZIN A   1      19.046   1.555   8.158  0.00  0.00     0.026 A 
ATOM     15  C17 ZIN A   1      19.197   1.325   6.803  0.00  0.00     0.008 A 
ATOM     16  C15 ZIN A   1      18.433   0.357   6.177  0.00  0.00    -0.062 A 
ATOM     17  C14 ZIN A   1      17.522  -0.383   6.907  0.00  0.00     0.008 A 
ATOM     18  C16 ZIN A   1      18.595   0.109   4.699  0.00  0.00     0.048 C 
ATOM     19  C13 ZIN A   1      17.374  -0.156   8.263  0.00  0.00     0.026 A 
ENDBRANCH   1  13
TORSDOF 5
ENDMDL
