MODEL 1
REMARK VINA RESULT:      -8.0      0.000      0.000
REMARK  7 active torsions:
REMARK  status: ('A' for Active; 'I' for Inactive)
REMARK    1  A    between atoms: C2_2  and  C3_3 
REMARK    2  A    between atoms: C3_3  and  C4_4 
REMARK    3  A    between atoms: C4_4  and  C5_5 
REMARK    4  A    between atoms: C5_5  and  C6_6 
REMARK    5  A    between atoms: C6_6  and  O8_8 
REMARK    6  A    between atoms: O8_8  and  C9_9 
REMARK    7  A    between atoms: C9_9  and  C10_10 
ROOT
ATOM      1  C9  ZIN A   1      19.036  -0.349  12.263  0.00  0.00     0.138 C 
ATOM      2  C13 ZIN A   1      20.132   0.265  11.358  0.00  0.00     0.048 C 
ATOM      3  C14 ZIN A   1      20.331  -0.725  10.178  0.00  0.00     0.009 C 
ATOM      4  C15 ZIN A   1      18.992  -1.470  10.126  0.00  0.00     0.002 C 
ATOM      5  C17 ZIN A   1      19.018  -2.827   9.447  0.00  0.00    -0.004 C 
ATOM      6  C19 ZIN A   1      19.369  -2.657   7.965  0.00  0.00     0.010 C 
ATOM      7  C20 ZIN A   1      19.460  -4.037   7.311  0.00  0.00     0.035 C 
ATOM      8  C21 ZIN A   1      18.157  -4.779   7.549  0.00  0.00    -0.068 C 
ATOM      9  C22 ZIN A   1      17.575  -5.360   6.502  0.00  0.00     0.053 C 
ATOM     10  C23 ZIN A   1      16.323  -6.105   6.676  0.00  0.00     0.149 C 
ATOM     11  O24 ZIN A   1      15.572  -6.319   5.748  0.00  0.00    -0.293 OA
ATOM     12  C25 ZIN A   1      16.016  -6.592   8.079  0.00  0.00     0.084 C 
ATOM     13  C26 ZIN A   1      16.199  -5.406   9.026  0.00  0.00     0.022 C 
ATOM     14  C27 ZIN A   1      17.603  -4.831   8.939  0.00  0.00    -0.016 C 
ATOM     15  C28 ZIN A   1      18.527  -5.708   9.787  0.00  0.00     0.020 C 
ATOM     16  C29 ZIN A   1      17.614  -3.436   9.575  0.00  0.00     0.002 C 
ATOM     17  C31 ZIN A   1      17.161  -3.545  11.028  0.00  0.00     0.007 C 
ATOM     18  C32 ZIN A   1      17.266  -2.198  11.760  0.00  0.00     0.013 C 
ATOM     19  C33 ZIN A   1      18.701  -1.697  11.634  0.00  0.00    -0.001 C 
ATOM     20  C34 ZIN A   1      19.670  -2.769  12.136  0.00  0.00     0.019 C 
ENDROOT
BRANCH   1  21
ATOM     21  O8  ZIN A   1      17.861   0.505  12.278  0.00  0.00    -0.301 OA
BRANCH  21  22
ATOM     22  C6  ZIN A   1      17.981   1.717  11.715  0.00  0.00     0.260 C 
ATOM     23  O7  ZIN A   1      18.434   2.637  12.354  0.00  0.00    -0.265 OA
BRANCH  22  24
ATOM     24  C5  ZIN A   1      17.551   1.931  10.286  0.00  0.00     0.111 C 
BRANCH  24  25
ATOM     25  C4  ZIN A   1      18.483   2.946   9.619  0.00  0.00     0.010 C 
BRANCH  25  26
ATOM     26  C3  ZIN A   1      19.255   2.263   8.490  0.00  0.00     0.000 C 
BRANCH  26  27
ATOM     27  C2  ZIN A   1      18.375   1.187   7.849  0.00  0.00    -0.005 C 
ATOM     28  C1  ZIN A   1      18.880   0.891   6.435  0.00  0.00     0.005 C 
ENDBRANCH  26  27
ENDBRANCH  25  26
ENDBRANCH  24  25
ENDBRANCH  22  24
ENDBRANCH  21  22
ENDBRANCH   1  21
BRANCH   1  29
ATOM     29  C10 ZIN A   1      19.558  -0.541  13.663  0.00  0.00     0.158 C 
ATOM     30  C11 ZIN A   1      18.704  -1.226  14.698  0.00  0.00     0.094 C 
ATOM     31  O12 ZIN A   1      20.661  -0.146  13.955  0.00  0.00    -0.295 OA
ENDBRANCH   1  29
TORSDOF 7
ENDMDL
MODEL 2
REMARK VINA RESULT:      -7.9      2.737      4.421
REMARK  7 active torsions:
REMARK  status: ('A' for Active; 'I' for Inactive)
REMARK    1  A    between atoms: C2_2  and  C3_3 
REMARK    2  A    between atoms: C3_3  and  C4_4 
REMARK    3  A    between atoms: C4_4  and  C5_5 
REMARK    4  A    between atoms: C5_5  and  C6_6 
REMARK    5  A    between atoms: C6_6  and  O8_8 
REMARK    6  A    between atoms: O8_8  and  C9_9 
REMARK    7  A    between atoms: C9_9  and  C10_10 
ROOT
ATOM      1  C9  ZIN A   1      18.278   3.025  11.714  0.00  0.00     0.138 C 
ATOM      2  C13 ZIN A   1      18.713   3.492  10.303  0.00  0.00     0.048 C 
ATOM      3  C14 ZIN A   1      18.984   2.204   9.479  0.00  0.00     0.009 C 
ATOM      4  C15 ZIN A   1      18.135   1.151  10.201  0.00  0.00     0.002 C 
ATOM      5  C17 ZIN A   1      18.552  -0.293   9.986  0.00  0.00    -0.004 C 
ATOM      6  C19 ZIN A   1      18.376  -0.668   8.511  0.00  0.00     0.010 C 
ATOM      7  C20 ZIN A   1      18.866  -2.101   8.297  0.00  0.00     0.035 C 
ATOM      8  C21 ZIN A   1      18.126  -3.019   9.253  0.00  0.00    -0.068 C 
ATOM      9  C22 ZIN A   1      17.587  -4.130   8.753  0.00  0.00     0.053 C 
ATOM     10  C23 ZIN A   1      16.874  -5.062   9.634  0.00  0.00     0.149 C 
ATOM     11  O24 ZIN A   1      16.065  -5.856   9.203  0.00  0.00    -0.293 OA
ATOM     12  C25 ZIN A   1      17.202  -4.980  11.112  0.00  0.00     0.084 C 
ATOM     13  C26 ZIN A   1      17.112  -3.510  11.520  0.00  0.00     0.022 C 
ATOM     14  C27 ZIN A   1      18.051  -2.641  10.700  0.00  0.00    -0.016 C 
ATOM     15  C28 ZIN A   1      19.454  -2.767  11.298  0.00  0.00     0.020 C 
ATOM     16  C29 ZIN A   1      17.638  -1.173  10.851  0.00  0.00     0.002 C 
ATOM     17  C31 ZIN A   1      17.693  -0.787  12.327  0.00  0.00     0.007 C 
ATOM     18  C32 ZIN A   1      17.407   0.708  12.536  0.00  0.00     0.013 C 
ATOM     19  C33 ZIN A   1      18.394   1.505  11.690  0.00  0.00    -0.001 C 
ATOM     20  C34 ZIN A   1      19.825   1.079  12.025  0.00  0.00     0.019 C 
ENDROOT
BRANCH   1  21
ATOM     21  O8  ZIN A   1      16.905   3.421  11.974  0.00  0.00    -0.301 OA
BRANCH  21  22
ATOM     22  C6  ZIN A   1      16.562   4.678  11.654  0.00  0.00     0.260 C 
ATOM     23  O7  ZIN A   1      16.079   4.916  10.572  0.00  0.00    -0.265 OA
BRANCH  22  24
ATOM     24  C5  ZIN A   1      16.778   5.793  12.645  0.00  0.00     0.111 C 
BRANCH  24  25
ATOM     25  C4  ZIN A   1      16.003   5.492  13.930  0.00  0.00     0.010 C 
BRANCH  25  26
ATOM     26  C3  ZIN A   1      16.851   5.886  15.140  0.00  0.00     0.000 C 
BRANCH  26  27
ATOM     27  C2  ZIN A   1      18.024   6.755  14.680  0.00  0.00    -0.005 C 
ATOM     28  C1  ZIN A   1      19.256   6.438  15.528  0.00  0.00     0.005 C 
ENDBRANCH  26  27
ENDBRANCH  25  26
ENDBRANCH  24  25
ENDBRANCH  22  24
ENDBRANCH  21  22
ENDBRANCH   1  21
BRANCH   1  29
ATOM     29  C10 ZIN A   1      19.193   3.603  12.763  0.00  0.00     0.158 C 
ATOM     30  C11 ZIN A   1      20.306   4.535  12.360  0.00  0.00     0.094 C 
ATOM     31  O12 ZIN A   1      19.033   3.319  13.925  0.00  0.00    -0.295 OA
ENDBRANCH   1  29
TORSDOF 7
ENDMDL
MODEL 3
REMARK VINA RESULT:      -7.8      1.181      1.955
REMARK  7 active torsions:
REMARK  status: ('A' for Active; 'I' for Inactive)
REMARK    1  A    between atoms: C2_2  and  C3_3 
REMARK    2  A    between atoms: C3_3  and  C4_4 
REMARK    3  A    between atoms: C4_4  and  C5_5 
REMARK    4  A    between atoms: C5_5  and  C6_6 
REMARK    5  A    between atoms: C6_6  and  O8_8 
REMARK    6  A    between atoms: O8_8  and  C9_9 
REMARK    7  A    between atoms: C9_9  and  C10_10 
ROOT
ATOM      1  C9  ZIN A   1      18.960  -0.243  11.903  0.00  0.00     0.138 C 
ATOM      2  C13 ZIN A   1      19.880   0.476  10.886  0.00  0.00     0.048 C 
ATOM      3  C14 ZIN A   1      20.052  -0.495   9.687  0.00  0.00     0.009 C 
ATOM      4  C15 ZIN A   1      18.802  -1.379   9.780  0.00  0.00     0.002 C 
ATOM      5  C17 ZIN A   1      18.898  -2.731   9.097  0.00  0.00    -0.004 C 
ATOM      6  C19 ZIN A   1      19.064  -2.537   7.586  0.00  0.00     0.010 C 
ATOM      7  C20 ZIN A   1      19.230  -3.904   6.920  0.00  0.00     0.035 C 
ATOM      8  C21 ZIN A   1      18.047  -4.778   7.297  0.00  0.00    -0.068 C 
ATOM      9  C22 ZIN A   1      17.419  -5.426   6.317  0.00  0.00     0.053 C 
ATOM     10  C23 ZIN A   1      16.280  -6.298   6.625  0.00  0.00     0.149 C 
ATOM     11  O24 ZIN A   1      15.460  -6.598   5.784  0.00  0.00    -0.293 OA
ATOM     12  C25 ZIN A   1      16.183  -6.805   8.052  0.00  0.00     0.084 C 
ATOM     13  C26 ZIN A   1      16.341  -5.599   8.977  0.00  0.00     0.022 C 
ATOM     14  C27 ZIN A   1      17.657  -4.878   8.739  0.00  0.00    -0.016 C 
ATOM     15  C28 ZIN A   1      18.757  -5.645   9.477  0.00  0.00     0.020 C 
ATOM     16  C29 ZIN A   1      17.590  -3.485   9.375  0.00  0.00     0.002 C 
ATOM     17  C31 ZIN A   1      17.313  -3.630  10.869  0.00  0.00     0.007 C 
ATOM     18  C32 ZIN A   1      17.354  -2.274  11.590  0.00  0.00     0.013 C 
ATOM     19  C33 ZIN A   1      18.704  -1.625  11.309  0.00  0.00    -0.001 C 
ATOM     20  C34 ZIN A   1      19.832  -2.584  11.698  0.00  0.00     0.019 C 
ENDROOT
BRANCH   1  21
ATOM     21  O8  ZIN A   1      17.710   0.480  12.050  0.00  0.00    -0.301 OA
BRANCH  21  22
ATOM     22  C6  ZIN A   1      17.775   1.821  12.027  0.00  0.00     0.260 C 
ATOM     23  O7  ZIN A   1      18.019   2.431  13.041  0.00  0.00    -0.265 OA
BRANCH  22  24
ATOM     24  C5  ZIN A   1      17.545   2.564  10.737  0.00  0.00     0.111 C 
BRANCH  24  25
ATOM     25  C4  ZIN A   1      18.421   3.819  10.707  0.00  0.00     0.010 C 
BRANCH  25  26
ATOM     26  C3  ZIN A   1      17.559   5.034  10.361  0.00  0.00     0.000 C 
BRANCH  26  27
ATOM     27  C2  ZIN A   1      16.348   5.083  11.296  0.00  0.00    -0.005 C 
ATOM     28  C1  ZIN A   1      16.750   5.739  12.617  0.00  0.00     0.005 C 
ENDBRANCH  26  27
ENDBRANCH  25  26
ENDBRANCH  24  25
ENDBRANCH  22  24
ENDBRANCH  21  22
ENDBRANCH   1  21
BRANCH   1  29
ATOM     29  C10 ZIN A   1      19.651  -0.368  13.237  0.00  0.00     0.158 C 
ATOM     30  C11 ZIN A   1      18.955  -1.054  14.384  0.00  0.00     0.094 C 
ATOM     31  O12 ZIN A   1      20.761   0.082  13.385  0.00  0.00    -0.295 OA
ENDBRANCH   1  29
TORSDOF 7
ENDMDL
MODEL 4
REMARK VINA RESULT:      -7.4      1.646      2.578
REMARK  7 active torsions:
REMARK  status: ('A' for Active; 'I' for Inactive)
REMARK    1  A    between atoms: C2_2  and  C3_3 
REMARK    2  A    between atoms: C3_3  and  C4_4 
REMARK    3  A    between atoms: C4_4  and  C5_5 
REMARK    4  A    between atoms: C5_5  and  C6_6 
REMARK    5  A    between atoms: C6_6  and  O8_8 
REMARK    6  A    between atoms: O8_8  and  C9_9 
REMARK    7  A    between atoms: C9_9  and  C10_10 
ROOT
ATOM      1  C9  ZIN A   1      18.899  -0.125  11.956  0.00  0.00     0.138 C 
ATOM      2  C13 ZIN A   1      19.788   0.630  10.938  0.00  0.00     0.048 C 
ATOM      3  C14 ZIN A   1      20.001  -0.335   9.740  0.00  0.00     0.009 C 
ATOM      4  C15 ZIN A   1      18.789  -1.270   9.834  0.00  0.00     0.002 C 
ATOM      5  C17 ZIN A   1      18.942  -2.617   9.153  0.00  0.00    -0.004 C 
ATOM      6  C19 ZIN A   1      19.100  -2.418   7.642  0.00  0.00     0.010 C 
ATOM      7  C20 ZIN A   1      19.322  -3.779   6.978  0.00  0.00     0.035 C 
ATOM      8  C21 ZIN A   1      18.177  -4.701   7.356  0.00  0.00    -0.068 C 
ATOM      9  C22 ZIN A   1      17.577  -5.376   6.377  0.00  0.00     0.053 C 
ATOM     10  C23 ZIN A   1      16.475  -6.294   6.686  0.00  0.00     0.149 C 
ATOM     11  O24 ZIN A   1      15.668  -6.629   5.845  0.00  0.00    -0.293 OA
ATOM     12  C25 ZIN A   1      16.399  -6.802   8.113  0.00  0.00     0.084 C 
ATOM     13  C26 ZIN A   1      16.506  -5.589   9.037  0.00  0.00     0.022 C 
ATOM     14  C27 ZIN A   1      17.791  -4.815   8.798  0.00  0.00    -0.016 C 
ATOM     15  C28 ZIN A   1      18.922  -5.535   9.537  0.00  0.00     0.020 C 
ATOM     16  C29 ZIN A   1      17.665  -3.425   9.432  0.00  0.00     0.002 C 
ATOM     17  C31 ZIN A   1      17.395  -3.580  10.926  0.00  0.00     0.007 C 
ATOM     18  C32 ZIN A   1      17.379  -2.222  11.645  0.00  0.00     0.013 C 
ATOM     19  C33 ZIN A   1      18.701  -1.517  11.364  0.00  0.00    -0.001 C 
ATOM     20  C34 ZIN A   1      19.867  -2.428  11.754  0.00  0.00     0.019 C 
ENDROOT
BRANCH   1  21
ATOM     21  O8  ZIN A   1      17.620   0.546  12.102  0.00  0.00    -0.301 OA
BRANCH  21  22
ATOM     22  C6  ZIN A   1      17.590   1.863  11.846  0.00  0.00     0.260 C 
ATOM     23  O7  ZIN A   1      17.224   2.260  10.765  0.00  0.00    -0.265 OA
BRANCH  22  24
ATOM     24  C5  ZIN A   1      18.012   2.847  12.907  0.00  0.00     0.111 C 
BRANCH  24  25
ATOM     25  C4  ZIN A   1      17.472   4.236  12.559  0.00  0.00     0.010 C 
BRANCH  25  26
ATOM     26  C3  ZIN A   1      18.080   5.271  13.505  0.00  0.00     0.000 C 
BRANCH  26  27
ATOM     27  C2  ZIN A   1      19.598   5.083  13.559  0.00  0.00    -0.005 C 
ATOM     28  C1  ZIN A   1      20.219   6.191  14.411  0.00  0.00     0.005 C 
ENDBRANCH  26  27
ENDBRANCH  25  26
ENDBRANCH  24  25
ENDBRANCH  22  24
ENDBRANCH  21  22
ENDBRANCH   1  21
BRANCH   1  29
ATOM     29  C10 ZIN A   1      19.594  -0.219  13.290  0.00  0.00     0.158 C 
ATOM     30  C11 ZIN A   1      18.881  -0.830  14.469  0.00  0.00     0.094 C 
ATOM     31  O12 ZIN A   1      20.722   0.194  13.413  0.00  0.00    -0.295 OA
ENDBRANCH   1  29
TORSDOF 7
ENDMDL
MODEL 5
REMARK VINA RESULT:      -7.4      2.474      7.665
REMARK  7 active torsions:
REMARK  status: ('A' for Active; 'I' for Inactive)
REMARK    1  A    between atoms: C2_2  and  C3_3 
REMARK    2  A    between atoms: C3_3  and  C4_4 
REMARK    3  A    between atoms: C4_4  and  C5_5 
REMARK    4  A    between atoms: C5_5  and  C6_6 
REMARK    5  A    between atoms: C6_6  and  O8_8 
REMARK    6  A    between atoms: O8_8  and  C9_9 
REMARK    7  A    between atoms: C9_9  and  C10_10 
ROOT
ATOM      1  C9  ZIN A   1      18.266  -2.816  11.180  0.00  0.00     0.138 C 
ATOM      2  C13 ZIN A   1      18.686  -3.226  12.613  0.00  0.00     0.048 C 
ATOM      3  C14 ZIN A   1      18.948  -1.905  13.387  0.00  0.00     0.009 C 
ATOM      4  C15 ZIN A   1      18.106  -0.883  12.614  0.00  0.00     0.002 C 
ATOM      5  C17 ZIN A   1      18.521   0.569  12.776  0.00  0.00    -0.004 C 
ATOM      6  C19 ZIN A   1      18.328   1.003  14.232  0.00  0.00     0.010 C 
ATOM      7  C20 ZIN A   1      18.815   2.444  14.394  0.00  0.00     0.035 C 
ATOM      8  C21 ZIN A   1      18.085   3.322  13.393  0.00  0.00    -0.068 C 
ATOM      9  C22 ZIN A   1      17.540   4.452  13.843  0.00  0.00     0.053 C 
ATOM     10  C23 ZIN A   1      16.837   5.347  12.918  0.00  0.00     0.149 C 
ATOM     11  O24 ZIN A   1      16.023   6.157  13.307  0.00  0.00    -0.293 OA
ATOM     12  C25 ZIN A   1      17.182   5.206  11.447  0.00  0.00     0.084 C 
ATOM     13  C26 ZIN A   1      17.096   3.720  11.098  0.00  0.00     0.022 C 
ATOM     14  C27 ZIN A   1      18.027   2.886  11.962  0.00  0.00    -0.016 C 
ATOM     15  C28 ZIN A   1      19.436   2.990  11.376  0.00  0.00     0.020 C 
ATOM     16  C29 ZIN A   1      17.616   1.413  11.866  0.00  0.00     0.002 C 
ATOM     17  C31 ZIN A   1      17.687   0.969  10.408  0.00  0.00     0.007 C 
ATOM     18  C32 ZIN A   1      17.404  -0.534  10.256  0.00  0.00     0.013 C 
ATOM     19  C33 ZIN A   1      18.382  -1.296  11.144  0.00  0.00    -0.001 C 
ATOM     20  C34 ZIN A   1      19.817  -0.883  10.808  0.00  0.00     0.019 C 
ENDROOT
BRANCH   1  21
ATOM     21  O8  ZIN A   1      16.897  -3.223  10.921  0.00  0.00    -0.301 OA
BRANCH  21  22
ATOM     22  C6  ZIN A   1      16.646  -4.541  10.897  0.00  0.00     0.260 C 
ATOM     23  O7  ZIN A   1      16.596  -5.165  11.931  0.00  0.00    -0.265 OA
BRANCH  22  24
ATOM     24  C5  ZIN A   1      16.427  -5.243   9.581  0.00  0.00     0.111 C 
BRANCH  24  25
ATOM     25  C4  ZIN A   1      17.147  -6.593   9.597  0.00  0.00     0.010 C 
BRANCH  25  26
ATOM     26  C3  ZIN A   1      18.117  -6.667   8.417  0.00  0.00     0.000 C 
BRANCH  26  27
ATOM     27  C2  ZIN A   1      17.633  -5.739   7.300  0.00  0.00    -0.005 C 
ATOM     28  C1  ZIN A   1      18.767  -5.511   6.299  0.00  0.00     0.005 C 
ENDBRANCH  26  27
ENDBRANCH  25  26
ENDBRANCH  24  25
ENDBRANCH  22  24
ENDBRANCH  21  22
ENDBRANCH   1  21
BRANCH   1  29
ATOM     29  C10 ZIN A   1      19.194  -3.435  10.165  0.00  0.00     0.158 C 
ATOM     30  C11 ZIN A   1      20.199  -4.471  10.596  0.00  0.00     0.094 C 
ATOM     31  O12 ZIN A   1      19.130  -3.100   9.007  0.00  0.00    -0.295 OA
ENDBRANCH   1  29
TORSDOF 7
ENDMDL
MODEL 6
REMARK VINA RESULT:      -7.3      3.363      8.793
REMARK  7 active torsions:
REMARK  status: ('A' for Active; 'I' for Inactive)
REMARK    1  A    between atoms: C2_2  and  C3_3 
REMARK    2  A    between atoms: C3_3  and  C4_4 
REMARK    3  A    between atoms: C4_4  and  C5_5 
REMARK    4  A    between atoms: C5_5  and  C6_6 
REMARK    5  A    between atoms: C6_6  and  O8_8 
REMARK    6  A    between atoms: O8_8  and  C9_9 
REMARK    7  A    between atoms: C9_9  and  C10_10 
ROOT
ATOM      1  C9  ZIN A   1      19.009  -0.037  11.330  0.00  0.00     0.138 C 
ATOM      2  C13 ZIN A   1      19.540  -0.851  12.535  0.00  0.00     0.048 C 
ATOM      3  C14 ZIN A   1      19.608   0.133  13.734  0.00  0.00     0.009 C 
ATOM      4  C15 ZIN A   1      18.584   1.209  13.352  0.00  0.00     0.002 C 
ATOM      5  C17 ZIN A   1      18.759   2.556  14.029  0.00  0.00    -0.004 C 
ATOM      6  C19 ZIN A   1      18.549   2.409  15.539  0.00  0.00     0.010 C 
ATOM      7  C20 ZIN A   1      18.798   3.759  16.214  0.00  0.00     0.035 C 
ATOM      8  C21 ZIN A   1      17.900   4.800  15.571  0.00  0.00    -0.068 C 
ATOM      9  C22 ZIN A   1      17.193   5.590  16.377  0.00  0.00     0.053 C 
ATOM     10  C23 ZIN A   1      16.320   6.625  15.811  0.00  0.00     0.149 C 
ATOM     11  O24 ZIN A   1      15.398   7.098  16.442  0.00  0.00    -0.293 OA
ATOM     12  C25 ZIN A   1      16.632   7.073  14.396  0.00  0.00     0.084 C 
ATOM     13  C26 ZIN A   1      16.780   5.815  13.541  0.00  0.00     0.022 C 
ATOM     14  C27 ZIN A   1      17.864   4.895  14.077  0.00  0.00    -0.016 C 
ATOM     15  C28 ZIN A   1      19.216   5.432  13.602  0.00  0.00     0.020 C 
ATOM     16  C29 ZIN A   1      17.697   3.505  13.454  0.00  0.00     0.002 C 
ATOM     17  C31 ZIN A   1      17.790   3.624  11.935  0.00  0.00     0.007 C 
ATOM     18  C32 ZIN A   1      17.752   2.247  11.253  0.00  0.00     0.013 C 
ATOM     19  C33 ZIN A   1      18.872   1.395  11.839  0.00  0.00    -0.001 C 
ATOM     20  C34 ZIN A   1      20.207   2.131  11.709  0.00  0.00     0.019 C 
ENDROOT
BRANCH   1  21
ATOM     21  O8  ZIN A   1      17.717  -0.547  10.909  0.00  0.00    -0.301 OA
BRANCH  21  22
ATOM     22  C6  ZIN A   1      17.503  -1.863  11.056  0.00  0.00     0.260 C 
ATOM     23  O7  ZIN A   1      16.952  -2.278  12.049  0.00  0.00    -0.265 OA
BRANCH  22  24
ATOM     24  C5  ZIN A   1      17.949  -2.824   9.984  0.00  0.00     0.111 C 
BRANCH  24  25
ATOM     25  C4  ZIN A   1      18.959  -3.812  10.573  0.00  0.00     0.010 C 
BRANCH  25  26
ATOM     26  C3  ZIN A   1      18.699  -5.207  10.003  0.00  0.00     0.000 C 
BRANCH  26  27
ATOM     27  C2  ZIN A   1      17.396  -5.761  10.584  0.00  0.00    -0.005 C 
ATOM     28  C1  ZIN A   1      17.468  -5.733  12.112  0.00  0.00     0.005 C 
ENDBRANCH  26  27
ENDBRANCH  25  26
ENDBRANCH  24  25
ENDBRANCH  22  24
ENDBRANCH  21  22
ENDBRANCH   1  21
BRANCH   1  29
ATOM     29  C10 ZIN A   1      19.990  -0.094  10.187  0.00  0.00     0.158 C 
ATOM     30  C11 ZIN A   1      19.587   0.406   8.824  0.00  0.00     0.094 C 
ATOM     31  O12 ZIN A   1      21.098  -0.539  10.364  0.00  0.00    -0.295 OA
ENDBRANCH   1  29
TORSDOF 7
ENDMDL
MODEL 7
REMARK VINA RESULT:      -7.2      1.970      7.506
REMARK  7 active torsions:
REMARK  status: ('A' for Active; 'I' for Inactive)
REMARK    1  A    between atoms: C2_2  and  C3_3 
REMARK    2  A    between atoms: C3_3  and  C4_4 
REMARK    3  A    between atoms: C4_4  and  C5_5 
REMARK    4  A    between atoms: C5_5  and  C6_6 
REMARK    5  A    between atoms: C6_6  and  O8_8 
REMARK    6  A    between atoms: O8_8  and  C9_9 
REMARK    7  A    between atoms: C9_9  and  C10_10 
ROOT
ATOM      1  C9  ZIN A   1      17.955  -5.170   8.865  0.00  0.00     0.138 C 
ATOM      2  C13 ZIN A   1      17.560  -5.740  10.249  0.00  0.00     0.048 C 
ATOM      3  C14 ZIN A   1      17.685  -4.567  11.258  0.00  0.00     0.009 C 
ATOM      4  C15 ZIN A   1      17.529  -3.330  10.366  0.00  0.00     0.002 C 
ATOM      5  C17 ZIN A   1      18.100  -2.039  10.925  0.00  0.00    -0.004 C 
ATOM      6  C19 ZIN A   1      17.336  -1.641  12.192  0.00  0.00     0.010 C 
ATOM      7  C20 ZIN A   1      17.967  -0.378  12.782  0.00  0.00     0.035 C 
ATOM      8  C21 ZIN A   1      17.986   0.703  11.716  0.00  0.00    -0.068 C 
ATOM      9  C22 ZIN A   1      17.532   1.910  12.049  0.00  0.00     0.053 C 
ATOM     10  C23 ZIN A   1      17.542   2.997  11.064  0.00  0.00     0.149 C 
ATOM     11  O24 ZIN A   1      16.821   3.966  11.175  0.00  0.00    -0.293 OA
ATOM     12  C25 ZIN A   1      18.502   2.845   9.900  0.00  0.00     0.084 C 
ATOM     13  C26 ZIN A   1      18.296   1.447   9.316  0.00  0.00     0.022 C 
ATOM     14  C27 ZIN A   1      18.522   0.365  10.359  0.00  0.00    -0.016 C 
ATOM     15  C28 ZIN A   1      20.030   0.139  10.486  0.00  0.00     0.020 C 
ATOM     16  C29 ZIN A   1      17.919  -0.951   9.855  0.00  0.00     0.002 C 
ATOM     17  C31 ZIN A   1      18.577  -1.328   8.531  0.00  0.00     0.007 C 
ATOM     18  C32 ZIN A   1      18.105  -2.703   8.032  0.00  0.00     0.013 C 
ATOM     19  C33 ZIN A   1      18.376  -3.727   9.128  0.00  0.00    -0.001 C 
ATOM     20  C34 ZIN A   1      19.849  -3.673   9.536  0.00  0.00     0.019 C 
ENDROOT
BRANCH   1  21
ATOM     21  O8  ZIN A   1      16.819  -5.206   7.962  0.00  0.00    -0.301 OA
BRANCH  21  22
ATOM     22  C6  ZIN A   1      15.867  -6.117   8.216  0.00  0.00     0.260 C 
ATOM     23  O7  ZIN A   1      14.810  -5.771   8.690  0.00  0.00    -0.265 OA
BRANCH  22  24
ATOM     24  C5  ZIN A   1      16.115  -7.572   7.911  0.00  0.00     0.111 C 
BRANCH  24  25
ATOM     25  C4  ZIN A   1      15.722  -7.864   6.461  0.00  0.00     0.010 C 
BRANCH  25  26
ATOM     26  C3  ZIN A   1      16.978  -7.894   5.589  0.00  0.00     0.000 C 
BRANCH  26  27
ATOM     27  C2  ZIN A   1      16.694  -7.189   4.260  0.00  0.00    -0.005 C 
ATOM     28  C1  ZIN A   1      16.611  -5.679   4.492  0.00  0.00     0.005 C 
ENDBRANCH  26  27
ENDBRANCH  25  26
ENDBRANCH  24  25
ENDBRANCH  22  24
ENDBRANCH  21  22
ENDBRANCH   1  21
BRANCH   1  29
ATOM     29  C10 ZIN A   1      19.106  -5.952   8.284  0.00  0.00     0.158 C 
ATOM     30  C11 ZIN A   1      19.537  -5.713   6.861  0.00  0.00     0.094 C 
ATOM     31  O12 ZIN A   1      19.682  -6.768   8.962  0.00  0.00    -0.295 OA
ENDBRANCH   1  29
TORSDOF 7
ENDMDL
MODEL 8
REMARK VINA RESULT:      -7.0      2.164      7.695
REMARK  7 active torsions:
REMARK  status: ('A' for Active; 'I' for Inactive)
REMARK    1  A    between atoms: C2_2  and  C3_3 
REMARK    2  A    between atoms: C3_3  and  C4_4 
REMARK    3  A    between atoms: C4_4  and  C5_5 
REMARK    4  A    between atoms: C5_5  and  C6_6 
REMARK    5  A    between atoms: C6_6  and  O8_8 
REMARK    6  A    between atoms: O8_8  and  C9_9 
REMARK    7  A    between atoms: C9_9  and  C10_10 
ROOT
ATOM      1  C9  ZIN A   1      18.410  -3.604   9.118  0.00  0.00     0.138 C 
ATOM      2  C13 ZIN A   1      19.330  -4.254  10.181  0.00  0.00     0.048 C 
ATOM      3  C14 ZIN A   1      19.866  -3.095  11.065  0.00  0.00     0.009 C 
ATOM      4  C15 ZIN A   1      18.802  -2.005  10.883  0.00  0.00     0.002 C 
ATOM      5  C17 ZIN A   1      19.253  -0.587  11.182  0.00  0.00    -0.004 C 
ATOM      6  C19 ZIN A   1      19.617  -0.462  12.665  0.00  0.00     0.010 C 
ATOM      7  C20 ZIN A   1      20.136   0.952  12.936  0.00  0.00     0.035 C 
ATOM      8  C21 ZIN A   1      19.091   1.952  12.477  0.00  0.00    -0.068 C 
ATOM      9  C22 ZIN A   1      18.756   2.929  13.319  0.00  0.00     0.053 C 
ATOM     10  C23 ZIN A   1      17.764   3.933  12.923  0.00  0.00     0.149 C 
ATOM     11  O24 ZIN A   1      17.156   4.590  13.742  0.00  0.00    -0.293 OA
ATOM     12  C25 ZIN A   1      17.538   4.109  11.433  0.00  0.00     0.084 C 
ATOM     13  C26 ZIN A   1      17.322   2.718  10.837  0.00  0.00     0.022 C 
ATOM     14  C27 ZIN A   1      18.503   1.802  11.108  0.00  0.00    -0.016 C 
ATOM     15  C28 ZIN A   1      19.595   2.122  10.085  0.00  0.00     0.020 C 
ATOM     16  C29 ZIN A   1      18.079   0.349  10.862  0.00  0.00     0.002 C 
ATOM     17  C31 ZIN A   1      17.602   0.206   9.420  0.00  0.00     0.007 C 
ATOM     18  C32 ZIN A   1      17.276  -1.255   9.071  0.00  0.00     0.013 C 
ATOM     19  C33 ZIN A   1      18.511  -2.101   9.362  0.00  0.00    -0.001 C 
ATOM     20  C34 ZIN A   1      19.720  -1.526   8.621  0.00  0.00     0.019 C 
ENDROOT
BRANCH   1  21
ATOM     21  O8  ZIN A   1      17.041  -4.051   9.297  0.00  0.00    -0.301 OA
BRANCH  21  22
ATOM     22  C6  ZIN A   1      16.829  -5.019  10.202  0.00  0.00     0.260 C 
ATOM     23  O7  ZIN A   1      16.399  -4.738  11.297  0.00  0.00    -0.265 OA
BRANCH  22  24
ATOM     24  C5  ZIN A   1      17.125  -6.455   9.855  0.00  0.00     0.111 C 
BRANCH  24  25
ATOM     25  C4  ZIN A   1      16.531  -6.781   8.482  0.00  0.00     0.010 C 
BRANCH  25  26
ATOM     26  C3  ZIN A   1      17.587  -7.479   7.623  0.00  0.00     0.000 C 
BRANCH  26  27
ATOM     27  C2  ZIN A   1      16.930  -8.605   6.823  0.00  0.00    -0.005 C 
ATOM     28  C1  ZIN A   1      16.270  -9.595   7.783  0.00  0.00     0.005 C 
ENDBRANCH  26  27
ENDBRANCH  25  26
ENDBRANCH  24  25
ENDBRANCH  22  24
ENDBRANCH  21  22
ENDBRANCH   1  21
BRANCH   1  29
ATOM     29  C10 ZIN A   1      18.892  -3.942   7.731  0.00  0.00     0.158 C 
ATOM     30  C11 ZIN A   1      20.118  -4.797   7.547  0.00  0.00     0.094 C 
ATOM     31  O12 ZIN A   1      18.294  -3.527   6.767  0.00  0.00    -0.295 OA
ENDBRANCH   1  29
TORSDOF 7
ENDMDL
MODEL 9
REMARK VINA RESULT:      -6.9      1.863      4.116
REMARK  7 active torsions:
REMARK  status: ('A' for Active; 'I' for Inactive)
REMARK    1  A    between atoms: C2_2  and  C3_3 
REMARK    2  A    between atoms: C3_3  and  C4_4 
REMARK    3  A    between atoms: C4_4  and  C5_5 
REMARK    4  A    between atoms: C5_5  and  C6_6 
REMARK    5  A    between atoms: C6_6  and  O8_8 
REMARK    6  A    between atoms: O8_8  and  C9_9 
REMARK    7  A    between atoms: C9_9  and  C10_10 
ROOT
ATOM      1  C9  ZIN A   1      18.662   1.174  10.087  0.00  0.00     0.138 C 
ATOM      2  C13 ZIN A   1      18.853   2.324   9.068  0.00  0.00     0.048 C 
ATOM      3  C14 ZIN A   1      19.080   1.652   7.687  0.00  0.00     0.009 C 
ATOM      4  C15 ZIN A   1      18.415   0.281   7.859  0.00  0.00     0.002 C 
ATOM      5  C17 ZIN A   1      18.886  -0.804   6.908  0.00  0.00    -0.004 C 
ATOM      6  C19 ZIN A   1      18.517  -0.427   5.469  0.00  0.00     0.010 C 
ATOM      7  C20 ZIN A   1      19.059  -1.495   4.517  0.00  0.00     0.035 C 
ATOM      8  C21 ZIN A   1      18.528  -2.850   4.948  0.00  0.00    -0.068 C 
ATOM      9  C22 ZIN A   1      17.992  -3.631   4.012  0.00  0.00     0.053 C 
ATOM     10  C23 ZIN A   1      17.478  -4.958   4.369  0.00  0.00     0.149 C 
ATOM     11  O24 ZIN A   1      16.665  -5.535   3.678  0.00  0.00    -0.293 OA
ATOM     12  C25 ZIN A   1      18.016  -5.570   5.648  0.00  0.00     0.084 C 
ATOM     13  C26 ZIN A   1      17.894  -4.514   6.747  0.00  0.00     0.022 C 
ATOM     14  C27 ZIN A   1      18.645  -3.243   6.389  0.00  0.00    -0.016 C 
ATOM     15  C28 ZIN A   1      20.126  -3.464   6.702  0.00  0.00     0.020 C 
ATOM     16  C29 ZIN A   1      18.167  -2.104   7.297  0.00  0.00     0.002 C 
ATOM     17  C31 ZIN A   1      18.415  -2.489   8.753  0.00  0.00     0.007 C 
ATOM     18  C32 ZIN A   1      18.070  -1.338   9.712  0.00  0.00     0.013 C 
ATOM     19  C33 ZIN A   1      18.869  -0.110   9.290  0.00  0.00    -0.001 C 
ATOM     20  C34 ZIN A   1      20.358  -0.457   9.226  0.00  0.00     0.019 C 
ENDROOT
BRANCH   1  21
ATOM     21  O8  ZIN A   1      17.321   1.211  10.642  0.00  0.00    -0.301 OA
BRANCH  21  22
ATOM     22  C6  ZIN A   1      17.215   1.315  11.975  0.00  0.00     0.260 C 
ATOM     23  O7  ZIN A   1      17.313   2.397  12.506  0.00  0.00    -0.265 OA
BRANCH  22  24
ATOM     24  C5  ZIN A   1      16.974   0.085  12.811  0.00  0.00     0.111 C 
BRANCH  24  25
ATOM     25  C4  ZIN A   1      17.585   0.283  14.201  0.00  0.00     0.010 C 
BRANCH  25  26
ATOM     26  C3  ZIN A   1      18.269  -1.010  14.646  0.00  0.00     0.000 C 
BRANCH  26  27
ATOM     27  C2  ZIN A   1      18.449  -0.995  16.166  0.00  0.00    -0.005 C 
ATOM     28  C1  ZIN A   1      17.110  -0.676  16.833  0.00  0.00     0.005 C 
ENDBRANCH  26  27
ENDBRANCH  25  26
ENDBRANCH  24  25
ENDBRANCH  22  24
ENDBRANCH  21  22
ENDBRANCH   1  21
BRANCH   1  29
ATOM     29  C10 ZIN A   1      19.685   1.275  11.190  0.00  0.00     0.158 C 
ATOM     30  C11 ZIN A   1      20.311   2.606  11.517  0.00  0.00     0.094 C 
ATOM     31  O12 ZIN A   1      20.000   0.290  11.812  0.00  0.00    -0.295 OA
ENDBRANCH   1  29
TORSDOF 7
ENDMDL
