MODEL 1
REMARK VINA RESULT:      -8.7      0.000      0.000
REMARK  4 active torsions:
REMARK  status: ('A' for Active; 'I' for Inactive)
REMARK    1  A    between atoms: C23_19  and  O25_20 
REMARK    2  A    between atoms: C29_24  and  C31_25 
REMARK    3  A    between atoms: C31_25  and  C33_27 
REMARK    4  A    between atoms: C33_27  and  O34_28 
ROOT
ATOM      1  C1  ZIN A   1      16.571  -4.882   9.729  0.00  0.00     0.011 C 
ATOM      2  C2  ZIN A   1      17.954  -4.253   9.548  0.00  0.00    -0.006 C 
ATOM      3  C4  ZIN A   1      18.524  -3.816  10.924  0.00  0.00     0.011 C 
ATOM      4  C5  ZIN A   1      18.135  -2.335  11.003  0.00  0.00     0.001 C 
ATOM      5  C7  ZIN A   1      18.958  -1.484  11.952  0.00  0.00     0.021 C 
ATOM      6  C9  ZIN A   1      18.773  -1.981  13.388  0.00  0.00     0.049 C 
ATOM      7  C10 ZIN A   1      19.637  -1.145  14.338  0.00  0.00     0.201 C 
ATOM      8  F12 ZIN A   1      19.380  -1.520  15.662  0.00  0.00    -0.245 F 
ATOM      9  C13 ZIN A   1      19.277   0.316  14.140  0.00  0.00    -0.029 A 
ATOM     10  C14 ZIN A   1      18.968   1.051  15.199  0.00  0.00     0.061 A 
ATOM     11  C15 ZIN A   1      18.595   2.465  15.045  0.00  0.00     0.172 A 
ATOM     12  O16 ZIN A   1      18.348   3.154  16.017  0.00  0.00    -0.289 OA
ATOM     13  C17 ZIN A   1      18.528   3.029  13.686  0.00  0.00     0.052 A 
ATOM     14  C18 ZIN A   1      18.847   2.279  12.644  0.00  0.00    -0.007 A 
ATOM     15  C19 ZIN A   1      19.293   0.861  12.742  0.00  0.00     0.024 A 
ATOM     16  C20 ZIN A   1      20.732   0.785  12.228  0.00  0.00     0.027 C 
ATOM     17  C21 ZIN A   1      18.462  -0.036  11.821  0.00  0.00     0.081 C 
ATOM     18 Cl22 ZIN A   1      16.735   0.026  12.333  0.00  0.00    -0.115 Cl
ATOM     19  C23 ZIN A   1      18.560   0.484  10.389  0.00  0.00     0.144 C 
ATOM     20  C26 ZIN A   1      17.849  -0.449   9.396  0.00  0.00     0.044 C 
ATOM     21  C27 ZIN A   1      18.430  -1.855   9.556  0.00  0.00    -0.027 C 
ATOM     22  C28 ZIN A   1      19.951  -1.809   9.400  0.00  0.00     0.016 C 
ATOM     23  C29 ZIN A   1      17.845  -2.968   8.690  0.00  0.00     0.070 C 
ENDROOT
BRANCH  23  24
ATOM     24  C31 ZIN A   1      18.667  -3.144   7.439  0.00  0.00     0.155 C 
ATOM     25  O32 ZIN A   1      18.635  -2.304   6.573  0.00  0.00    -0.295 OA
BRANCH  24  26
ATOM     26  C33 ZIN A   1      19.527  -4.370   7.270  0.00  0.00     0.242 C 
BRANCH  26  27
ATOM     27  O34 ZIN A   1      20.778  -3.997   6.688  0.00  0.00    -0.394 OA
ATOM     28  H56 ZIN A   1      21.114  -3.142   6.992  0.00  0.00     0.209 HD
ENDBRANCH  26  27
ENDBRANCH  24  26
ENDBRANCH  23  24
BRANCH  19  29
ATOM     29  O25 ZIN A   1      19.937   0.590  10.025  0.00  0.00    -0.394 OA
ATOM     30  H48 ZIN A   1      20.250  -0.129   9.458  0.00  0.00     0.210 HD
ENDBRANCH  19  29
TORSDOF 4
ENDMDL
MODEL 2
REMARK VINA RESULT:      -8.7      2.561      7.101
REMARK  4 active torsions:
REMARK  status: ('A' for Active; 'I' for Inactive)
REMARK    1  A    between atoms: C23_19  and  O25_20 
REMARK    2  A    between atoms: C29_24  and  C31_25 
REMARK    3  A    between atoms: C31_25  and  C33_27 
REMARK    4  A    between atoms: C33_27  and  O34_28 
ROOT
ATOM      1  C1  ZIN A   1      16.363   5.072  11.353  0.00  0.00     0.011 C 
ATOM      2  C2  ZIN A   1      17.852   4.732  11.435  0.00  0.00    -0.006 C 
ATOM      3  C4  ZIN A   1      18.231   3.723  10.316  0.00  0.00     0.011 C 
ATOM      4  C5  ZIN A   1      18.136   2.369  11.028  0.00  0.00     0.001 C 
ATOM      5  C7  ZIN A   1      18.920   1.234  10.396  0.00  0.00     0.021 C 
ATOM      6  C9  ZIN A   1      18.374   0.943   8.995  0.00  0.00     0.049 C 
ATOM      7  C10 ZIN A   1      19.193  -0.176   8.345  0.00  0.00     0.201 C 
ATOM      8  F12 ZIN A   1      18.624  -0.524   7.115  0.00  0.00    -0.245 F 
ATOM      9  C13 ZIN A   1      19.176  -1.375   9.275  0.00  0.00    -0.029 A 
ATOM     10  C14 ZIN A   1      18.827  -2.559   8.791  0.00  0.00     0.061 A 
ATOM     11  C15 ZIN A   1      18.778  -3.740   9.666  0.00  0.00     0.172 A 
ATOM     12  O16 ZIN A   1      18.496  -4.836   9.219  0.00  0.00    -0.289 OA
ATOM     13  C17 ZIN A   1      19.080  -3.567  11.097  0.00  0.00     0.052 A 
ATOM     14  C18 ZIN A   1      19.433  -2.377  11.557  0.00  0.00    -0.007 A 
ATOM     15  C19 ZIN A   1      19.562  -1.159  10.709  0.00  0.00     0.024 A 
ATOM     16  C20 ZIN A   1      21.027  -0.720  10.737  0.00  0.00     0.027 C 
ATOM     17  C21 ZIN A   1      18.756   0.001  11.299  0.00  0.00     0.081 C 
ATOM     18 Cl22 ZIN A   1      17.011  -0.449  11.341  0.00  0.00    -0.115 Cl
ATOM     19  C23 ZIN A   1      19.222   0.263  12.729  0.00  0.00     0.144 C 
ATOM     20  C26 ZIN A   1      18.538   1.501  13.331  0.00  0.00     0.044 C 
ATOM     21  C27 ZIN A   1      18.787   2.689  12.401  0.00  0.00    -0.027 C 
ATOM     22  C28 ZIN A   1      20.288   2.853  12.159  0.00  0.00     0.016 C 
ATOM     23  C29 ZIN A   1      18.164   4.031  12.781  0.00  0.00     0.070 C 
ENDROOT
BRANCH  23  24
ATOM     24  C31 ZIN A   1      19.154   4.867  13.550  0.00  0.00     0.155 C 
ATOM     25  O32 ZIN A   1      19.966   5.537  12.958  0.00  0.00    -0.295 OA
BRANCH  24  26
ATOM     26  C33 ZIN A   1      19.132   4.866  15.056  0.00  0.00     0.242 C 
BRANCH  26  27
ATOM     27  O34 ZIN A   1      20.050   3.886  15.545  0.00  0.00    -0.394 OA
ATOM     28  H56 ZIN A   1      20.973   4.065  15.319  0.00  0.00     0.209 HD
ENDBRANCH  26  27
ENDBRANCH  24  26
ENDBRANCH  23  24
BRANCH  19  29
ATOM     29  O25 ZIN A   1      20.636   0.466  12.728  0.00  0.00    -0.394 OA
ATOM     30  H48 ZIN A   1      21.125  -0.178  13.259  0.00  0.00     0.210 HD
ENDBRANCH  19  29
TORSDOF 4
ENDMDL
MODEL 3
REMARK VINA RESULT:      -8.7      1.623      1.918
REMARK  4 active torsions:
REMARK  status: ('A' for Active; 'I' for Inactive)
REMARK    1  A    between atoms: C23_19  and  O25_20 
REMARK    2  A    between atoms: C29_24  and  C31_25 
REMARK    3  A    between atoms: C31_25  and  C33_27 
REMARK    4  A    between atoms: C33_27  and  O34_28 
ROOT
ATOM      1  C1  ZIN A   1      16.304  -5.134  10.349  0.00  0.00     0.011 C 
ATOM      2  C2  ZIN A   1      17.769  -4.810  10.648  0.00  0.00    -0.006 C 
ATOM      3  C4  ZIN A   1      17.863  -3.811  11.832  0.00  0.00     0.011 C 
ATOM      4  C5  ZIN A   1      17.964  -2.452  11.129  0.00  0.00     0.001 C 
ATOM      5  C7  ZIN A   1      18.574  -1.328  11.946  0.00  0.00     0.021 C 
ATOM      6  C9  ZIN A   1      17.696  -1.038  13.166  0.00  0.00     0.049 C 
ATOM      7  C10 ZIN A   1      18.336   0.070  14.009  0.00  0.00     0.201 C 
ATOM      8  F12 ZIN A   1      17.478   0.418  15.059  0.00  0.00    -0.245 F 
ATOM      9  C13 ZIN A   1      18.565   1.273  13.114  0.00  0.00    -0.029 A 
ATOM     10  C14 ZIN A   1      18.116   2.458  13.502  0.00  0.00     0.061 A 
ATOM     11  C15 ZIN A   1      18.301   3.644  12.650  0.00  0.00     0.172 A 
ATOM     12  O16 ZIN A   1      17.926   4.741  13.020  0.00  0.00    -0.289 OA
ATOM     13  C17 ZIN A   1      18.953   3.473  11.341  0.00  0.00     0.052 A 
ATOM     14  C18 ZIN A   1      19.399   2.281  10.977  0.00  0.00    -0.007 A 
ATOM     15  C19 ZIN A   1      19.297   1.059  11.822  0.00  0.00     0.024 A 
ATOM     16  C20 ZIN A   1      20.718   0.603  12.160  0.00  0.00     0.027 C 
ATOM     17  C21 ZIN A   1      18.656  -0.090  11.039  0.00  0.00     0.081 C 
ATOM     18 Cl22 ZIN A   1      16.982   0.380  10.563  0.00  0.00    -0.115 Cl
ATOM     19  C23 ZIN A   1      19.464  -0.351   9.772  0.00  0.00     0.144 C 
ATOM     20  C26 ZIN A   1      18.942  -1.579   9.008  0.00  0.00     0.044 C 
ATOM     21  C27 ZIN A   1      18.937  -2.774   9.962  0.00  0.00    -0.027 C 
ATOM     22  C28 ZIN A   1      20.327  -2.956  10.574  0.00  0.00     0.016 C 
ATOM     23  C29 ZIN A   1      18.417  -4.106   9.429  0.00  0.00     0.070 C 
ENDROOT
BRANCH  23  24
ATOM     24  C31 ZIN A   1      19.561  -4.951   8.928  0.00  0.00     0.155 C 
ATOM     25  O32 ZIN A   1      20.113  -5.722   9.675  0.00  0.00    -0.295 OA
BRANCH  24  26
ATOM     26  C33 ZIN A   1      20.015  -4.831   7.497  0.00  0.00     0.242 C 
BRANCH  26  27
ATOM     27  O34 ZIN A   1      21.396  -5.186   7.404  0.00  0.00    -0.394 OA
ATOM     28  H56 ZIN A   1      21.762  -5.559   8.219  0.00  0.00     0.209 HD
ENDBRANCH  26  27
ENDBRANCH  24  26
ENDBRANCH  23  24
BRANCH  19  29
ATOM     29  O25 ZIN A   1      20.830  -0.570  10.126  0.00  0.00    -0.394 OA
ATOM     30  H48 ZIN A   1      21.139  -1.473   9.966  0.00  0.00     0.210 HD
ENDBRANCH  19  29
TORSDOF 4
ENDMDL
MODEL 4
REMARK VINA RESULT:      -8.5      1.318      1.640
REMARK  4 active torsions:
REMARK  status: ('A' for Active; 'I' for Inactive)
REMARK    1  A    between atoms: C23_19  and  O25_20 
REMARK    2  A    between atoms: C29_24  and  C31_25 
REMARK    3  A    between atoms: C31_25  and  C33_27 
REMARK    4  A    between atoms: C33_27  and  O34_28 
ROOT
ATOM      1  C1  ZIN A   1      17.656  -4.996  10.155  0.00  0.00     0.011 C 
ATOM      2  C2  ZIN A   1      18.685  -4.053   9.529  0.00  0.00    -0.006 C 
ATOM      3  C4  ZIN A   1      19.262  -3.100  10.611  0.00  0.00     0.011 C 
ATOM      4  C5  ZIN A   1      18.392  -1.847  10.466  0.00  0.00     0.001 C 
ATOM      5  C7  ZIN A   1      18.993  -0.559  10.996  0.00  0.00     0.021 C 
ATOM      6  C9  ZIN A   1      19.212  -0.672  12.507  0.00  0.00     0.049 C 
ATOM      7  C10 ZIN A   1      19.856   0.615  13.033  0.00  0.00     0.201 C 
ATOM      8  F12 ZIN A   1      19.948   0.561  14.428  0.00  0.00    -0.245 F 
ATOM      9  C13 ZIN A   1      18.979   1.784  12.622  0.00  0.00    -0.029 A 
ATOM     10  C14 ZIN A   1      18.592   2.652  13.545  0.00  0.00     0.061 A 
ATOM     11  C15 ZIN A   1      17.724   3.786  13.189  0.00  0.00     0.172 A 
ATOM     12  O16 ZIN A   1      17.399   4.607  14.025  0.00  0.00    -0.289 OA
ATOM     13  C17 ZIN A   1      17.262   3.905  11.796  0.00  0.00     0.052 A 
ATOM     14  C18 ZIN A   1      17.666   3.030  10.889  0.00  0.00    -0.007 A 
ATOM     15  C19 ZIN A   1      18.593   1.900  11.176  0.00  0.00     0.024 A 
ATOM     16  C20 ZIN A   1      19.872   2.126  10.368  0.00  0.00     0.027 C 
ATOM     17  C21 ZIN A   1      18.005   0.575  10.683  0.00  0.00     0.081 C 
ATOM     18 Cl22 ZIN A   1      16.464   0.249  11.559  0.00  0.00    -0.115 Cl
ATOM     19  C23 ZIN A   1      17.699   0.684   9.192  0.00  0.00     0.144 C 
ATOM     20  C26 ZIN A   1      17.224  -0.658   8.610  0.00  0.00     0.044 C 
ATOM     21  C27 ZIN A   1      18.280  -1.719   8.922  0.00  0.00    -0.027 C 
ATOM     22  C28 ZIN A   1      19.646  -1.258   8.410  0.00  0.00     0.016 C 
ATOM     23  C29 ZIN A   1      18.003  -3.150   8.470  0.00  0.00     0.070 C 
ENDROOT
BRANCH  23  24
ATOM     24  C31 ZIN A   1      18.639  -3.407   7.128  0.00  0.00     0.155 C 
ATOM     25  O32 ZIN A   1      18.367  -2.701   6.187  0.00  0.00    -0.295 OA
BRANCH  24  26
ATOM     26  C33 ZIN A   1      19.612  -4.545   6.960  0.00  0.00     0.242 C 
BRANCH  26  27
ATOM     27  O34 ZIN A   1      20.916  -4.023   6.703  0.00  0.00    -0.394 OA
ATOM     28  H56 ZIN A   1      21.636  -4.609   6.975  0.00  0.00     0.209 HD
ENDBRANCH  26  27
ENDBRANCH  24  26
ENDBRANCH  23  24
BRANCH  19  29
ATOM     29  O25 ZIN A   1      18.879   1.098   8.503  0.00  0.00    -0.394 OA
ATOM     30  H48 ZIN A   1      19.691   0.685   8.829  0.00  0.00     0.210 HD
ENDBRANCH  19  29
TORSDOF 4
ENDMDL
MODEL 5
REMARK VINA RESULT:      -8.4      2.941      4.132
REMARK  4 active torsions:
REMARK  status: ('A' for Active; 'I' for Inactive)
REMARK    1  A    between atoms: C23_19  and  O25_20 
REMARK    2  A    between atoms: C29_24  and  C31_25 
REMARK    3  A    between atoms: C31_25  and  C33_27 
REMARK    4  A    between atoms: C33_27  and  O34_28 
ROOT
ATOM      1  C1  ZIN A   1      20.570  -5.309   7.579  0.00  0.00     0.011 C 
ATOM      2  C2  ZIN A   1      19.149  -4.908   7.981  0.00  0.00    -0.006 C 
ATOM      3  C4  ZIN A   1      18.926  -3.395   7.712  0.00  0.00     0.011 C 
ATOM      4  C5  ZIN A   1      19.224  -2.757   9.073  0.00  0.00     0.001 C 
ATOM      5  C7  ZIN A   1      18.621  -1.384   9.307  0.00  0.00     0.021 C 
ATOM      6  C9  ZIN A   1      19.203  -0.384   8.305  0.00  0.00     0.049 C 
ATOM      7  C10 ZIN A   1      18.562   0.991   8.518  0.00  0.00     0.201 C 
ATOM      8  F12 ZIN A   1      19.176   1.932   7.685  0.00  0.00    -0.245 F 
ATOM      9  C13 ZIN A   1      18.760   1.385   9.970  0.00  0.00    -0.029 A 
ATOM     10  C14 ZIN A   1      19.284   2.571  10.248  0.00  0.00     0.061 A 
ATOM     11  C15 ZIN A   1      19.511   2.979  11.643  0.00  0.00     0.172 A 
ATOM     12  O16 ZIN A   1      19.954   4.082  11.905  0.00  0.00    -0.289 OA
ATOM     13  C17 ZIN A   1      19.187   2.025  12.716  0.00  0.00     0.052 A 
ATOM     14  C18 ZIN A   1      18.658   0.849  12.416  0.00  0.00    -0.007 A 
ATOM     15  C19 ZIN A   1      18.347   0.405  11.028  0.00  0.00     0.024 A 
ATOM     16  C20 ZIN A   1      16.833   0.216  10.925  0.00  0.00     0.027 C 
ATOM     17  C21 ZIN A   1      18.969  -0.966  10.744  0.00  0.00     0.081 C 
ATOM     18 Cl22 ZIN A   1      20.762  -0.844  10.885  0.00  0.00    -0.115 Cl
ATOM     19  C23 ZIN A   1      18.470  -1.970  11.779  0.00  0.00     0.144 C 
ATOM     20  C26 ZIN A   1      18.960  -3.394  11.470  0.00  0.00     0.044 C 
ATOM     21  C27 ZIN A   1      18.534  -3.752  10.045  0.00  0.00    -0.027 C 
ATOM     22  C28 ZIN A   1      17.025  -3.556   9.891  0.00  0.00     0.016 C 
ATOM     23  C29 ZIN A   1      18.947  -5.117   9.502  0.00  0.00     0.070 C 
ENDROOT
BRANCH  23  24
ATOM     24  C31 ZIN A   1      17.843  -6.121   9.716  0.00  0.00     0.155 C 
ATOM     25  O32 ZIN A   1      17.458  -6.366  10.833  0.00  0.00    -0.295 OA
BRANCH  24  26
ATOM     26  C33 ZIN A   1      17.222  -6.819   8.534  0.00  0.00     0.242 C 
BRANCH  26  27
ATOM     27  O34 ZIN A   1      15.821  -6.541   8.499  0.00  0.00    -0.394 OA
ATOM     28  H56 ZIN A   1      15.401  -6.739   7.650  0.00  0.00     0.209 HD
ENDBRANCH  26  27
ENDBRANCH  24  26
ENDBRANCH  23  24
BRANCH  19  29
ATOM     29  O25 ZIN A   1      17.042  -1.960  11.787  0.00  0.00    -0.394 OA
ATOM     30  H48 ZIN A   1      16.647  -1.547  11.007  0.00  0.00     0.210 HD
ENDBRANCH  19  29
TORSDOF 4
ENDMDL
MODEL 6
REMARK VINA RESULT:      -8.4      2.338      7.268
REMARK  4 active torsions:
REMARK  status: ('A' for Active; 'I' for Inactive)
REMARK    1  A    between atoms: C23_19  and  O25_20 
REMARK    2  A    between atoms: C29_24  and  C31_25 
REMARK    3  A    between atoms: C31_25  and  C33_27 
REMARK    4  A    between atoms: C33_27  and  O34_28 
ROOT
ATOM      1  C1  ZIN A   1      17.122   4.506  14.406  0.00  0.00     0.011 C 
ATOM      2  C2  ZIN A   1      18.434   3.719  14.404  0.00  0.00    -0.006 C 
ATOM      3  C4  ZIN A   1      18.929   3.514  12.947  0.00  0.00     0.011 C 
ATOM      4  C5  ZIN A   1      18.385   2.126  12.591  0.00  0.00     0.001 C 
ATOM      5  C7  ZIN A   1      19.096   1.406  11.460  0.00  0.00     0.021 C 
ATOM      6  C9  ZIN A   1      18.938   2.198  10.160  0.00  0.00     0.049 C 
ATOM      7  C10 ZIN A   1      19.691   1.490   9.030  0.00  0.00     0.201 C 
ATOM      8  F12 ZIN A   1      19.451   2.147   7.818  0.00  0.00    -0.245 F 
ATOM      9  C13 ZIN A   1      19.184   0.062   8.947  0.00  0.00    -0.029 A 
ATOM     10  C14 ZIN A   1      18.780  -0.410   7.777  0.00  0.00     0.061 A 
ATOM     11  C15 ZIN A   1      18.262  -1.783   7.662  0.00  0.00     0.172 A 
ATOM     12  O16 ZIN A   1      17.927  -2.233   6.582  0.00  0.00    -0.289 OA
ATOM     13  C17 ZIN A   1      18.162  -2.600   8.882  0.00  0.00     0.052 A 
ATOM     14  C18 ZIN A   1      18.578  -2.110  10.040  0.00  0.00    -0.007 A 
ATOM     15  C19 ZIN A   1      19.168  -0.753  10.207  0.00  0.00     0.024 A 
ATOM     16  C20 ZIN A   1      20.616  -0.926  10.670  0.00  0.00     0.027 C 
ATOM     17  C21 ZIN A   1      18.453   0.017  11.321  0.00  0.00     0.081 C 
ATOM     18 Cl22 ZIN A   1      16.720   0.232  10.874  0.00  0.00    -0.115 Cl
ATOM     19  C23 ZIN A   1      18.523  -0.788  12.616  0.00  0.00     0.144 C 
ATOM     20  C26 ZIN A   1      17.933  -0.008  13.801  0.00  0.00     0.044 C 
ATOM     21  C27 ZIN A   1      18.655   1.337  13.901  0.00  0.00    -0.027 C 
ATOM     22  C28 ZIN A   1      20.165   1.109  13.985  0.00  0.00     0.016 C 
ATOM     23  C29 ZIN A   1      18.206   2.305  14.993  0.00  0.00     0.070 C 
ENDROOT
BRANCH  23  24
ATOM     24  C31 ZIN A   1      19.065   2.143  16.221  0.00  0.00     0.155 C 
ATOM     25  O32 ZIN A   1      19.887   2.983  16.497  0.00  0.00    -0.295 OA
BRANCH  24  26
ATOM     26  C33 ZIN A   1      18.900   0.931  17.101  0.00  0.00     0.242 C 
BRANCH  26  27
ATOM     27  O34 ZIN A   1      19.780   1.034  18.222  0.00  0.00    -0.394 OA
ATOM     28  H56 ZIN A   1      19.370   1.418  19.010  0.00  0.00     0.209 HD
ENDBRANCH  26  27
ENDBRANCH  24  26
ENDBRANCH  23  24
BRANCH  19  29
ATOM     29  O25 ZIN A   1      19.887  -1.101  12.897  0.00  0.00    -0.394 OA
ATOM     30  H48 ZIN A   1      20.056  -2.045  13.025  0.00  0.00     0.210 HD
ENDBRANCH  19  29
TORSDOF 4
ENDMDL
MODEL 7
REMARK VINA RESULT:      -8.2      2.424      6.701
REMARK  4 active torsions:
REMARK  status: ('A' for Active; 'I' for Inactive)
REMARK    1  A    between atoms: C23_19  and  O25_20 
REMARK    2  A    between atoms: C29_24  and  C31_25 
REMARK    3  A    between atoms: C31_25  and  C33_27 
REMARK    4  A    between atoms: C33_27  and  O34_28 
ROOT
ATOM      1  C1  ZIN A   1      20.156  -1.635  14.813  0.00  0.00     0.011 C 
ATOM      2  C2  ZIN A   1      18.813  -1.146  14.267  0.00  0.00    -0.006 C 
ATOM      3  C4  ZIN A   1      18.433  -1.946  12.992  0.00  0.00     0.011 C 
ATOM      4  C5  ZIN A   1      18.940  -1.047  11.858  0.00  0.00     0.001 C 
ATOM      5  C7  ZIN A   1      18.293  -1.264  10.502  0.00  0.00     0.021 C 
ATOM      6  C9  ZIN A   1      18.598  -2.679  10.003  0.00  0.00     0.049 C 
ATOM      7  C10 ZIN A   1      17.911  -2.908   8.654  0.00  0.00     0.201 C 
ATOM      8  F12 ZIN A   1      18.283  -4.156   8.140  0.00  0.00    -0.245 F 
ATOM      9  C13 ZIN A   1      18.355  -1.810   7.705  0.00  0.00    -0.029 A 
ATOM     10  C14 ZIN A   1      18.834  -2.144   6.515  0.00  0.00     0.061 A 
ATOM     11  C15 ZIN A   1      19.294  -1.108   5.576  0.00  0.00     0.172 A 
ATOM     12  O16 ZIN A   1      19.697  -1.407   4.468  0.00  0.00    -0.289 OA
ATOM     13  C17 ZIN A   1      19.252   0.299   6.008  0.00  0.00     0.052 A 
ATOM     14  C18 ZIN A   1      18.763   0.609   7.198  0.00  0.00    -0.007 A 
ATOM     15  C19 ZIN A   1      18.225  -0.388   8.165  0.00  0.00     0.024 A 
ATOM     16  C20 ZIN A   1      16.737  -0.094   8.362  0.00  0.00     0.027 C 
ATOM     17  C21 ZIN A   1      18.879  -0.220   9.539  0.00  0.00     0.081 C 
ATOM     18 Cl22 ZIN A   1      20.652  -0.510   9.391  0.00  0.00    -0.115 Cl
ATOM     19  C23 ZIN A   1      18.663   1.209  10.030  0.00  0.00     0.144 C 
ATOM     20  C26 ZIN A   1      19.187   1.403  11.462  0.00  0.00     0.044 C 
ATOM     21  C27 ZIN A   1      18.523   0.361  12.363  0.00  0.00    -0.027 C 
ATOM     22  C28 ZIN A   1      17.002   0.454  12.230  0.00  0.00     0.016 C 
ATOM     23  C29 ZIN A   1      18.923   0.338  13.837  0.00  0.00     0.070 C 
ENDROOT
BRANCH  23  24
ATOM     24  C31 ZIN A   1      17.956   1.157  14.653  0.00  0.00     0.155 C 
ATOM     25  O32 ZIN A   1      17.045   0.615  15.231  0.00  0.00    -0.295 OA
BRANCH  24  26
ATOM     26  C33 ZIN A   1      18.127   2.651  14.748  0.00  0.00     0.242 C 
BRANCH  26  27
ATOM     27  O34 ZIN A   1      19.519   2.970  14.780  0.00  0.00    -0.394 OA
ATOM     28  H56 ZIN A   1      19.820   3.332  15.626  0.00  0.00     0.209 HD
ENDBRANCH  26  27
ENDBRANCH  24  26
ENDBRANCH  23  24
BRANCH  19  29
ATOM     29  O25 ZIN A   1      17.266   1.505  10.001  0.00  0.00    -0.394 OA
ATOM     30  H48 ZIN A   1      17.038   2.273   9.458  0.00  0.00     0.210 HD
ENDBRANCH  19  29
TORSDOF 4
ENDMDL
MODEL 8
REMARK VINA RESULT:      -8.1      2.288      6.923
REMARK  4 active torsions:
REMARK  status: ('A' for Active; 'I' for Inactive)
REMARK    1  A    between atoms: C23_19  and  O25_20 
REMARK    2  A    between atoms: C29_24  and  C31_25 
REMARK    3  A    between atoms: C31_25  and  C33_27 
REMARK    4  A    between atoms: C33_27  and  O34_28 
ROOT
ATOM      1  C1  ZIN A   1      20.001  -2.010  17.218  0.00  0.00     0.011 C 
ATOM      2  C2  ZIN A   1      18.782  -1.205  16.764  0.00  0.00    -0.006 C 
ATOM      3  C4  ZIN A   1      18.206  -1.805  15.453  0.00  0.00     0.011 C 
ATOM      4  C5  ZIN A   1      18.866  -0.951  14.365  0.00  0.00     0.001 C 
ATOM      5  C7  ZIN A   1      18.153  -0.920  13.025  0.00  0.00     0.021 C 
ATOM      6  C9  ZIN A   1      18.132  -2.325  12.416  0.00  0.00     0.049 C 
ATOM      7  C10 ZIN A   1      17.377  -2.297  11.084  0.00  0.00     0.201 C 
ATOM      8  F12 ZIN A   1      17.458  -3.552  10.470  0.00  0.00    -0.245 F 
ATOM      9  C13 ZIN A   1      18.024  -1.250  10.196  0.00  0.00    -0.029 A 
ATOM     10  C14 ZIN A   1      18.389  -1.586   8.967  0.00  0.00     0.061 A 
ATOM     11  C15 ZIN A   1      19.038  -0.604   8.084  0.00  0.00     0.172 A 
ATOM     12  O16 ZIN A   1      19.339  -0.896   6.942  0.00  0.00    -0.289 OA
ATOM     13  C17 ZIN A   1      19.313   0.742   8.614  0.00  0.00     0.052 A 
ATOM     14  C18 ZIN A   1      18.933   1.058   9.842  0.00  0.00    -0.007 A 
ATOM     15  C19 ZIN A   1      18.217   0.127  10.759  0.00  0.00     0.024 A 
ATOM     16  C20 ZIN A   1      16.833   0.716  11.037  0.00  0.00     0.027 C 
ATOM     17  C21 ZIN A   1      18.927   0.045  12.113  0.00  0.00     0.081 C 
ATOM     18 Cl22 ZIN A   1      20.590  -0.605  11.872  0.00  0.00    -0.115 Cl
ATOM     19  C23 ZIN A   1      19.037   1.445  12.710  0.00  0.00     0.144 C 
ATOM     20  C26 ZIN A   1      19.627   1.413  14.129  0.00  0.00     0.044 C 
ATOM     21  C27 ZIN A   1      18.777   0.471  14.983  0.00  0.00    -0.027 C 
ATOM     22  C28 ZIN A   1      17.309   0.897  14.920  0.00  0.00     0.016 C 
ATOM     23  C29 ZIN A   1      19.200   0.250  16.433  0.00  0.00     0.070 C 
ENDROOT
BRANCH  23  24
ATOM     24  C31 ZIN A   1      18.454   1.191  17.344  0.00  0.00     0.155 C 
ATOM     25  O32 ZIN A   1      17.386   0.867  17.803  0.00  0.00    -0.295 OA
BRANCH  24  26
ATOM     26  C33 ZIN A   1      19.042   2.538  17.680  0.00  0.00     0.242 C 
BRANCH  26  27
ATOM     27  O34 ZIN A   1      19.627   2.490  18.983  0.00  0.00    -0.394 OA
ATOM     28  H56 ZIN A   1      19.342   1.734  19.515  0.00  0.00     0.209 HD
ENDBRANCH  26  27
ENDBRANCH  24  26
ENDBRANCH  23  24
BRANCH  19  29
ATOM     29  O25 ZIN A   1      17.737   2.035  12.760  0.00  0.00    -0.394 OA
ATOM     30  H48 ZIN A   1      17.151   1.755  12.043  0.00  0.00     0.210 HD
ENDBRANCH  19  29
TORSDOF 4
ENDMDL
MODEL 9
REMARK VINA RESULT:      -8.0      2.544      7.789
REMARK  4 active torsions:
REMARK  status: ('A' for Active; 'I' for Inactive)
REMARK    1  A    between atoms: C23_19  and  O25_20 
REMARK    2  A    between atoms: C29_24  and  C31_25 
REMARK    3  A    between atoms: C31_25  and  C33_27 
REMARK    4  A    between atoms: C33_27  and  O34_28 
ROOT
ATOM      1  C1  ZIN A   1      15.775   5.832  13.360  0.00  0.00     0.011 C 
ATOM      2  C2  ZIN A   1      17.262   5.526  13.554  0.00  0.00    -0.006 C 
ATOM      3  C4  ZIN A   1      17.839   4.858  12.276  0.00  0.00     0.011 C 
ATOM      4  C5  ZIN A   1      17.743   3.362  12.596  0.00  0.00     0.001 C 
ATOM      5  C7  ZIN A   1      18.669   2.456  11.807  0.00  0.00     0.021 C 
ATOM      6  C9  ZIN A   1      18.321   2.528  10.318  0.00  0.00     0.049 C 
ATOM      7  C10 ZIN A   1      19.284   1.643   9.520  0.00  0.00     0.201 C 
ATOM      8  F12 ZIN A   1      18.895   1.615   8.176  0.00  0.00    -0.245 F 
ATOM      9  C13 ZIN A   1      19.227   0.242  10.099  0.00  0.00    -0.029 A 
ATOM     10  C14 ZIN A   1      19.016  -0.783   9.285  0.00  0.00     0.061 A 
ATOM     11  C15 ZIN A   1      18.934  -2.153   9.813  0.00  0.00     0.172 A 
ATOM     12  O16 ZIN A   1      18.780  -3.100   9.065  0.00  0.00    -0.289 OA
ATOM     13  C17 ZIN A   1      19.045  -2.353  11.267  0.00  0.00     0.052 A 
ATOM     14  C18 ZIN A   1      19.262  -1.317  12.061  0.00  0.00    -0.007 A 
ATOM     15  C19 ZIN A   1      19.417   0.084  11.580  0.00  0.00     0.024 A 
ATOM     16  C20 ZIN A   1      20.837   0.542  11.920  0.00  0.00     0.027 C 
ATOM     17  C21 ZIN A   1      18.473   1.025  12.333  0.00  0.00     0.081 C 
ATOM     18 Cl22 ZIN A   1      16.769   0.530  12.019  0.00  0.00    -0.115 Cl
ATOM     19  C23 ZIN A   1      18.740   0.915  13.831  0.00  0.00     0.144 C 
ATOM     20  C26 ZIN A   1      17.910   1.931  14.632  0.00  0.00     0.044 C 
ATOM     21  C27 ZIN A   1      18.196   3.329  14.081  0.00  0.00    -0.027 C 
ATOM     22  C28 ZIN A   1      19.703   3.594  14.097  0.00  0.00     0.016 C 
ATOM     23  C29 ZIN A   1      17.448   4.505  14.704  0.00  0.00     0.070 C 
ENDROOT
BRANCH  23  24
ATOM     24  C31 ZIN A   1      18.280   5.138  15.789  0.00  0.00     0.155 C 
ATOM     25  O32 ZIN A   1      18.327   4.633  16.885  0.00  0.00    -0.295 OA
BRANCH  24  26
ATOM     26  C33 ZIN A   1      19.050   6.402  15.507  0.00  0.00     0.242 C 
BRANCH  26  27
ATOM     27  O34 ZIN A   1      18.541   7.461  16.321  0.00  0.00    -0.394 OA
ATOM     28  H56 ZIN A   1      17.764   7.217  16.843  0.00  0.00     0.209 HD
ENDBRANCH  26  27
ENDBRANCH  24  26
ENDBRANCH  23  24
BRANCH  19  29
ATOM     29  O25 ZIN A   1      20.127   1.151  14.076  0.00  0.00    -0.394 OA
ATOM     30  H48 ZIN A   1      20.420   2.045  13.849  0.00  0.00     0.210 HD
ENDBRANCH  19  29
TORSDOF 4
ENDMDL
