MODEL 1
REMARK VINA RESULT:      -6.8      0.000      0.000
REMARK  7 active torsions:
REMARK  status: ('A' for Active; 'I' for Inactive)
REMARK    1  A    between atoms: O2_2  and  C3_3 
REMARK    2  A    between atoms: C5_5  and  C6_6 
REMARK    3  A    between atoms: C6_6  and  C7_7 
REMARK    4  A    between atoms: C10_10  and  N11_11 
REMARK    5  A    between atoms: C13_13  and  N14_14 
REMARK    6  A    between atoms: C16_16  and  O17_17 
REMARK    7  A    between atoms: C19_19  and  O20_20 
ROOT
ATOM      1  C6  ZIN A   1      18.613   1.424   6.423  0.00  0.00     0.082 C 
ENDROOT
BRANCH   1   2
ATOM      2  C5  ZIN A   1      18.941   1.203   7.877  0.00  0.00    -0.048 A 
ATOM      3  C4  ZIN A   1      19.192  -0.075   8.340  0.00  0.00     0.047 A 
ATOM      4  C3  ZIN A   1      19.494  -0.283   9.678  0.00  0.00     0.104 A 
ATOM      5  C19 ZIN A   1      19.539   0.794  10.554  0.00  0.00     0.135 A 
ATOM      6  C16 ZIN A   1      19.291   2.079  10.083  0.00  0.00     0.104 A 
ATOM      7  C15 ZIN A   1      18.989   2.278   8.744  0.00  0.00     0.047 A 
BRANCH   4   8
ATOM      8  O2  ZIN A   1      19.741  -1.541  10.132  0.00  0.00    -0.353 OA
ATOM      9  C1  ZIN A   1      18.864  -2.577   9.684  0.00  0.00     0.210 C 
ENDBRANCH   4   8
BRANCH   5  10
ATOM     10  O20 ZIN A   1      19.835   0.595  11.867  0.00  0.00    -0.351 OA
ATOM     11  C21 ZIN A   1      18.737   0.361  12.752  0.00  0.00     0.210 C 
ENDBRANCH   5  10
BRANCH   6  12
ATOM     12  O17 ZIN A   1      19.339   3.137  10.936  0.00  0.00    -0.353 OA
ATOM     13  C18 ZIN A   1      18.200   4.001  10.960  0.00  0.00     0.210 C 
ENDBRANCH   6  12
ENDBRANCH   1   2
BRANCH   1  14
ATOM     14  C7  ZIN A   1      18.626   0.102   5.698  0.00  0.00     0.010 A 
ATOM     15  C13 ZIN A   1      17.476  -0.687   5.631  0.00  0.00     0.148 A 
ATOM     16  N12 ZIN A   1      17.525  -1.844   4.978  0.00  0.00    -0.045 NA
ATOM     17  C10 ZIN A   1      18.649  -2.248   4.407  0.00  0.00     0.721 A 
ATOM     18  N9  ZIN A   1      19.756  -1.523   4.459  0.00  0.00    -0.075 NA
ATOM     19  C8  ZIN A   1      19.777  -0.357   5.089  0.00  0.00     0.147 A 
BRANCH  15  20
ATOM     20  N14 ZIN A   1      16.299  -0.266   6.228  0.00  0.00    -0.383 N 
ATOM     21  H31 ZIN A   1      15.475  -0.754   6.072  0.00  0.00     0.157 HD
ATOM     22  H32 ZIN A   1      16.299   0.516   6.801  0.00  0.00     0.157 HD
ENDBRANCH  15  20
BRANCH  17  23
ATOM     23  N11 ZIN A   1      18.669  -3.461   3.740  0.00  0.00    -0.231 N 
ATOM     24  H29 ZIN A   1      18.503  -3.493   2.785  0.00  0.00     0.174 HD
ATOM     25  H30 ZIN A   1      18.849  -4.280   4.228  0.00  0.00     0.174 HD
ENDBRANCH  17  23
ENDBRANCH   1  14
TORSDOF 7
ENDMDL
MODEL 2
REMARK VINA RESULT:      -6.7      0.201      2.717
REMARK  7 active torsions:
REMARK  status: ('A' for Active; 'I' for Inactive)
REMARK    1  A    between atoms: O2_2  and  C3_3 
REMARK    2  A    between atoms: C5_5  and  C6_6 
REMARK    3  A    between atoms: C6_6  and  C7_7 
REMARK    4  A    between atoms: C10_10  and  N11_11 
REMARK    5  A    between atoms: C13_13  and  N14_14 
REMARK    6  A    between atoms: C16_16  and  O17_17 
REMARK    7  A    between atoms: C19_19  and  O20_20 
ROOT
ATOM      1  C6  ZIN A   1      18.662   1.425   6.499  0.00  0.00     0.082 C 
ENDROOT
BRANCH   1   2
ATOM      2  C5  ZIN A   1      18.980   1.152   7.946  0.00  0.00    -0.048 A 
ATOM      3  C4  ZIN A   1      19.076   2.201   8.841  0.00  0.00     0.047 A 
ATOM      4  C3  ZIN A   1      19.370   1.954  10.174  0.00  0.00     0.104 A 
ATOM      5  C19 ZIN A   1      19.572   0.650  10.609  0.00  0.00     0.135 A 
ATOM      6  C16 ZIN A   1      19.469  -0.403   9.707  0.00  0.00     0.104 A 
ATOM      7  C15 ZIN A   1      19.176  -0.147   8.375  0.00  0.00     0.047 A 
BRANCH   4   8
ATOM      8  O2  ZIN A   1      19.464   2.987  11.053  0.00  0.00    -0.353 OA
ATOM      9  C1  ZIN A   1      18.287   3.771  11.262  0.00  0.00     0.210 C 
ENDBRANCH   4   8
BRANCH   5  10
ATOM     10  O20 ZIN A   1      19.859   0.403  11.915  0.00  0.00    -0.351 OA
ATOM     11  C21 ZIN A   1      18.752   0.233  12.803  0.00  0.00     0.210 C 
ENDBRANCH   5  10
BRANCH   6  12
ATOM     12  O17 ZIN A   1      19.661  -1.681  10.129  0.00  0.00    -0.353 OA
ATOM     13  C18 ZIN A   1      18.508  -2.524  10.191  0.00  0.00     0.210 C 
ENDBRANCH   6  12
ENDBRANCH   1   2
BRANCH   1  14
ATOM     14  C7  ZIN A   1      18.634   0.125   5.737  0.00  0.00     0.010 A 
ATOM     15  C13 ZIN A   1      17.458  -0.623   5.645  0.00  0.00     0.148 A 
ATOM     16  N12 ZIN A   1      17.470  -1.762   4.959  0.00  0.00    -0.045 NA
ATOM     17  C10 ZIN A   1      18.582  -2.188   4.380  0.00  0.00     0.721 A 
ATOM     18  N9  ZIN A   1      19.713  -1.502   4.455  0.00  0.00    -0.075 NA
ATOM     19  C8  ZIN A   1      19.771  -0.356   5.118  0.00  0.00     0.147 A 
BRANCH  15  20
ATOM     20  N14 ZIN A   1      16.293  -0.180   6.251  0.00  0.00    -0.383 N 
ATOM     21  H31 ZIN A   1      15.697  -0.815   6.679  0.00  0.00     0.157 HD
ATOM     22  H32 ZIN A   1      16.074   0.765   6.246  0.00  0.00     0.157 HD
ENDBRANCH  15  20
BRANCH  17  23
ATOM     23  N11 ZIN A   1      18.563  -3.382   3.679  0.00  0.00    -0.231 N 
ATOM     24  H29 ZIN A   1      19.367  -3.699   3.238  0.00  0.00     0.174 HD
ATOM     25  H30 ZIN A   1      17.746  -3.901   3.629  0.00  0.00     0.174 HD
ENDBRANCH  17  23
ENDBRANCH   1  14
TORSDOF 7
ENDMDL
MODEL 3
REMARK VINA RESULT:      -6.6      4.252      6.401
REMARK  7 active torsions:
REMARK  status: ('A' for Active; 'I' for Inactive)
REMARK    1  A    between atoms: O2_2  and  C3_3 
REMARK    2  A    between atoms: C5_5  and  C6_6 
REMARK    3  A    between atoms: C6_6  and  C7_7 
REMARK    4  A    between atoms: C10_10  and  N11_11 
REMARK    5  A    between atoms: C13_13  and  N14_14 
REMARK    6  A    between atoms: C16_16  and  O17_17 
REMARK    7  A    between atoms: C19_19  and  O20_20 
ROOT
ATOM      1  C6  ZIN A   1      19.009   2.755   9.249  0.00  0.00     0.082 C 
ENDROOT
BRANCH   1   2
ATOM      2  C5  ZIN A   1      18.721   1.276   9.254  0.00  0.00    -0.048 A 
ATOM      3  C4  ZIN A   1      19.200   0.477   8.234  0.00  0.00     0.047 A 
ATOM      4  C3  ZIN A   1      18.937  -0.885   8.235  0.00  0.00     0.104 A 
ATOM      5  C19 ZIN A   1      18.184  -1.445   9.260  0.00  0.00     0.135 A 
ATOM      6  C16 ZIN A   1      17.708  -0.638  10.287  0.00  0.00     0.104 A 
ATOM      7  C15 ZIN A   1      17.976   0.723  10.279  0.00  0.00     0.047 A 
BRANCH   4   8
ATOM      8  O2  ZIN A   1      19.410  -1.670   7.230  0.00  0.00    -0.353 OA
ATOM      9  C1  ZIN A   1      19.161  -1.233   5.892  0.00  0.00     0.210 C 
ENDBRANCH   4   8
BRANCH   5  10
ATOM     10  O20 ZIN A   1      17.924  -2.780   9.264  0.00  0.00    -0.351 OA
ATOM     11  C21 ZIN A   1      18.873  -3.625   9.919  0.00  0.00     0.210 C 
ENDBRANCH   5  10
BRANCH   6  12
ATOM     12  O17 ZIN A   1      16.975  -1.182  11.295  0.00  0.00    -0.353 OA
ATOM     13  C18 ZIN A   1      17.512  -1.079  12.616  0.00  0.00     0.210 C 
ENDBRANCH   6  12
ENDBRANCH   1   2
BRANCH   1  14
ATOM     14  C7  ZIN A   1      18.556   3.360  10.554  0.00  0.00     0.010 A 
ATOM     15  C13 ZIN A   1      19.439   3.485  11.628  0.00  0.00     0.148 A 
ATOM     16  N12 ZIN A   1      19.004   4.029  12.761  0.00  0.00    -0.045 NA
ATOM     17  C10 ZIN A   1      17.749   4.437  12.874  0.00  0.00     0.721 A 
ATOM     18  N9  ZIN A   1      16.888   4.325  11.874  0.00  0.00    -0.075 NA
ATOM     19  C8  ZIN A   1      17.256   3.798  10.714  0.00  0.00     0.147 A 
BRANCH  15  20
ATOM     20  N14 ZIN A   1      20.752   3.059  11.512  0.00  0.00    -0.383 N 
ATOM     21  H31 ZIN A   1      21.202   2.662  12.275  0.00  0.00     0.157 HD
ATOM     22  H32 ZIN A   1      21.221   3.157  10.669  0.00  0.00     0.157 HD
ENDBRANCH  15  20
BRANCH  17  23
ATOM     23  N11 ZIN A   1      17.326   4.992  14.069  0.00  0.00    -0.231 N 
ATOM     24  H29 ZIN A   1      17.949   5.489  14.622  0.00  0.00     0.174 HD
ATOM     25  H30 ZIN A   1      16.405   4.885  14.354  0.00  0.00     0.174 HD
ENDBRANCH  17  23
ENDBRANCH   1  14
TORSDOF 7
ENDMDL
MODEL 4
REMARK VINA RESULT:      -6.6      4.245      6.545
REMARK  7 active torsions:
REMARK  status: ('A' for Active; 'I' for Inactive)
REMARK    1  A    between atoms: O2_2  and  C3_3 
REMARK    2  A    between atoms: C5_5  and  C6_6 
REMARK    3  A    between atoms: C6_6  and  C7_7 
REMARK    4  A    between atoms: C10_10  and  N11_11 
REMARK    5  A    between atoms: C13_13  and  N14_14 
REMARK    6  A    between atoms: C16_16  and  O17_17 
REMARK    7  A    between atoms: C19_19  and  O20_20 
ROOT
ATOM      1  C6  ZIN A   1      19.003   2.795   9.235  0.00  0.00     0.082 C 
ENDROOT
BRANCH   1   2
ATOM      2  C5  ZIN A   1      18.701   1.319   9.204  0.00  0.00    -0.048 A 
ATOM      3  C4  ZIN A   1      17.974   0.743  10.227  0.00  0.00     0.047 A 
ATOM      4  C3  ZIN A   1      17.694  -0.616  10.203  0.00  0.00     0.104 A 
ATOM      5  C19 ZIN A   1      18.151  -1.398   9.150  0.00  0.00     0.135 A 
ATOM      6  C16 ZIN A   1      18.878  -0.813   8.119  0.00  0.00     0.104 A 
ATOM      7  C15 ZIN A   1      19.154   0.546   8.151  0.00  0.00     0.047 A 
BRANCH   4   8
ATOM      8  O2  ZIN A   1      16.978  -1.182  11.211  0.00  0.00    -0.353 OA
ATOM      9  C1  ZIN A   1      17.602  -1.245  12.495  0.00  0.00     0.210 C 
ENDBRANCH   4   8
BRANCH   5  10
ATOM     10  O20 ZIN A   1      17.878  -2.731   9.121  0.00  0.00    -0.351 OA
ATOM     11  C21 ZIN A   1      18.839  -3.603   9.721  0.00  0.00     0.210 C 
ENDBRANCH   5  10
BRANCH   6  12
ATOM     12  O17 ZIN A   1      19.323  -1.574   7.083  0.00  0.00    -0.353 OA
ATOM     13  C18 ZIN A   1      19.212  -1.014   5.773  0.00  0.00     0.210 C 
ENDBRANCH   6  12
ENDBRANCH   1   2
BRANCH   1  14
ATOM     14  C7  ZIN A   1      18.547   3.374  10.550  0.00  0.00     0.010 A 
ATOM     15  C13 ZIN A   1      19.426   3.470  11.631  0.00  0.00     0.148 A 
ATOM     16  N12 ZIN A   1      18.989   3.991  12.773  0.00  0.00    -0.045 NA
ATOM     17  C10 ZIN A   1      17.736   4.404  12.890  0.00  0.00     0.721 A 
ATOM     18  N9  ZIN A   1      16.879   4.319  11.884  0.00  0.00    -0.075 NA
ATOM     19  C8  ZIN A   1      17.249   3.816  10.715  0.00  0.00     0.147 A 
BRANCH  15  20
ATOM     20  N14 ZIN A   1      20.737   3.039  11.512  0.00  0.00    -0.383 N 
ATOM     21  H31 ZIN A   1      21.378   3.568  11.011  0.00  0.00     0.157 HD
ATOM     22  H32 ZIN A   1      21.014   2.207  11.929  0.00  0.00     0.157 HD
ENDBRANCH  15  20
BRANCH  17  23
ATOM     23  N11 ZIN A   1      17.310   4.936  14.095  0.00  0.00    -0.231 N 
ATOM     24  H29 ZIN A   1      17.524   5.854  14.323  0.00  0.00     0.174 HD
ATOM     25  H30 ZIN A   1      16.798   4.389  14.711  0.00  0.00     0.174 HD
ENDBRANCH  17  23
ENDBRANCH   1  14
TORSDOF 7
ENDMDL
MODEL 5
REMARK VINA RESULT:      -6.5      4.164      6.396
REMARK  7 active torsions:
REMARK  status: ('A' for Active; 'I' for Inactive)
REMARK    1  A    between atoms: O2_2  and  C3_3 
REMARK    2  A    between atoms: C5_5  and  C6_6 
REMARK    3  A    between atoms: C6_6  and  C7_7 
REMARK    4  A    between atoms: C10_10  and  N11_11 
REMARK    5  A    between atoms: C13_13  and  N14_14 
REMARK    6  A    between atoms: C16_16  and  O17_17 
REMARK    7  A    between atoms: C19_19  and  O20_20 
ROOT
ATOM      1  C6  ZIN A   1      19.247   2.238   9.329  0.00  0.00     0.082 C 
ENDROOT
BRANCH   1   2
ATOM      2  C5  ZIN A   1      19.050   0.883   8.700  0.00  0.00    -0.048 A 
ATOM      3  C4  ZIN A   1      19.286  -0.261   9.438  0.00  0.00     0.047 A 
ATOM      4  C3  ZIN A   1      19.107  -1.510   8.862  0.00  0.00     0.104 A 
ATOM      5  C19 ZIN A   1      18.694  -1.610   7.540  0.00  0.00     0.135 A 
ATOM      6  C16 ZIN A   1      18.452  -0.457   6.802  0.00  0.00     0.104 A 
ATOM      7  C15 ZIN A   1      18.635   0.788   7.385  0.00  0.00     0.047 A 
BRANCH   4   8
ATOM      8  O2  ZIN A   1      19.339  -2.635   9.591  0.00  0.00    -0.353 OA
ATOM      9  C1  ZIN A   1      19.293  -2.508  11.013  0.00  0.00     0.210 C 
ENDBRANCH   4   8
BRANCH   5  10
ATOM     10  O20 ZIN A   1      18.516  -2.834   6.971  0.00  0.00    -0.351 OA
ATOM     11  C21 ZIN A   1      19.660  -3.442   6.369  0.00  0.00     0.210 C 
ENDBRANCH   5  10
BRANCH   6  12
ATOM     12  O17 ZIN A   1      18.043  -0.550   5.508  0.00  0.00    -0.353 OA
ATOM     13  C18 ZIN A   1      18.947  -0.076   4.507  0.00  0.00     0.210 C 
ENDBRANCH   6  12
ENDBRANCH   1   2
BRANCH   1  14
ATOM     14  C7  ZIN A   1      18.804   2.192  10.769  0.00  0.00     0.010 A 
ATOM     15  C13 ZIN A   1      19.644   2.646  11.789  0.00  0.00     0.148 A 
ATOM     16  N12 ZIN A   1      19.216   2.596  13.047  0.00  0.00    -0.045 NA
ATOM     17  C10 ZIN A   1      18.017   2.113  13.332  0.00  0.00     0.721 A 
ATOM     18  N9  ZIN A   1      17.202   1.670  12.386  0.00  0.00    -0.075 NA
ATOM     19  C8  ZIN A   1      17.562   1.696  11.110  0.00  0.00     0.147 A 
BRANCH  15  20
ATOM     20  N14 ZIN A   1      20.900   3.152  11.494  0.00  0.00    -0.383 N 
ATOM     21  H31 ZIN A   1      21.630   3.031  12.120  0.00  0.00     0.157 HD
ATOM     22  H32 ZIN A   1      21.047   3.627  10.661  0.00  0.00     0.157 HD
ENDBRANCH  15  20
BRANCH  17  23
ATOM     23  N11 ZIN A   1      17.604   2.067  14.652  0.00  0.00    -0.231 N 
ATOM     24  H29 ZIN A   1      16.745   2.441  14.906  0.00  0.00     0.174 HD
ATOM     25  H30 ZIN A   1      18.173   1.660  15.324  0.00  0.00     0.174 HD
ENDBRANCH  17  23
ENDBRANCH   1  14
TORSDOF 7
ENDMDL
MODEL 6
REMARK VINA RESULT:      -6.5      3.881      5.444
REMARK  7 active torsions:
REMARK  status: ('A' for Active; 'I' for Inactive)
REMARK    1  A    between atoms: O2_2  and  C3_3 
REMARK    2  A    between atoms: C5_5  and  C6_6 
REMARK    3  A    between atoms: C6_6  and  C7_7 
REMARK    4  A    between atoms: C10_10  and  N11_11 
REMARK    5  A    between atoms: C13_13  and  N14_14 
REMARK    6  A    between atoms: C16_16  and  O17_17 
REMARK    7  A    between atoms: C19_19  and  O20_20 
ROOT
ATOM      1  C6  ZIN A   1      19.524  -3.125  11.812  0.00  0.00     0.082 C 
ENDROOT
BRANCH   1   2
ATOM      2  C5  ZIN A   1      18.973  -1.900  12.495  0.00  0.00    -0.048 A 
ATOM      3  C4  ZIN A   1      19.217  -1.693  13.839  0.00  0.00     0.047 A 
ATOM      4  C3  ZIN A   1      18.710  -0.567  14.473  0.00  0.00     0.104 A 
ATOM      5  C19 ZIN A   1      17.953   0.350  13.755  0.00  0.00     0.135 A 
ATOM      6  C16 ZIN A   1      17.714   0.140  12.402  0.00  0.00     0.104 A 
ATOM      7  C15 ZIN A   1      18.223  -0.988  11.776  0.00  0.00     0.047 A 
BRANCH   4   8
ATOM      8  O2  ZIN A   1      18.952  -0.364  15.796  0.00  0.00    -0.353 OA
ATOM      9  C1  ZIN A   1      18.101  -1.043  16.722  0.00  0.00     0.210 C 
ENDBRANCH   4   8
BRANCH   5  10
ATOM     10  O20 ZIN A   1      17.455   1.455  14.372  0.00  0.00    -0.351 OA
ATOM     11  C21 ZIN A   1      18.287   2.617  14.396  0.00  0.00     0.210 C 
ENDBRANCH   5  10
BRANCH   6  12
ATOM     12  O17 ZIN A   1      16.977   1.037  11.694  0.00  0.00    -0.353 OA
ATOM     13  C18 ZIN A   1      17.675   1.841  10.739  0.00  0.00     0.210 C 
ENDBRANCH   6  12
ENDBRANCH   1   2
BRANCH   1  14
ATOM     14  C7  ZIN A   1      18.446  -3.758  10.969  0.00  0.00     0.010 A 
ATOM     15  C13 ZIN A   1      18.478  -3.658   9.576  0.00  0.00     0.148 A 
ATOM     16  N12 ZIN A   1      17.513  -4.235   8.867  0.00  0.00    -0.045 NA
ATOM     17  C10 ZIN A   1      16.530  -4.886   9.470  0.00  0.00     0.721 A 
ATOM     18  N9  ZIN A   1      16.472  -4.991  10.789  0.00  0.00    -0.075 NA
ATOM     19  C8  ZIN A   1      17.404  -4.446  11.558  0.00  0.00     0.147 A 
BRANCH  15  20
ATOM     20  N14 ZIN A   1      19.504  -2.977   8.943  0.00  0.00    -0.383 N 
ATOM     21  H31 ZIN A   1      19.301  -2.320   8.259  0.00  0.00     0.157 HD
ATOM     22  H32 ZIN A   1      20.427  -3.158   9.184  0.00  0.00     0.157 HD
ENDBRANCH  15  20
BRANCH  17  23
ATOM     23  N11 ZIN A   1      15.536  -5.469   8.703  0.00  0.00    -0.231 N 
ATOM     24  H29 ZIN A   1      15.438  -5.226   7.769  0.00  0.00     0.174 HD
ATOM     25  H30 ZIN A   1      14.938  -6.122   9.100  0.00  0.00     0.174 HD
ENDBRANCH  17  23
ENDBRANCH   1  14
TORSDOF 7
ENDMDL
MODEL 7
REMARK VINA RESULT:      -6.5      3.873      5.595
REMARK  7 active torsions:
REMARK  status: ('A' for Active; 'I' for Inactive)
REMARK    1  A    between atoms: O2_2  and  C3_3 
REMARK    2  A    between atoms: C5_5  and  C6_6 
REMARK    3  A    between atoms: C6_6  and  C7_7 
REMARK    4  A    between atoms: C10_10  and  N11_11 
REMARK    5  A    between atoms: C13_13  and  N14_14 
REMARK    6  A    between atoms: C16_16  and  O17_17 
REMARK    7  A    between atoms: C19_19  and  O20_20 
ROOT
ATOM      1  C6  ZIN A   1      19.513  -3.109  11.819  0.00  0.00     0.082 C 
ENDROOT
BRANCH   1   2
ATOM      2  C5  ZIN A   1      18.950  -1.892  12.507  0.00  0.00    -0.048 A 
ATOM      3  C4  ZIN A   1      18.213  -0.972  11.787  0.00  0.00     0.047 A 
ATOM      4  C3  ZIN A   1      17.693   0.150  12.417  0.00  0.00     0.104 A 
ATOM      5  C19 ZIN A   1      17.919   0.349  13.773  0.00  0.00     0.135 A 
ATOM      6  C16 ZIN A   1      18.656  -0.582  14.495  0.00  0.00     0.104 A 
ATOM      7  C15 ZIN A   1      19.173  -1.700  13.858  0.00  0.00     0.047 A 
BRANCH   4   8
ATOM      8  O2  ZIN A   1      16.968   1.055  11.706  0.00  0.00    -0.353 OA
ATOM      9  C1  ZIN A   1      17.671   1.829  10.733  0.00  0.00     0.210 C 
ENDBRANCH   4   8
BRANCH   5  10
ATOM     10  O20 ZIN A   1      17.411   1.448  14.395  0.00  0.00    -0.351 OA
ATOM     11  C21 ZIN A   1      18.236   2.614  14.431  0.00  0.00     0.210 C 
ENDBRANCH   5  10
BRANCH   6  12
ATOM     12  O17 ZIN A   1      18.876  -0.393  15.824  0.00  0.00    -0.353 OA
ATOM     13  C18 ZIN A   1      17.960  -1.016  16.728  0.00  0.00     0.210 C 
ENDBRANCH   6  12
ENDBRANCH   1   2
BRANCH   1  14
ATOM     14  C7  ZIN A   1      18.444  -3.743  10.965  0.00  0.00     0.010 A 
ATOM     15  C13 ZIN A   1      18.479  -3.626   9.574  0.00  0.00     0.148 A 
ATOM     16  N12 ZIN A   1      17.523  -4.203   8.854  0.00  0.00    -0.045 NA
ATOM     17  C10 ZIN A   1      16.544  -4.872   9.446  0.00  0.00     0.721 A 
ATOM     18  N9  ZIN A   1      16.483  -4.994  10.763  0.00  0.00    -0.075 NA
ATOM     19  C8  ZIN A   1      17.407  -4.448  11.542  0.00  0.00     0.147 A 
BRANCH  15  20
ATOM     20  N14 ZIN A   1      19.501  -2.927   8.952  0.00  0.00    -0.383 N 
ATOM     21  H31 ZIN A   1      20.172  -2.472   9.485  0.00  0.00     0.157 HD
ATOM     22  H32 ZIN A   1      19.546  -2.893   7.984  0.00  0.00     0.157 HD
ENDBRANCH  15  20
BRANCH  17  23
ATOM     23  N11 ZIN A   1      15.559  -5.456   8.669  0.00  0.00    -0.231 N 
ATOM     24  H29 ZIN A   1      14.680  -5.621   9.042  0.00  0.00     0.174 HD
ATOM     25  H30 ZIN A   1      15.749  -5.700   7.749  0.00  0.00     0.174 HD
ENDBRANCH  17  23
ENDBRANCH   1  14
TORSDOF 7
ENDMDL
MODEL 8
REMARK VINA RESULT:      -6.4      4.261      6.758
REMARK  7 active torsions:
REMARK  status: ('A' for Active; 'I' for Inactive)
REMARK    1  A    between atoms: O2_2  and  C3_3 
REMARK    2  A    between atoms: C5_5  and  C6_6 
REMARK    3  A    between atoms: C6_6  and  C7_7 
REMARK    4  A    between atoms: C10_10  and  N11_11 
REMARK    5  A    between atoms: C13_13  and  N14_14 
REMARK    6  A    between atoms: C16_16  and  O17_17 
REMARK    7  A    between atoms: C19_19  and  O20_20 
ROOT
ATOM      1  C6  ZIN A   1      19.515   1.453  10.173  0.00  0.00     0.082 C 
ENDROOT
BRANCH   1   2
ATOM      2  C5  ZIN A   1      19.208   0.312   9.237  0.00  0.00    -0.048 A 
ATOM      3  C4  ZIN A   1      18.846   0.572   7.929  0.00  0.00     0.047 A 
ATOM      4  C3  ZIN A   1      18.563  -0.475   7.064  0.00  0.00     0.104 A 
ATOM      5  C19 ZIN A   1      18.637  -1.786   7.516  0.00  0.00     0.135 A 
ATOM      6  C16 ZIN A   1      19.007  -2.044   8.831  0.00  0.00     0.104 A 
ATOM      7  C15 ZIN A   1      19.288  -0.991   9.690  0.00  0.00     0.047 A 
BRANCH   4   8
ATOM      8  O2  ZIN A   1      18.207  -0.217   5.777  0.00  0.00    -0.353 OA
ATOM      9  C1  ZIN A   1      19.261   0.083   4.859  0.00  0.00     0.210 C 
ENDBRANCH   4   8
BRANCH   5  10
ATOM     10  O20 ZIN A   1      18.360  -2.816   6.671  0.00  0.00    -0.351 OA
ATOM     11  C21 ZIN A   1      19.471  -3.443   6.026  0.00  0.00     0.210 C 
ENDBRANCH   5  10
BRANCH   6  12
ATOM     12  O17 ZIN A   1      19.086  -3.326   9.277  0.00  0.00    -0.353 OA
ATOM     13  C18 ZIN A   1      19.220  -3.515  10.687  0.00  0.00     0.210 C 
ENDBRANCH   6  12
ENDBRANCH   1   2
BRANCH   1  14
ATOM     14  C7  ZIN A   1      19.158   1.055  11.583  0.00  0.00     0.010 A 
ATOM     15  C13 ZIN A   1      20.149   0.663  12.486  0.00  0.00     0.148 A 
ATOM     16  N12 ZIN A   1      19.796   0.325  13.722  0.00  0.00    -0.045 NA
ATOM     17  C10 ZIN A   1      18.524   0.349  14.091  0.00  0.00     0.721 A 
ATOM     18  N9  ZIN A   1      17.564   0.711  13.254  0.00  0.00    -0.075 NA
ATOM     19  C8  ZIN A   1      17.845   1.066  12.008  0.00  0.00     0.147 A 
BRANCH  15  20
ATOM     20  N14 ZIN A   1      21.480   0.636  12.103  0.00  0.00    -0.383 N 
ATOM     21  H31 ZIN A   1      22.117   0.101  12.601  0.00  0.00     0.157 HD
ATOM     22  H32 ZIN A   1      21.774   1.154  11.337  0.00  0.00     0.157 HD
ENDBRANCH  15  20
BRANCH  17  23
ATOM     23  N11 ZIN A   1      18.189  -0.015  15.384  0.00  0.00    -0.231 N 
ATOM     24  H29 ZIN A   1      18.884  -0.255  16.016  0.00  0.00     0.174 HD
ATOM     25  H30 ZIN A   1      17.259  -0.030  15.657  0.00  0.00     0.174 HD
ENDBRANCH  17  23
ENDBRANCH   1  14
TORSDOF 7
ENDMDL
MODEL 9
REMARK VINA RESULT:      -6.4      3.610      5.873
REMARK  7 active torsions:
REMARK  status: ('A' for Active; 'I' for Inactive)
REMARK    1  A    between atoms: O2_2  and  C3_3 
REMARK    2  A    between atoms: C5_5  and  C6_6 
REMARK    3  A    between atoms: C6_6  and  C7_7 
REMARK    4  A    between atoms: C10_10  and  N11_11 
REMARK    5  A    between atoms: C13_13  and  N14_14 
REMARK    6  A    between atoms: C16_16  and  O17_17 
REMARK    7  A    between atoms: C19_19  and  O20_20 
ROOT
ATOM      1  C6  ZIN A   1      19.530  -1.431  12.911  0.00  0.00     0.082 C 
ENDROOT
BRANCH   1   2
ATOM      2  C5  ZIN A   1      19.211  -0.303  13.858  0.00  0.00    -0.048 A 
ATOM      3  C4  ZIN A   1      18.870  -0.579  15.168  0.00  0.00     0.047 A 
ATOM      4  C3  ZIN A   1      18.575   0.456  16.044  0.00  0.00     0.104 A 
ATOM      5  C19 ZIN A   1      18.618   1.772  15.600  0.00  0.00     0.135 A 
ATOM      6  C16 ZIN A   1      18.967   2.046  14.282  0.00  0.00     0.104 A 
ATOM      7  C15 ZIN A   1      19.260   1.005  13.413  0.00  0.00     0.047 A 
BRANCH   4   8
ATOM      8  O2  ZIN A   1      18.240   0.183  17.333  0.00  0.00    -0.353 OA
ATOM      9  C1  ZIN A   1      19.308  -0.127  18.230  0.00  0.00     0.210 C 
ENDBRANCH   4   8
BRANCH   5  10
ATOM     10  O20 ZIN A   1      18.330   2.790  16.455  0.00  0.00    -0.351 OA
ATOM     11  C21 ZIN A   1      19.435   3.438  17.089  0.00  0.00     0.210 C 
ENDBRANCH   5  10
BRANCH   6  12
ATOM     12  O17 ZIN A   1      19.015   3.333  13.844  0.00  0.00    -0.353 OA
ATOM     13  C18 ZIN A   1      18.244   3.652  12.684  0.00  0.00     0.210 C 
ENDBRANCH   6  12
ENDBRANCH   1   2
BRANCH   1  14
ATOM     14  C7  ZIN A   1      19.206  -1.009  11.500  0.00  0.00     0.010 A 
ATOM     15  C13 ZIN A   1      20.218  -0.619  10.621  0.00  0.00     0.148 A 
ATOM     16  N12 ZIN A   1      19.894  -0.259   9.383  0.00  0.00    -0.045 NA
ATOM     17  C10 ZIN A   1      18.629  -0.259   8.990  0.00  0.00     0.721 A 
ATOM     18  N9  ZIN A   1      17.648  -0.619   9.804  0.00  0.00    -0.075 NA
ATOM     19  C8  ZIN A   1      17.900  -0.995  11.050  0.00  0.00     0.147 A 
BRANCH  15  20
ATOM     20  N14 ZIN A   1      21.542  -0.617  11.029  0.00  0.00    -0.383 N 
ATOM     21  H31 ZIN A   1      21.819  -0.061  11.775  0.00  0.00     0.157 HD
ATOM     22  H32 ZIN A   1      22.192  -1.171  10.569  0.00  0.00     0.157 HD
ENDBRANCH  15  20
BRANCH  17  23
ATOM     23  N11 ZIN A   1      18.324   0.127   7.697  0.00  0.00    -0.231 N 
ATOM     24  H29 ZIN A   1      18.054   1.041   7.514  0.00  0.00     0.174 HD
ATOM     25  H30 ZIN A   1      18.380  -0.516   6.973  0.00  0.00     0.174 HD
ENDBRANCH  17  23
ENDBRANCH   1  14
TORSDOF 7
ENDMDL
