MODEL 1
REMARK VINA RESULT:      -7.4      0.000      0.000
REMARK  6 active torsions:
REMARK  status: ('A' for Active; 'I' for Inactive)
REMARK       I    between atoms: N2_2  and  C4_4 
REMARK    1  A    between atoms: C4_4  and  C6_6 
REMARK    2  A    between atoms: C10_9  and  N12_10 
REMARK       I    between atoms: N12_10  and  C13_11 
REMARK    3  A    between atoms: C13_11  and  C15_13 
REMARK       I    between atoms: C15_13  and  N17_15 
REMARK    4  A    between atoms: N17_15  and  C18_16 
REMARK    5  A    between atoms: C25_23  and  N27_24 
REMARK       I    between atoms: N27_24  and  C28_25 
REMARK    6  A    between atoms: C28_25  and  C30_27 
ROOT
ATOM      1  C6  ZIN A   1      15.905   7.656  17.279  0.00  0.00     0.080 C 
ATOM      2  C8  ZIN A   1      14.839   7.837  16.196  0.00  0.00     0.016 C 
ATOM      3  C9  ZIN A   1      15.207   6.994  14.973  0.00  0.00     0.028 C 
ATOM      4  C10 ZIN A   1      16.565   7.444  14.433  0.00  0.00     0.107 C 
ATOM      5  C25 ZIN A   1      17.630   7.263  15.516  0.00  0.00     0.108 C 
ATOM      6  C41 ZIN A   1      17.263   8.106  16.738  0.00  0.00     0.041 C 
ENDROOT
BRANCH   4   7
ATOM      7  N12 ZIN A   1      16.917   6.637  13.262  0.00  0.00    -0.346 N 
ATOM      8  C13 ZIN A   1      16.408   5.397  13.120  0.00  0.00     0.310 C 
ATOM      9  O14 ZIN A   1      15.658   4.949  13.962  0.00  0.00    -0.262 OA
ATOM     10  H52 ZIN A   1      17.517   6.995  12.589  0.00  0.00     0.163 HD
BRANCH   8  11
ATOM     11  C15 ZIN A   1      16.766   4.575  11.926  0.00  0.00     0.315 C 
ATOM     12  O16 ZIN A   1      16.324   4.866  10.833  0.00  0.00    -0.262 OA
ATOM     13  N17 ZIN A   1      17.582   3.511  12.060  0.00  0.00    -0.303 N 
ATOM     14  H53 ZIN A   1      17.994   3.321  12.918  0.00  0.00     0.171 HD
BRANCH  13  15
ATOM     15  C18 ZIN A   1      17.834   2.683  10.969  0.00  0.00     0.130 A 
ATOM     16  N24 ZIN A   1      17.250   1.496  10.899  0.00  0.00    -0.242 NA
ATOM     17  C23 ZIN A   1      17.455   0.683   9.881  0.00  0.00     0.142 A 
ATOM     18  C21 ZIN A   1      18.303   1.040   8.849  0.00  0.00     0.051 A 
ATOM     19  C20 ZIN A   1      18.938   2.274   8.887  0.00  0.00     0.029 A 
ATOM     20 Cl22 ZIN A   1      18.570  -0.043   7.519  0.00  0.00    -0.083 Cl
ATOM     21  C19 ZIN A   1      18.697   3.107   9.966  0.00  0.00     0.052 A 
ENDBRANCH  13  15
ENDBRANCH   8  11
ENDBRANCH   4   7
BRANCH   5  22
ATOM     22  N27 ZIN A   1      17.701   5.851  15.899  0.00  0.00    -0.349 N 
ATOM     23  C28 ZIN A   1      18.724   5.086  15.468  0.00  0.00     0.277 C 
ATOM     24  O29 ZIN A   1      19.587   5.568  14.761  0.00  0.00    -0.265 OA
ATOM     25  H57 ZIN A   1      17.013   5.466  16.464  0.00  0.00     0.163 HD
BRANCH  23  26
ATOM     26  C30 ZIN A   1      18.796   3.667  15.855  0.00  0.00     0.166 A 
ATOM     27  S40 ZIN A   1      19.298   3.060  17.429  0.00  0.00    -0.066 SA
ATOM     28  C33 ZIN A   1      19.056   1.456  16.900  0.00  0.00     0.035 A 
ATOM     29  C32 ZIN A   1      18.631   1.460  15.612  0.00  0.00     0.052 A 
ATOM     30  C34 ZIN A   1      19.280   0.202  17.716  0.00  0.00     0.282 C 
ATOM     31  N31 ZIN A   1      18.505   2.657  15.086  0.00  0.00    -0.239 NA
ATOM     32  C39 ZIN A   1      18.333   0.162  14.870  0.00  0.00     0.088 C 
ATOM     33  C38 ZIN A   1      18.198  -0.956  15.909  0.00  0.00     0.241 C 
ATOM     34  N35 ZIN A   1      19.367  -0.945  16.800  0.00  0.00    -0.070 N 
ATOM     35  H36 ZIN A   1      20.208  -0.872  16.249  0.00  0.00     0.279 HD
ATOM     36  C37 ZIN A   1      19.397  -2.191  17.578  0.00  0.00     0.270 C 
ENDBRANCH  23  26
ENDBRANCH   5  22
BRANCH   1  37
ATOM     37  C4  ZIN A   1      15.543   8.487  18.484  0.00  0.00     0.223 C 
ATOM     38  N2  ZIN A   1      15.686   7.976  19.722  0.00  0.00    -0.360 N 
ATOM     39  C1  ZIN A   1      15.225   8.735  20.886  0.00  0.00     0.152 C 
ATOM     40  C3  ZIN A   1      16.305   6.659  19.905  0.00  0.00     0.152 C 
ATOM     41  O5  ZIN A   1      15.122   9.615  18.338  0.00  0.00    -0.273 OA
ENDBRANCH   1  37
TORSDOF 6
ENDMDL
MODEL 2
REMARK VINA RESULT:      -6.8      8.309     14.361
REMARK  6 active torsions:
REMARK  status: ('A' for Active; 'I' for Inactive)
REMARK       I    between atoms: N2_2  and  C4_4 
REMARK    1  A    between atoms: C4_4  and  C6_6 
REMARK    2  A    between atoms: C10_9  and  N12_10 
REMARK       I    between atoms: N12_10  and  C13_11 
REMARK    3  A    between atoms: C13_11  and  C15_13 
REMARK       I    between atoms: C15_13  and  N17_15 
REMARK    4  A    between atoms: N17_15  and  C18_16 
REMARK    5  A    between atoms: C25_23  and  N27_24 
REMARK       I    between atoms: N27_24  and  C28_25 
REMARK    6  A    between atoms: C28_25  and  C30_27 
ROOT
ATOM      1  C6  ZIN A   1      15.551  -8.149   5.491  0.00  0.00     0.080 C 
ATOM      2  C8  ZIN A   1      14.555  -8.221   6.650  0.00  0.00     0.016 C 
ATOM      3  C9  ZIN A   1      15.037  -7.326   7.794  0.00  0.00     0.028 C 
ATOM      4  C10 ZIN A   1      16.410  -7.803   8.270  0.00  0.00     0.107 C 
ATOM      5  C25 ZIN A   1      17.406  -7.731   7.111  0.00  0.00     0.108 C 
ATOM      6  C41 ZIN A   1      16.924  -8.625   5.968  0.00  0.00     0.041 C 
ENDROOT
BRANCH   4   7
ATOM      7  N12 ZIN A   1      16.872  -6.946   9.365  0.00  0.00    -0.346 N 
ATOM      8  C13 ZIN A   1      16.398  -5.689   9.484  0.00  0.00     0.310 C 
ATOM      9  O14 ZIN A   1      15.588  -5.269   8.684  0.00  0.00    -0.262 OA
ATOM     10  H52 ZIN A   1      17.519  -7.282  10.004  0.00  0.00     0.163 HD
BRANCH   8  11
ATOM     11  C15 ZIN A   1      16.868  -4.817  10.601  0.00  0.00     0.315 C 
ATOM     12  O16 ZIN A   1      16.618  -5.114  11.751  0.00  0.00    -0.262 OA
ATOM     13  N17 ZIN A   1      17.572  -3.699  10.332  0.00  0.00    -0.303 N 
ATOM     14  H53 ZIN A   1      17.835  -3.499   9.419  0.00  0.00     0.171 HD
BRANCH  13  15
ATOM     15  C18 ZIN A   1      17.921  -2.830  11.363  0.00  0.00     0.130 A 
ATOM     16  N24 ZIN A   1      17.130  -1.810  11.656  0.00  0.00    -0.242 NA
ATOM     17  C23 ZIN A   1      17.419  -0.967  12.628  0.00  0.00     0.142 A 
ATOM     18  C21 ZIN A   1      18.575  -1.114  13.374  0.00  0.00     0.051 A 
ATOM     19  C20 ZIN A   1      19.433  -2.169  13.094  0.00  0.00     0.029 A 
ATOM     20 Cl22 ZIN A   1      18.947   0.008  14.645  0.00  0.00    -0.083 Cl
ATOM     21  C19 ZIN A   1      19.099  -3.040  12.072  0.00  0.00     0.052 A 
ENDBRANCH  13  15
ENDBRANCH   8  11
ENDBRANCH   4   7
BRANCH   5  22
ATOM     22  N27 ZIN A   1      17.506  -6.346   6.639  0.00  0.00    -0.349 N 
ATOM     23  C28 ZIN A   1      18.578  -5.598   6.970  0.00  0.00     0.277 C 
ATOM     24  O29 ZIN A   1      19.460  -6.071   7.659  0.00  0.00    -0.265 OA
ATOM     25  H57 ZIN A   1      16.802  -5.970   6.089  0.00  0.00     0.163 HD
BRANCH  23  26
ATOM     26  C30 ZIN A   1      18.678  -4.208   6.495  0.00  0.00     0.166 A 
ATOM     27  S40 ZIN A   1      18.513  -3.685   4.822  0.00  0.00    -0.066 SA
ATOM     28  C33 ZIN A   1      18.771  -2.064   5.293  0.00  0.00     0.035 A 
ATOM     29  C32 ZIN A   1      18.967  -2.005   6.634  0.00  0.00     0.052 A 
ATOM     30  C34 ZIN A   1      18.792  -0.861   4.378  0.00  0.00     0.282 C 
ATOM     31  N31 ZIN A   1      18.912  -3.168   7.242  0.00  0.00    -0.239 NA
ATOM     32  C39 ZIN A   1      19.225  -0.679   7.340  0.00  0.00     0.088 C 
ATOM     33  C38 ZIN A   1      18.809   0.450   6.392  0.00  0.00     0.241 C 
ATOM     34  N35 ZIN A   1      19.445   0.254   5.081  0.00  0.00    -0.070 N 
ATOM     35  H36 ZIN A   1      20.422   0.043   5.211  0.00  0.00     0.279 HD
ATOM     36  C37 ZIN A   1      19.310   1.481   4.286  0.00  0.00     0.270 C 
ENDBRANCH  23  26
ENDBRANCH   5  22
BRANCH   1  37
ATOM     37  C4  ZIN A   1      15.076  -9.030   4.364  0.00  0.00     0.223 C 
ATOM     38  N2  ZIN A   1      14.799  -8.494   3.160  0.00  0.00    -0.360 N 
ATOM     39  C1  ZIN A   1      14.225  -9.328   2.101  0.00  0.00     0.152 C 
ATOM     40  C3  ZIN A   1      15.072  -7.076   2.909  0.00  0.00     0.152 C 
ATOM     41  O5  ZIN A   1      14.943 -10.223   4.543  0.00  0.00    -0.273 OA
ENDBRANCH   1  37
TORSDOF 6
ENDMDL
MODEL 3
REMARK VINA RESULT:      -6.3      4.625      8.284
REMARK  6 active torsions:
REMARK  status: ('A' for Active; 'I' for Inactive)
REMARK       I    between atoms: N2_2  and  C4_4 
REMARK    1  A    between atoms: C4_4  and  C6_6 
REMARK    2  A    between atoms: C10_9  and  N12_10 
REMARK       I    between atoms: N12_10  and  C13_11 
REMARK    3  A    between atoms: C13_11  and  C15_13 
REMARK       I    between atoms: C15_13  and  N17_15 
REMARK    4  A    between atoms: N17_15  and  C18_16 
REMARK    5  A    between atoms: C25_23  and  N27_24 
REMARK       I    between atoms: N27_24  and  C28_25 
REMARK    6  A    between atoms: C28_25  and  C30_27 
ROOT
ATOM      1  C6  ZIN A   1      19.180   2.023  14.656  0.00  0.00     0.080 C 
ATOM      2  C8  ZIN A   1      19.832   0.819  15.339  0.00  0.00     0.016 C 
ATOM      3  C9  ZIN A   1      19.483  -0.455  14.568  0.00  0.00     0.028 C 
ATOM      4  C10 ZIN A   1      17.965  -0.639  14.547  0.00  0.00     0.107 C 
ATOM      5  C25 ZIN A   1      17.314   0.564  13.864  0.00  0.00     0.108 C 
ATOM      6  C41 ZIN A   1      17.662   1.839  14.636  0.00  0.00     0.041 C 
ENDROOT
BRANCH   4   7
ATOM      7  N12 ZIN A   1      17.631  -1.860  13.809  0.00  0.00    -0.346 N 
ATOM      8  C13 ZIN A   1      18.428  -2.281  12.806  0.00  0.00     0.310 C 
ATOM      9  O14 ZIN A   1      19.422  -1.649  12.515  0.00  0.00    -0.262 OA
ATOM     10  H52 ZIN A   1      16.836  -2.365  14.041  0.00  0.00     0.163 HD
BRANCH   8  11
ATOM     11  C15 ZIN A   1      18.087  -3.525  12.054  0.00  0.00     0.315 C 
ATOM     12  O16 ZIN A   1      18.023  -4.589  12.637  0.00  0.00    -0.262 OA
ATOM     13  N17 ZIN A   1      17.849  -3.468  10.729  0.00  0.00    -0.303 N 
ATOM     14  H53 ZIN A   1      17.828  -2.610  10.276  0.00  0.00     0.171 HD
BRANCH  13  15
ATOM     15  C18 ZIN A   1      17.635  -4.641  10.008  0.00  0.00     0.130 A 
ATOM     16  N24 ZIN A   1      16.398  -5.057   9.788  0.00  0.00    -0.242 NA
ATOM     17  C23 ZIN A   1      16.150  -6.158   9.105  0.00  0.00     0.142 A 
ATOM     18  C21 ZIN A   1      17.182  -6.927   8.601  0.00  0.00     0.051 A 
ATOM     19  C20 ZIN A   1      18.494  -6.527   8.815  0.00  0.00     0.029 A 
ATOM     20 Cl22 ZIN A   1      16.841  -8.378   7.711  0.00  0.00    -0.083 Cl
ATOM     21  C19 ZIN A   1      18.722  -5.364   9.530  0.00  0.00     0.052 A 
ENDBRANCH  13  15
ENDBRANCH   8  11
ENDBRANCH   4   7
BRANCH   5  22
ATOM     22  N27 ZIN A   1      17.811   0.673  12.490  0.00  0.00    -0.349 N 
ATOM     23  C28 ZIN A   1      17.037   0.275  11.460  0.00  0.00     0.277 C 
ATOM     24  O29 ZIN A   1      15.928  -0.175  11.672  0.00  0.00    -0.265 OA
ATOM     25  H57 ZIN A   1      18.696   1.033  12.321  0.00  0.00     0.163 HD
BRANCH  23  26
ATOM     26  C30 ZIN A   1      17.537   0.386  10.079  0.00  0.00     0.166 A 
ATOM     27  S40 ZIN A   1      18.240   1.830   9.359  0.00  0.00    -0.066 SA
ATOM     28  C33 ZIN A   1      18.467   0.998   7.887  0.00  0.00     0.035 A 
ATOM     29  C32 ZIN A   1      18.013  -0.275   8.007  0.00  0.00     0.052 A 
ATOM     30  C34 ZIN A   1      19.072   1.567   6.623  0.00  0.00     0.282 C 
ATOM     31  N31 ZIN A   1      17.522  -0.565   9.190  0.00  0.00    -0.239 NA
ATOM     32  C39 ZIN A   1      18.086  -1.257   6.844  0.00  0.00     0.088 C 
ATOM     33  C38 ZIN A   1      19.069  -0.695   5.812  0.00  0.00     0.241 C 
ATOM     34  N35 ZIN A   1      18.712   0.695   5.495  0.00  0.00    -0.070 N 
ATOM     35  H36 ZIN A   1      17.719   0.755   5.327  0.00  0.00     0.279 HD
ATOM     36  C37 ZIN A   1      19.439   1.123   4.293  0.00  0.00     0.270 C 
ENDBRANCH  23  26
ENDBRANCH   5  22
BRANCH   1  37
ATOM     37  C4  ZIN A   1      19.524   3.279  15.416  0.00  0.00     0.223 C 
ATOM     38  N2  ZIN A   1      19.541   4.467  14.781  0.00  0.00    -0.360 N 
ATOM     39  C1  ZIN A   1      19.990   5.669  15.488  0.00  0.00     0.152 C 
ATOM     40  C3  ZIN A   1      19.111   4.558  13.382  0.00  0.00     0.152 C 
ATOM     41  O5  ZIN A   1      19.785   3.219  16.598  0.00  0.00    -0.273 OA
ENDBRANCH   1  37
TORSDOF 6
ENDMDL
MODEL 4
REMARK VINA RESULT:      -6.2      3.386      4.811
REMARK  6 active torsions:
REMARK  status: ('A' for Active; 'I' for Inactive)
REMARK       I    between atoms: N2_2  and  C4_4 
REMARK    1  A    between atoms: C4_4  and  C6_6 
REMARK    2  A    between atoms: C10_9  and  N12_10 
REMARK       I    between atoms: N12_10  and  C13_11 
REMARK    3  A    between atoms: C13_11  and  C15_13 
REMARK       I    between atoms: C15_13  and  N17_15 
REMARK    4  A    between atoms: N17_15  and  C18_16 
REMARK    5  A    between atoms: C25_23  and  N27_24 
REMARK       I    between atoms: N27_24  and  C28_25 
REMARK    6  A    between atoms: C28_25  and  C30_27 
ROOT
ATOM      1  C6  ZIN A   1      18.156   3.836  15.559  0.00  0.00     0.080 C 
ATOM      2  C8  ZIN A   1      17.305   4.757  14.683  0.00  0.00     0.016 C 
ATOM      3  C9  ZIN A   1      17.422   4.321  13.221  0.00  0.00     0.028 C 
ATOM      4  C10 ZIN A   1      18.884   4.404  12.779  0.00  0.00     0.107 C 
ATOM      5  C25 ZIN A   1      19.735   3.484  13.655  0.00  0.00     0.108 C 
ATOM      6  C41 ZIN A   1      19.618   3.919  15.117  0.00  0.00     0.041 C 
ENDROOT
BRANCH   4   7
ATOM      7  N12 ZIN A   1      18.996   3.988  11.379  0.00  0.00    -0.346 N 
ATOM      8  C13 ZIN A   1      18.094   3.133  10.855  0.00  0.00     0.310 C 
ATOM      9  O14 ZIN A   1      17.189   2.711  11.544  0.00  0.00    -0.262 OA
ATOM     10  H52 ZIN A   1      19.720   4.325  10.829  0.00  0.00     0.163 HD
BRANCH   8  11
ATOM     11  C15 ZIN A   1      18.208   2.709   9.428  0.00  0.00     0.315 C 
ATOM     12  O16 ZIN A   1      18.241   3.544   8.547  0.00  0.00    -0.262 OA
ATOM     13  N17 ZIN A   1      18.277   1.400   9.118  0.00  0.00    -0.303 N 
ATOM     14  H53 ZIN A   1      18.325   0.735   9.824  0.00  0.00     0.171 HD
BRANCH  13  15
ATOM     15  C18 ZIN A   1      18.278   0.998   7.784  0.00  0.00     0.130 A 
ATOM     16  N24 ZIN A   1      17.275   0.272   7.318  0.00  0.00    -0.242 NA
ATOM     17  C23 ZIN A   1      17.233  -0.124   6.061  0.00  0.00     0.142 A 
ATOM     18  C21 ZIN A   1      18.250   0.198   5.182  0.00  0.00     0.051 A 
ATOM     19  C20 ZIN A   1      19.323   0.954   5.633  0.00  0.00     0.029 A 
ATOM     20 Cl22 ZIN A   1      18.186  -0.337   3.532  0.00  0.00    -0.083 Cl
ATOM     21  C19 ZIN A   1      19.335   1.361   6.956  0.00  0.00     0.052 A 
ENDBRANCH  13  15
ENDBRANCH   8  11
ENDBRANCH   4   7
BRANCH   5  22
ATOM     22  N27 ZIN A   1      19.261   2.104  13.517  0.00  0.00    -0.349 N 
ATOM     23  C28 ZIN A   1      19.861   1.270  12.644  0.00  0.00     0.277 C 
ATOM     24  O29 ZIN A   1      20.794   1.663  11.971  0.00  0.00    -0.265 OA
ATOM     25  H57 ZIN A   1      18.517   1.790  14.055  0.00  0.00     0.163 HD
BRANCH  23  26
ATOM     26  C30 ZIN A   1      19.385  -0.117  12.507  0.00  0.00     0.166 A 
ATOM     27  S40 ZIN A   1      17.758  -0.681  12.871  0.00  0.00    -0.066 SA
ATOM     28  C33 ZIN A   1      18.198  -2.269  12.427  0.00  0.00     0.035 A 
ATOM     29  C32 ZIN A   1      19.500  -2.293  12.047  0.00  0.00     0.052 A 
ATOM     30  C34 ZIN A   1      17.298  -3.485  12.450  0.00  0.00     0.282 C 
ATOM     31  N31 ZIN A   1      20.102  -1.127  12.104  0.00  0.00    -0.239 NA
ATOM     32  C39 ZIN A   1      20.172  -3.584  11.596  0.00  0.00     0.088 C 
ATOM     33  C38 ZIN A   1      19.073  -4.602  11.275  0.00  0.00     0.241 C 
ATOM     34  N35 ZIN A   1      18.138  -4.692  12.405  0.00  0.00    -0.070 N 
ATOM     35  H36 ZIN A   1      18.659  -4.770  13.266  0.00  0.00     0.279 HD
ATOM     36  C37 ZIN A   1      17.285  -5.876  12.239  0.00  0.00     0.270 C 
ENDBRANCH  23  26
ENDBRANCH   5  22
BRANCH   1  37
ATOM     37  C4  ZIN A   1      18.041   4.265  16.999  0.00  0.00     0.223 C 
ATOM     38  N2  ZIN A   1      18.083   3.345  17.982  0.00  0.00    -0.360 N 
ATOM     39  C1  ZIN A   1      17.852   3.746  19.372  0.00  0.00     0.152 C 
ATOM     40  C3  ZIN A   1      18.359   1.941  17.661  0.00  0.00     0.152 C 
ATOM     41  O5  ZIN A   1      17.910   5.439  17.273  0.00  0.00    -0.273 OA
ENDBRANCH   1  37
TORSDOF 6
ENDMDL
MODEL 5
REMARK VINA RESULT:      -6.0      5.352     10.994
REMARK  6 active torsions:
REMARK  status: ('A' for Active; 'I' for Inactive)
REMARK       I    between atoms: N2_2  and  C4_4 
REMARK    1  A    between atoms: C4_4  and  C6_6 
REMARK    2  A    between atoms: C10_9  and  N12_10 
REMARK       I    between atoms: N12_10  and  C13_11 
REMARK    3  A    between atoms: C13_11  and  C15_13 
REMARK       I    between atoms: C15_13  and  N17_15 
REMARK    4  A    between atoms: N17_15  and  C18_16 
REMARK    5  A    between atoms: C25_23  and  N27_24 
REMARK       I    between atoms: N27_24  and  C28_25 
REMARK    6  A    between atoms: C28_25  and  C30_27 
ROOT
ATOM      1  C6  ZIN A   1      17.775  -4.196   8.691  0.00  0.00     0.080 C 
ATOM      2  C8  ZIN A   1      17.101  -4.858   9.894  0.00  0.00     0.016 C 
ATOM      3  C9  ZIN A   1      17.388  -4.040  11.154  0.00  0.00     0.028 C 
ATOM      4  C10 ZIN A   1      18.898  -3.975  11.387  0.00  0.00     0.107 C 
ATOM      5  C25 ZIN A   1      19.572  -3.312  10.184  0.00  0.00     0.108 C 
ATOM      6  C41 ZIN A   1      19.285  -4.131   8.924  0.00  0.00     0.041 C 
ENDROOT
BRANCH   4   7
ATOM      7  N12 ZIN A   1      19.173  -3.191  12.594  0.00  0.00    -0.346 N 
ATOM      8  C13 ZIN A   1      18.329  -2.208  12.967  0.00  0.00     0.310 C 
ATOM      9  O14 ZIN A   1      17.341  -1.974  12.303  0.00  0.00    -0.262 OA
ATOM     10  H52 ZIN A   1      19.963  -3.379  13.124  0.00  0.00     0.163 HD
BRANCH   8  11
ATOM     11  C15 ZIN A   1      18.610  -1.410  14.198  0.00  0.00     0.315 C 
ATOM     12  O16 ZIN A   1      19.281  -1.887  15.090  0.00  0.00    -0.262 OA
ATOM     13  N17 ZIN A   1      18.120  -0.161  14.317  0.00  0.00    -0.303 N 
ATOM     14  H53 ZIN A   1      17.645   0.247  13.575  0.00  0.00     0.171 HD
BRANCH  13  15
ATOM     15  C18 ZIN A   1      18.292   0.545  15.505  0.00  0.00     0.130 A 
ATOM     16  N24 ZIN A   1      19.137   1.563  15.546  0.00  0.00    -0.242 NA
ATOM     17  C23 ZIN A   1      19.326   2.262  16.648  0.00  0.00     0.142 A 
ATOM     18  C21 ZIN A   1      18.650   1.946  17.812  0.00  0.00     0.051 A 
ATOM     19  C20 ZIN A   1      17.758   0.882  17.812  0.00  0.00     0.029 A 
ATOM     20 Cl22 ZIN A   1      18.914   2.870  19.258  0.00  0.00    -0.083 Cl
ATOM     21  C19 ZIN A   1      17.577   0.172  16.638  0.00  0.00     0.052 A 
ENDBRANCH  13  15
ENDBRANCH   8  11
ENDBRANCH   4   7
BRANCH   5  22
ATOM     22  N27 ZIN A   1      19.046  -1.955  10.016  0.00  0.00    -0.349 N 
ATOM     23  C28 ZIN A   1      19.747  -0.898  10.474  0.00  0.00     0.277 C 
ATOM     24  O29 ZIN A   1      20.816  -1.072  11.026  0.00  0.00    -0.265 OA
ATOM     25  H57 ZIN A   1      18.193  -1.817   9.574  0.00  0.00     0.163 HD
BRANCH  23  26
ATOM     26  C30 ZIN A   1      19.218   0.465  10.303  0.00  0.00     0.166 A 
ATOM     27  S40 ZIN A   1      19.285   1.410   8.820  0.00  0.00    -0.066 SA
ATOM     28  C33 ZIN A   1      18.487   2.704   9.595  0.00  0.00     0.035 A 
ATOM     29  C32 ZIN A   1      18.226   2.372  10.885  0.00  0.00     0.052 A 
ATOM     30  C34 ZIN A   1      18.120   4.031   8.970  0.00  0.00     0.282 C 
ATOM     31  N31 ZIN A   1      18.632   1.171  11.227  0.00  0.00    -0.239 NA
ATOM     32  C39 ZIN A   1      17.518   3.339  11.826  0.00  0.00     0.088 C 
ATOM     33  C38 ZIN A   1      16.854   4.426  10.974  0.00  0.00     0.241 C 
ATOM     34  N35 ZIN A   1      17.839   4.995  10.044  0.00  0.00    -0.070 N 
ATOM     35  H36 ZIN A   1      18.691   5.200  10.543  0.00  0.00     0.279 HD
ATOM     36  C37 ZIN A   1      17.302   6.233   9.463  0.00  0.00     0.270 C 
ENDBRANCH  23  26
ENDBRANCH   5  22
BRANCH   1  37
ATOM     37  C4  ZIN A   1      17.492  -5.002   7.449  0.00  0.00     0.223 C 
ATOM     38  N2  ZIN A   1      17.735  -4.474   6.233  0.00  0.00    -0.360 N 
ATOM     39  C1  ZIN A   1      17.350  -5.209   5.026  0.00  0.00     0.152 C 
ATOM     40  C3  ZIN A   1      18.384  -3.165   6.118  0.00  0.00     0.152 C 
ATOM     41  O5  ZIN A   1      17.045  -6.125   7.545  0.00  0.00    -0.273 OA
ENDBRANCH   1  37
TORSDOF 6
ENDMDL
MODEL 6
REMARK VINA RESULT:      -5.2      5.449      7.801
REMARK  6 active torsions:
REMARK  status: ('A' for Active; 'I' for Inactive)
REMARK       I    between atoms: N2_2  and  C4_4 
REMARK    1  A    between atoms: C4_4  and  C6_6 
REMARK    2  A    between atoms: C10_9  and  N12_10 
REMARK       I    between atoms: N12_10  and  C13_11 
REMARK    3  A    between atoms: C13_11  and  C15_13 
REMARK       I    between atoms: C15_13  and  N17_15 
REMARK    4  A    between atoms: N17_15  and  C18_16 
REMARK    5  A    between atoms: C25_23  and  N27_24 
REMARK       I    between atoms: N27_24  and  C28_25 
REMARK    6  A    between atoms: C28_25  and  C30_27 
ROOT
ATOM      1  C6  ZIN A   1      18.066  -0.645  15.387  0.00  0.00     0.080 C 
ATOM      2  C8  ZIN A   1      17.378   0.660  14.983  0.00  0.00     0.016 C 
ATOM      3  C9  ZIN A   1      17.496   0.851  13.469  0.00  0.00     0.028 C 
ATOM      4  C10 ZIN A   1      18.972   0.909  13.075  0.00  0.00     0.107 C 
ATOM      5  C25 ZIN A   1      19.660  -0.396  13.480  0.00  0.00     0.108 C 
ATOM      6  C41 ZIN A   1      19.543  -0.586  14.993  0.00  0.00     0.041 C 
ENDROOT
BRANCH   4   7
ATOM      7  N12 ZIN A   1      19.085   1.092  11.626  0.00  0.00    -0.346 N 
ATOM      8  C13 ZIN A   1      18.060   0.745  10.821  0.00  0.00     0.310 C 
ATOM      9  O14 ZIN A   1      17.045   0.282  11.297  0.00  0.00    -0.262 OA
ATOM     10  H52 ZIN A   1      19.896   1.462  11.246  0.00  0.00     0.163 HD
BRANCH   8  11
ATOM     11  C15 ZIN A   1      18.175   0.932   9.344  0.00  0.00     0.315 C 
ATOM     12  O16 ZIN A   1      18.170   2.051   8.871  0.00  0.00    -0.262 OA
ATOM     13  N17 ZIN A   1      18.286  -0.140   8.535  0.00  0.00    -0.303 N 
ATOM     14  H53 ZIN A   1      18.364  -1.029   8.917  0.00  0.00     0.171 HD
BRANCH  13  15
ATOM     15  C18 ZIN A   1      18.288   0.027   7.152  0.00  0.00     0.130 A 
ATOM     16  N24 ZIN A   1      19.329   0.593   6.563  0.00  0.00    -0.242 NA
ATOM     17  C23 ZIN A   1      19.375   0.765   5.255  0.00  0.00     0.142 A 
ATOM     18  C21 ZIN A   1      18.323   0.366   4.451  0.00  0.00     0.051 A 
ATOM     19  C20 ZIN A   1      17.210  -0.227   5.032  0.00  0.00     0.029 A 
ATOM     20 Cl22 ZIN A   1      18.393   0.606   2.734  0.00  0.00    -0.083 Cl
ATOM     21  C19 ZIN A   1      17.196  -0.399   6.406  0.00  0.00     0.052 A 
ENDBRANCH  13  15
ENDBRANCH   8  11
ENDBRANCH   4   7
BRANCH   5  22
ATOM     22  N27 ZIN A   1      19.016  -1.520  12.794  0.00  0.00    -0.349 N 
ATOM     23  C28 ZIN A   1      19.550  -2.011  11.658  0.00  0.00     0.277 C 
ATOM     24  O29 ZIN A   1      20.565  -1.521  11.202  0.00  0.00    -0.265 OA
ATOM     25  H57 ZIN A   1      18.207  -1.911  13.159  0.00  0.00     0.163 HD
BRANCH  23  26
ATOM     26  C30 ZIN A   1      18.903  -3.141  10.970  0.00  0.00     0.166 A 
ATOM     27  S40 ZIN A   1      18.282  -4.592  11.749  0.00  0.00    -0.066 SA
ATOM     28  C33 ZIN A   1      17.788  -5.206  10.235  0.00  0.00     0.035 A 
ATOM     29  C32 ZIN A   1      18.110  -4.323   9.258  0.00  0.00     0.052 A 
ATOM     30  C34 ZIN A   1      17.103  -6.531   9.989  0.00  0.00     0.282 C 
ATOM     31  N31 ZIN A   1      18.705  -3.233   9.687  0.00  0.00    -0.239 NA
ATOM     32  C39 ZIN A   1      17.789  -4.605   7.795  0.00  0.00     0.088 C 
ATOM     33  C38 ZIN A   1      16.757  -5.737   7.747  0.00  0.00     0.241 C 
ATOM     34  N35 ZIN A   1      17.225  -6.867   8.563  0.00  0.00    -0.070 N 
ATOM     35  H36 ZIN A   1      18.191  -7.059   8.345  0.00  0.00     0.279 HD
ATOM     36  C37 ZIN A   1      16.410  -8.052   8.266  0.00  0.00     0.270 C 
ENDBRANCH  23  26
ENDBRANCH   5  22
BRANCH   1  37
ATOM     37  C4  ZIN A   1      17.951  -0.833  16.878  0.00  0.00     0.223 C 
ATOM     38  N2  ZIN A   1      18.522   0.054  17.716  0.00  0.00    -0.360 N 
ATOM     39  C1  ZIN A   1      18.513  -0.191  19.160  0.00  0.00     0.152 C 
ATOM     40  C3  ZIN A   1      19.153   1.265  17.183  0.00  0.00     0.152 C 
ATOM     41  O5  ZIN A   1      17.344  -1.784  17.323  0.00  0.00    -0.273 OA
ENDBRANCH   1  37
TORSDOF 6
ENDMDL
MODEL 7
REMARK VINA RESULT:      -4.8      4.183      6.475
REMARK  6 active torsions:
REMARK  status: ('A' for Active; 'I' for Inactive)
REMARK       I    between atoms: N2_2  and  C4_4 
REMARK    1  A    between atoms: C4_4  and  C6_6 
REMARK    2  A    between atoms: C10_9  and  N12_10 
REMARK       I    between atoms: N12_10  and  C13_11 
REMARK    3  A    between atoms: C13_11  and  C15_13 
REMARK       I    between atoms: C15_13  and  N17_15 
REMARK    4  A    between atoms: N17_15  and  C18_16 
REMARK    5  A    between atoms: C25_23  and  N27_24 
REMARK       I    between atoms: N27_24  and  C28_25 
REMARK    6  A    between atoms: C28_25  and  C30_27 
ROOT
ATOM      1  C6  ZIN A   1      18.208   3.741  12.857  0.00  0.00     0.080 C 
ATOM      2  C8  ZIN A   1      17.447   4.391  11.700  0.00  0.00     0.016 C 
ATOM      3  C9  ZIN A   1      17.574   3.517  10.451  0.00  0.00     0.028 C 
ATOM      4  C10 ZIN A   1      19.050   3.374  10.076  0.00  0.00     0.107 C 
ATOM      5  C25 ZIN A   1      19.810   2.724  11.233  0.00  0.00     0.108 C 
ATOM      6  C41 ZIN A   1      19.684   3.599  12.482  0.00  0.00     0.041 C 
ENDROOT
BRANCH   4   7
ATOM      7  N12 ZIN A   1      19.171   2.537   8.880  0.00  0.00    -0.346 N 
ATOM      8  C13 ZIN A   1      18.276   1.556   8.650  0.00  0.00     0.310 C 
ATOM      9  O14 ZIN A   1      17.368   1.367   9.433  0.00  0.00    -0.262 OA
ATOM     10  H52 ZIN A   1      19.897   2.688   8.255  0.00  0.00     0.163 HD
BRANCH   8  11
ATOM     11  C15 ZIN A   1      18.400   0.703   7.430  0.00  0.00     0.315 C 
ATOM     12  O16 ZIN A   1      18.619   1.215   6.351  0.00  0.00    -0.262 OA
ATOM     13  N17 ZIN A   1      18.270  -0.634   7.527  0.00  0.00    -0.303 N 
ATOM     14  H53 ZIN A   1      18.168  -1.050   8.398  0.00  0.00     0.171 HD
BRANCH  13  15
ATOM     15  C18 ZIN A   1      18.281  -1.421   6.378  0.00  0.00     0.130 A 
ATOM     16  N24 ZIN A   1      17.364  -1.227   5.443  0.00  0.00    -0.242 NA
ATOM     17  C23 ZIN A   1      17.342  -1.946   4.337  0.00  0.00     0.142 A 
ATOM     18  C21 ZIN A   1      18.275  -2.942   4.119  0.00  0.00     0.051 A 
ATOM     19  C20 ZIN A   1      19.250  -3.180   5.078  0.00  0.00     0.029 A 
ATOM     20 Cl22 ZIN A   1      18.228  -3.885   2.663  0.00  0.00    -0.083 Cl
ATOM     21  C19 ZIN A   1      19.252  -2.405   6.225  0.00  0.00     0.052 A 
ENDBRANCH  13  15
ENDBRANCH   8  11
ENDBRANCH   4   7
BRANCH   5  22
ATOM     22  N27 ZIN A   1      19.246   1.399  11.505  0.00  0.00    -0.349 N 
ATOM     23  C28 ZIN A   1      19.793   0.305  10.940  0.00  0.00     0.277 C 
ATOM     24  O29 ZIN A   1      20.755   0.417  10.205  0.00  0.00    -0.265 OA
ATOM     25  H57 ZIN A   1      18.479   1.310  12.092  0.00  0.00     0.163 HD
BRANCH  23  26
ATOM     26  C30 ZIN A   1      19.227  -1.026  11.214  0.00  0.00     0.166 A 
ATOM     27  S40 ZIN A   1      18.357  -1.486  12.674  0.00  0.00    -0.066 SA
ATOM     28  C33 ZIN A   1      18.148  -3.067  12.064  0.00  0.00     0.035 A 
ATOM     29  C32 ZIN A   1      18.727  -3.164  10.841  0.00  0.00     0.052 A 
ATOM     30  C34 ZIN A   1      17.438  -4.206  12.760  0.00  0.00     0.282 C 
ATOM     31  N31 ZIN A   1      19.294  -2.056  10.421  0.00  0.00    -0.239 NA
ATOM     32  C39 ZIN A   1      18.699  -4.466  10.051  0.00  0.00     0.088 C 
ATOM     33  C38 ZIN A   1      17.623  -5.368  10.664  0.00  0.00     0.241 C 
ATOM     34  N35 ZIN A   1      17.831  -5.468  12.115  0.00  0.00    -0.070 N 
ATOM     35  H36 ZIN A   1      18.805  -5.652  12.302  0.00  0.00     0.279 HD
ATOM     36  C37 ZIN A   1      17.015  -6.566  12.650  0.00  0.00     0.270 C 
ENDBRANCH  23  26
ENDBRANCH   5  22
BRANCH   1  37
ATOM     37  C4  ZIN A   1      18.083   4.603  14.088  0.00  0.00     0.223 C 
ATOM     38  N2  ZIN A   1      18.170   4.046  15.312  0.00  0.00    -0.360 N 
ATOM     39  C1  ZIN A   1      17.931   4.860  16.506  0.00  0.00     0.152 C 
ATOM     40  C3  ZIN A   1      18.505   2.626  15.449  0.00  0.00     0.152 C 
ATOM     41  O5  ZIN A   1      17.903   5.797  13.976  0.00  0.00    -0.273 OA
ENDBRANCH   1  37
TORSDOF 6
ENDMDL
MODEL 8
REMARK VINA RESULT:      -4.7      4.129      9.715
REMARK  6 active torsions:
REMARK  status: ('A' for Active; 'I' for Inactive)
REMARK       I    between atoms: N2_2  and  C4_4 
REMARK    1  A    between atoms: C4_4  and  C6_6 
REMARK    2  A    between atoms: C10_9  and  N12_10 
REMARK       I    between atoms: N12_10  and  C13_11 
REMARK    3  A    between atoms: C13_11  and  C15_13 
REMARK       I    between atoms: C15_13  and  N17_15 
REMARK    4  A    between atoms: N17_15  and  C18_16 
REMARK    5  A    between atoms: C25_23  and  N27_24 
REMARK       I    between atoms: N27_24  and  C28_25 
REMARK    6  A    between atoms: C28_25  and  C30_27 
ROOT
ATOM      1  C6  ZIN A   1      18.314   0.295   7.730  0.00  0.00     0.080 C 
ATOM      2  C8  ZIN A   1      17.631  -1.010   8.144  0.00  0.00     0.016 C 
ATOM      3  C9  ZIN A   1      17.689  -1.154   9.666  0.00  0.00     0.028 C 
ATOM      4  C10 ZIN A   1      19.149  -1.176  10.121  0.00  0.00     0.107 C 
ATOM      5  C25 ZIN A   1      19.832   0.129   9.707  0.00  0.00     0.108 C 
ATOM      6  C41 ZIN A   1      19.774   0.273   8.185  0.00  0.00     0.041 C 
ENDROOT
BRANCH   4   7
ATOM      7  N12 ZIN A   1      19.204  -1.315  11.579  0.00  0.00    -0.346 N 
ATOM      8  C13 ZIN A   1      18.171  -0.896  12.336  0.00  0.00     0.310 C 
ATOM      9  O14 ZIN A   1      17.194  -0.404  11.810  0.00  0.00    -0.262 OA
ATOM     10  H52 ZIN A   1      19.985  -1.707  11.999  0.00  0.00     0.163 HD
BRANCH   8  11
ATOM     11  C15 ZIN A   1      18.228  -1.038  13.822  0.00  0.00     0.315 C 
ATOM     12  O16 ZIN A   1      18.247  -2.142  14.325  0.00  0.00    -0.262 OA
ATOM     13  N17 ZIN A   1      18.259   0.060  14.603  0.00  0.00    -0.303 N 
ATOM     14  H53 ZIN A   1      18.317   0.941  14.200  0.00  0.00     0.171 HD
BRANCH  13  15
ATOM     15  C18 ZIN A   1      18.207  -0.069  15.989  0.00  0.00     0.130 A 
ATOM     16  N24 ZIN A   1      19.303  -0.389  16.659  0.00  0.00    -0.242 NA
ATOM     17  C23 ZIN A   1      19.299  -0.515  17.972  0.00  0.00     0.142 A 
ATOM     18  C21 ZIN A   1      18.137  -0.329  18.698  0.00  0.00     0.051 A 
ATOM     19  C20 ZIN A   1      16.965   0.002  18.032  0.00  0.00     0.029 A 
ATOM     20 Cl22 ZIN A   1      18.145  -0.506  20.425  0.00  0.00    -0.083 Cl
ATOM     21  C19 ZIN A   1      17.003   0.134  16.654  0.00  0.00     0.052 A 
ENDBRANCH  13  15
ENDBRANCH   8  11
ENDBRANCH   4   7
BRANCH   5  22
ATOM     22  N27 ZIN A   1      19.142   1.261  10.332  0.00  0.00    -0.349 N 
ATOM     23  C28 ZIN A   1      19.634   1.809  11.461  0.00  0.00     0.277 C 
ATOM     24  O29 ZIN A   1      20.649   1.364  11.960  0.00  0.00    -0.265 OA
ATOM     25  H57 ZIN A   1      18.332   1.616   9.933  0.00  0.00     0.163 HD
BRANCH  23  26
ATOM     26  C30 ZIN A   1      18.942   2.947  12.088  0.00  0.00     0.166 A 
ATOM     27  S40 ZIN A   1      18.120   4.245  11.227  0.00  0.00    -0.066 SA
ATOM     28  C33 ZIN A   1      17.699   4.976  12.710  0.00  0.00     0.035 A 
ATOM     29  C32 ZIN A   1      18.185   4.236  13.738  0.00  0.00     0.052 A 
ATOM     30  C34 ZIN A   1      16.912   6.256  12.884  0.00  0.00     0.282 C 
ATOM     31  N31 ZIN A   1      18.844   3.162  13.368  0.00  0.00    -0.239 NA
ATOM     32  C39 ZIN A   1      17.962   4.649  15.188  0.00  0.00     0.088 C 
ATOM     33  C38 ZIN A   1      16.834   5.685  15.217  0.00  0.00     0.241 C 
ATOM     34  N35 ZIN A   1      17.121   6.755  14.251  0.00  0.00    -0.070 N 
ATOM     35  H36 ZIN A   1      18.078   7.054  14.357  0.00  0.00     0.279 HD
ATOM     36  C37 ZIN A   1      16.223   7.890  14.501  0.00  0.00     0.270 C 
ENDBRANCH  23  26
ENDBRANCH   5  22
BRANCH   1  37
ATOM     37  C4  ZIN A   1      18.257   0.438   6.230  0.00  0.00     0.223 C 
ATOM     38  N2  ZIN A   1      18.768  -0.527   5.441  0.00  0.00    -0.360 N 
ATOM     39  C1  ZIN A   1      18.820  -0.335   3.990  0.00  0.00     0.152 C 
ATOM     40  C3  ZIN A   1      19.271  -1.770   6.034  0.00  0.00     0.152 C 
ATOM     41  O5  ZIN A   1      17.752   1.423   5.735  0.00  0.00    -0.273 OA
ENDBRANCH   1  37
TORSDOF 6
ENDMDL
