MODEL 1
REMARK VINA RESULT:      -8.2      0.000      0.000
REMARK  8 active torsions:
REMARK  status: ('A' for Active; 'I' for Inactive)
REMARK    1  A    between atoms: C5_5  and  O7_6 
REMARK    2  A    between atoms: C10_9  and  C11_10 
REMARK    3  A    between atoms: C22_20  and  C24_21 
REMARK    4  A    between atoms: C24_21  and  C27_23 
REMARK    5  A    between atoms: C27_23  and  C28_24 
REMARK    6  A    between atoms: C28_24  and  C29_25 
REMARK    7  A    between atoms: C29_25  and  C30_26 
REMARK    8  A    between atoms: C30_26  and  O33_29 
ROOT
ATOM      1  C11 ZIN A   1      19.833  -3.568  11.403  0.00  0.00     0.004 C 
ATOM      2  C12 ZIN A   1      18.982  -4.554  11.115  0.00  0.00    -0.075 C 
ATOM      3  C13 ZIN A   1      17.771  -4.864  11.981  0.00  0.00     0.034 C 
ATOM      4  C14 ZIN A   1      16.507  -4.960  11.128  0.00  0.00     0.005 C 
ATOM      5  C15 ZIN A   1      16.715  -5.862   9.899  0.00  0.00     0.010 C 
ATOM      6  C16 ZIN A   1      17.845  -5.272   9.087  0.00  0.00    -0.033 C 
ATOM      7  C17 ZIN A   1      17.588  -3.779   8.872  0.00  0.00     0.016 C 
ATOM      8  C18 ZIN A   1      19.149  -5.432   9.910  0.00  0.00     0.023 C 
ATOM      9  C20 ZIN A   1      20.203  -5.006   8.886  0.00  0.00     0.010 C 
ATOM     10  C21 ZIN A   1      19.712  -5.694   7.581  0.00  0.00     0.006 C 
ATOM     11  C22 ZIN A   1      18.192  -5.919   7.756  0.00  0.00    -0.002 C 
ENDROOT
BRANCH   1  12
ATOM     12  C10 ZIN A   1      19.620  -2.742  12.593  0.00  0.00     0.008 C 
ATOM     13  C9  ZIN A   1      19.115  -1.498  12.468  0.00  0.00    -0.050 C 
ATOM     14  C2  ZIN A   1      18.769  -0.925  11.150  0.00  0.00    -0.061 C 
ATOM     15  C8  ZIN A   1      18.878  -0.609  13.678  0.00  0.00     0.070 C 
ATOM     16  C1  ZIN A   1      19.566  -1.075  10.093  0.00  0.00     0.019 C 
ATOM     17  C3  ZIN A   1      17.460  -0.167  11.057  0.00  0.00     0.041 C 
ATOM     18  C4  ZIN A   1      17.373   0.793  12.249  0.00  0.00     0.036 C 
ATOM     19  C5  ZIN A   1      17.481   0.007  13.556  0.00  0.00     0.122 C 
BRANCH  19  20
ATOM     20  O7  ZIN A   1      17.253   0.886  14.659  0.00  0.00    -0.395 OA
ATOM     21  H40 ZIN A   1      18.041   1.366  14.950  0.00  0.00     0.210 HD
ENDBRANCH  19  20
ENDBRANCH   1  12
BRANCH  11  22
ATOM     22  C24 ZIN A   1      17.421  -5.244   6.619  0.00  0.00    -0.014 C 
ATOM     23  C26 ZIN A   1      16.277  -6.154   6.168  0.00  0.00     0.010 C 
BRANCH  22  24
ATOM     24  C27 ZIN A   1      18.367  -4.993   5.442  0.00  0.00     0.005 C 
BRANCH  24  25
ATOM     25  C28 ZIN A   1      18.190  -3.557   4.944  0.00  0.00     0.003 C 
BRANCH  25  26
ATOM     26  C29 ZIN A   1      19.245  -2.660   5.596  0.00  0.00     0.037 C 
BRANCH  26  27
ATOM     27  C30 ZIN A   1      18.946  -1.197   5.262  0.00  0.00     0.051 C 
ATOM     28  C31 ZIN A   1      17.720  -1.123   4.349  0.00  0.00     0.045 C 
ATOM     29  C32 ZIN A   1      18.667  -0.425   6.553  0.00  0.00     0.045 C 
BRANCH  27  30
ATOM     30  O33 ZIN A   1      20.070  -0.620   4.595  0.00  0.00    -0.391 OA
ATOM     31  H73 ZIN A   1      20.532  -1.229   4.003  0.00  0.00     0.210 HD
ENDBRANCH  27  30
ENDBRANCH  26  27
ENDBRANCH  25  26
ENDBRANCH  24  25
ENDBRANCH  22  24
ENDBRANCH  11  22
TORSDOF 8
ENDMDL
MODEL 2
REMARK VINA RESULT:      -7.8      3.554      8.361
REMARK  8 active torsions:
REMARK  status: ('A' for Active; 'I' for Inactive)
REMARK    1  A    between atoms: C5_5  and  O7_6 
REMARK    2  A    between atoms: C10_9  and  C11_10 
REMARK    3  A    between atoms: C22_20  and  C24_21 
REMARK    4  A    between atoms: C24_21  and  C27_23 
REMARK    5  A    between atoms: C27_23  and  C28_24 
REMARK    6  A    between atoms: C28_24  and  C29_25 
REMARK    7  A    between atoms: C29_25  and  C30_26 
REMARK    8  A    between atoms: C30_26  and  O33_29 
ROOT
ATOM      1  C11 ZIN A   1      19.255  -1.868   9.592  0.00  0.00     0.004 C 
ATOM      2  C12 ZIN A   1      19.460  -0.686   9.009  0.00  0.00    -0.075 C 
ATOM      3  C13 ZIN A   1      19.258  -0.468   7.517  0.00  0.00     0.034 C 
ATOM      4  C14 ZIN A   1      18.382   0.758   7.264  0.00  0.00     0.005 C 
ATOM      5  C15 ZIN A   1      18.860   1.976   8.073  0.00  0.00     0.010 C 
ATOM      6  C16 ZIN A   1      18.814   1.599   9.536  0.00  0.00    -0.033 C 
ATOM      7  C17 ZIN A   1      17.449   0.988   9.858  0.00  0.00     0.016 C 
ATOM      8  C18 ZIN A   1      19.903   0.523   9.778  0.00  0.00     0.023 C 
ATOM      9  C20 ZIN A   1      19.883   0.416  11.304  0.00  0.00     0.010 C 
ATOM     10  C21 ZIN A   1      19.779   1.901  11.752  0.00  0.00     0.006 C 
ATOM     11  C22 ZIN A   1      19.144   2.666  10.567  0.00  0.00    -0.002 C 
ENDROOT
BRANCH   1  12
ATOM     12  C10 ZIN A   1      18.822  -3.014   8.790  0.00  0.00     0.008 C 
ATOM     13  C9  ZIN A   1      18.555  -4.193   9.389  0.00  0.00    -0.050 C 
ATOM     14  C2  ZIN A   1      18.690  -4.374  10.850  0.00  0.00    -0.061 C 
ATOM     15  C8  ZIN A   1      18.103  -5.406   8.593  0.00  0.00     0.070 C 
ATOM     16  C1  ZIN A   1      19.732  -3.882  11.521  0.00  0.00     0.019 C 
ATOM     17  C3  ZIN A   1      17.585  -5.140  11.549  0.00  0.00     0.041 C 
ATOM     18  C4  ZIN A   1      17.291  -6.408  10.740  0.00  0.00     0.036 C 
ATOM     19  C5  ZIN A   1      16.903  -6.033   9.310  0.00  0.00     0.122 C 
BRANCH  19  20
ATOM     20  O7  ZIN A   1      16.490  -7.205   8.606  0.00  0.00    -0.395 OA
ATOM     21  H40 ZIN A   1      16.296  -7.055   7.671  0.00  0.00     0.210 HD
ENDBRANCH  19  20
ENDBRANCH   1  12
BRANCH  11  22
ATOM     22  C24 ZIN A   1      17.869   3.381  11.020  0.00  0.00    -0.014 C 
ATOM     23  C26 ZIN A   1      17.763   4.733  10.310  0.00  0.00     0.010 C 
BRANCH  22  24
ATOM     24  C27 ZIN A   1      17.919   3.603  12.533  0.00  0.00     0.005 C 
BRANCH  24  25
ATOM     25  C28 ZIN A   1      18.280   5.062  12.823  0.00  0.00     0.003 C 
BRANCH  25  26
ATOM     26  C29 ZIN A   1      19.715   5.136  13.349  0.00  0.00     0.037 C 
BRANCH  26  27
ATOM     27  C30 ZIN A   1      19.725   5.855  14.701  0.00  0.00     0.051 C 
ATOM     28  C31 ZIN A   1      18.491   6.754  14.808  0.00  0.00     0.045 C 
ATOM     29  C32 ZIN A   1      19.702   4.822  15.829  0.00  0.00     0.045 C 
BRANCH  27  30
ATOM     30  O33 ZIN A   1      20.905   6.652  14.808  0.00  0.00    -0.391 OA
ATOM     31  H73 ZIN A   1      20.905   7.257  15.563  0.00  0.00     0.210 HD
ENDBRANCH  27  30
ENDBRANCH  26  27
ENDBRANCH  25  26
ENDBRANCH  24  25
ENDBRANCH  22  24
ENDBRANCH  11  22
TORSDOF 8
ENDMDL
MODEL 3
REMARK VINA RESULT:      -7.8      4.525     10.669
REMARK  8 active torsions:
REMARK  status: ('A' for Active; 'I' for Inactive)
REMARK    1  A    between atoms: C5_5  and  O7_6 
REMARK    2  A    between atoms: C10_9  and  C11_10 
REMARK    3  A    between atoms: C22_20  and  C24_21 
REMARK    4  A    between atoms: C24_21  and  C27_23 
REMARK    5  A    between atoms: C27_23  and  C28_24 
REMARK    6  A    between atoms: C28_24  and  C29_25 
REMARK    7  A    between atoms: C29_25  and  C30_26 
REMARK    8  A    between atoms: C30_26  and  O33_29 
ROOT
ATOM      1  C11 ZIN A   1      19.668   3.644  11.598  0.00  0.00     0.004 C 
ATOM      2  C12 ZIN A   1      18.823   4.638  11.871  0.00  0.00    -0.075 C 
ATOM      3  C13 ZIN A   1      17.603   4.931  11.010  0.00  0.00     0.034 C 
ATOM      4  C14 ZIN A   1      16.349   5.051  11.873  0.00  0.00     0.005 C 
ATOM      5  C15 ZIN A   1      16.573   5.982  13.077  0.00  0.00     0.010 C 
ATOM      6  C16 ZIN A   1      17.710   5.409  13.892  0.00  0.00    -0.033 C 
ATOM      7  C17 ZIN A   1      17.450   3.923  14.146  0.00  0.00     0.016 C 
ATOM      8  C18 ZIN A   1      19.005   5.546  13.051  0.00  0.00     0.023 C 
ATOM      9  C20 ZIN A   1      20.068   5.142  14.075  0.00  0.00     0.010 C 
ATOM     10  C21 ZIN A   1      19.593   5.863  15.367  0.00  0.00     0.006 C 
ATOM     11  C22 ZIN A   1      18.072   6.088  15.203  0.00  0.00    -0.002 C 
ENDROOT
BRANCH   1  12
ATOM     12  C10 ZIN A   1      19.440   2.789  10.430  0.00  0.00     0.008 C 
ATOM     13  C9  ZIN A   1      18.962   1.538  10.594  0.00  0.00    -0.050 C 
ATOM     14  C2  ZIN A   1      18.660   0.988  11.932  0.00  0.00    -0.061 C 
ATOM     15  C8  ZIN A   1      18.711   0.621   9.409  0.00  0.00     0.070 C 
ATOM     16  C1  ZIN A   1      19.482   1.173  12.965  0.00  0.00     0.019 C 
ATOM     17  C3  ZIN A   1      17.368   0.207  12.074  0.00  0.00     0.041 C 
ATOM     18  C4  ZIN A   1      17.269  -0.779  10.905  0.00  0.00     0.036 C 
ATOM     19  C5  ZIN A   1      17.329  -0.019   9.580  0.00  0.00     0.122 C 
BRANCH  19  20
ATOM     20  O7  ZIN A   1      17.090  -0.924   8.501  0.00  0.00    -0.395 OA
ATOM     21  H40 ZIN A   1      17.487  -1.797   8.624  0.00  0.00     0.210 HD
ENDBRANCH  19  20
ENDBRANCH   1  12
BRANCH  11  22
ATOM     22  C24 ZIN A   1      17.312   5.444  16.364  0.00  0.00    -0.014 C 
ATOM     23  C26 ZIN A   1      16.208   6.391  16.840  0.00  0.00     0.010 C 
BRANCH  22  24
ATOM     24  C27 ZIN A   1      18.280   5.170  17.517  0.00  0.00     0.005 C 
BRANCH  24  25
ATOM     25  C28 ZIN A   1      18.082   3.737  18.019  0.00  0.00     0.003 C 
BRANCH  25  26
ATOM     26  C29 ZIN A   1      19.071   2.809  17.310  0.00  0.00     0.037 C 
BRANCH  26  27
ATOM     27  C30 ZIN A   1      18.822   1.366  17.755  0.00  0.00     0.051 C 
ATOM     28  C31 ZIN A   1      17.574   1.313  18.637  0.00  0.00     0.045 C 
ATOM     29  C32 ZIN A   1      18.614   0.481  16.524  0.00  0.00     0.045 C 
BRANCH  27  30
ATOM     30  O33 ZIN A   1      19.949   0.895  18.496  0.00  0.00    -0.391 OA
ATOM     31  H73 ZIN A   1      20.318   0.064  18.167  0.00  0.00     0.210 HD
ENDBRANCH  27  30
ENDBRANCH  26  27
ENDBRANCH  25  26
ENDBRANCH  24  25
ENDBRANCH  22  24
ENDBRANCH  11  22
TORSDOF 8
ENDMDL
MODEL 4
REMARK VINA RESULT:      -7.8      2.396      7.846
REMARK  8 active torsions:
REMARK  status: ('A' for Active; 'I' for Inactive)
REMARK    1  A    between atoms: C5_5  and  O7_6 
REMARK    2  A    between atoms: C10_9  and  C11_10 
REMARK    3  A    between atoms: C22_20  and  C24_21 
REMARK    4  A    between atoms: C24_21  and  C27_23 
REMARK    5  A    between atoms: C27_23  and  C28_24 
REMARK    6  A    between atoms: C28_24  and  C29_25 
REMARK    7  A    between atoms: C29_25  and  C30_26 
REMARK    8  A    between atoms: C30_26  and  O33_29 
ROOT
ATOM      1  C11 ZIN A   1      19.104  -2.377   8.698  0.00  0.00     0.004 C 
ATOM      2  C12 ZIN A   1      19.367  -1.107   8.388  0.00  0.00    -0.075 C 
ATOM      3  C13 ZIN A   1      18.976  -0.496   7.051  0.00  0.00     0.034 C 
ATOM      4  C14 ZIN A   1      18.232   0.822   7.256  0.00  0.00     0.005 C 
ATOM      5  C15 ZIN A   1      18.971   1.747   8.238  0.00  0.00     0.010 C 
ATOM      6  C16 ZIN A   1      19.094   1.012   9.553  0.00  0.00    -0.033 C 
ATOM      7  C17 ZIN A   1      17.725   0.455   9.950  0.00  0.00     0.016 C 
ATOM      8  C18 ZIN A   1      20.064  -0.177   9.336  0.00  0.00     0.023 C 
ATOM      9  C20 ZIN A   1      20.255  -0.671  10.772  0.00  0.00     0.010 C 
ATOM     10  C21 ZIN A   1      20.403   0.652  11.574  0.00  0.00     0.006 C 
ATOM     11  C22 ZIN A   1      19.701   1.746  10.737  0.00  0.00    -0.002 C 
ENDROOT
BRANCH   1  12
ATOM     12  C10 ZIN A   1      18.419  -3.239   7.731  0.00  0.00     0.008 C 
ATOM     13  C9  ZIN A   1      18.109  -4.509   8.062  0.00  0.00    -0.050 C 
ATOM     14  C2  ZIN A   1      18.445  -5.074   9.386  0.00  0.00    -0.061 C 
ATOM     15  C8  ZIN A   1      17.398  -5.435   7.089  0.00  0.00     0.070 C 
ATOM     16  C1  ZIN A   1      19.629  -4.855   9.958  0.00  0.00     0.019 C 
ATOM     17  C3  ZIN A   1      17.377  -5.909  10.063  0.00  0.00     0.041 C 
ATOM     18  C4  ZIN A   1      16.813  -6.897   9.036  0.00  0.00     0.036 C 
ATOM     19  C5  ZIN A   1      16.256  -6.133   7.834  0.00  0.00     0.122 C 
BRANCH  19  20
ATOM     20  O7  ZIN A   1      15.603  -7.047   6.951  0.00  0.00    -0.395 OA
ATOM     21  H40 ZIN A   1      14.638  -7.012   6.992  0.00  0.00     0.210 HD
ENDBRANCH  19  20
ENDBRANCH   1  12
BRANCH  11  22
ATOM     22  C24 ZIN A   1      18.606   2.425  11.562  0.00  0.00    -0.014 C 
ATOM     23  C26 ZIN A   1      18.425   3.866  11.083  0.00  0.00     0.010 C 
BRANCH  22  24
ATOM     24  C27 ZIN A   1      19.006   2.425  13.039  0.00  0.00     0.005 C 
BRANCH  24  25
ATOM     25  C28 ZIN A   1      18.101   1.464  13.813  0.00  0.00     0.003 C 
BRANCH  25  26
ATOM     26  C29 ZIN A   1      18.929   0.719  14.862  0.00  0.00     0.037 C 
BRANCH  26  27
ATOM     27  C30 ZIN A   1      18.759  -0.790  14.667  0.00  0.00     0.051 C 
ATOM     28  C31 ZIN A   1      18.182  -1.406  15.943  0.00  0.00     0.045 C 
ATOM     29  C32 ZIN A   1      17.805  -1.049  13.499  0.00  0.00     0.045 C 
BRANCH  27  30
ATOM     30  O33 ZIN A   1      20.028  -1.380  14.385  0.00  0.00    -0.391 OA
ATOM     31  H73 ZIN A   1      20.423  -1.843  15.137  0.00  0.00     0.210 HD
ENDBRANCH  27  30
ENDBRANCH  26  27
ENDBRANCH  25  26
ENDBRANCH  24  25
ENDBRANCH  22  24
ENDBRANCH  11  22
TORSDOF 8
ENDMDL
MODEL 5
REMARK VINA RESULT:      -7.8      2.544      8.937
REMARK  8 active torsions:
REMARK  status: ('A' for Active; 'I' for Inactive)
REMARK    1  A    between atoms: C5_5  and  O7_6 
REMARK    2  A    between atoms: C10_9  and  C11_10 
REMARK    3  A    between atoms: C22_20  and  C24_21 
REMARK    4  A    between atoms: C24_21  and  C27_23 
REMARK    5  A    between atoms: C27_23  and  C28_24 
REMARK    6  A    between atoms: C28_24  and  C29_25 
REMARK    7  A    between atoms: C29_25  and  C30_26 
REMARK    8  A    between atoms: C30_26  and  O33_29 
ROOT
ATOM      1  C11 ZIN A   1      18.803  -1.283   7.876  0.00  0.00     0.004 C 
ATOM      2  C12 ZIN A   1      19.273  -0.221   8.532  0.00  0.00    -0.075 C 
ATOM      3  C13 ZIN A   1      19.358   1.159   7.895  0.00  0.00     0.034 C 
ATOM      4  C14 ZIN A   1      18.723   2.212   8.801  0.00  0.00     0.005 C 
ATOM      5  C15 ZIN A   1      19.229   2.097  10.250  0.00  0.00     0.010 C 
ATOM      6  C16 ZIN A   1      18.883   0.712  10.745  0.00  0.00    -0.033 C 
ATOM      7  C17 ZIN A   1      17.410   0.423  10.452  0.00  0.00     0.016 C 
ATOM      8  C18 ZIN A   1      19.749  -0.300   9.951  0.00  0.00     0.023 C 
ATOM      9  C20 ZIN A   1      19.457  -1.599  10.706  0.00  0.00     0.010 C 
ATOM     10  C21 ZIN A   1      19.494  -1.148  12.194  0.00  0.00     0.006 C 
ATOM     11  C22 ZIN A   1      19.185   0.367  12.195  0.00  0.00    -0.002 C 
ENDROOT
BRANCH   1  12
ATOM     12  C10 ZIN A   1      18.351  -1.145   6.489  0.00  0.00     0.008 C 
ATOM     13  C9  ZIN A   1      18.392  -2.207   5.659  0.00  0.00    -0.050 C 
ATOM     14  C2  ZIN A   1      18.890  -3.526   6.103  0.00  0.00    -0.061 C 
ATOM     15  C8  ZIN A   1      17.932  -2.106   4.214  0.00  0.00     0.070 C 
ATOM     16  C1  ZIN A   1      19.985  -3.642   6.854  0.00  0.00     0.019 C 
ATOM     17  C3  ZIN A   1      18.092  -4.739   5.669  0.00  0.00     0.041 C 
ATOM     18  C4  ZIN A   1      17.788  -4.606   4.173  0.00  0.00     0.036 C 
ATOM     19  C5  ZIN A   1      17.028  -3.306   3.912  0.00  0.00     0.122 C 
BRANCH  19  20
ATOM     20  O7  ZIN A   1      16.621  -3.259   2.543  0.00  0.00    -0.395 OA
ATOM     21  H40 ZIN A   1      16.520  -2.364   2.192  0.00  0.00     0.210 HD
ENDBRANCH  19  20
ENDBRANCH   1  12
BRANCH  11  22
ATOM     22  C24 ZIN A   1      17.969   0.660  13.075  0.00  0.00    -0.014 C 
ATOM     23  C26 ZIN A   1      18.054   2.094  13.603  0.00  0.00     0.010 C 
BRANCH  22  24
ATOM     24  C27 ZIN A   1      17.947  -0.316  14.254  0.00  0.00     0.005 C 
BRANCH  24  25
ATOM     25  C28 ZIN A   1      17.685   0.455  15.550  0.00  0.00     0.003 C 
BRANCH  25  26
ATOM     26  C29 ZIN A   1      18.427  -0.221  16.704  0.00  0.00     0.037 C 
BRANCH  26  27
ATOM     27  C30 ZIN A   1      18.874   0.839  17.713  0.00  0.00     0.051 C 
ATOM     28  C31 ZIN A   1      19.223   2.132  16.973  0.00  0.00     0.045 C 
ATOM     29  C32 ZIN A   1      17.741   1.110  18.705  0.00  0.00     0.045 C 
BRANCH  27  30
ATOM     30  O33 ZIN A   1      20.024   0.371  18.419  0.00  0.00    -0.391 OA
ATOM     31  H73 ZIN A   1      20.477   1.054  18.932  0.00  0.00     0.210 HD
ENDBRANCH  27  30
ENDBRANCH  26  27
ENDBRANCH  25  26
ENDBRANCH  24  25
ENDBRANCH  22  24
ENDBRANCH  11  22
TORSDOF 8
ENDMDL
MODEL 6
REMARK VINA RESULT:      -7.8      3.110      5.551
REMARK  8 active torsions:
REMARK  status: ('A' for Active; 'I' for Inactive)
REMARK    1  A    between atoms: C5_5  and  O7_6 
REMARK    2  A    between atoms: C10_9  and  C11_10 
REMARK    3  A    between atoms: C22_20  and  C24_21 
REMARK    4  A    between atoms: C24_21  and  C27_23 
REMARK    5  A    between atoms: C27_23  and  C28_24 
REMARK    6  A    between atoms: C28_24  and  C29_25 
REMARK    7  A    between atoms: C29_25  and  C30_26 
REMARK    8  A    between atoms: C30_26  and  O33_29 
ROOT
ATOM      1  C11 ZIN A   1      19.100   2.125  13.858  0.00  0.00     0.004 C 
ATOM      2  C12 ZIN A   1      19.329   0.863  14.223  0.00  0.00    -0.075 C 
ATOM      3  C13 ZIN A   1      18.921   0.322  15.585  0.00  0.00     0.034 C 
ATOM      4  C14 ZIN A   1      18.143  -0.985  15.436  0.00  0.00     0.005 C 
ATOM      5  C15 ZIN A   1      18.858  -1.970  14.497  0.00  0.00     0.010 C 
ATOM      6  C16 ZIN A   1      19.002  -1.296  13.152  0.00  0.00    -0.033 C 
ATOM      7  C17 ZIN A   1      17.649  -0.722  12.727  0.00  0.00     0.016 C 
ATOM      8  C18 ZIN A   1      20.003  -0.125  13.319  0.00  0.00     0.023 C 
ATOM      9  C20 ZIN A   1      20.209   0.301  11.863  0.00  0.00     0.010 C 
ATOM     10  C21 ZIN A   1      20.323  -1.060  11.120  0.00  0.00     0.006 C 
ATOM     11  C22 ZIN A   1      19.591  -2.098  12.002  0.00  0.00    -0.002 C 
ENDROOT
BRANCH   1  12
ATOM     12  C10 ZIN A   1      18.437   3.046  14.785  0.00  0.00     0.008 C 
ATOM     13  C9  ZIN A   1      17.991   4.240  14.344  0.00  0.00    -0.050 C 
ATOM     14  C2  ZIN A   1      18.155   4.663  12.937  0.00  0.00    -0.061 C 
ATOM     15  C8  ZIN A   1      17.298   5.223  15.272  0.00  0.00     0.070 C 
ATOM     16  C1  ZIN A   1      19.295   4.462  12.276  0.00  0.00     0.019 C 
ATOM     17  C3  ZIN A   1      16.962   5.328  12.281  0.00  0.00     0.041 C 
ATOM     18  C4  ZIN A   1      16.414   6.390  13.240  0.00  0.00     0.036 C 
ATOM     19  C5  ZIN A   1      16.037   5.740  14.572  0.00  0.00     0.122 C 
BRANCH  19  20
ATOM     20  O7  ZIN A   1      15.393   6.704  15.407  0.00  0.00    -0.395 OA
ATOM     21  H40 ZIN A   1      14.434   6.596  15.466  0.00  0.00     0.210 HD
ENDBRANCH  19  20
ENDBRANCH   1  12
BRANCH  11  22
ATOM     22  C24 ZIN A   1      18.479  -2.783  11.205  0.00  0.00    -0.014 C 
ATOM     23  C26 ZIN A   1      18.165  -4.142  11.833  0.00  0.00     0.010 C 
BRANCH  22  24
ATOM     24  C27 ZIN A   1      18.938  -2.982   9.759  0.00  0.00     0.005 C 
BRANCH  24  25
ATOM     25  C28 ZIN A   1      17.903  -2.376   8.808  0.00  0.00     0.003 C 
BRANCH  25  26
ATOM     26  C29 ZIN A   1      18.610  -1.473   7.796  0.00  0.00     0.037 C 
BRANCH  26  27
ATOM     27  C30 ZIN A   1      17.882  -0.129   7.718  0.00  0.00     0.051 C 
ATOM     28  C31 ZIN A   1      17.489   0.320   9.126  0.00  0.00     0.045 C 
ATOM     29  C32 ZIN A   1      18.805   0.917   7.089  0.00  0.00     0.045 C 
BRANCH  27  30
ATOM     30  O33 ZIN A   1      16.707  -0.270   6.918  0.00  0.00    -0.391 OA
ATOM     31  H73 ZIN A   1      16.083  -0.932   7.247  0.00  0.00     0.210 HD
ENDBRANCH  27  30
ENDBRANCH  26  27
ENDBRANCH  25  26
ENDBRANCH  24  25
ENDBRANCH  22  24
ENDBRANCH  11  22
TORSDOF 8
ENDMDL
MODEL 7
REMARK VINA RESULT:      -7.4      3.199      5.905
REMARK  8 active torsions:
REMARK  status: ('A' for Active; 'I' for Inactive)
REMARK    1  A    between atoms: C5_5  and  O7_6 
REMARK    2  A    between atoms: C10_9  and  C11_10 
REMARK    3  A    between atoms: C22_20  and  C24_21 
REMARK    4  A    between atoms: C24_21  and  C27_23 
REMARK    5  A    between atoms: C27_23  and  C28_24 
REMARK    6  A    between atoms: C28_24  and  C29_25 
REMARK    7  A    between atoms: C29_25  and  C30_26 
REMARK    8  A    between atoms: C30_26  and  O33_29 
ROOT
ATOM      1  C11 ZIN A   1      19.204   2.267  14.144  0.00  0.00     0.004 C 
ATOM      2  C12 ZIN A   1      19.340   0.986  14.488  0.00  0.00    -0.075 C 
ATOM      3  C13 ZIN A   1      18.911   0.457  15.849  0.00  0.00     0.034 C 
ATOM      4  C14 ZIN A   1      18.032  -0.783  15.693  0.00  0.00     0.005 C 
ATOM      5  C15 ZIN A   1      18.656  -1.806  14.730  0.00  0.00     0.010 C 
ATOM      6  C16 ZIN A   1      18.832  -1.125  13.392  0.00  0.00    -0.033 C 
ATOM      7  C17 ZIN A   1      17.522  -0.442  12.996  0.00  0.00     0.016 C 
ATOM      8  C18 ZIN A   1      19.923  -0.037  13.559  0.00  0.00     0.023 C 
ATOM      9  C20 ZIN A   1      20.139   0.394  12.107  0.00  0.00     0.010 C 
ATOM     10  C21 ZIN A   1      20.138  -0.960  11.343  0.00  0.00     0.006 C 
ATOM     11  C22 ZIN A   1      19.341  -1.952  12.222  0.00  0.00    -0.002 C 
ENDROOT
BRANCH   1  12
ATOM     12  C10 ZIN A   1      18.627   3.222  15.094  0.00  0.00     0.008 C 
ATOM     13  C9  ZIN A   1      18.085   4.373  14.646  0.00  0.00    -0.050 C 
ATOM     14  C2  ZIN A   1      18.055   4.714  13.208  0.00  0.00    -0.061 C 
ATOM     15  C8  ZIN A   1      17.476   5.390  15.598  0.00  0.00     0.070 C 
ATOM     16  C1  ZIN A   1      19.110   4.509  12.420  0.00  0.00     0.019 C 
ATOM     17  C3  ZIN A   1      16.765   5.302  12.672  0.00  0.00     0.041 C 
ATOM     18  C4  ZIN A   1      16.301   6.402  13.631  0.00  0.00     0.036 C 
ATOM     19  C5  ZIN A   1      16.119   5.824  15.035  0.00  0.00     0.122 C 
BRANCH  19  20
ATOM     20  O7  ZIN A   1      15.548   6.817  15.889  0.00  0.00    -0.395 OA
ATOM     21  H40 ZIN A   1      15.310   6.492  16.768  0.00  0.00     0.210 HD
ENDBRANCH  19  20
ENDBRANCH   1  12
BRANCH  11  22
ATOM     22  C24 ZIN A   1      18.168  -2.537  11.433  0.00  0.00    -0.014 C 
ATOM     23  C26 ZIN A   1      18.031  -4.027  11.752  0.00  0.00     0.010 C 
BRANCH  22  24
ATOM     24  C27 ZIN A   1      18.422  -2.358   9.934  0.00  0.00     0.005 C 
BRANCH  24  25
ATOM     25  C28 ZIN A   1      18.477  -3.730   9.259  0.00  0.00     0.003 C 
BRANCH  25  26
ATOM     26  C29 ZIN A   1      19.022  -3.577   7.838  0.00  0.00     0.037 C 
BRANCH  26  27
ATOM     27  C30 ZIN A   1      19.887  -4.790   7.490  0.00  0.00     0.051 C 
ATOM     28  C31 ZIN A   1      20.203  -5.572   8.767  0.00  0.00     0.045 C 
ATOM     29  C32 ZIN A   1      19.131  -5.693   6.514  0.00  0.00     0.045 C 
BRANCH  27  30
ATOM     30  O33 ZIN A   1      21.105  -4.351   6.888  0.00  0.00    -0.391 OA
ATOM     31  H73 ZIN A   1      21.868  -4.910   7.088  0.00  0.00     0.210 HD
ENDBRANCH  27  30
ENDBRANCH  26  27
ENDBRANCH  25  26
ENDBRANCH  24  25
ENDBRANCH  22  24
ENDBRANCH  11  22
TORSDOF 8
ENDMDL
MODEL 8
REMARK VINA RESULT:      -7.4      2.958      8.147
REMARK  8 active torsions:
REMARK  status: ('A' for Active; 'I' for Inactive)
REMARK    1  A    between atoms: C5_5  and  O7_6 
REMARK    2  A    between atoms: C10_9  and  C11_10 
REMARK    3  A    between atoms: C22_20  and  C24_21 
REMARK    4  A    between atoms: C24_21  and  C27_23 
REMARK    5  A    between atoms: C27_23  and  C28_24 
REMARK    6  A    between atoms: C28_24  and  C29_25 
REMARK    7  A    between atoms: C29_25  and  C30_26 
REMARK    8  A    between atoms: C30_26  and  O33_29 
ROOT
ATOM      1  C11 ZIN A   1      18.898  -2.823   8.055  0.00  0.00     0.004 C 
ATOM      2  C12 ZIN A   1      19.248  -1.594   7.674  0.00  0.00    -0.075 C 
ATOM      3  C13 ZIN A   1      19.167  -1.137   6.225  0.00  0.00     0.034 C 
ATOM      4  C14 ZIN A   1      18.424   0.194   6.120  0.00  0.00     0.005 C 
ATOM      5  C15 ZIN A   1      18.953   1.224   7.132  0.00  0.00     0.010 C 
ATOM      6  C16 ZIN A   1      18.774   0.639   8.514  0.00  0.00    -0.033 C 
ATOM      7  C17 ZIN A   1      17.341   0.125   8.664  0.00  0.00     0.016 C 
ATOM      8  C18 ZIN A   1      19.744  -0.563   8.644  0.00  0.00     0.023 C 
ATOM      9  C20 ZIN A   1      19.610  -0.895  10.132  0.00  0.00     0.010 C 
ATOM     10  C21 ZIN A   1      19.609   0.510  10.798  0.00  0.00     0.006 C 
ATOM     11  C22 ZIN A   1      19.127   1.503   9.715  0.00  0.00    -0.002 C 
ENDROOT
BRANCH   1  12
ATOM     12  C10 ZIN A   1      18.421  -3.789   7.063  0.00  0.00     0.008 C 
ATOM     13  C9  ZIN A   1      18.124  -5.050   7.439  0.00  0.00    -0.050 C 
ATOM     14  C2  ZIN A   1      18.271  -5.502   8.838  0.00  0.00    -0.061 C 
ATOM     15  C8  ZIN A   1      17.625  -6.082   6.441  0.00  0.00     0.070 C 
ATOM     16  C1  ZIN A   1      19.335  -5.173   9.570  0.00  0.00     0.019 C 
ATOM     17  C3  ZIN A   1      17.150  -6.352   9.403  0.00  0.00     0.041 C 
ATOM     18  C4  ZIN A   1      16.807  -7.440   8.380  0.00  0.00     0.036 C 
ATOM     19  C5  ZIN A   1      16.414  -6.795   7.050  0.00  0.00     0.122 C 
BRANCH  19  20
ATOM     20  O7  ZIN A   1      15.956  -7.805   6.149  0.00  0.00    -0.395 OA
ATOM     21  H40 ZIN A   1      16.339  -7.745   5.263  0.00  0.00     0.210 HD
ENDBRANCH  19  20
ENDBRANCH   1  12
BRANCH  11  22
ATOM     22  C24 ZIN A   1      17.893   2.264  10.203  0.00  0.00    -0.014 C 
ATOM     23  C26 ZIN A   1      18.092   3.763   9.967  0.00  0.00     0.010 C 
BRANCH  22  24
ATOM     24  C27 ZIN A   1      17.695   2.006  11.699  0.00  0.00     0.005 C 
BRANCH  24  25
ATOM     25  C28 ZIN A   1      17.767   3.333  12.459  0.00  0.00     0.003 C 
BRANCH  25  26
ATOM     26  C29 ZIN A   1      18.837   3.239  13.548  0.00  0.00     0.037 C 
BRANCH  26  27
ATOM     27  C30 ZIN A   1      18.902   4.562  14.314  0.00  0.00     0.051 C 
ATOM     28  C31 ZIN A   1      17.927   5.561  13.688  0.00  0.00     0.045 C 
ATOM     29  C32 ZIN A   1      18.521   4.326  15.776  0.00  0.00     0.045 C 
BRANCH  27  30
ATOM     30  O33 ZIN A   1      20.229   5.087  14.246  0.00  0.00    -0.391 OA
ATOM     31  H73 ZIN A   1      20.567   5.190  13.345  0.00  0.00     0.210 HD
ENDBRANCH  27  30
ENDBRANCH  26  27
ENDBRANCH  25  26
ENDBRANCH  24  25
ENDBRANCH  22  24
ENDBRANCH  11  22
TORSDOF 8
ENDMDL
MODEL 9
REMARK VINA RESULT:      -7.3      2.658      5.070
REMARK  8 active torsions:
REMARK  status: ('A' for Active; 'I' for Inactive)
REMARK    1  A    between atoms: C5_5  and  O7_6 
REMARK    2  A    between atoms: C10_9  and  C11_10 
REMARK    3  A    between atoms: C22_20  and  C24_21 
REMARK    4  A    between atoms: C24_21  and  C27_23 
REMARK    5  A    between atoms: C27_23  and  C28_24 
REMARK    6  A    between atoms: C28_24  and  C29_25 
REMARK    7  A    between atoms: C29_25  and  C30_26 
REMARK    8  A    between atoms: C30_26  and  O33_29 
ROOT
ATOM      1  C11 ZIN A   1      18.131  -0.572  13.694  0.00  0.00     0.004 C 
ATOM      2  C12 ZIN A   1      17.516  -0.677  12.515  0.00  0.00    -0.075 C 
ATOM      3  C13 ZIN A   1      16.971   0.531  11.769  0.00  0.00     0.034 C 
ATOM      4  C14 ZIN A   1      17.450   0.533  10.318  0.00  0.00     0.005 C 
ATOM      5  C15 ZIN A   1      17.239  -0.835   9.647  0.00  0.00     0.010 C 
ATOM      6  C16 ZIN A   1      18.010  -1.860  10.447  0.00  0.00    -0.033 C 
ATOM      7  C17 ZIN A   1      19.439  -1.358  10.667  0.00  0.00     0.016 C 
ATOM      8  C18 ZIN A   1      17.318  -1.995  11.828  0.00  0.00     0.023 C 
ATOM      9  C20 ZIN A   1      18.060  -3.198  12.415  0.00  0.00     0.010 C 
ATOM     10  C21 ZIN A   1      18.153  -4.170  11.205  0.00  0.00     0.006 C 
ATOM     11  C22 ZIN A   1      18.053  -3.291   9.936  0.00  0.00    -0.002 C 
ENDROOT
BRANCH   1  12
ATOM     12  C10 ZIN A   1      18.295   0.743  14.318  0.00  0.00     0.008 C 
ATOM     13  C9  ZIN A   1      18.308   0.854  15.662  0.00  0.00    -0.050 C 
ATOM     14  C2  ZIN A   1      18.153  -0.322  16.543  0.00  0.00    -0.061 C 
ATOM     15  C8  ZIN A   1      18.477   2.199  16.348  0.00  0.00     0.070 C 
ATOM     16  C1  ZIN A   1      17.250  -1.270  16.290  0.00  0.00     0.019 C 
ATOM     17  C3  ZIN A   1      19.074  -0.403  17.744  0.00  0.00     0.041 C 
ATOM     18  C4  ZIN A   1      19.077   0.962  18.442  0.00  0.00     0.036 C 
ATOM     19  C5  ZIN A   1      19.521   2.045  17.459  0.00  0.00     0.122 C 
BRANCH  19  20
ATOM     20  O7  ZIN A   1      19.662   3.287  18.151  0.00  0.00    -0.395 OA
ATOM     21  H40 ZIN A   1      18.984   3.443  18.823  0.00  0.00     0.210 HD
ENDBRANCH  19  20
ENDBRANCH   1  12
BRANCH  11  22
ATOM     22  C24 ZIN A   1      19.279  -3.502   9.046  0.00  0.00    -0.014 C 
ATOM     23  C26 ZIN A   1      18.935  -3.120   7.605  0.00  0.00     0.010 C 
BRANCH  22  24
ATOM     24  C27 ZIN A   1      19.698  -4.974   9.097  0.00  0.00     0.005 C 
BRANCH  24  25
ATOM     25  C28 ZIN A   1      19.001  -5.741   7.971  0.00  0.00     0.003 C 
BRANCH  25  26
ATOM     26  C29 ZIN A   1      17.964  -6.694   8.571  0.00  0.00     0.037 C 
BRANCH  26  27
ATOM     27  C30 ZIN A   1      16.625  -6.504   7.856  0.00  0.00     0.051 C 
ATOM     28  C31 ZIN A   1      15.993  -7.871   7.587  0.00  0.00     0.045 C 
ATOM     29  C32 ZIN A   1      15.689  -5.675   8.737  0.00  0.00     0.045 C 
BRANCH  27  30
ATOM     30  O33 ZIN A   1      16.838  -5.827   6.617  0.00  0.00    -0.391 OA
ATOM     31  H73 ZIN A   1      17.674  -5.344   6.570  0.00  0.00     0.210 HD
ENDBRANCH  27  30
ENDBRANCH  26  27
ENDBRANCH  25  26
ENDBRANCH  24  25
ENDBRANCH  22  24
ENDBRANCH  11  22
TORSDOF 8
ENDMDL
