MODEL 1
REMARK VINA RESULT:      -6.7      0.000      0.000
REMARK  5 active torsions:
REMARK  status: ('A' for Active; 'I' for Inactive)
REMARK    1  A    between atoms: N2_2  and  C5_5 
REMARK    2  A    between atoms: C5_5  and  C6_6 
REMARK    3  A    between atoms: C6_6  and  C7_7 
REMARK    4  A    between atoms: C13_13  and  C14_14 
REMARK    5  A    between atoms: C14_14  and  N15_15 
ROOT
ATOM      1  C7  ZIN A   1      18.277  -0.216  11.262  0.00  0.00    -0.029 A 
ATOM      2  C8  ZIN A   1      19.122   0.581  11.936  0.00  0.00     0.096 A 
ATOM      3  N9  ZIN A   1      19.698   1.480  11.080  0.00  0.00    -0.365 N 
ATOM      4  C10 ZIN A   1      19.226   1.278   9.802  0.00  0.00     0.043 A 
ATOM      5  C11 ZIN A   1      19.474   1.895   8.582  0.00  0.00     0.031 A 
ATOM      6  C12 ZIN A   1      18.829   1.454   7.448  0.00  0.00     0.011 A 
ATOM      7  C13 ZIN A   1      17.931   0.397   7.510  0.00  0.00    -0.037 A 
ATOM      8  C20 ZIN A   1      17.672  -0.224   8.700  0.00  0.00     0.023 A 
ATOM      9  C21 ZIN A   1      18.320   0.203   9.859  0.00  0.00    -0.001 A 
ATOM     10  H33 ZIN A   1      20.342   2.158  11.335  0.00  0.00     0.165 HD
ENDROOT
BRANCH   1  11
ATOM     11  C6  ZIN A   1      17.447  -1.334  11.839  0.00  0.00     0.068 C 
BRANCH  11  12
ATOM     12  C5  ZIN A   1      18.355  -2.510  12.200  0.00  0.00     0.238 C 
BRANCH  12  13
ATOM     13  N2  ZIN A   1      18.773  -3.201  10.973  0.00  0.00    -0.079 N 
ATOM     14  C1  ZIN A   1      19.706  -4.284  11.315  0.00  0.00     0.269 C 
ATOM     15  H3  ZIN A   1      19.230  -2.545  10.357  0.00  0.00     0.278 HD
ATOM     16  C4  ZIN A   1      17.595  -3.764  10.300  0.00  0.00     0.269 C 
ENDBRANCH  12  13
ENDBRANCH  11  12
ENDBRANCH   1  11
BRANCH   7  17
ATOM     17  C14 ZIN A   1      17.236  -0.069   6.256  0.00  0.00     0.190 C 
BRANCH  17  18
ATOM     18  N15 ZIN A   1      18.099  -1.016   5.543  0.00  0.00    -0.258 N 
ATOM     19  N19 ZIN A   1      18.065  -2.417   5.634  0.00  0.00    -0.164 NA
ATOM     20  C18 ZIN A   1      18.996  -2.870   4.837  0.00  0.00     0.256 A 
ATOM     21  N17 ZIN A   1      19.612  -1.838   4.262  0.00  0.00    -0.234 NA
ATOM     22  C16 ZIN A   1      19.082  -0.717   4.678  0.00  0.00     0.230 A 
ENDBRANCH  17  18
ENDBRANCH   7  17
TORSDOF 5
ENDMDL
MODEL 2
REMARK VINA RESULT:      -6.5      2.891      5.899
REMARK  5 active torsions:
REMARK  status: ('A' for Active; 'I' for Inactive)
REMARK    1  A    between atoms: N2_2  and  C5_5 
REMARK    2  A    between atoms: C5_5  and  C6_6 
REMARK    3  A    between atoms: C6_6  and  C7_7 
REMARK    4  A    between atoms: C13_13  and  C14_14 
REMARK    5  A    between atoms: C14_14  and  N15_15 
ROOT
ATOM      1  C7  ZIN A   1      18.521  -1.084  10.972  0.00  0.00    -0.029 A 
ATOM      2  C8  ZIN A   1      19.262  -1.845  10.150  0.00  0.00     0.096 A 
ATOM      3  N9  ZIN A   1      19.748  -1.084   9.122  0.00  0.00    -0.365 N 
ATOM      4  C10 ZIN A   1      19.321   0.217   9.260  0.00  0.00     0.043 A 
ATOM      5  C11 ZIN A   1      19.518   1.374   8.514  0.00  0.00     0.031 A 
ATOM      6  C12 ZIN A   1      18.943   2.558   8.921  0.00  0.00     0.011 A 
ATOM      7  C13 ZIN A   1      18.168   2.610  10.071  0.00  0.00    -0.037 A 
ATOM      8  C20 ZIN A   1      17.962   1.485  10.820  0.00  0.00     0.023 A 
ATOM      9  C21 ZIN A   1      18.529   0.274  10.421  0.00  0.00    -0.001 A 
ATOM     10  H33 ZIN A   1      20.309  -1.413   8.403  0.00  0.00     0.165 HD
ENDROOT
BRANCH   1  11
ATOM     11  C6  ZIN A   1      17.812  -1.541  12.221  0.00  0.00     0.068 C 
BRANCH  11  12
ATOM     12  C5  ZIN A   1      18.824  -1.686  13.358  0.00  0.00     0.238 C 
BRANCH  12  13
ATOM     13  N2  ZIN A   1      18.575  -0.653  14.372  0.00  0.00    -0.079 N 
ATOM     14  C1  ZIN A   1      18.737  -1.233  15.712  0.00  0.00     0.269 C 
ATOM     15  H3  ZIN A   1      17.635  -0.301  14.268  0.00  0.00     0.278 HD
ATOM     16  C4  ZIN A   1      19.531   0.448  14.195  0.00  0.00     0.269 C 
ENDBRANCH  12  13
ENDBRANCH  11  12
ENDBRANCH   1  11
BRANCH   7  17
ATOM     17  C14 ZIN A   1      17.550   3.916  10.498  0.00  0.00     0.190 C 
BRANCH  17  18
ATOM     18  N15 ZIN A   1      18.091   4.310  11.802  0.00  0.00    -0.258 N 
ATOM     19  N19 ZIN A   1      19.441   4.521  12.124  0.00  0.00    -0.164 NA
ATOM     20  C18 ZIN A   1      19.481   4.858  13.385  0.00  0.00     0.256 A 
ATOM     21  N17 ZIN A   1      18.240   4.862  13.871  0.00  0.00    -0.234 NA
ATOM     22  C16 ZIN A   1      17.394   4.534  12.929  0.00  0.00     0.230 A 
ENDBRANCH  17  18
ENDBRANCH   7  17
TORSDOF 5
ENDMDL
MODEL 3
REMARK VINA RESULT:      -6.5      1.647      5.162
REMARK  5 active torsions:
REMARK  status: ('A' for Active; 'I' for Inactive)
REMARK    1  A    between atoms: N2_2  and  C5_5 
REMARK    2  A    between atoms: C5_5  and  C6_6 
REMARK    3  A    between atoms: C6_6  and  C7_7 
REMARK    4  A    between atoms: C13_13  and  C14_14 
REMARK    5  A    between atoms: C14_14  and  N15_15 
ROOT
ATOM      1  C7  ZIN A   1      18.354  -0.836   5.473  0.00  0.00    -0.029 A 
ATOM      2  C8  ZIN A   1      19.140  -0.065   4.704  0.00  0.00     0.096 A 
ATOM      3  N9  ZIN A   1      19.574   1.018   5.420  0.00  0.00    -0.365 N 
ATOM      4  C10 ZIN A   1      19.065   0.968   6.698  0.00  0.00     0.043 A 
ATOM      5  C11 ZIN A   1      19.187   1.795   7.810  0.00  0.00     0.031 A 
ATOM      6  C12 ZIN A   1      18.539   1.467   8.981  0.00  0.00     0.011 A 
ATOM      7  C13 ZIN A   1      17.765   0.318   9.064  0.00  0.00    -0.037 A 
ATOM      8  C20 ZIN A   1      17.632  -0.508   7.984  0.00  0.00     0.023 A 
ATOM      9  C21 ZIN A   1      18.274  -0.192   6.786  0.00  0.00    -0.001 A 
ATOM     10  H33 ZIN A   1      20.153   1.716   5.078  0.00  0.00     0.165 HD
ENDROOT
BRANCH   1  11
ATOM     11  C6  ZIN A   1      17.678  -2.119   5.061  0.00  0.00     0.068 C 
BRANCH  11  12
ATOM     12  C5  ZIN A   1      18.509  -3.310   5.541  0.00  0.00     0.238 C 
BRANCH  12  13
ATOM     13  N2  ZIN A   1      17.790  -4.007   6.615  0.00  0.00    -0.079 N 
ATOM     14  C1  ZIN A   1      17.456  -5.369   6.177  0.00  0.00     0.269 C 
ATOM     15  H3  ZIN A   1      16.942  -3.506   6.833  0.00  0.00     0.278 HD
ATOM     16  C4  ZIN A   1      18.640  -4.072   7.812  0.00  0.00     0.269 C 
ENDBRANCH  12  13
ENDBRANCH  11  12
ENDBRANCH   1  11
BRANCH   7  17
ATOM     17  C14 ZIN A   1      17.065  -0.020  10.356  0.00  0.00     0.190 C 
BRANCH  17  18
ATOM     18  N15 ZIN A   1      17.762  -1.130  11.011  0.00  0.00    -0.258 N 
ATOM     19  N19 ZIN A   1      17.254  -2.418  11.251  0.00  0.00    -0.164 NA
ATOM     20  C18 ZIN A   1      18.198  -3.091  11.852  0.00  0.00     0.256 A 
ATOM     21  N17 ZIN A   1      19.259  -2.301  12.010  0.00  0.00    -0.234 NA
ATOM     22  C16 ZIN A   1      19.010  -1.118  11.509  0.00  0.00     0.230 A 
ENDBRANCH  17  18
ENDBRANCH   7  17
TORSDOF 5
ENDMDL
MODEL 4
REMARK VINA RESULT:      -6.5      4.089      8.636
REMARK  5 active torsions:
REMARK  status: ('A' for Active; 'I' for Inactive)
REMARK    1  A    between atoms: N2_2  and  C5_5 
REMARK    2  A    between atoms: C5_5  and  C6_6 
REMARK    3  A    between atoms: C6_6  and  C7_7 
REMARK    4  A    between atoms: C13_13  and  C14_14 
REMARK    5  A    between atoms: C14_14  and  N15_15 
ROOT
ATOM      1  C7  ZIN A   1      18.162  -0.179  11.745  0.00  0.00    -0.029 A 
ATOM      2  C8  ZIN A   1      19.044  -0.983  11.130  0.00  0.00     0.096 A 
ATOM      3  N9  ZIN A   1      19.732  -1.717  12.058  0.00  0.00    -0.365 N 
ATOM      4  C10 ZIN A   1      19.299  -1.394  13.325  0.00  0.00     0.043 A 
ATOM      5  C11 ZIN A   1      19.650  -1.831  14.597  0.00  0.00     0.031 A 
ATOM      6  C12 ZIN A   1      19.017  -1.304  15.701  0.00  0.00     0.011 A 
ATOM      7  C13 ZIN A   1      18.028  -0.340  15.557  0.00  0.00    -0.037 A 
ATOM      8  C20 ZIN A   1      17.667   0.103  14.316  0.00  0.00     0.023 A 
ATOM      9  C21 ZIN A   1      18.301  -0.413  13.184  0.00  0.00    -0.001 A 
ATOM     10  H33 ZIN A   1      20.422  -2.367  11.854  0.00  0.00     0.165 HD
ENDROOT
BRANCH   1  11
ATOM     11  C6  ZIN A   1      17.214   0.785  11.080  0.00  0.00     0.068 C 
BRANCH  11  12
ATOM     12  C5  ZIN A   1      17.643   2.220  11.393  0.00  0.00     0.238 C 
BRANCH  12  13
ATOM     13  N2  ZIN A   1      17.712   2.994  10.146  0.00  0.00    -0.079 N 
ATOM     14  C1  ZIN A   1      17.815   4.425  10.464  0.00  0.00     0.269 C 
ATOM     15  H3  ZIN A   1      16.879   2.829   9.602  0.00  0.00     0.278 HD
ATOM     16  C4  ZIN A   1      18.891   2.577   9.375  0.00  0.00     0.269 C 
ENDBRANCH  12  13
ENDBRANCH  11  12
ENDBRANCH   1  11
BRANCH   7  17
ATOM     17  C14 ZIN A   1      17.349   0.222  16.779  0.00  0.00     0.190 C 
BRANCH  17  18
ATOM     18  N15 ZIN A   1      18.208   1.238  17.392  0.00  0.00    -0.258 N 
ATOM     19  N19 ZIN A   1      18.386   2.562  16.958  0.00  0.00    -0.164 NA
ATOM     20  C18 ZIN A   1      19.230   3.120  17.785  0.00  0.00     0.256 A 
ATOM     21  N17 ZIN A   1      19.595   2.225  18.701  0.00  0.00    -0.234 NA
ATOM     22  C16 ZIN A   1      18.987   1.088  18.476  0.00  0.00     0.230 A 
ENDBRANCH  17  18
ENDBRANCH   7  17
TORSDOF 5
ENDMDL
MODEL 5
REMARK VINA RESULT:      -6.5      2.254      5.107
REMARK  5 active torsions:
REMARK  status: ('A' for Active; 'I' for Inactive)
REMARK    1  A    between atoms: N2_2  and  C5_5 
REMARK    2  A    between atoms: C5_5  and  C6_6 
REMARK    3  A    between atoms: C6_6  and  C7_7 
REMARK    4  A    between atoms: C13_13  and  C14_14 
REMARK    5  A    between atoms: C14_14  and  N15_15 
ROOT
ATOM      1  C7  ZIN A   1      19.004  -2.525  10.317  0.00  0.00    -0.029 A 
ATOM      2  C8  ZIN A   1      18.354  -3.526   9.702  0.00  0.00     0.096 A 
ATOM      3  N9  ZIN A   1      17.744  -3.060   8.569  0.00  0.00    -0.365 N 
ATOM      4  C10 ZIN A   1      17.993  -1.713   8.423  0.00  0.00     0.043 A 
ATOM      5  C11 ZIN A   1      17.624  -0.768   7.473  0.00  0.00     0.031 A 
ATOM      6  C12 ZIN A   1      18.043   0.537   7.607  0.00  0.00     0.011 A 
ATOM      7  C13 ZIN A   1      18.832   0.921   8.681  0.00  0.00    -0.037 A 
ATOM      8  C20 ZIN A   1      19.208   0.008   9.627  0.00  0.00     0.023 A 
ATOM      9  C21 ZIN A   1      18.789  -1.318   9.515  0.00  0.00    -0.001 A 
ATOM     10  H33 ZIN A   1      17.215  -3.597   7.959  0.00  0.00     0.165 HD
ENDROOT
BRANCH   1  11
ATOM     11  C6  ZIN A   1      19.800  -2.623  11.593  0.00  0.00     0.068 C 
BRANCH  11  12
ATOM     12  C5  ZIN A   1      18.959  -2.104  12.760  0.00  0.00     0.238 C 
BRANCH  12  13
ATOM     13  N2  ZIN A   1      19.813  -1.340  13.678  0.00  0.00    -0.079 N 
ATOM     14  C1  ZIN A   1      19.972   0.030  13.173  0.00  0.00     0.269 C 
ATOM     15  H3  ZIN A   1      20.718  -1.782  13.742  0.00  0.00     0.278 HD
ATOM     16  C4  ZIN A   1      19.192  -1.303  15.009  0.00  0.00     0.269 C 
ENDBRANCH  12  13
ENDBRANCH  11  12
ENDBRANCH   1  11
BRANCH   7  17
ATOM     17  C14 ZIN A   1      19.279   2.355   8.807  0.00  0.00     0.190 C 
BRANCH  17  18
ATOM     18  N15 ZIN A   1      18.901   2.871  10.125  0.00  0.00    -0.258 N 
ATOM     19  N19 ZIN A   1      19.760   3.126  11.207  0.00  0.00    -0.164 NA
ATOM     20  C18 ZIN A   1      19.016   3.576  12.182  0.00  0.00     0.256 A 
ATOM     21  N17 ZIN A   1      17.747   3.609  11.778  0.00  0.00    -0.234 NA
ATOM     22  C16 ZIN A   1      17.664   3.187  10.543  0.00  0.00     0.230 A 
ENDBRANCH  17  18
ENDBRANCH   7  17
TORSDOF 5
ENDMDL
MODEL 6
REMARK VINA RESULT:      -6.4      1.842      5.125
REMARK  5 active torsions:
REMARK  status: ('A' for Active; 'I' for Inactive)
REMARK    1  A    between atoms: N2_2  and  C5_5 
REMARK    2  A    between atoms: C5_5  and  C6_6 
REMARK    3  A    between atoms: C6_6  and  C7_7 
REMARK    4  A    between atoms: C13_13  and  C14_14 
REMARK    5  A    between atoms: C14_14  and  N15_15 
ROOT
ATOM      1  C7  ZIN A   1      19.296  -2.224   5.945  0.00  0.00    -0.029 A 
ATOM      2  C8  ZIN A   1      19.049  -1.834   4.684  0.00  0.00     0.096 A 
ATOM      3  N9  ZIN A   1      18.849  -0.481   4.646  0.00  0.00    -0.365 N 
ATOM      4  C10 ZIN A   1      18.964   0.046   5.913  0.00  0.00     0.043 A 
ATOM      5  C11 ZIN A   1      18.858   1.332   6.429  0.00  0.00     0.031 A 
ATOM      6  C12 ZIN A   1      19.031   1.545   7.779  0.00  0.00     0.011 A 
ATOM      7  C13 ZIN A   1      19.313   0.488   8.632  0.00  0.00    -0.037 A 
ATOM      8  C20 ZIN A   1      19.423  -0.785   8.146  0.00  0.00     0.023 A 
ATOM      9  C21 ZIN A   1      19.244  -1.024   6.783  0.00  0.00    -0.001 A 
ATOM     10  H33 ZIN A   1      18.654   0.031   3.846  0.00  0.00     0.165 HD
ENDROOT
BRANCH   1  11
ATOM     11  C6  ZIN A   1      19.570  -3.632   6.410  0.00  0.00     0.068 C 
BRANCH  11  12
ATOM     12  C5  ZIN A   1      18.364  -4.153   7.193  0.00  0.00     0.238 C 
BRANCH  12  13
ATOM     13  N2  ZIN A   1      18.723  -4.293   8.611  0.00  0.00    -0.079 N 
ATOM     14  C1  ZIN A   1      17.551  -3.990   9.444  0.00  0.00     0.269 C 
ATOM     15  H3  ZIN A   1      19.469  -3.651   8.833  0.00  0.00     0.278 HD
ATOM     16  C4  ZIN A   1      19.168  -5.669   8.871  0.00  0.00     0.269 C 
ENDBRANCH  12  13
ENDBRANCH  11  12
ENDBRANCH   1  11
BRANCH   7  17
ATOM     17  C14 ZIN A   1      19.500   0.745  10.105  0.00  0.00     0.190 C 
BRANCH  17  18
ATOM     18  N15 ZIN A   1      18.462   0.037  10.860  0.00  0.00    -0.258 N 
ATOM     19  N19 ZIN A   1      18.642  -1.078  11.694  0.00  0.00    -0.164 NA
ATOM     20  C18 ZIN A   1      17.465  -1.389  12.168  0.00  0.00     0.256 A 
ATOM     21  N17 ZIN A   1      16.562  -0.543  11.675  0.00  0.00    -0.234 NA
ATOM     22  C16 ZIN A   1      17.149   0.320  10.886  0.00  0.00     0.230 A 
ENDBRANCH  17  18
ENDBRANCH   7  17
TORSDOF 5
ENDMDL
MODEL 7
REMARK VINA RESULT:      -6.4      4.692      7.972
REMARK  5 active torsions:
REMARK  status: ('A' for Active; 'I' for Inactive)
REMARK    1  A    between atoms: N2_2  and  C5_5 
REMARK    2  A    between atoms: C5_5  and  C6_6 
REMARK    3  A    between atoms: C6_6  and  C7_7 
REMARK    4  A    between atoms: C13_13  and  C14_14 
REMARK    5  A    between atoms: C14_14  and  N15_15 
ROOT
ATOM      1  C7  ZIN A   1      19.187   2.777  17.091  0.00  0.00    -0.029 A 
ATOM      2  C8  ZIN A   1      18.995   2.598  18.408  0.00  0.00     0.096 A 
ATOM      3  N9  ZIN A   1      18.827   1.267  18.678  0.00  0.00    -0.365 N 
ATOM      4  C10 ZIN A   1      18.908   0.539  17.513  0.00  0.00     0.043 A 
ATOM      5  C11 ZIN A   1      18.811  -0.817  17.223  0.00  0.00     0.031 A 
ATOM      6  C12 ZIN A   1      18.940  -1.250  15.921  0.00  0.00     0.011 A 
ATOM      7  C13 ZIN A   1      19.167  -0.345  14.893  0.00  0.00    -0.037 A 
ATOM      8  C20 ZIN A   1      19.266   0.993  15.156  0.00  0.00     0.023 A 
ATOM      9  C21 ZIN A   1      19.131   1.453  16.467  0.00  0.00    -0.001 A 
ATOM     10  H33 ZIN A   1      18.673   0.893  19.560  0.00  0.00     0.165 HD
ENDROOT
BRANCH   1  11
ATOM     11  C6  ZIN A   1      19.412   4.091  16.388  0.00  0.00     0.068 C 
BRANCH  11  12
ATOM     12  C5  ZIN A   1      18.091   4.858  16.305  0.00  0.00     0.238 C 
BRANCH  12  13
ATOM     13  N2  ZIN A   1      17.385   4.487  15.072  0.00  0.00    -0.079 N 
ATOM     14  C1  ZIN A   1      16.377   5.508  14.759  0.00  0.00     0.269 C 
ATOM     15  H3  ZIN A   1      16.932   3.594  15.199  0.00  0.00     0.278 HD
ATOM     16  C4  ZIN A   1      18.348   4.393  13.965  0.00  0.00     0.269 C 
ENDBRANCH  12  13
ENDBRANCH  11  12
ENDBRANCH   1  11
BRANCH   7  17
ATOM     17  C14 ZIN A   1      19.305  -0.841  13.477  0.00  0.00     0.190 C 
BRANCH  17  18
ATOM     18  N15 ZIN A   1      18.392  -0.094  12.607  0.00  0.00    -0.258 N 
ATOM     19  N19 ZIN A   1      18.719   0.993  11.780  0.00  0.00    -0.164 NA
ATOM     20  C18 ZIN A   1      17.617   1.356  11.180  0.00  0.00     0.256 A 
ATOM     21  N17 ZIN A   1      16.623   0.568  11.586  0.00  0.00    -0.234 NA
ATOM     22  C16 ZIN A   1      17.076  -0.309  12.445  0.00  0.00     0.230 A 
ENDBRANCH  17  18
ENDBRANCH   7  17
TORSDOF 5
ENDMDL
MODEL 8
REMARK VINA RESULT:      -6.3      4.779      7.783
REMARK  5 active torsions:
REMARK  status: ('A' for Active; 'I' for Inactive)
REMARK    1  A    between atoms: N2_2  and  C5_5 
REMARK    2  A    between atoms: C5_5  and  C6_6 
REMARK    3  A    between atoms: C6_6  and  C7_7 
REMARK    4  A    between atoms: C13_13  and  C14_14 
REMARK    5  A    between atoms: C14_14  and  N15_15 
ROOT
ATOM      1  C7  ZIN A   1      18.943   2.078  17.389  0.00  0.00    -0.029 A 
ATOM      2  C8  ZIN A   1      19.311   1.441  18.513  0.00  0.00     0.096 A 
ATOM      3  N9  ZIN A   1      19.266   0.087  18.318  0.00  0.00    -0.365 N 
ATOM      4  C10 ZIN A   1      18.858  -0.187  17.031  0.00  0.00     0.043 A 
ATOM      5  C11 ZIN A   1      18.647  -1.365  16.324  0.00  0.00     0.031 A 
ATOM      6  C12 ZIN A   1      18.227  -1.311  15.013  0.00  0.00     0.011 A 
ATOM      7  C13 ZIN A   1      18.012  -0.091  14.388  0.00  0.00    -0.037 A 
ATOM      8  C20 ZIN A   1      18.214   1.079  15.064  0.00  0.00     0.023 A 
ATOM      9  C21 ZIN A   1      18.632   1.048  16.395  0.00  0.00    -0.001 A 
ATOM     10  H33 ZIN A   1      19.488  -0.579  18.985  0.00  0.00     0.165 HD
ENDROOT
BRANCH   1  11
ATOM     11  C6  ZIN A   1      18.861   3.570  17.190  0.00  0.00     0.068 C 
BRANCH  11  12
ATOM     12  C5  ZIN A   1      20.027   4.032  16.315  0.00  0.00     0.238 C 
BRANCH  12  13
ATOM     13  N2  ZIN A   1      20.231   5.476  16.492  0.00  0.00    -0.079 N 
ATOM     14  C1  ZIN A   1      21.106   5.981  15.426  0.00  0.00     0.269 C 
ATOM     15  H3  ZIN A   1      20.661   5.646  17.389  0.00  0.00     0.278 HD
ATOM     16  C4  ZIN A   1      18.936   6.166  16.431  0.00  0.00     0.269 C 
ENDBRANCH  12  13
ENDBRANCH  11  12
ENDBRANCH   1  11
BRANCH   7  17
ATOM     17  C14 ZIN A   1      17.553  -0.057  12.953  0.00  0.00     0.190 C 
BRANCH  17  18
ATOM     18  N15 ZIN A   1      18.616  -0.578  12.088  0.00  0.00    -0.258 N 
ATOM     19  N19 ZIN A   1      18.624  -1.811  11.415  0.00  0.00    -0.164 NA
ATOM     20  C18 ZIN A   1      19.752  -1.875  10.759  0.00  0.00     0.256 A 
ATOM     21  N17 ZIN A   1      20.450  -0.764  10.988  0.00  0.00    -0.234 NA
ATOM     22  C16 ZIN A   1      19.778   0.025  11.786  0.00  0.00     0.230 A 
ENDBRANCH  17  18
ENDBRANCH   7  17
TORSDOF 5
ENDMDL
MODEL 9
REMARK VINA RESULT:      -6.2      3.561      5.023
REMARK  5 active torsions:
REMARK  status: ('A' for Active; 'I' for Inactive)
REMARK    1  A    between atoms: N2_2  and  C5_5 
REMARK    2  A    between atoms: C5_5  and  C6_6 
REMARK    3  A    between atoms: C6_6  and  C7_7 
REMARK    4  A    between atoms: C13_13  and  C14_14 
REMARK    5  A    between atoms: C14_14  and  N15_15 
ROOT
ATOM      1  C7  ZIN A   1      18.150   3.256  13.944  0.00  0.00    -0.029 A 
ATOM      2  C8  ZIN A   1      17.501   4.293  14.496  0.00  0.00     0.096 A 
ATOM      3  N9  ZIN A   1      17.067   5.147  13.519  0.00  0.00    -0.365 N 
ATOM      4  C10 ZIN A   1      17.437   4.668  12.282  0.00  0.00     0.043 A 
ATOM      5  C11 ZIN A   1      17.255   5.130  10.983  0.00  0.00     0.031 A 
ATOM      6  C12 ZIN A   1      17.755   4.406   9.923  0.00  0.00     0.011 A 
ATOM      7  C13 ZIN A   1      18.439   3.218  10.137  0.00  0.00    -0.037 A 
ATOM      8  C20 ZIN A   1      18.628   2.745  11.405  0.00  0.00     0.023 A 
ATOM      9  C21 ZIN A   1      18.136   3.465  12.494  0.00  0.00    -0.001 A 
ATOM     10  H33 ZIN A   1      16.574   5.967  13.674  0.00  0.00     0.165 HD
ENDROOT
BRANCH   1  11
ATOM     11  C6  ZIN A   1      18.780   2.098  14.676  0.00  0.00     0.068 C 
BRANCH  11  12
ATOM     12  C5  ZIN A   1      17.768   0.957  14.789  0.00  0.00     0.238 C 
BRANCH  12  13
ATOM     13  N2  ZIN A   1      17.598   0.591  16.202  0.00  0.00    -0.079 N 
ATOM     14  C1  ZIN A   1      17.576  -0.872  16.329  0.00  0.00     0.269 C 
ATOM     15  H3  ZIN A   1      16.728   0.972  16.544  0.00  0.00     0.278 HD
ATOM     16  C4  ZIN A   1      18.714   1.135  16.987  0.00  0.00     0.269 C 
ENDBRANCH  12  13
ENDBRANCH  11  12
ENDBRANCH   1  11
BRANCH   7  17
ATOM     17  C14 ZIN A   1      18.977   2.443   8.961  0.00  0.00     0.190 C 
BRANCH  17  18
ATOM     18  N15 ZIN A   1      18.751   1.011   9.176  0.00  0.00    -0.258 N 
ATOM     19  N19 ZIN A   1      17.510   0.358   9.256  0.00  0.00    -0.164 NA
ATOM     20  C18 ZIN A   1      17.762  -0.909   9.451  0.00  0.00     0.256 A 
ATOM     21  N17 ZIN A   1      19.081  -1.085   9.505  0.00  0.00    -0.234 NA
ATOM     22  C16 ZIN A   1      19.688   0.062   9.341  0.00  0.00     0.230 A 
ENDBRANCH  17  18
ENDBRANCH   7  17
TORSDOF 5
ENDMDL
