MODEL 1
REMARK VINA RESULT:      -6.1      0.000      0.000
REMARK  7 active torsions:
REMARK  status: ('A' for Active; 'I' for Inactive)
REMARK    1  A    between atoms: N1_1  and  C2_2 
REMARK    2  A    between atoms: C2_2  and  C4_3 
REMARK    3  A    between atoms: C2_2  and  C7_6 
REMARK    4  A    between atoms: C7_6  and  O9_7 
REMARK    5  A    between atoms: C7_6  and  C10_8 
REMARK    6  A    between atoms: C13_11  and  O14_12 
REMARK    7  A    between atoms: C15_13  and  O16_14 
ROOT
ATOM      1  C10 ZIN A   1      18.803   0.371   8.543  0.00  0.00    -0.024 A 
ATOM      2  C11 ZIN A   1      18.352   1.492   9.214  0.00  0.00     0.013 A 
ATOM      3  C12 ZIN A   1      18.948   1.879  10.400  0.00  0.00     0.040 A 
ATOM      4  C13 ZIN A   1      20.000   1.143  10.919  0.00  0.00     0.098 A 
ATOM      5  C15 ZIN A   1      20.455   0.013  10.243  0.00  0.00     0.099 A 
ATOM      6  C17 ZIN A   1      19.851  -0.371   9.057  0.00  0.00     0.049 A 
ENDROOT
BRANCH   1   7
ATOM      7  C7  ZIN A   1      18.151  -0.046   7.250  0.00  0.00     0.195 C 
BRANCH   7   8
ATOM      8  C2  ZIN A   1      18.950  -1.189   6.621  0.00  0.00     0.350 C 
BRANCH   8   9
ATOM      9  N1  ZIN A   1      18.108  -2.390   6.543  0.00  0.00     0.096 N 
ATOM     10  H18 ZIN A   1      17.157  -2.182   6.810  0.00  0.00     0.314 HD
ATOM     11  H19 ZIN A   1      18.144  -2.797   5.621  0.00  0.00     0.314 HD
ENDBRANCH   8   9
BRANCH   8  12
ATOM     12  C4  ZIN A   1      19.389  -0.792   5.235  0.00  0.00     0.210 C 
ATOM     13  O5  ZIN A   1      19.762  -1.644   4.446  0.00  0.00    -0.646 OA
ATOM     14  O6  ZIN A   1      19.369   0.381   4.902  0.00  0.00    -0.646 OA
ENDBRANCH   8  12
ENDBRANCH   7   8
BRANCH   7  15
ATOM     15  O9  ZIN A   1      16.816  -0.485   7.509  0.00  0.00    -0.388 OA
ATOM     16  H20 ZIN A   1      16.537  -0.375   8.428  0.00  0.00     0.210 HD
ENDBRANCH   7  15
ENDBRANCH   1   7
BRANCH   5  17
ATOM     17  O16 ZIN A   1      21.488  -0.713  10.749  0.00  0.00    -0.358 OA
ATOM     18  H24 ZIN A   1      22.255  -0.765  10.164  0.00  0.00     0.217 HD
ENDBRANCH   5  17
BRANCH   4  19
ATOM     19  O14 ZIN A   1      20.587   1.522  12.085  0.00  0.00    -0.358 OA
ATOM     20  H23 ZIN A   1      20.377   2.425  12.356  0.00  0.00     0.217 HD
ENDBRANCH   4  19
TORSDOF 7
ENDMDL
MODEL 2
REMARK VINA RESULT:      -5.9      2.574      5.754
REMARK  7 active torsions:
REMARK  status: ('A' for Active; 'I' for Inactive)
REMARK    1  A    between atoms: N1_1  and  C2_2 
REMARK    2  A    between atoms: C2_2  and  C4_3 
REMARK    3  A    between atoms: C2_2  and  C7_6 
REMARK    4  A    between atoms: C7_6  and  O9_7 
REMARK    5  A    between atoms: C7_6  and  C10_8 
REMARK    6  A    between atoms: C13_11  and  O14_12 
REMARK    7  A    between atoms: C15_13  and  O16_14 
ROOT
ATOM      1  C10 ZIN A   1      19.398   1.023   9.875  0.00  0.00    -0.024 A 
ATOM      2  C11 ZIN A   1      19.125   1.903   8.844  0.00  0.00     0.013 A 
ATOM      3  C12 ZIN A   1      19.005   1.439   7.548  0.00  0.00     0.040 A 
ATOM      4  C13 ZIN A   1      19.159   0.088   7.278  0.00  0.00     0.098 A 
ATOM      5  C15 ZIN A   1      19.434  -0.798   8.316  0.00  0.00     0.099 A 
ATOM      6  C17 ZIN A   1      19.557  -0.325   9.613  0.00  0.00     0.049 A 
ENDROOT
BRANCH   1   7
ATOM      7  C7  ZIN A   1      19.527   1.535  11.286  0.00  0.00     0.195 C 
BRANCH   7   8
ATOM      8  C2  ZIN A   1      20.184   0.463  12.159  0.00  0.00     0.350 C 
BRANCH   8   9
ATOM      9  N1  ZIN A   1      21.641   0.655  12.156  0.00  0.00     0.096 N 
ATOM     10  H18 ZIN A   1      22.111  -0.146  12.548  0.00  0.00     0.314 HD
ATOM     11  H19 ZIN A   1      21.977   0.853  11.226  0.00  0.00     0.314 HD
ENDBRANCH   8   9
BRANCH   8  12
ATOM     12  C4  ZIN A   1      19.665   0.576  13.569  0.00  0.00     0.210 C 
ATOM     13  O5  ZIN A   1      19.214   1.636  13.970  0.00  0.00    -0.646 OA
ATOM     14  O6  ZIN A   1      19.696  -0.393  14.309  0.00  0.00    -0.646 OA
ENDBRANCH   8  12
ENDBRANCH   7   8
BRANCH   7  15
ATOM     15  O9  ZIN A   1      20.333   2.715  11.294  0.00  0.00    -0.388 OA
ATOM     16  H20 ZIN A   1      20.015   3.412  10.706  0.00  0.00     0.210 HD
ENDBRANCH   7  15
ENDBRANCH   1   7
BRANCH   5  17
ATOM     17  O16 ZIN A   1      19.585  -2.125   8.057  0.00  0.00    -0.358 OA
ATOM     18  H24 ZIN A   1      19.969  -2.314   7.191  0.00  0.00     0.217 HD
ENDBRANCH   5  17
BRANCH   4  19
ATOM     19  O14 ZIN A   1      19.041  -0.370   6.004  0.00  0.00    -0.358 OA
ATOM     20  H23 ZIN A   1      19.877  -0.402   5.519  0.00  0.00     0.217 HD
ENDBRANCH   4  19
TORSDOF 7
ENDMDL
MODEL 3
REMARK VINA RESULT:      -5.9      4.268      6.243
REMARK  7 active torsions:
REMARK  status: ('A' for Active; 'I' for Inactive)
REMARK    1  A    between atoms: N1_1  and  C2_2 
REMARK    2  A    between atoms: C2_2  and  C4_3 
REMARK    3  A    between atoms: C2_2  and  C7_6 
REMARK    4  A    between atoms: C7_6  and  O9_7 
REMARK    5  A    between atoms: C7_6  and  C10_8 
REMARK    6  A    between atoms: C13_11  and  O14_12 
REMARK    7  A    between atoms: C15_13  and  O16_14 
ROOT
ATOM      1  C10 ZIN A   1      19.605   0.407  13.603  0.00  0.00    -0.024 A 
ATOM      2  C11 ZIN A   1      19.629  -0.920  13.990  0.00  0.00     0.013 A 
ATOM      3  C12 ZIN A   1      19.149  -1.291  15.233  0.00  0.00     0.040 A 
ATOM      4  C13 ZIN A   1      18.643  -0.331  16.094  0.00  0.00     0.098 A 
ATOM      5  C15 ZIN A   1      18.618   1.006  15.705  0.00  0.00     0.099 A 
ATOM      6  C17 ZIN A   1      19.105   1.371  14.460  0.00  0.00     0.049 A 
ENDROOT
BRANCH   1   7
ATOM      7  C7  ZIN A   1      20.128   0.805  12.248  0.00  0.00     0.195 C 
BRANCH   7   8
ATOM      8  C2  ZIN A   1      19.706   2.244  11.941  0.00  0.00     0.350 C 
BRANCH   8   9
ATOM      9  N1  ZIN A   1      20.888   3.031  11.567  0.00  0.00     0.096 N 
ATOM     10  H18 ZIN A   1      21.717   2.455  11.555  0.00  0.00     0.314 HD
ATOM     11  H19 ZIN A   1      20.752   3.487  10.678  0.00  0.00     0.314 HD
ENDBRANCH   8   9
BRANCH   8  12
ATOM     12  C4  ZIN A   1      18.720   2.246  10.802  0.00  0.00     0.210 C 
ATOM     13  O5  ZIN A   1      19.119   2.291   9.650  0.00  0.00    -0.646 OA
ATOM     14  O6  ZIN A   1      17.523   2.202  11.031  0.00  0.00    -0.646 OA
ENDBRANCH   8  12
ENDBRANCH   7   8
BRANCH   7  15
ATOM     15  O9  ZIN A   1      21.554   0.716  12.242  0.00  0.00    -0.388 OA
ATOM     16  H20 ZIN A   1      22.000   1.568  12.149  0.00  0.00     0.210 HD
ENDBRANCH   7  15
ENDBRANCH   1   7
BRANCH   5  17
ATOM     17  O16 ZIN A   1      18.122   1.951  16.548  0.00  0.00    -0.358 OA
ATOM     18  H24 ZIN A   1      18.006   2.819  16.139  0.00  0.00     0.217 HD
ENDBRANCH   5  17
BRANCH   4  19
ATOM     19  O14 ZIN A   1      18.171  -0.694  17.316  0.00  0.00    -0.358 OA
ATOM     20  H23 ZIN A   1      18.849  -1.038  17.913  0.00  0.00     0.217 HD
ENDBRANCH   4  19
TORSDOF 7
ENDMDL
MODEL 4
REMARK VINA RESULT:      -5.8      2.301      2.532
REMARK  7 active torsions:
REMARK  status: ('A' for Active; 'I' for Inactive)
REMARK    1  A    between atoms: N1_1  and  C2_2 
REMARK    2  A    between atoms: C2_2  and  C4_3 
REMARK    3  A    between atoms: C2_2  and  C7_6 
REMARK    4  A    between atoms: C7_6  and  O9_7 
REMARK    5  A    between atoms: C7_6  and  C10_8 
REMARK    6  A    between atoms: C13_11  and  O14_12 
REMARK    7  A    between atoms: C15_13  and  O16_14 
ROOT
ATOM      1  C10 ZIN A   1      18.647   0.806   8.226  0.00  0.00    -0.024 A 
ATOM      2  C11 ZIN A   1      19.059   2.075   8.585  0.00  0.00     0.013 A 
ATOM      3  C12 ZIN A   1      18.576   2.663   9.740  0.00  0.00     0.040 A 
ATOM      4  C13 ZIN A   1      17.674   1.979  10.540  0.00  0.00     0.098 A 
ATOM      5  C15 ZIN A   1      17.259   0.700  10.178  0.00  0.00     0.099 A 
ATOM      6  C17 ZIN A   1      17.745   0.119   9.017  0.00  0.00     0.049 A 
ENDROOT
BRANCH   1   7
ATOM      7  C7  ZIN A   1      19.179   0.171   6.967  0.00  0.00     0.195 C 
BRANCH   7   8
ATOM      8  C2  ZIN A   1      18.332  -1.055   6.618  0.00  0.00     0.350 C 
BRANCH   8   9
ATOM      9  N1  ZIN A   1      17.129  -0.627   5.890  0.00  0.00     0.096 N 
ATOM     10  H18 ZIN A   1      16.293  -0.950   6.353  0.00  0.00     0.314 HD
ATOM     11  H19 ZIN A   1      17.115   0.374   5.773  0.00  0.00     0.314 HD
ENDBRANCH   8   9
BRANCH   8  12
ATOM     12  C4  ZIN A   1      19.135  -1.992   5.755  0.00  0.00     0.210 C 
ATOM     13  O5  ZIN A   1      19.700  -1.571   4.759  0.00  0.00    -0.646 OA
ATOM     14  O6  ZIN A   1      19.223  -3.171   6.052  0.00  0.00    -0.646 OA
ENDBRANCH   8  12
ENDBRANCH   7   8
BRANCH   7  15
ATOM     15  O9  ZIN A   1      19.118   1.113   5.895  0.00  0.00    -0.388 OA
ATOM     16  H20 ZIN A   1      18.356   1.707   5.936  0.00  0.00     0.210 HD
ENDBRANCH   7  15
ENDBRANCH   1   7
BRANCH   5  17
ATOM     17  O16 ZIN A   1      16.374   0.024  10.960  0.00  0.00    -0.358 OA
ATOM     18  H24 ZIN A   1      16.107  -0.831  10.601  0.00  0.00     0.217 HD
ENDBRANCH   5  17
BRANCH   4  19
ATOM     19  O14 ZIN A   1      17.197   2.555  11.674  0.00  0.00    -0.358 OA
ATOM     20  H23 ZIN A   1      16.624   1.979  12.197  0.00  0.00     0.217 HD
ENDBRANCH   4  19
TORSDOF 7
ENDMDL
MODEL 5
REMARK VINA RESULT:      -5.8      2.577      5.201
REMARK  7 active torsions:
REMARK  status: ('A' for Active; 'I' for Inactive)
REMARK    1  A    between atoms: N1_1  and  C2_2 
REMARK    2  A    between atoms: C2_2  and  C4_3 
REMARK    3  A    between atoms: C2_2  and  C7_6 
REMARK    4  A    between atoms: C7_6  and  O9_7 
REMARK    5  A    between atoms: C7_6  and  C10_8 
REMARK    6  A    between atoms: C13_11  and  O14_12 
REMARK    7  A    between atoms: C15_13  and  O16_14 
ROOT
ATOM      1  C10 ZIN A   1      18.229  -0.178   7.705  0.00  0.00    -0.024 A 
ATOM      2  C11 ZIN A   1      18.104   0.581   6.557  0.00  0.00     0.013 A 
ATOM      3  C12 ZIN A   1      18.590   0.106   5.353  0.00  0.00     0.040 A 
ATOM      4  C13 ZIN A   1      19.205  -1.134   5.295  0.00  0.00     0.098 A 
ATOM      5  C15 ZIN A   1      19.332  -1.899   6.451  0.00  0.00     0.099 A 
ATOM      6  C17 ZIN A   1      18.846  -1.415   7.656  0.00  0.00     0.049 A 
ENDROOT
BRANCH   1   7
ATOM      7  C7  ZIN A   1      17.696   0.344   9.014  0.00  0.00     0.195 C 
BRANCH   7   8
ATOM      8  C2  ZIN A   1      18.201  -0.538  10.158  0.00  0.00     0.350 C 
BRANCH   8   9
ATOM      9  N1  ZIN A   1      19.352   0.109  10.803  0.00  0.00     0.096 N 
ATOM     10  H18 ZIN A   1      20.009  -0.578  11.143  0.00  0.00     0.314 HD
ATOM     11  H19 ZIN A   1      19.800   0.758  10.175  0.00  0.00     0.314 HD
ENDBRANCH   8   9
BRANCH   8  12
ATOM     12  C4  ZIN A   1      17.101  -0.730  11.169  0.00  0.00     0.210 C 
ATOM     13  O5  ZIN A   1      17.062  -1.745  11.844  0.00  0.00    -0.646 OA
ATOM     14  O6  ZIN A   1      16.249   0.131  11.314  0.00  0.00    -0.646 OA
ENDBRANCH   8  12
ENDBRANCH   7   8
BRANCH   7  15
ATOM     15  O9  ZIN A   1      18.147   1.685   9.212  0.00  0.00    -0.388 OA
ATOM     16  H20 ZIN A   1      19.037   1.854   8.876  0.00  0.00     0.210 HD
ENDBRANCH   7  15
ENDBRANCH   1   7
BRANCH   5  17
ATOM     17  O16 ZIN A   1      19.935  -3.117   6.399  0.00  0.00    -0.358 OA
ATOM     18  H24 ZIN A   1      20.474  -3.321   7.174  0.00  0.00     0.217 HD
ENDBRANCH   5  17
BRANCH   4  19
ATOM     19  O14 ZIN A   1      19.684  -1.602   4.112  0.00  0.00    -0.358 OA
ATOM     20  H23 ZIN A   1      20.233  -0.968   3.631  0.00  0.00     0.217 HD
ENDBRANCH   4  19
TORSDOF 7
ENDMDL
MODEL 6
REMARK VINA RESULT:      -5.8      2.484      5.358
REMARK  7 active torsions:
REMARK  status: ('A' for Active; 'I' for Inactive)
REMARK    1  A    between atoms: N1_1  and  C2_2 
REMARK    2  A    between atoms: C2_2  and  C4_3 
REMARK    3  A    between atoms: C2_2  and  C7_6 
REMARK    4  A    between atoms: C7_6  and  O9_7 
REMARK    5  A    between atoms: C7_6  and  C10_8 
REMARK    6  A    between atoms: C13_11  and  O14_12 
REMARK    7  A    between atoms: C15_13  and  O16_14 
ROOT
ATOM      1  C10 ZIN A   1      19.578  -0.238   9.428  0.00  0.00    -0.024 A 
ATOM      2  C11 ZIN A   1      19.598   1.060   8.953  0.00  0.00     0.013 A 
ATOM      3  C12 ZIN A   1      19.072   1.354   7.709  0.00  0.00     0.040 A 
ATOM      4  C13 ZIN A   1      18.521   0.346   6.934  0.00  0.00     0.098 A 
ATOM      5  C15 ZIN A   1      18.500  -0.962   7.412  0.00  0.00     0.099 A 
ATOM      6  C17 ZIN A   1      19.033  -1.250   8.659  0.00  0.00     0.049 A 
ENDROOT
BRANCH   1   7
ATOM      7  C7  ZIN A   1      20.152  -0.551  10.785  0.00  0.00     0.195 C 
BRANCH   7   8
ATOM      8  C2  ZIN A   1      19.612  -1.899  11.268  0.00  0.00     0.350 C 
BRANCH   8   9
ATOM      9  N1  ZIN A   1      20.732  -2.827  11.480  0.00  0.00     0.096 N 
ATOM     10  H18 ZIN A   1      21.557  -2.516  10.989  0.00  0.00     0.314 HD
ATOM     11  H19 ZIN A   1      20.920  -2.946  12.463  0.00  0.00     0.314 HD
ENDBRANCH   8   9
BRANCH   8  12
ATOM     12  C4  ZIN A   1      18.866  -1.708  12.562  0.00  0.00     0.210 C 
ATOM     13  O5  ZIN A   1      19.459  -1.785  13.625  0.00  0.00    -0.646 OA
ATOM     14  O6  ZIN A   1      17.669  -1.474  12.548  0.00  0.00    -0.646 OA
ENDBRANCH   8  12
ENDBRANCH   7   8
BRANCH   7  15
ATOM     15  O9  ZIN A   1      21.577  -0.613  10.698  0.00  0.00    -0.388 OA
ATOM     16  H20 ZIN A   1      21.931  -1.512  10.674  0.00  0.00     0.210 HD
ENDBRANCH   7  15
ENDBRANCH   1   7
BRANCH   5  17
ATOM     17  O16 ZIN A   1      17.960  -1.955   6.656  0.00  0.00    -0.358 OA
ATOM     18  H24 ZIN A   1      18.434  -2.122   5.831  0.00  0.00     0.217 HD
ENDBRANCH   5  17
BRANCH   4  19
ATOM     19  O14 ZIN A   1      18.004   0.632   5.711  0.00  0.00    -0.358 OA
ATOM     20  H23 ZIN A   1      17.557  -0.113   5.288  0.00  0.00     0.217 HD
ENDBRANCH   4  19
TORSDOF 7
ENDMDL
MODEL 7
REMARK VINA RESULT:      -5.7      4.106      5.580
REMARK  7 active torsions:
REMARK  status: ('A' for Active; 'I' for Inactive)
REMARK    1  A    between atoms: N1_1  and  C2_2 
REMARK    2  A    between atoms: C2_2  and  C4_3 
REMARK    3  A    between atoms: C2_2  and  C7_6 
REMARK    4  A    between atoms: C7_6  and  O9_7 
REMARK    5  A    between atoms: C7_6  and  C10_8 
REMARK    6  A    between atoms: C13_11  and  O14_12 
REMARK    7  A    between atoms: C15_13  and  O16_14 
ROOT
ATOM      1  C10 ZIN A   1      19.533   1.738  11.554  0.00  0.00    -0.024 A 
ATOM      2  C11 ZIN A   1      19.226   1.698  10.207  0.00  0.00     0.013 A 
ATOM      3  C12 ZIN A   1      18.590   2.769   9.607  0.00  0.00     0.040 A 
ATOM      4  C13 ZIN A   1      18.259   3.887  10.356  0.00  0.00     0.098 A 
ATOM      5  C15 ZIN A   1      18.568   3.928  11.713  0.00  0.00     0.099 A 
ATOM      6  C17 ZIN A   1      19.202   2.849  12.309  0.00  0.00     0.049 A 
ENDROOT
BRANCH   1   7
ATOM      7  C7  ZIN A   1      20.227   0.569  12.203  0.00  0.00     0.195 C 
BRANCH   7   8
ATOM      8  C2  ZIN A   1      19.779  -0.728  11.526  0.00  0.00     0.350 C 
BRANCH   8   9
ATOM      9  N1  ZIN A   1      20.960  -1.498  11.113  0.00  0.00     0.096 N 
ATOM     10  H18 ZIN A   1      21.143  -1.377  10.128  0.00  0.00     0.314 HD
ATOM     11  H19 ZIN A   1      21.766  -1.246  11.664  0.00  0.00     0.314 HD
ENDBRANCH   8   9
BRANCH   8  12
ATOM     12  C4  ZIN A   1      18.962  -1.544  12.494  0.00  0.00     0.210 C 
ATOM     13  O5  ZIN A   1      17.843  -1.917  12.185  0.00  0.00    -0.646 OA
ATOM     14  O6  ZIN A   1      19.421  -1.833  13.587  0.00  0.00    -0.646 OA
ENDBRANCH   8  12
ENDBRANCH   7   8
BRANCH   7  15
ATOM     15  O9  ZIN A   1      21.641   0.715  12.062  0.00  0.00    -0.388 OA
ATOM     16  H20 ZIN A   1      22.053   1.245  12.757  0.00  0.00     0.210 HD
ENDBRANCH   7  15
ENDBRANCH   1   7
BRANCH   5  17
ATOM     17  O16 ZIN A   1      18.245   5.023  12.453  0.00  0.00    -0.358 OA
ATOM     18  H24 ZIN A   1      18.060   5.811  11.926  0.00  0.00     0.217 HD
ENDBRANCH   5  17
BRANCH   4  19
ATOM     19  O14 ZIN A   1      17.634   4.941   9.768  0.00  0.00    -0.358 OA
ATOM     20  H23 ZIN A   1      16.829   5.224  10.222  0.00  0.00     0.217 HD
ENDBRANCH   4  19
TORSDOF 7
ENDMDL
MODEL 8
REMARK VINA RESULT:      -5.6      2.230      5.537
REMARK  7 active torsions:
REMARK  status: ('A' for Active; 'I' for Inactive)
REMARK    1  A    between atoms: N1_1  and  C2_2 
REMARK    2  A    between atoms: C2_2  and  C4_3 
REMARK    3  A    between atoms: C2_2  and  C7_6 
REMARK    4  A    between atoms: C7_6  and  O9_7 
REMARK    5  A    between atoms: C7_6  and  C10_8 
REMARK    6  A    between atoms: C13_11  and  O14_12 
REMARK    7  A    between atoms: C15_13  and  O16_14 
ROOT
ATOM      1  C10 ZIN A   1      19.192  -0.448   7.862  0.00  0.00    -0.024 A 
ATOM      2  C11 ZIN A   1      19.253  -1.821   7.717  0.00  0.00     0.013 A 
ATOM      3  C12 ZIN A   1      19.328  -2.384   6.457  0.00  0.00     0.040 A 
ATOM      4  C13 ZIN A   1      19.342  -1.572   5.335  0.00  0.00     0.098 A 
ATOM      5  C15 ZIN A   1      19.281  -0.188   5.480  0.00  0.00     0.099 A 
ATOM      6  C17 ZIN A   1      19.202   0.370   6.747  0.00  0.00     0.049 A 
ENDROOT
BRANCH   1   7
ATOM      7  C7  ZIN A   1      19.112   0.161   9.238  0.00  0.00     0.195 C 
BRANCH   7   8
ATOM      8  C2  ZIN A   1      19.766  -0.782  10.251  0.00  0.00     0.350 C 
BRANCH   8   9
ATOM      9  N1  ZIN A   1      21.188  -0.440  10.390  0.00  0.00     0.096 N 
ATOM     10  H18 ZIN A   1      21.624  -0.333   9.487  0.00  0.00     0.314 HD
ATOM     11  H19 ZIN A   1      21.306   0.391  10.949  0.00  0.00     0.314 HD
ENDBRANCH   8   9
BRANCH   8  12
ATOM     12  C4  ZIN A   1      19.082  -0.638  11.586  0.00  0.00     0.210 C 
ATOM     13  O5  ZIN A   1      18.628  -1.621  12.148  0.00  0.00    -0.646 OA
ATOM     14  O6  ZIN A   1      18.983   0.461  12.105  0.00  0.00    -0.646 OA
ENDBRANCH   8  12
ENDBRANCH   7   8
BRANCH   7  15
ATOM     15  O9  ZIN A   1      19.795   1.415   9.246  0.00  0.00    -0.388 OA
ATOM     16  H20 ZIN A   1      19.357   2.098   9.772  0.00  0.00     0.210 HD
ENDBRANCH   7  15
ENDBRANCH   1   7
BRANCH   5  17
ATOM     17  O16 ZIN A   1      19.295   0.614   4.382  0.00  0.00    -0.358 OA
ATOM     18  H24 ZIN A   1      18.853   1.463   4.510  0.00  0.00     0.217 HD
ENDBRANCH   5  17
BRANCH   4  19
ATOM     19  O14 ZIN A   1      19.415  -2.123   4.095  0.00  0.00    -0.358 OA
ATOM     20  H23 ZIN A   1      20.144  -2.748   3.985  0.00  0.00     0.217 HD
ENDBRANCH   4  19
TORSDOF 7
ENDMDL
MODEL 9
REMARK VINA RESULT:      -5.5      2.845      5.438
REMARK  7 active torsions:
REMARK  status: ('A' for Active; 'I' for Inactive)
REMARK    1  A    between atoms: N1_1  and  C2_2 
REMARK    2  A    between atoms: C2_2  and  C4_3 
REMARK    3  A    between atoms: C2_2  and  C7_6 
REMARK    4  A    between atoms: C7_6  and  O9_7 
REMARK    5  A    between atoms: C7_6  and  C10_8 
REMARK    6  A    between atoms: C13_11  and  O14_12 
REMARK    7  A    between atoms: C15_13  and  O16_14 
ROOT
ATOM      1  C10 ZIN A   1      19.142   1.496   8.982  0.00  0.00    -0.024 A 
ATOM      2  C11 ZIN A   1      18.856   1.868   7.682  0.00  0.00     0.013 A 
ATOM      3  C12 ZIN A   1      18.851   0.922   6.673  0.00  0.00     0.040 A 
ATOM      4  C13 ZIN A   1      19.134  -0.403   6.964  0.00  0.00     0.098 A 
ATOM      5  C15 ZIN A   1      19.422  -0.777   8.274  0.00  0.00     0.099 A 
ATOM      6  C17 ZIN A   1      19.430   0.177   9.279  0.00  0.00     0.049 A 
ENDROOT
BRANCH   1   7
ATOM      7  C7  ZIN A   1      19.144   2.531  10.076  0.00  0.00     0.195 C 
BRANCH   7   8
ATOM      8  C2  ZIN A   1      17.739   2.646  10.672  0.00  0.00     0.350 C 
BRANCH   8   9
ATOM      9  N1  ZIN A   1      17.634   1.774  11.849  0.00  0.00     0.096 N 
ATOM     10  H18 ZIN A   1      17.407   0.829  11.579  0.00  0.00     0.314 HD
ATOM     11  H19 ZIN A   1      18.481   1.800  12.395  0.00  0.00     0.314 HD
ENDBRANCH   8   9
BRANCH   8  12
ATOM     12  C4  ZIN A   1      17.482   4.074  11.080  0.00  0.00     0.210 C 
ATOM     13  O5  ZIN A   1      16.358   4.539  10.995  0.00  0.00    -0.646 OA
ATOM     14  O6  ZIN A   1      18.398   4.764  11.496  0.00  0.00    -0.646 OA
ENDBRANCH   8  12
ENDBRANCH   7   8
BRANCH   7  15
ATOM     15  O9  ZIN A   1      20.064   2.143  11.098  0.00  0.00    -0.388 OA
ATOM     16  H20 ZIN A   1      20.690   1.460  10.825  0.00  0.00     0.210 HD
ENDBRANCH   7  15
ENDBRANCH   1   7
BRANCH   5  17
ATOM     17  O16 ZIN A   1      19.701  -2.077   8.565  0.00  0.00    -0.358 OA
ATOM     18  H24 ZIN A   1      18.962  -2.680   8.414  0.00  0.00     0.217 HD
ENDBRANCH   5  17
BRANCH   4  19
ATOM     19  O14 ZIN A   1      19.131  -1.334   5.974  0.00  0.00    -0.358 OA
ATOM     20  H23 ZIN A   1      18.289  -1.407   5.506  0.00  0.00     0.217 HD
ENDBRANCH   4  19
TORSDOF 7
ENDMDL
