MODEL 1
REMARK VINA RESULT:      -8.0      0.000      0.000
REMARK  11 active torsions:
REMARK  status: ('A' for Active; 'I' for Inactive)
REMARK    1  A    between atoms: O2_2  and  C3_3 
REMARK    2  A    between atoms: C8_8  and  O9_9 
REMARK    3  A    between atoms: O9_9  and  C10_10 
REMARK    4  A    between atoms: C10_10  and  C11_11 
REMARK    5  A    between atoms: C11_11  and  N12_12 
REMARK    6  A    between atoms: N12_12  and  C15_15 
REMARK    7  A    between atoms: C15_15  and  C16_16 
REMARK    8  A    between atoms: C16_16  and  O18_17 
REMARK    9  A    between atoms: C16_16  and  C19_18 
REMARK   10  A    between atoms: C19_18  and  O20_19 
REMARK   11  A    between atoms: O20_19  and  C21_20 
ROOT
ATOM      1  C16 ZIN A   1      19.834  -3.258  11.826  0.00  0.00     0.168 C 
ENDROOT
BRANCH   1   2
ATOM      2  C15 ZIN A   1      19.539  -4.604  11.161  0.00  0.00     0.266 C 
BRANCH   2   3
ATOM      3  N12 ZIN A   1      19.897  -4.538   9.738  0.00  0.00    -0.071 N 
ATOM      4  H13 ZIN A   1      20.551  -5.275   9.522  0.00  0.00     0.277 HD
ATOM      5  H14 ZIN A   1      20.320  -3.644   9.540  0.00  0.00     0.277 HD
BRANCH   3   6
ATOM      6  C11 ZIN A   1      18.688  -4.700   8.921  0.00  0.00     0.259 C 
BRANCH   6   7
ATOM      7  C10 ZIN A   1      18.268  -3.341   8.356  0.00  0.00     0.203 C 
BRANCH   7   8
ATOM      8  O9  ZIN A   1      19.433  -2.588   8.014  0.00  0.00    -0.347 OA
BRANCH   8   9
ATOM      9  C8  ZIN A   1      19.238  -1.421   7.343  0.00  0.00     0.102 A 
ATOM     10  C3  ZIN A   1      19.369  -1.383   5.958  0.00  0.00     0.101 A 
ATOM     11  C4  ZIN A   1      19.169  -0.191   5.279  0.00  0.00     0.039 A 
ATOM     12  C5  ZIN A   1      18.847   0.957   5.978  0.00  0.00     0.003 A 
ATOM     13  C6  ZIN A   1      18.722   0.920   7.354  0.00  0.00     0.003 A 
ATOM     14  C7  ZIN A   1      18.920  -0.265   8.038  0.00  0.00     0.039 A 
BRANCH  10  15
ATOM     15  O2  ZIN A   1      19.686  -2.513   5.271  0.00  0.00    -0.353 OA
ATOM     16  C1  ZIN A   1      18.623  -3.172   4.579  0.00  0.00     0.210 C 
ENDBRANCH  10  15
ENDBRANCH   8   9
ENDBRANCH   7   8
ENDBRANCH   6   7
ENDBRANCH   3   6
ENDBRANCH   2   3
ENDBRANCH   1   2
BRANCH   1  17
ATOM     17  O18 ZIN A   1      20.597  -2.444  10.933  0.00  0.00    -0.392 OA
ATOM     18  H47 ZIN A   1      21.530  -2.364  11.172  0.00  0.00     0.210 HD
ENDBRANCH   1  17
BRANCH   1  19
ATOM     19  C19 ZIN A   1      18.518  -2.554  12.159  0.00  0.00     0.209 C 
BRANCH  19  20
ATOM     20  O20 ZIN A   1      18.734  -1.143  12.215  0.00  0.00    -0.348 OA
BRANCH  20  21
ATOM     21  C21 ZIN A   1      18.500  -0.529  13.404  0.00  0.00     0.082 A 
ATOM     22  C26 ZIN A   1      18.209   0.837  13.444  0.00  0.00     0.036 A 
ATOM     23  C25 ZIN A   1      17.961   1.465  14.673  0.00  0.00     0.046 A 
ATOM     24  C27 ZIN A   1      18.073   1.876  12.408  0.00  0.00     0.006 A 
ATOM     25  C24 ZIN A   1      18.020   0.717  15.847  0.00  0.00     0.030 A 
ATOM     26  N33 ZIN A   1      17.694   2.801  14.435  0.00  0.00    -0.355 N 
ATOM     27  C23 ZIN A   1      18.315  -0.629  15.796  0.00  0.00     0.005 A 
ATOM     28  C22 ZIN A   1      18.554  -1.253  14.582  0.00  0.00     0.038 A 
ATOM     29  C28 ZIN A   1      17.753   3.066  13.078  0.00  0.00     0.043 A 
ATOM     30  H57 ZIN A   1      17.490   3.456  15.120  0.00  0.00     0.166 HD
ATOM     31  C29 ZIN A   1      17.562   4.233  12.343  0.00  0.00     0.030 A 
ATOM     32  C30 ZIN A   1      17.690   4.211  10.970  0.00  0.00     0.002 A 
ATOM     33  C31 ZIN A   1      18.006   3.034  10.310  0.00  0.00     0.001 A 
ATOM     34  C32 ZIN A   1      18.199   1.869  11.021  0.00  0.00     0.014 A 
ENDBRANCH  20  21
ENDBRANCH  19  20
ENDBRANCH   1  19
TORSDOF 11
ENDMDL
MODEL 2
REMARK VINA RESULT:      -8.0      2.273      7.413
REMARK  11 active torsions:
REMARK  status: ('A' for Active; 'I' for Inactive)
REMARK    1  A    between atoms: O2_2  and  C3_3 
REMARK    2  A    between atoms: C8_8  and  O9_9 
REMARK    3  A    between atoms: O9_9  and  C10_10 
REMARK    4  A    between atoms: C10_10  and  C11_11 
REMARK    5  A    between atoms: C11_11  and  N12_12 
REMARK    6  A    between atoms: N12_12  and  C15_15 
REMARK    7  A    between atoms: C15_15  and  C16_16 
REMARK    8  A    between atoms: C16_16  and  O18_17 
REMARK    9  A    between atoms: C16_16  and  C19_18 
REMARK   10  A    between atoms: C19_18  and  O20_19 
REMARK   11  A    between atoms: O20_19  and  C21_20 
ROOT
ATOM      1  C16 ZIN A   1      18.739   3.418  10.731  0.00  0.00     0.168 C 
ENDROOT
BRANCH   1   2
ATOM      2  C15 ZIN A   1      18.768   4.455  11.856  0.00  0.00     0.266 C 
BRANCH   2   3
ATOM      3  N12 ZIN A   1      19.515   3.916  13.000  0.00  0.00    -0.071 N 
ATOM      4  H13 ZIN A   1      20.486   4.175  12.919  0.00  0.00     0.277 HD
ATOM      5  H14 ZIN A   1      19.434   2.910  13.010  0.00  0.00     0.277 HD
BRANCH   3   6
ATOM      6  C11 ZIN A   1      18.963   4.464  14.246  0.00  0.00     0.259 C 
BRANCH   6   7
ATOM      7  C10 ZIN A   1      18.579   3.315  15.182  0.00  0.00     0.203 C 
BRANCH   7   8
ATOM      8  O9  ZIN A   1      17.945   2.280  14.430  0.00  0.00    -0.347 OA
BRANCH   8   9
ATOM      9  C8  ZIN A   1      18.241   0.998  14.774  0.00  0.00     0.102 A 
ATOM     10  C3  ZIN A   1      19.290   0.332  14.147  0.00  0.00     0.101 A 
ATOM     11  C4  ZIN A   1      19.587  -0.974  14.501  0.00  0.00     0.039 A 
ATOM     12  C5  ZIN A   1      18.838  -1.615  15.470  0.00  0.00     0.003 A 
ATOM     13  C6  ZIN A   1      17.792  -0.956  16.089  0.00  0.00     0.003 A 
ATOM     14  C7  ZIN A   1      17.490   0.348  15.740  0.00  0.00     0.039 A 
BRANCH  10  15
ATOM     15  O2  ZIN A   1      20.026   0.963  13.193  0.00  0.00    -0.353 OA
ATOM     16  C1  ZIN A   1      20.719   0.138  12.255  0.00  0.00     0.210 C 
ENDBRANCH  10  15
ENDBRANCH   8   9
ENDBRANCH   7   8
ENDBRANCH   6   7
ENDBRANCH   3   6
ENDBRANCH   2   3
ENDBRANCH   1   2
BRANCH   1  17
ATOM     17  O18 ZIN A   1      20.004   2.758  10.659  0.00  0.00    -0.392 OA
ATOM     18  H47 ZIN A   1      20.099   2.171   9.896  0.00  0.00     0.210 HD
ENDBRANCH   1  17
BRANCH   1  19
ATOM     19  C19 ZIN A   1      17.643   2.389  11.015  0.00  0.00     0.209 C 
BRANCH  19  20
ATOM     20  O20 ZIN A   1      17.495   1.527   9.885  0.00  0.00    -0.348 OA
BRANCH  20  21
ATOM     21  C21 ZIN A   1      17.592   0.191  10.110  0.00  0.00     0.082 A 
ATOM     22  C26 ZIN A   1      18.032  -0.662   9.096  0.00  0.00     0.036 A 
ATOM     23  C25 ZIN A   1      18.138  -2.039   9.335  0.00  0.00     0.046 A 
ATOM     24  C27 ZIN A   1      18.466  -0.445   7.704  0.00  0.00     0.006 A 
ATOM     25  C24 ZIN A   1      17.789  -2.545  10.585  0.00  0.00     0.030 A 
ATOM     26  N33 ZIN A   1      18.598  -2.650   8.182  0.00  0.00    -0.355 N 
ATOM     27  C23 ZIN A   1      17.350  -1.694  11.577  0.00  0.00     0.005 A 
ATOM     28  C22 ZIN A   1      17.251  -0.332  11.345  0.00  0.00     0.038 A 
ATOM     29  C28 ZIN A   1      18.806  -1.705   7.191  0.00  0.00     0.043 A 
ATOM     30  H57 ZIN A   1      18.758  -3.601   8.084  0.00  0.00     0.166 HD
ATOM     31  C29 ZIN A   1      19.257  -1.809   5.879  0.00  0.00     0.030 A 
ATOM     32  C30 ZIN A   1      19.365  -0.680   5.096  0.00  0.00     0.002 A 
ATOM     33  C31 ZIN A   1      19.029   0.565   5.604  0.00  0.00     0.001 A 
ATOM     34  C32 ZIN A   1      18.580   0.688   6.901  0.00  0.00     0.014 A 
ENDBRANCH  20  21
ENDBRANCH  19  20
ENDBRANCH   1  19
TORSDOF 11
ENDMDL
MODEL 3
REMARK VINA RESULT:      -7.8      1.277      3.635
REMARK  11 active torsions:
REMARK  status: ('A' for Active; 'I' for Inactive)
REMARK    1  A    between atoms: O2_2  and  C3_3 
REMARK    2  A    between atoms: C8_8  and  O9_9 
REMARK    3  A    between atoms: O9_9  and  C10_10 
REMARK    4  A    between atoms: C10_10  and  C11_11 
REMARK    5  A    between atoms: C11_11  and  N12_12 
REMARK    6  A    between atoms: N12_12  and  C15_15 
REMARK    7  A    between atoms: C15_15  and  C16_16 
REMARK    8  A    between atoms: C16_16  and  O18_17 
REMARK    9  A    between atoms: C16_16  and  C19_18 
REMARK   10  A    between atoms: C19_18  and  O20_19 
REMARK   11  A    between atoms: O20_19  and  C21_20 
ROOT
ATOM      1  C16 ZIN A   1      19.581  -1.562  11.521  0.00  0.00     0.168 C 
ENDROOT
BRANCH   1   2
ATOM      2  C15 ZIN A   1      19.535  -3.091  11.492  0.00  0.00     0.266 C 
BRANCH   2   3
ATOM      3  N12 ZIN A   1      19.947  -3.570  10.166  0.00  0.00    -0.071 N 
ATOM      4  H13 ZIN A   1      20.696  -4.238  10.268  0.00  0.00     0.277 HD
ATOM      5  H14 ZIN A   1      20.266  -2.788   9.611  0.00  0.00     0.277 HD
BRANCH   3   6
ATOM      6  C11 ZIN A   1      18.806  -4.210   9.499  0.00  0.00     0.259 C 
BRANCH   6   7
ATOM      7  C10 ZIN A   1      18.408  -3.390   8.269  0.00  0.00     0.203 C 
BRANCH   7   8
ATOM      8  O9  ZIN A   1      19.292  -2.276   8.134  0.00  0.00    -0.347 OA
BRANCH   8   9
ATOM      9  C8  ZIN A   1      19.173  -1.528   7.004  0.00  0.00     0.102 A 
ATOM     10  C3  ZIN A   1      19.007  -0.149   7.095  0.00  0.00     0.101 A 
ATOM     11  C4  ZIN A   1      18.887   0.608   5.941  0.00  0.00     0.039 A 
ATOM     12  C5  ZIN A   1      18.926  -0.007   4.703  0.00  0.00     0.003 A 
ATOM     13  C6  ZIN A   1      19.085  -1.377   4.613  0.00  0.00     0.003 A 
ATOM     14  C7  ZIN A   1      19.206  -2.139   5.761  0.00  0.00     0.039 A 
BRANCH  10  15
ATOM     15  O2  ZIN A   1      18.968   0.454   8.313  0.00  0.00    -0.353 OA
ATOM     16  C1  ZIN A   1      19.285   1.847   8.358  0.00  0.00     0.210 C 
ENDBRANCH  10  15
ENDBRANCH   8   9
ENDBRANCH   7   8
ENDBRANCH   6   7
ENDBRANCH   3   6
ENDBRANCH   2   3
ENDBRANCH   1   2
BRANCH   1  17
ATOM     17  O18 ZIN A   1      20.434  -1.092  10.476  0.00  0.00    -0.392 OA
ATOM     18  H47 ZIN A   1      20.667  -1.767   9.824  0.00  0.00     0.210 HD
ENDBRANCH   1  17
BRANCH   1  19
ATOM     19  C19 ZIN A   1      18.170  -1.006  11.318  0.00  0.00     0.209 C 
BRANCH  19  20
ATOM     20  O20 ZIN A   1      17.658  -0.540  12.568  0.00  0.00    -0.348 OA
BRANCH  20  21
ATOM     21  C21 ZIN A   1      17.800   0.783  12.839  0.00  0.00     0.082 A 
ATOM     22  C26 ZIN A   1      18.193   1.201  14.113  0.00  0.00     0.036 A 
ATOM     23  C25 ZIN A   1      18.345   2.568  14.387  0.00  0.00     0.046 A 
ATOM     24  C27 ZIN A   1      18.530   0.485  15.357  0.00  0.00     0.006 A 
ATOM     25  C24 ZIN A   1      18.090   3.498  13.382  0.00  0.00     0.030 A 
ATOM     26  N33 ZIN A   1      18.743   2.708  15.704  0.00  0.00    -0.355 N 
ATOM     27  C23 ZIN A   1      17.697   3.075  12.130  0.00  0.00     0.005 A 
ATOM     28  C22 ZIN A   1      17.552   1.724  11.855  0.00  0.00     0.038 A 
ATOM     29  C28 ZIN A   1      18.864   1.466  16.302  0.00  0.00     0.043 A 
ATOM     30  H57 ZIN A   1      18.917   3.556  16.143  0.00  0.00     0.166 HD
ATOM     31  C29 ZIN A   1      19.231   1.078  17.588  0.00  0.00     0.030 A 
ATOM     32  C30 ZIN A   1      19.262  -0.259  17.921  0.00  0.00     0.002 A 
ATOM     33  C31 ZIN A   1      18.932  -1.227  16.986  0.00  0.00     0.001 A 
ATOM     34  C32 ZIN A   1      18.566  -0.862  15.708  0.00  0.00     0.014 A 
ENDBRANCH  20  21
ENDBRANCH  19  20
ENDBRANCH   1  19
TORSDOF 11
ENDMDL
MODEL 4
REMARK VINA RESULT:      -7.7      2.221      8.153
REMARK  11 active torsions:
REMARK  status: ('A' for Active; 'I' for Inactive)
REMARK    1  A    between atoms: O2_2  and  C3_3 
REMARK    2  A    between atoms: C8_8  and  O9_9 
REMARK    3  A    between atoms: O9_9  and  C10_10 
REMARK    4  A    between atoms: C10_10  and  C11_11 
REMARK    5  A    between atoms: C11_11  and  N12_12 
REMARK    6  A    between atoms: N12_12  and  C15_15 
REMARK    7  A    between atoms: C15_15  and  C16_16 
REMARK    8  A    between atoms: C16_16  and  O18_17 
REMARK    9  A    between atoms: C16_16  and  C19_18 
REMARK   10  A    between atoms: C19_18  and  O20_19 
REMARK   11  A    between atoms: O20_19  and  C21_20 
ROOT
ATOM      1  C16 ZIN A   1      20.341  -0.277  10.740  0.00  0.00     0.168 C 
ENDROOT
BRANCH   1   2
ATOM      2  C15 ZIN A   1      19.420   0.920  10.982  0.00  0.00     0.266 C 
BRANCH   2   3
ATOM      3  N12 ZIN A   1      20.229   2.125  11.206  0.00  0.00    -0.071 N 
ATOM      4  H13 ZIN A   1      20.327   2.630  10.338  0.00  0.00     0.277 HD
ATOM      5  H14 ZIN A   1      21.142   1.858  11.545  0.00  0.00     0.277 HD
BRANCH   3   6
ATOM      6  C11 ZIN A   1      19.569   2.981  12.201  0.00  0.00     0.259 C 
BRANCH   6   7
ATOM      7  C10 ZIN A   1      18.591   2.142  13.027  0.00  0.00     0.203 C 
BRANCH   7   8
ATOM      8  O9  ZIN A   1      18.962   2.199  14.405  0.00  0.00    -0.347 OA
BRANCH   8   9
ATOM      9  C8  ZIN A   1      18.843   1.051  15.124  0.00  0.00     0.102 A 
ATOM     10  C3  ZIN A   1      19.109   1.053  16.490  0.00  0.00     0.101 A 
ATOM     11  C4  ZIN A   1      18.986  -0.119  17.218  0.00  0.00     0.039 A 
ATOM     12  C5  ZIN A   1      18.606  -1.289  16.586  0.00  0.00     0.003 A 
ATOM     13  C6  ZIN A   1      18.348  -1.292  15.229  0.00  0.00     0.003 A 
ATOM     14  C7  ZIN A   1      18.468  -0.126  14.496  0.00  0.00     0.039 A 
BRANCH  10  15
ATOM     15  O2  ZIN A   1      19.483   2.204  17.110  0.00  0.00    -0.353 OA
ATOM     16  C1  ZIN A   1      19.135   2.341  18.490  0.00  0.00     0.210 C 
ENDBRANCH  10  15
ENDBRANCH   8   9
ENDBRANCH   7   8
ENDBRANCH   6   7
ENDBRANCH   3   6
ENDBRANCH   2   3
ENDBRANCH   1   2
BRANCH   1  17
ATOM     17  O18 ZIN A   1      21.559  -0.094  11.465  0.00  0.00    -0.392 OA
ATOM     18  H47 ZIN A   1      21.722  -0.770  12.137  0.00  0.00     0.210 HD
ENDBRANCH   1  17
BRANCH   1  19
ATOM     19  C19 ZIN A   1      19.651  -1.556  11.217  0.00  0.00     0.209 C 
BRANCH  19  20
ATOM     20  O20 ZIN A   1      18.670  -1.953  10.256  0.00  0.00    -0.348 OA
BRANCH  20  21
ATOM     21  C21 ZIN A   1      18.986  -2.998   9.447  0.00  0.00     0.082 A 
ATOM     22  C26 ZIN A   1      19.122  -2.803   8.070  0.00  0.00     0.036 A 
ATOM     23  C25 ZIN A   1      19.455  -3.882   7.239  0.00  0.00     0.046 A 
ATOM     24  C27 ZIN A   1      18.999  -1.623   7.195  0.00  0.00     0.006 A 
ATOM     25  C24 ZIN A   1      19.637  -5.144   7.798  0.00  0.00     0.030 A 
ATOM     26  N33 ZIN A   1      19.533  -3.423   5.936  0.00  0.00    -0.355 N 
ATOM     27  C23 ZIN A   1      19.495  -5.326   9.158  0.00  0.00     0.005 A 
ATOM     28  C22 ZIN A   1      19.172  -4.260   9.982  0.00  0.00     0.038 A 
ATOM     29  C28 ZIN A   1      19.266  -2.065   5.891  0.00  0.00     0.043 A 
ATOM     30  H57 ZIN A   1      19.749  -3.972   5.167  0.00  0.00     0.166 HD
ATOM     31  C29 ZIN A   1      19.223  -1.155   4.840  0.00  0.00     0.030 A 
ATOM     32  C30 ZIN A   1      18.919   0.167   5.085  0.00  0.00     0.002 A 
ATOM     33  C31 ZIN A   1      18.656   0.603   6.374  0.00  0.00     0.001 A 
ATOM     34  C32 ZIN A   1      18.693  -0.285   7.428  0.00  0.00     0.014 A 
ENDBRANCH  20  21
ENDBRANCH  19  20
ENDBRANCH   1  19
TORSDOF 11
ENDMDL
MODEL 5
REMARK VINA RESULT:      -7.6      1.018      3.072
REMARK  11 active torsions:
REMARK  status: ('A' for Active; 'I' for Inactive)
REMARK    1  A    between atoms: O2_2  and  C3_3 
REMARK    2  A    between atoms: C8_8  and  O9_9 
REMARK    3  A    between atoms: O9_9  and  C10_10 
REMARK    4  A    between atoms: C10_10  and  C11_11 
REMARK    5  A    between atoms: C11_11  and  N12_12 
REMARK    6  A    between atoms: N12_12  and  C15_15 
REMARK    7  A    between atoms: C15_15  and  C16_16 
REMARK    8  A    between atoms: C16_16  and  O18_17 
REMARK    9  A    between atoms: C16_16  and  C19_18 
REMARK   10  A    between atoms: C19_18  and  O20_19 
REMARK   11  A    between atoms: O20_19  and  C21_20 
ROOT
ATOM      1  C16 ZIN A   1      18.846  -2.773  12.060  0.00  0.00     0.168 C 
ENDROOT
BRANCH   1   2
ATOM      2  C15 ZIN A   1      19.058  -4.175  11.486  0.00  0.00     0.266 C 
BRANCH   2   3
ATOM      3  N12 ZIN A   1      18.301  -4.314  10.235  0.00  0.00    -0.071 N 
ATOM      4  H13 ZIN A   1      17.686  -3.523  10.125  0.00  0.00     0.277 HD
ATOM      5  H14 ZIN A   1      17.755  -5.163  10.266  0.00  0.00     0.277 HD
BRANCH   3   6
ATOM      6  C11 ZIN A   1      19.234  -4.372   9.102  0.00  0.00     0.259 C 
BRANCH   6   7
ATOM      7  C10 ZIN A   1      18.628  -3.635   7.905  0.00  0.00     0.203 C 
BRANCH   7   8
ATOM      8  O9  ZIN A   1      19.645  -2.873   7.253  0.00  0.00    -0.347 OA
BRANCH   8   9
ATOM      9  C8  ZIN A   1      19.345  -1.583   6.941  0.00  0.00     0.102 A 
ATOM     10  C3  ZIN A   1      19.346  -1.168   5.613  0.00  0.00     0.101 A 
ATOM     11  C4  ZIN A   1      19.040   0.146   5.301  0.00  0.00     0.039 A 
ATOM     12  C5  ZIN A   1      18.739   1.044   6.308  0.00  0.00     0.003 A 
ATOM     13  C6  ZIN A   1      18.743   0.634   7.628  0.00  0.00     0.003 A 
ATOM     14  C7  ZIN A   1      19.048  -0.677   7.947  0.00  0.00     0.039 A 
BRANCH  10  15
ATOM     15  O2  ZIN A   1      19.642  -2.052   4.622  0.00  0.00    -0.353 OA
ATOM     16  C1  ZIN A   1      18.558  -2.816   4.089  0.00  0.00     0.210 C 
ENDBRANCH  10  15
ENDBRANCH   8   9
ENDBRANCH   7   8
ENDBRANCH   6   7
ENDBRANCH   3   6
ENDBRANCH   2   3
ENDBRANCH   1   2
BRANCH   1  17
ATOM     17  O18 ZIN A   1      20.026  -1.994  11.859  0.00  0.00    -0.392 OA
ATOM     18  H47 ZIN A   1      20.459  -1.716  12.679  0.00  0.00     0.210 HD
ENDBRANCH   1  17
BRANCH   1  19
ATOM     19  C19 ZIN A   1      17.667  -2.105  11.349  0.00  0.00     0.209 C 
BRANCH  19  20
ATOM     20  O20 ZIN A   1      17.034  -1.184  12.240  0.00  0.00    -0.348 OA
BRANCH  20  21
ATOM     21  C21 ZIN A   1      17.450   0.108  12.190  0.00  0.00     0.082 A 
ATOM     22  C26 ZIN A   1      17.992   0.717  13.324  0.00  0.00     0.036 A 
ATOM     23  C25 ZIN A   1      18.426   2.048  13.266  0.00  0.00     0.046 A 
ATOM     24  C27 ZIN A   1      18.255   0.250  14.698  0.00  0.00     0.006 A 
ATOM     25  C24 ZIN A   1      18.300   2.757  12.074  0.00  0.00     0.030 A 
ATOM     26  N33 ZIN A   1      18.922   2.401  14.509  0.00  0.00    -0.355 N 
ATOM     27  C23 ZIN A   1      17.757   2.148  10.962  0.00  0.00     0.005 A 
ATOM     28  C22 ZIN A   1      17.334   0.830  11.015  0.00  0.00     0.038 A 
ATOM     29  C28 ZIN A   1      18.832   1.331  15.381  0.00  0.00     0.043 A 
ATOM     30  H57 ZIN A   1      19.286   3.272  14.733  0.00  0.00     0.166 HD
ATOM     31  C29 ZIN A   1      19.191   1.180  16.717  0.00  0.00     0.030 A 
ATOM     32  C30 ZIN A   1      18.979  -0.023  17.356  0.00  0.00     0.002 A 
ATOM     33  C31 ZIN A   1      18.409  -1.090  16.680  0.00  0.00     0.001 A 
ATOM     34  C32 ZIN A   1      18.047  -0.959  15.356  0.00  0.00     0.014 A 
ENDBRANCH  20  21
ENDBRANCH  19  20
ENDBRANCH   1  19
TORSDOF 11
ENDMDL
MODEL 6
REMARK VINA RESULT:      -7.6      1.251      1.987
REMARK  11 active torsions:
REMARK  status: ('A' for Active; 'I' for Inactive)
REMARK    1  A    between atoms: O2_2  and  C3_3 
REMARK    2  A    between atoms: C8_8  and  O9_9 
REMARK    3  A    between atoms: O9_9  and  C10_10 
REMARK    4  A    between atoms: C10_10  and  C11_11 
REMARK    5  A    between atoms: C11_11  and  N12_12 
REMARK    6  A    between atoms: N12_12  and  C15_15 
REMARK    7  A    between atoms: C15_15  and  C16_16 
REMARK    8  A    between atoms: C16_16  and  O18_17 
REMARK    9  A    between atoms: C16_16  and  C19_18 
REMARK   10  A    between atoms: C19_18  and  O20_19 
REMARK   11  A    between atoms: O20_19  and  C21_20 
ROOT
ATOM      1  C16 ZIN A   1      20.091  -2.822  11.561  0.00  0.00     0.168 C 
ENDROOT
BRANCH   1   2
ATOM      2  C15 ZIN A   1      19.757  -4.250  11.124  0.00  0.00     0.266 C 
BRANCH   2   3
ATOM      3  N12 ZIN A   1      18.861  -4.211   9.961  0.00  0.00    -0.071 N 
ATOM      4  H13 ZIN A   1      18.617  -3.254   9.757  0.00  0.00     0.277 HD
ATOM      5  H14 ZIN A   1      18.022  -4.736  10.166  0.00  0.00     0.277 HD
BRANCH   3   6
ATOM      6  C11 ZIN A   1      19.538  -4.804   8.801  0.00  0.00     0.259 C 
BRANCH   6   7
ATOM      7  C10 ZIN A   1      19.271  -3.946   7.562  0.00  0.00     0.203 C 
BRANCH   7   8
ATOM      8  O9  ZIN A   1      19.030  -2.596   7.961  0.00  0.00    -0.347 OA
BRANCH   8   9
ATOM      9  C8  ZIN A   1      19.066  -1.648   6.986  0.00  0.00     0.102 A 
ATOM     10  C3  ZIN A   1      18.999  -0.299   7.322  0.00  0.00     0.101 A 
ATOM     11  C4  ZIN A   1      19.036   0.662   6.325  0.00  0.00     0.039 A 
ATOM     12  C5  ZIN A   1      19.135   0.281   5.000  0.00  0.00     0.003 A 
ATOM     13  C6  ZIN A   1      19.197  -1.059   4.666  0.00  0.00     0.003 A 
ATOM     14  C7  ZIN A   1      19.159  -2.024   5.656  0.00  0.00     0.039 A 
BRANCH  10  15
ATOM     15  O2  ZIN A   1      18.901   0.075   8.626  0.00  0.00    -0.353 OA
ATOM     16  C1  ZIN A   1      17.614   0.490   9.088  0.00  0.00     0.210 C 
ENDBRANCH  10  15
ENDBRANCH   8   9
ENDBRANCH   7   8
ENDBRANCH   6   7
ENDBRANCH   3   6
ENDBRANCH   2   3
ENDBRANCH   1   2
BRANCH   1  17
ATOM     17  O18 ZIN A   1      20.024  -1.952  10.430  0.00  0.00    -0.392 OA
ATOM     18  H47 ZIN A   1      19.135  -1.850  10.063  0.00  0.00     0.210 HD
ENDBRANCH   1  17
BRANCH   1  19
ATOM     19  C19 ZIN A   1      19.085  -2.364  12.618  0.00  0.00     0.209 C 
BRANCH  19  20
ATOM     20  O20 ZIN A   1      19.774  -1.672  13.662  0.00  0.00    -0.348 OA
BRANCH  20  21
ATOM     21  C21 ZIN A   1      19.011  -1.053  14.600  0.00  0.00     0.082 A 
ATOM     22  C26 ZIN A   1      18.709   0.305  14.475  0.00  0.00     0.036 A 
ATOM     23  C25 ZIN A   1      17.916   0.939  15.441  0.00  0.00     0.046 A 
ATOM     24  C27 ZIN A   1      19.045   1.331  13.470  0.00  0.00     0.006 A 
ATOM     25  C24 ZIN A   1      17.445   0.205  16.527  0.00  0.00     0.030 A 
ATOM     26  N33 ZIN A   1      17.764   2.266  15.080  0.00  0.00    -0.355 N 
ATOM     27  C23 ZIN A   1      17.754  -1.134  16.644  0.00  0.00     0.005 A 
ATOM     28  C22 ZIN A   1      18.533  -1.764  15.687  0.00  0.00     0.038 A 
ATOM     29  C28 ZIN A   1      18.432   2.519  13.895  0.00  0.00     0.043 A 
ATOM     30  H57 ZIN A   1      17.257   2.923  15.583  0.00  0.00     0.166 HD
ATOM     31  C29 ZIN A   1      18.578   3.673  13.131  0.00  0.00     0.030 A 
ATOM     32  C30 ZIN A   1      19.320   3.641  11.969  0.00  0.00     0.002 A 
ATOM     33  C31 ZIN A   1      19.925   2.466  11.551  0.00  0.00     0.001 A 
ATOM     34  C32 ZIN A   1      19.791   1.313  12.295  0.00  0.00     0.014 A 
ENDBRANCH  20  21
ENDBRANCH  19  20
ENDBRANCH   1  19
TORSDOF 11
ENDMDL
MODEL 7
REMARK VINA RESULT:      -7.5      2.084      3.985
REMARK  11 active torsions:
REMARK  status: ('A' for Active; 'I' for Inactive)
REMARK    1  A    between atoms: O2_2  and  C3_3 
REMARK    2  A    between atoms: C8_8  and  O9_9 
REMARK    3  A    between atoms: O9_9  and  C10_10 
REMARK    4  A    between atoms: C10_10  and  C11_11 
REMARK    5  A    between atoms: C11_11  and  N12_12 
REMARK    6  A    between atoms: N12_12  and  C15_15 
REMARK    7  A    between atoms: C15_15  and  C16_16 
REMARK    8  A    between atoms: C16_16  and  O18_17 
REMARK    9  A    between atoms: C16_16  and  C19_18 
REMARK   10  A    between atoms: C19_18  and  O20_19 
REMARK   11  A    between atoms: O20_19  and  C21_20 
ROOT
ATOM      1  C16 ZIN A   1      20.388   0.441  11.967  0.00  0.00     0.168 C 
ENDROOT
BRANCH   1   2
ATOM      2  C15 ZIN A   1      20.191  -0.444  10.734  0.00  0.00     0.266 C 
BRANCH   2   3
ATOM      3  N12 ZIN A   1      19.475  -1.667  11.118  0.00  0.00    -0.071 N 
ATOM      4  H13 ZIN A   1      19.585  -1.825  12.108  0.00  0.00     0.277 HD
ATOM      5  H14 ZIN A   1      19.853  -2.452  10.608  0.00  0.00     0.277 HD
BRANCH   3   6
ATOM      6  C11 ZIN A   1      18.048  -1.520  10.801  0.00  0.00     0.259 C 
BRANCH   6   7
ATOM      7  C10 ZIN A   1      17.895  -0.748   9.489  0.00  0.00     0.203 C 
BRANCH   7   8
ATOM      8  O9  ZIN A   1      18.072  -1.640   8.388  0.00  0.00    -0.347 OA
BRANCH   8   9
ATOM      9  C8  ZIN A   1      18.467  -1.093   7.207  0.00  0.00     0.102 A 
ATOM     10  C3  ZIN A   1      18.753  -1.913   6.119  0.00  0.00     0.101 A 
ATOM     11  C4  ZIN A   1      19.155  -1.350   4.918  0.00  0.00     0.039 A 
ATOM     12  C5  ZIN A   1      19.277   0.022   4.805  0.00  0.00     0.003 A 
ATOM     13  C6  ZIN A   1      19.000   0.836   5.887  0.00  0.00     0.003 A 
ATOM     14  C7  ZIN A   1      18.598   0.281   7.088  0.00  0.00     0.039 A 
BRANCH  10  15
ATOM     15  O2  ZIN A   1      18.632  -3.262   6.232  0.00  0.00    -0.353 OA
ATOM     16  C1  ZIN A   1      19.822  -4.000   6.517  0.00  0.00     0.210 C 
ENDBRANCH  10  15
ENDBRANCH   8   9
ENDBRANCH   7   8
ENDBRANCH   6   7
ENDBRANCH   3   6
ENDBRANCH   2   3
ENDBRANCH   1   2
BRANCH   1  17
ATOM     17  O18 ZIN A   1      21.784   0.669  12.170  0.00  0.00    -0.392 OA
ATOM     18  H47 ZIN A   1      22.035   0.773  13.098  0.00  0.00     0.210 HD
ENDBRANCH   1  17
BRANCH   1  19
ATOM     19  C19 ZIN A   1      19.679   1.780  11.753  0.00  0.00     0.209 C 
BRANCH  19  20
ATOM     20  O20 ZIN A   1      18.636   1.925  12.718  0.00  0.00    -0.348 OA
BRANCH  20  21
ATOM     21  C21 ZIN A   1      18.815   2.865  13.682  0.00  0.00     0.082 A 
ATOM     22  C26 ZIN A   1      18.961   2.482  15.018  0.00  0.00     0.036 A 
ATOM     23  C25 ZIN A   1      19.153   3.454  16.009  0.00  0.00     0.046 A 
ATOM     24  C27 ZIN A   1      18.977   1.177  15.703  0.00  0.00     0.006 A 
ATOM     25  C24 ZIN A   1      19.183   4.800  15.650  0.00  0.00     0.030 A 
ATOM     26  N33 ZIN A   1      19.276   2.816  17.231  0.00  0.00    -0.355 N 
ATOM     27  C23 ZIN A   1      19.031   5.167  14.330  0.00  0.00     0.005 A 
ATOM     28  C22 ZIN A   1      18.848   4.207  13.347  0.00  0.00     0.038 A 
ATOM     29  C28 ZIN A   1      19.177   1.445  17.066  0.00  0.00     0.043 A 
ATOM     30  H57 ZIN A   1      19.416   3.265  18.079  0.00  0.00     0.166 HD
ATOM     31  C29 ZIN A   1      19.238   0.387  17.968  0.00  0.00     0.030 A 
ATOM     32  C30 ZIN A   1      19.100  -0.909  17.520  0.00  0.00     0.002 A 
ATOM     33  C31 ZIN A   1      18.903  -1.173  16.173  0.00  0.00     0.001 A 
ATOM     34  C32 ZIN A   1      18.840  -0.138  15.265  0.00  0.00     0.014 A 
ENDBRANCH  20  21
ENDBRANCH  19  20
ENDBRANCH   1  19
TORSDOF 11
ENDMDL
MODEL 8
REMARK VINA RESULT:      -7.3      2.019      4.808
REMARK  11 active torsions:
REMARK  status: ('A' for Active; 'I' for Inactive)
REMARK    1  A    between atoms: O2_2  and  C3_3 
REMARK    2  A    between atoms: C8_8  and  O9_9 
REMARK    3  A    between atoms: O9_9  and  C10_10 
REMARK    4  A    between atoms: C10_10  and  C11_11 
REMARK    5  A    between atoms: C11_11  and  N12_12 
REMARK    6  A    between atoms: N12_12  and  C15_15 
REMARK    7  A    between atoms: C15_15  and  C16_16 
REMARK    8  A    between atoms: C16_16  and  O18_17 
REMARK    9  A    between atoms: C16_16  and  C19_18 
REMARK   10  A    between atoms: C19_18  and  O20_19 
REMARK   11  A    between atoms: O20_19  and  C21_20 
ROOT
ATOM      1  C16 ZIN A   1      19.474  -0.073   9.538  0.00  0.00     0.168 C 
ENDROOT
BRANCH   1   2
ATOM      2  C15 ZIN A   1      19.325   0.195   8.039  0.00  0.00     0.266 C 
BRANCH   2   3
ATOM      3  N12 ZIN A   1      18.448  -0.822   7.443  0.00  0.00    -0.071 N 
ATOM      4  H13 ZIN A   1      17.884  -0.398   6.722  0.00  0.00     0.277 HD
ATOM      5  H14 ZIN A   1      17.848  -1.208   8.157  0.00  0.00     0.277 HD
BRANCH   3   6
ATOM      6  C11 ZIN A   1      19.266  -1.893   6.860  0.00  0.00     0.259 C 
BRANCH   6   7
ATOM      7  C10 ZIN A   1      19.061  -3.183   7.657  0.00  0.00     0.203 C 
BRANCH   7   8
ATOM      8  O9  ZIN A   1      17.820  -3.115   8.360  0.00  0.00    -0.347 OA
BRANCH   8   9
ATOM      9  C8  ZIN A   1      17.730  -3.817   9.523  0.00  0.00     0.102 A 
ATOM     10  C3  ZIN A   1      17.057  -5.035   9.551  0.00  0.00     0.101 A 
ATOM     11  C4  ZIN A   1      16.968  -5.745  10.737  0.00  0.00     0.039 A 
ATOM     12  C5  ZIN A   1      17.543  -5.242  11.889  0.00  0.00     0.003 A 
ATOM     13  C6  ZIN A   1      18.206  -4.030  11.862  0.00  0.00     0.003 A 
ATOM     14  C7  ZIN A   1      18.299  -3.315  10.682  0.00  0.00     0.039 A 
BRANCH  10  15
ATOM     15  O2  ZIN A   1      16.492  -5.529   8.417  0.00  0.00    -0.353 OA
ATOM     16  C1  ZIN A   1      15.110  -5.887   8.483  0.00  0.00     0.210 C 
ENDBRANCH  10  15
ENDBRANCH   8   9
ENDBRANCH   7   8
ENDBRANCH   6   7
ENDBRANCH   3   6
ENDBRANCH   2   3
ENDBRANCH   1   2
BRANCH   1  17
ATOM     17  O18 ZIN A   1      20.851  -0.288   9.848  0.00  0.00    -0.392 OA
ATOM     18  H47 ZIN A   1      21.462   0.247   9.322  0.00  0.00     0.210 HD
ENDBRANCH   1  17
BRANCH   1  19
ATOM     19  C19 ZIN A   1      18.955   1.131  10.326  0.00  0.00     0.209 C 
BRANCH  19  20
ATOM     20  O20 ZIN A   1      19.871   1.441  11.379  0.00  0.00    -0.348 OA
BRANCH  20  21
ATOM     21  C21 ZIN A   1      19.502   2.415  12.250  0.00  0.00     0.082 A 
ATOM     22  C26 ZIN A   1      18.998   2.077  13.509  0.00  0.00     0.036 A 
ATOM     23  C25 ZIN A   1      18.625   3.085  14.408  0.00  0.00     0.046 A 
ATOM     24  C27 ZIN A   1      18.751   0.794  14.192  0.00  0.00     0.006 A 
ATOM     25  C24 ZIN A   1      18.750   4.420  14.030  0.00  0.00     0.030 A 
ATOM     26  N33 ZIN A   1      18.171   2.488  15.571  0.00  0.00    -0.355 N 
ATOM     27  C23 ZIN A   1      19.242   4.742  12.783  0.00  0.00     0.005 A 
ATOM     28  C22 ZIN A   1      19.618   3.747  11.894  0.00  0.00     0.038 A 
ATOM     29  C28 ZIN A   1      18.244   1.111  15.461  0.00  0.00     0.043 A 
ATOM     30  H57 ZIN A   1      17.853   2.967  16.352  0.00  0.00     0.166 HD
ATOM     31  C29 ZIN A   1      17.915   0.083  16.340  0.00  0.00     0.030 A 
ATOM     32  C30 ZIN A   1      18.088  -1.231  15.960  0.00  0.00     0.002 A 
ATOM     33  C31 ZIN A   1      18.590  -1.542  14.706  0.00  0.00     0.001 A 
ATOM     34  C32 ZIN A   1      18.921  -0.537  13.822  0.00  0.00     0.014 A 
ENDBRANCH  20  21
ENDBRANCH  19  20
ENDBRANCH   1  19
TORSDOF 11
ENDMDL
MODEL 9
REMARK VINA RESULT:      -7.3      2.314      8.421
REMARK  11 active torsions:
REMARK  status: ('A' for Active; 'I' for Inactive)
REMARK    1  A    between atoms: O2_2  and  C3_3 
REMARK    2  A    between atoms: C8_8  and  O9_9 
REMARK    3  A    between atoms: O9_9  and  C10_10 
REMARK    4  A    between atoms: C10_10  and  C11_11 
REMARK    5  A    between atoms: C11_11  and  N12_12 
REMARK    6  A    between atoms: N12_12  and  C15_15 
REMARK    7  A    between atoms: C15_15  and  C16_16 
REMARK    8  A    between atoms: C16_16  and  O18_17 
REMARK    9  A    between atoms: C16_16  and  C19_18 
REMARK   10  A    between atoms: C19_18  and  O20_19 
REMARK   11  A    between atoms: O20_19  and  C21_20 
ROOT
ATOM      1  C16 ZIN A   1      18.189   2.962  11.713  0.00  0.00     0.168 C 
ENDROOT
BRANCH   1   2
ATOM      2  C15 ZIN A   1      18.627   4.244  12.424  0.00  0.00     0.266 C 
BRANCH   2   3
ATOM      3  N12 ZIN A   1      19.231   3.904  13.720  0.00  0.00    -0.071 N 
ATOM      4  H13 ZIN A   1      20.075   4.440  13.848  0.00  0.00     0.277 HD
ATOM      5  H14 ZIN A   1      19.451   2.919  13.740  0.00  0.00     0.277 HD
BRANCH   3   6
ATOM      6  C11 ZIN A   1      18.283   4.215  14.798  0.00  0.00     0.259 C 
BRANCH   6   7
ATOM      7  C10 ZIN A   1      19.015   4.191  16.142  0.00  0.00     0.203 C 
BRANCH   7   8
ATOM      8  O9  ZIN A   1      19.735   2.965  16.271  0.00  0.00    -0.347 OA
BRANCH   8   9
ATOM      9  C8  ZIN A   1      19.008   1.849  16.550  0.00  0.00     0.102 A 
ATOM     10  C3  ZIN A   1      18.925   0.820  15.617  0.00  0.00     0.101 A 
ATOM     11  C4  ZIN A   1      18.183  -0.314  15.906  0.00  0.00     0.039 A 
ATOM     12  C5  ZIN A   1      17.525  -0.419  17.117  0.00  0.00     0.003 A 
ATOM     13  C6  ZIN A   1      17.603   0.605  18.042  0.00  0.00     0.003 A 
ATOM     14  C7  ZIN A   1      18.341   1.740  17.759  0.00  0.00     0.039 A 
BRANCH  10  15
ATOM     15  O2  ZIN A   1      19.573   0.924  14.426  0.00  0.00    -0.353 OA
ATOM     16  C1  ZIN A   1      19.878  -0.294  13.744  0.00  0.00     0.210 C 
ENDBRANCH  10  15
ENDBRANCH   8   9
ENDBRANCH   7   8
ENDBRANCH   6   7
ENDBRANCH   3   6
ENDBRANCH   2   3
ENDBRANCH   1   2
BRANCH   1  17
ATOM     17  O18 ZIN A   1      17.043   3.236  10.904  0.00  0.00    -0.392 OA
ATOM     18  H47 ZIN A   1      16.500   3.968  11.225  0.00  0.00     0.210 HD
ENDBRANCH   1  17
BRANCH   1  19
ATOM     19  C19 ZIN A   1      19.329   2.455  10.828  0.00  0.00     0.209 C 
BRANCH  19  20
ATOM     20  O20 ZIN A   1      19.136   1.066  10.554  0.00  0.00    -0.348 OA
BRANCH  20  21
ATOM     21  C21 ZIN A   1      18.952   0.713   9.255  0.00  0.00     0.082 A 
ATOM     22  C26 ZIN A   1      18.525  -0.578   8.932  0.00  0.00     0.036 A 
ATOM     23  C25 ZIN A   1      18.329  -0.936   7.591  0.00  0.00     0.046 A 
ATOM     24  C27 ZIN A   1      18.187  -1.766   9.737  0.00  0.00     0.006 A 
ATOM     25  C24 ZIN A   1      18.574   0.001   6.590  0.00  0.00     0.030 A 
ATOM     26  N33 ZIN A   1      17.903  -2.252   7.548  0.00  0.00    -0.355 N 
ATOM     27  C23 ZIN A   1      19.001   1.270   6.920  0.00  0.00     0.005 A 
ATOM     28  C22 ZIN A   1      19.189   1.629   8.245  0.00  0.00     0.038 A 
ATOM     29  C28 ZIN A   1      17.808  -2.766   8.829  0.00  0.00     0.043 A 
ATOM     30  H57 ZIN A   1      17.697  -2.741   6.736  0.00  0.00     0.166 HD
ATOM     31  C29 ZIN A   1      17.430  -4.016   9.310  0.00  0.00     0.030 A 
ATOM     32  C30 ZIN A   1      17.431  -4.262  10.666  0.00  0.00     0.002 A 
ATOM     33  C31 ZIN A   1      17.805  -3.272  11.562  0.00  0.00     0.001 A 
ATOM     34  C32 ZIN A   1      18.183  -2.028  11.104  0.00  0.00     0.014 A 
ENDBRANCH  20  21
ENDBRANCH  19  20
ENDBRANCH   1  19
TORSDOF 11
ENDMDL
