MODEL 1
REMARK VINA RESULT:      -4.7      0.000      0.000
REMARK  7 active torsions:
REMARK  status: ('A' for Active; 'I' for Inactive)
REMARK    1  A    between atoms: N1_1  and  C5_5 
REMARK    2  A    between atoms: C5_5  and  C6_6 
REMARK    3  A    between atoms: C6_6  and  C7_7 
REMARK    4  A    between atoms: C7_7  and  C8_8 
REMARK    5  A    between atoms: C8_8  and  N9_9 
REMARK    6  A    between atoms: C8_8  and  C13_13 
REMARK    7  A    between atoms: C8_8  and  C16_16 
ROOT
ATOM      1  C8  <0> d   1      18.639   0.002  16.342  0.00  0.00     0.267 C 
ENDROOT
BRANCH   1   2
ATOM      2  C7  <0> d   1      18.793   0.743  15.012  0.00  0.00     0.058 C 
BRANCH   2   3
ATOM      3  C6  <0> d   1      19.756  -0.029  14.107  0.00  0.00     0.030 C 
BRANCH   3   4
ATOM      4  C5  <0> d   1      19.980   0.757  12.814  0.00  0.00     0.230 C 
BRANCH   4   5
ATOM      5  N1  <0> d   1      21.362   0.559  12.355  0.00  0.00    -0.079 N 
ATOM      6  H2  <0> d   1      21.986   0.583  13.148  0.00  0.00     0.274 HD
ATOM      7  H3  <0> d   1      21.610   1.296  11.710  0.00  0.00     0.274 HD
ATOM      8  H4  <0> d   1      21.439  -0.333  11.892  0.00  0.00     0.274 HD
ENDBRANCH   4   5
ENDBRANCH   3   4
ENDBRANCH   2   3
ENDBRANCH   1   2
BRANCH   1   9
ATOM      9  N9  <0> d   1      19.249  -1.329  16.235  0.00  0.00    -0.055 N 
ATOM     10  H10 <0> d   1      19.297  -1.599  15.264  0.00  0.00     0.276 HD
ATOM     11  H11 <0> d   1      20.181  -1.304  16.623  0.00  0.00     0.276 HD
ATOM     12  H12 <0> d   1      18.690  -1.997  16.743  0.00  0.00     0.276 HD
ENDBRANCH   1   9
BRANCH   1  13
ATOM     13  C13 <0> d   1      19.325   0.784  17.434  0.00  0.00     0.216 C 
ATOM     14  O14 <0> d   1      19.703   0.217  18.444  0.00  0.00    -0.646 OA
ATOM     15  O15 <0> d   1      19.501   1.983  17.305  0.00  0.00    -0.646 OA
ENDBRANCH   1  13
BRANCH   1  16
ATOM     16  C16 <0> d   1      17.153  -0.142  16.676  0.00  0.00     0.399 C 
ATOM     17  F17 <0> d   1      16.860  -1.486  16.929  0.00  0.00    -0.211 F 
ATOM     18  F18 <0> d   1      16.852   0.622  17.808  0.00  0.00    -0.211 F 
ENDBRANCH   1  16
TORSDOF 7
ENDMDL
MODEL 2
REMARK VINA RESULT:      -4.7      5.824      6.535
REMARK  7 active torsions:
REMARK  status: ('A' for Active; 'I' for Inactive)
REMARK    1  A    between atoms: N1_1  and  C5_5 
REMARK    2  A    between atoms: C5_5  and  C6_6 
REMARK    3  A    between atoms: C6_6  and  C7_7 
REMARK    4  A    between atoms: C7_7  and  C8_8 
REMARK    5  A    between atoms: C8_8  and  N9_9 
REMARK    6  A    between atoms: C8_8  and  C13_13 
REMARK    7  A    between atoms: C8_8  and  C16_16 
ROOT
ATOM      1  C8  <0> d   1      18.565   2.736  10.550  0.00  0.00     0.267 C 
ENDROOT
BRANCH   1   2
ATOM      2  C7  <0> d   1      19.015   2.195   9.191  0.00  0.00     0.058 C 
BRANCH   2   3
ATOM      3  C6  <0> d   1      18.458   0.784   8.994  0.00  0.00     0.030 C 
BRANCH   3   4
ATOM      4  C5  <0> d   1      19.585  -0.153   8.558  0.00  0.00     0.230 C 
BRANCH   4   5
ATOM      5  N1  <0> d   1      20.560  -0.287   9.650  0.00  0.00    -0.079 N 
ATOM      6  H2  <0> d   1      21.236   0.460   9.591  0.00  0.00     0.274 HD
ATOM      7  H3  <0> d   1      21.033  -1.176   9.571  0.00  0.00     0.274 HD
ATOM      8  H4  <0> d   1      20.081  -0.239  10.536  0.00  0.00     0.274 HD
ENDBRANCH   4   5
ENDBRANCH   3   4
ENDBRANCH   2   3
ENDBRANCH   1   2
BRANCH   1   9
ATOM      9  N9  <0> d   1      17.515   1.868  11.098  0.00  0.00    -0.055 N 
ATOM     10  H10 <0> d   1      17.923   1.222  11.757  0.00  0.00     0.276 HD
ATOM     11  H11 <0> d   1      16.823   2.434  11.567  0.00  0.00     0.276 HD
ATOM     12  H12 <0> d   1      17.078   1.354  10.349  0.00  0.00     0.276 HD
ENDBRANCH   1   9
BRANCH   1  13
ATOM     13  C13 <0> d   1      19.740   2.764  11.493  0.00  0.00     0.216 C 
ATOM     14  O14 <0> d   1      20.214   1.721  11.907  0.00  0.00    -0.646 OA
ATOM     15  O15 <0> d   1      20.216   3.831  11.842  0.00  0.00    -0.646 OA
ENDBRANCH   1  13
BRANCH   1  16
ATOM     16  C16 <0> d   1      18.016   4.154  10.376  0.00  0.00     0.399 C 
ATOM     17  F17 <0> d   1      18.108   4.529   9.032  0.00  0.00    -0.211 F 
ATOM     18  F18 <0> d   1      16.678   4.189  10.780  0.00  0.00    -0.211 F 
ENDBRANCH   1  16
TORSDOF 7
ENDMDL
MODEL 3
REMARK VINA RESULT:      -4.7      4.982      5.773
REMARK  7 active torsions:
REMARK  status: ('A' for Active; 'I' for Inactive)
REMARK    1  A    between atoms: N1_1  and  C5_5 
REMARK    2  A    between atoms: C5_5  and  C6_6 
REMARK    3  A    between atoms: C6_6  and  C7_7 
REMARK    4  A    between atoms: C7_7  and  C8_8 
REMARK    5  A    between atoms: C8_8  and  N9_9 
REMARK    6  A    between atoms: C8_8  and  C13_13 
REMARK    7  A    between atoms: C8_8  and  C16_16 
ROOT
ATOM      1  C8  <0> d   1      19.307   2.913  11.909  0.00  0.00     0.267 C 
ENDROOT
BRANCH   1   2
ATOM      2  C7  <0> d   1      19.151   1.581  12.646  0.00  0.00     0.058 C 
BRANCH   2   3
ATOM      3  C6  <0> d   1      20.432   0.760  12.493  0.00  0.00     0.030 C 
BRANCH   3   4
ATOM      4  C5  <0> d   1      20.193  -0.380  11.502  0.00  0.00     0.230 C 
BRANCH   4   5
ATOM      5  N1  <0> d   1      21.421  -0.627  10.734  0.00  0.00    -0.079 N 
ATOM      6  H2  <0> d   1      21.987  -1.310  11.216  0.00  0.00     0.274 HD
ATOM      7  H3  <0> d   1      21.939   0.235  10.643  0.00  0.00     0.274 HD
ATOM      8  H4  <0> d   1      21.182  -0.974   9.818  0.00  0.00     0.274 HD
ENDBRANCH   4   5
ENDBRANCH   3   4
ENDBRANCH   2   3
ENDBRANCH   1   2
BRANCH   1   9
ATOM      9  N9  <0> d   1      20.713   3.099  11.528  0.00  0.00    -0.055 N 
ATOM     10  H10 <0> d   1      20.767   3.346  10.552  0.00  0.00     0.276 HD
ATOM     11  H11 <0> d   1      21.117   3.839  12.085  0.00  0.00     0.276 HD
ATOM     12  H12 <0> d   1      21.221   2.242  11.688  0.00  0.00     0.276 HD
ENDBRANCH   1   9
BRANCH   1  13
ATOM     13  C13 <0> d   1      18.447   2.906  10.672  0.00  0.00     0.216 C 
ATOM     14  O14 <0> d   1      18.947   2.690   9.582  0.00  0.00    -0.646 OA
ATOM     15  O15 <0> d   1      17.249   3.118  10.762  0.00  0.00    -0.646 OA
ENDBRANCH   1  13
BRANCH   1  16
ATOM     16  C16 <0> d   1      18.871   4.057  12.827  0.00  0.00     0.399 C 
ATOM     17  F17 <0> d   1      18.640   3.561  14.114  0.00  0.00    -0.211 F 
ATOM     18  F18 <0> d   1      19.878   5.027  12.875  0.00  0.00    -0.211 F 
ENDBRANCH   1  16
TORSDOF 7
ENDMDL
MODEL 4
REMARK VINA RESULT:      -4.7      5.456      6.470
REMARK  7 active torsions:
REMARK  status: ('A' for Active; 'I' for Inactive)
REMARK    1  A    between atoms: N1_1  and  C5_5 
REMARK    2  A    between atoms: C5_5  and  C6_6 
REMARK    3  A    between atoms: C6_6  and  C7_7 
REMARK    4  A    between atoms: C7_7  and  C8_8 
REMARK    5  A    between atoms: C8_8  and  N9_9 
REMARK    6  A    between atoms: C8_8  and  C13_13 
REMARK    7  A    between atoms: C8_8  and  C16_16 
ROOT
ATOM      1  C8  <0> d   1      18.922   2.929  11.320  0.00  0.00     0.267 C 
ENDROOT
BRANCH   1   2
ATOM      2  C7  <0> d   1      18.665   4.364  11.785  0.00  0.00     0.058 C 
BRANCH   2   3
ATOM      3  C6  <0> d   1      19.824   4.830  12.668  0.00  0.00     0.030 C 
BRANCH   3   4
ATOM      4  C5  <0> d   1      19.315   5.072  14.090  0.00  0.00     0.230 C 
BRANCH   4   5
ATOM      5  N1  <0> d   1      19.567   3.879  14.910  0.00  0.00    -0.079 N 
ATOM      6  H2  <0> d   1      18.808   3.225  14.794  0.00  0.00     0.274 HD
ATOM      7  H3  <0> d   1      19.634   4.147  15.881  0.00  0.00     0.274 HD
ATOM      8  H4  <0> d   1      20.431   3.447  14.620  0.00  0.00     0.274 HD
ENDBRANCH   4   5
ENDBRANCH   3   4
ENDBRANCH   2   3
ENDBRANCH   1   2
BRANCH   1   9
ATOM      9  N9  <0> d   1      20.335   2.591  11.536  0.00  0.00    -0.055 N 
ATOM     10  H10 <0> d   1      20.860   2.790  10.698  0.00  0.00     0.276 HD
ATOM     11  H11 <0> d   1      20.699   3.141  12.300  0.00  0.00     0.276 HD
ATOM     12  H12 <0> d   1      20.415   1.610  11.759  0.00  0.00     0.276 HD
ENDBRANCH   1   9
BRANCH   1  13
ATOM     13  C13 <0> d   1      18.052   1.984  12.108  0.00  0.00     0.216 C 
ATOM     14  O14 <0> d   1      17.032   1.537  11.612  0.00  0.00    -0.646 OA
ATOM     15  O15 <0> d   1      18.368   1.667  13.242  0.00  0.00    -0.646 OA
ENDBRANCH   1  13
BRANCH   1  16
ATOM     16  C16 <0> d   1      18.589   2.808   9.832  0.00  0.00     0.399 C 
ATOM     17  F17 <0> d   1      18.290   4.073   9.316  0.00  0.00    -0.211 F 
ATOM     18  F18 <0> d   1      19.688   2.275   9.150  0.00  0.00    -0.211 F 
ENDBRANCH   1  16
TORSDOF 7
ENDMDL
MODEL 5
REMARK VINA RESULT:      -4.6      7.262      8.569
REMARK  7 active torsions:
REMARK  status: ('A' for Active; 'I' for Inactive)
REMARK    1  A    between atoms: N1_1  and  C5_5 
REMARK    2  A    between atoms: C5_5  and  C6_6 
REMARK    3  A    between atoms: C6_6  and  C7_7 
REMARK    4  A    between atoms: C7_7  and  C8_8 
REMARK    5  A    between atoms: C8_8  and  N9_9 
REMARK    6  A    between atoms: C8_8  and  C13_13 
REMARK    7  A    between atoms: C8_8  and  C16_16 
ROOT
ATOM      1  C8  <0> d   1      18.579   0.541   8.217  0.00  0.00     0.267 C 
ENDROOT
BRANCH   1   2
ATOM      2  C7  <0> d   1      18.972   1.150   6.870  0.00  0.00     0.058 C 
BRANCH   2   3
ATOM      3  C6  <0> d   1      18.110   0.540   5.763  0.00  0.00     0.030 C 
BRANCH   3   4
ATOM      4  C5  <0> d   1      19.014  -0.037   4.672  0.00  0.00     0.230 C 
BRANCH   4   5
ATOM      5  N1  <0> d   1      19.296  -1.448   4.966  0.00  0.00    -0.079 N 
ATOM      6  H2  <0> d   1      20.135  -1.515   5.523  0.00  0.00     0.274 HD
ATOM      7  H3  <0> d   1      19.426  -1.952   4.101  0.00  0.00     0.274 HD
ATOM      8  H4  <0> d   1      18.521  -1.848   5.474  0.00  0.00     0.274 HD
ENDBRANCH   4   5
ENDBRANCH   3   4
ENDBRANCH   2   3
ENDBRANCH   1   2
BRANCH   1   9
ATOM      9  N9  <0> d   1      17.227  -0.025   8.122  0.00  0.00    -0.055 N 
ATOM     10  H10 <0> d   1      16.592   0.677   7.772  0.00  0.00     0.276 HD
ATOM     11  H11 <0> d   1      17.236  -0.814   7.492  0.00  0.00     0.276 HD
ATOM     12  H12 <0> d   1      16.924  -0.327   9.036  0.00  0.00     0.276 HD
ENDBRANCH   1   9
BRANCH   1  13
ATOM     13  C13 <0> d   1      19.556  -0.548   8.580  0.00  0.00     0.216 C 
ATOM     14  O14 <0> d   1      19.505  -1.626   8.015  0.00  0.00    -0.646 OA
ATOM     15  O15 <0> d   1      20.397  -0.349   9.440  0.00  0.00    -0.646 OA
ENDBRANCH   1  13
BRANCH   1  16
ATOM     16  C16 <0> d   1      18.603   1.628   9.294  0.00  0.00     0.399 C 
ATOM     17  F17 <0> d   1      18.796   2.876   8.693  0.00  0.00    -0.211 F 
ATOM     18  F18 <0> d   1      17.387   1.626   9.986  0.00  0.00    -0.211 F 
ENDBRANCH   1  16
TORSDOF 7
ENDMDL
MODEL 6
REMARK VINA RESULT:      -4.6      6.179      7.544
REMARK  7 active torsions:
REMARK  status: ('A' for Active; 'I' for Inactive)
REMARK    1  A    between atoms: N1_1  and  C5_5 
REMARK    2  A    between atoms: C5_5  and  C6_6 
REMARK    3  A    between atoms: C6_6  and  C7_7 
REMARK    4  A    between atoms: C7_7  and  C8_8 
REMARK    5  A    between atoms: C8_8  and  N9_9 
REMARK    6  A    between atoms: C8_8  and  C13_13 
REMARK    7  A    between atoms: C8_8  and  C16_16 
ROOT
ATOM      1  C8  <0> d   1      19.319   0.428   9.237  0.00  0.00     0.267 C 
ENDROOT
BRANCH   1   2
ATOM      2  C7  <0> d   1      18.963   0.895  10.650  0.00  0.00     0.058 C 
BRANCH   2   3
ATOM      3  C6  <0> d   1      19.389  -0.171  11.662  0.00  0.00     0.030 C 
BRANCH   3   4
ATOM      4  C5  <0> d   1      20.235   0.477  12.759  0.00  0.00     0.230 C 
BRANCH   4   5
ATOM      5  N1  <0> d   1      21.608   0.666  12.271  0.00  0.00    -0.079 N 
ATOM      6  H2  <0> d   1      21.764   0.074  11.468  0.00  0.00     0.274 HD
ATOM      7  H3  <0> d   1      22.261   0.420  13.001  0.00  0.00     0.274 HD
ATOM      8  H4  <0> d   1      21.743   1.630  12.009  0.00  0.00     0.274 HD
ENDBRANCH   4   5
ENDBRANCH   3   4
ENDBRANCH   2   3
ENDBRANCH   1   2
BRANCH   1   9
ATOM      9  N9  <0> d   1      20.548  -0.375   9.283  0.00  0.00    -0.055 N 
ATOM     10  H10 <0> d   1      20.915  -0.376  10.222  0.00  0.00     0.276 HD
ATOM     11  H11 <0> d   1      20.340  -1.323   9.002  0.00  0.00     0.276 HD
ATOM     12  H12 <0> d   1      21.231   0.020   8.654  0.00  0.00     0.276 HD
ENDBRANCH   1   9
BRANCH   1  13
ATOM     13  C13 <0> d   1      18.192  -0.408   8.687  0.00  0.00     0.216 C 
ATOM     14  O14 <0> d   1      17.041  -0.021   8.787  0.00  0.00    -0.646 OA
ATOM     15  O15 <0> d   1      18.432  -1.471   8.141  0.00  0.00    -0.646 OA
ENDBRANCH   1  13
BRANCH   1  16
ATOM     16  C16 <0> d   1      19.538   1.646   8.338  0.00  0.00     0.399 C 
ATOM     17  F17 <0> d   1      19.161   1.332   7.028  0.00  0.00    -0.211 F 
ATOM     18  F18 <0> d   1      18.764   2.714   8.802  0.00  0.00    -0.211 F 
ENDBRANCH   1  16
TORSDOF 7
ENDMDL
MODEL 7
REMARK VINA RESULT:      -4.6      5.434      6.280
REMARK  7 active torsions:
REMARK  status: ('A' for Active; 'I' for Inactive)
REMARK    1  A    between atoms: N1_1  and  C5_5 
REMARK    2  A    between atoms: C5_5  and  C6_6 
REMARK    3  A    between atoms: C6_6  and  C7_7 
REMARK    4  A    between atoms: C7_7  and  C8_8 
REMARK    5  A    between atoms: C8_8  and  N9_9 
REMARK    6  A    between atoms: C8_8  and  C13_13 
REMARK    7  A    between atoms: C8_8  and  C16_16 
ROOT
ATOM      1  C8  <0> d   1      19.057   2.199  10.555  0.00  0.00     0.267 C 
ENDROOT
BRANCH   1   2
ATOM      2  C7  <0> d   1      18.478   0.812  10.841  0.00  0.00     0.058 C 
BRANCH   2   3
ATOM      3  C6  <0> d   1      19.275  -0.243  10.072  0.00  0.00     0.030 C 
BRANCH   3   4
ATOM      4  C5  <0> d   1      20.136  -1.045  11.050  0.00  0.00     0.230 C 
BRANCH   4   5
ATOM      5  N1  <0> d   1      21.534  -0.604  10.945  0.00  0.00    -0.079 N 
ATOM      6  H2  <0> d   1      22.145  -1.403  11.028  0.00  0.00     0.274 HD
ATOM      7  H3  <0> d   1      21.736   0.051  11.686  0.00  0.00     0.274 HD
ATOM      8  H4  <0> d   1      21.681  -0.158  10.053  0.00  0.00     0.274 HD
ENDBRANCH   4   5
ENDBRANCH   3   4
ENDBRANCH   2   3
ENDBRANCH   1   2
BRANCH   1   9
ATOM      9  N9  <0> d   1      19.789   2.170   9.283  0.00  0.00    -0.055 N 
ATOM     10  H10 <0> d   1      20.658   2.673   9.383  0.00  0.00     0.276 HD
ATOM     11  H11 <0> d   1      19.983   1.212   9.028  0.00  0.00     0.276 HD
ATOM     12  H12 <0> d   1      19.230   2.603   8.563  0.00  0.00     0.276 HD
ENDBRANCH   1   9
BRANCH   1  13
ATOM     13  C13 <0> d   1      17.936   3.202  10.469  0.00  0.00     0.216 C 
ATOM     14  O14 <0> d   1      16.983   3.119  11.223  0.00  0.00    -0.646 OA
ATOM     15  O15 <0> d   1      17.983   4.098   9.643  0.00  0.00    -0.646 OA
ENDBRANCH   1  13
BRANCH   1  16
ATOM     16  C16 <0> d   1      20.010   2.595  11.684  0.00  0.00     0.399 C 
ATOM     17  F17 <0> d   1      20.024   3.988  11.816  0.00  0.00    -0.211 F 
ATOM     18  F18 <0> d   1      19.580   2.018  12.883  0.00  0.00    -0.211 F 
ENDBRANCH   1  16
TORSDOF 7
ENDMDL
MODEL 8
REMARK VINA RESULT:      -4.6      5.876      6.946
REMARK  7 active torsions:
REMARK  status: ('A' for Active; 'I' for Inactive)
REMARK    1  A    between atoms: N1_1  and  C5_5 
REMARK    2  A    between atoms: C5_5  and  C6_6 
REMARK    3  A    between atoms: C6_6  and  C7_7 
REMARK    4  A    between atoms: C7_7  and  C8_8 
REMARK    5  A    between atoms: C8_8  and  N9_9 
REMARK    6  A    between atoms: C8_8  and  C13_13 
REMARK    7  A    between atoms: C8_8  and  C16_16 
ROOT
ATOM      1  C8  <0> d   1      18.708   1.191   9.627  0.00  0.00     0.267 C 
ENDROOT
BRANCH   1   2
ATOM      2  C7  <0> d   1      19.781   0.305  10.263  0.00  0.00     0.058 C 
BRANCH   2   3
ATOM      3  C6  <0> d   1      19.265  -0.248  11.593  0.00  0.00     0.030 C 
BRANCH   3   4
ATOM      4  C5  <0> d   1      20.230   0.138  12.715  0.00  0.00     0.230 C 
BRANCH   4   5
ATOM      5  N1  <0> d   1      21.472   0.664  12.132  0.00  0.00    -0.079 N 
ATOM      6  H2  <0> d   1      21.554   1.647  12.345  0.00  0.00     0.274 HD
ATOM      7  H3  <0> d   1      21.454   0.537  11.131  0.00  0.00     0.274 HD
ATOM      8  H4  <0> d   1      22.262   0.170  12.519  0.00  0.00     0.274 HD
ENDBRANCH   4   5
ENDBRANCH   3   4
ENDBRANCH   2   3
ENDBRANCH   1   2
BRANCH   1   9
ATOM      9  N9  <0> d   1      17.448   0.442   9.534  0.00  0.00    -0.055 N 
ATOM     10  H10 <0> d   1      16.688   1.023   9.853  0.00  0.00     0.276 HD
ATOM     11  H11 <0> d   1      17.287   0.174   8.574  0.00  0.00     0.276 HD
ATOM     12  H12 <0> d   1      17.505  -0.385  10.110  0.00  0.00     0.276 HD
ENDBRANCH   1   9
BRANCH   1  13
ATOM     13  C13 <0> d   1      18.503   2.418  10.477  0.00  0.00     0.216 C 
ATOM     14  O14 <0> d   1      17.375   2.793  10.746  0.00  0.00    -0.646 OA
ATOM     15  O15 <0> d   1      19.467   3.037  10.896  0.00  0.00    -0.646 OA
ENDBRANCH   1  13
BRANCH   1  16
ATOM     16  C16 <0> d   1      19.158   1.610   8.226  0.00  0.00     0.399 C 
ATOM     17  F17 <0> d   1      18.499   0.829   7.271  0.00  0.00    -0.211 F 
ATOM     18  F18 <0> d   1      18.848   2.958   8.020  0.00  0.00    -0.211 F 
ENDBRANCH   1  16
TORSDOF 7
ENDMDL
MODEL 9
REMARK VINA RESULT:      -4.5      6.401      7.607
REMARK  7 active torsions:
REMARK  status: ('A' for Active; 'I' for Inactive)
REMARK    1  A    between atoms: N1_1  and  C5_5 
REMARK    2  A    between atoms: C5_5  and  C6_6 
REMARK    3  A    between atoms: C6_6  and  C7_7 
REMARK    4  A    between atoms: C7_7  and  C8_8 
REMARK    5  A    between atoms: C8_8  and  N9_9 
REMARK    6  A    between atoms: C8_8  and  C13_13 
REMARK    7  A    between atoms: C8_8  and  C16_16 
ROOT
ATOM      1  C8  <0> d   1      19.352  -0.458   9.274  0.00  0.00     0.267 C 
ENDROOT
BRANCH   1   2
ATOM      2  C7  <0> d   1      18.561  -0.865  10.520  0.00  0.00     0.058 C 
BRANCH   2   3
ATOM      3  C6  <0> d   1      19.526  -1.091  11.685  0.00  0.00     0.030 C 
BRANCH   3   4
ATOM      4  C5  <0> d   1      19.509  -2.568  12.081  0.00  0.00     0.230 C 
BRANCH   4   5
ATOM      5  N1  <0> d   1      20.599  -3.273  11.391  0.00  0.00    -0.079 N 
ATOM      6  H2  <0> d   1      20.989  -3.972  12.004  0.00  0.00     0.274 HD
ATOM      7  H3  <0> d   1      21.317  -2.611  11.135  0.00  0.00     0.274 HD
ATOM      8  H4  <0> d   1      20.239  -3.717  10.560  0.00  0.00     0.274 HD
ENDBRANCH   4   5
ENDBRANCH   3   4
ENDBRANCH   2   3
ENDBRANCH   1   2
BRANCH   1   9
ATOM      9  N9  <0> d   1      20.758  -0.243   9.636  0.00  0.00    -0.055 N 
ATOM     10  H10 <0> d   1      21.050   0.671   9.324  0.00  0.00     0.276 HD
ATOM     11  H11 <0> d   1      20.860  -0.304  10.639  0.00  0.00     0.276 HD
ATOM     12  H12 <0> d   1      21.331  -0.948   9.197  0.00  0.00     0.276 HD
ENDBRANCH   1   9
BRANCH   1  13
ATOM     13  C13 <0> d   1      19.259  -1.552   8.242  0.00  0.00     0.216 C 
ATOM     14  O14 <0> d   1      19.121  -2.710   8.591  0.00  0.00    -0.646 OA
ATOM     15  O15 <0> d   1      19.323  -1.276   7.056  0.00  0.00    -0.646 OA
ENDBRANCH   1  13
BRANCH   1  16
ATOM     16  C16 <0> d   1      18.768   0.835   8.701  0.00  0.00     0.399 C 
ATOM     17  F17 <0> d   1      17.862   1.384   9.615  0.00  0.00    -0.211 F 
ATOM     18  F18 <0> d   1      19.801   1.748   8.464  0.00  0.00    -0.211 F 
ENDBRANCH   1  16
TORSDOF 7
ENDMDL
