MODEL 1
REMARK VINA RESULT:      -6.9      0.000      0.000
REMARK  2 active torsions:
REMARK  status: ('A' for Active; 'I' for Inactive)
REMARK    1  A    between atoms: C2_2  and  C4_3 
REMARK    2  A    between atoms: C2_2  and  N13_12 
REMARK       I    between atoms: N13_12  and  C15_14 
REMARK       I    between atoms: C15_14  and  N16_15 
ROOT
ATOM      1  C4  <0> d   1      18.273   1.006   9.330  0.00  0.00     0.009 A 
ATOM      2  C5  <0> d   1      18.953   1.521   8.325  0.00  0.00     0.029 A 
ATOM      3  C6  <0> d   1      18.809   0.816   7.062  0.00  0.00    -0.018 A 
ATOM      4  C7  <0> d   1      19.391   1.099   5.807  0.00  0.00     0.013 A 
ATOM      5  C8  <0> d   1      19.128   0.308   4.731  0.00  0.00     0.001 A 
ATOM      6  C9  <0> d   1      18.285  -0.788   4.849  0.00  0.00     0.001 A 
ATOM      7  C10 <0> d   1      17.704  -1.087   6.058  0.00  0.00     0.019 A 
ATOM      8  C11 <0> d   1      17.960  -0.288   7.177  0.00  0.00     0.015 A 
ATOM      9  S12 <0> d   1      17.380  -0.418   8.833  0.00  0.00    -0.092 SA
ENDROOT
BRANCH   1  10
ATOM     10  C2  <0> d   1      18.270   1.566  10.728  0.00  0.00     0.158 C 
ATOM     11  C1  <0> d   1      17.641   2.961  10.719  0.00  0.00     0.041 C 
BRANCH  10  12
ATOM     12  N13 <0> d   1      19.647   1.655  11.222  0.00  0.00    -0.165 N 
ATOM     13  O14 <0> d   1      20.313   2.904  11.239  0.00  0.00    -0.081 OA
ATOM     14  C15 <0> d   1      20.281   0.548  11.657  0.00  0.00     0.343 C 
ATOM     15  N16 <0> d   1      21.508   0.645  12.206  0.00  0.00    -0.350 N 
ATOM     16  O17 <0> d   1      19.744  -0.539  11.555  0.00  0.00    -0.245 OA
ATOM     17  H26 <0> d   1      21.935   1.512  12.287  0.00  0.00     0.160 HD
ATOM     18  H27 <0> d   1      21.963  -0.152  12.519  0.00  0.00     0.160 HD
ENDBRANCH  10  12
ENDBRANCH   1  10
TORSDOF 2
ENDMDL
MODEL 2
REMARK VINA RESULT:      -6.7      1.654      1.847
REMARK  2 active torsions:
REMARK  status: ('A' for Active; 'I' for Inactive)
REMARK    1  A    between atoms: C2_2  and  C4_3 
REMARK    2  A    between atoms: C2_2  and  N13_12 
REMARK       I    between atoms: N13_12  and  C15_14 
REMARK       I    between atoms: C15_14  and  N16_15 
ROOT
ATOM      1  C4  <0> d   1      18.631   1.332  10.484  0.00  0.00     0.009 A 
ATOM      2  C5  <0> d   1      19.210   1.749   9.375  0.00  0.00     0.029 A 
ATOM      3  C6  <0> d   1      18.685   1.164   8.152  0.00  0.00    -0.018 A 
ATOM      4  C7  <0> d   1      19.074   1.388   6.814  0.00  0.00     0.013 A 
ATOM      5  C8  <0> d   1      18.451   0.734   5.796  0.00  0.00     0.001 A 
ATOM      6  C9  <0> d   1      17.425  -0.165   6.056  0.00  0.00     0.001 A 
ATOM      7  C10 <0> d   1      17.026  -0.403   7.350  0.00  0.00     0.019 A 
ATOM      8  C11 <0> d   1      17.652   0.259   8.411  0.00  0.00     0.015 A 
ATOM      9  S12 <0> d   1      17.374   0.159  10.146  0.00  0.00    -0.092 SA
ENDROOT
BRANCH   1  10
ATOM     10  C2  <0> d   1      19.008   1.799  11.866  0.00  0.00     0.158 C 
ATOM     11  C1  <0> d   1      19.827   3.088  11.763  0.00  0.00     0.041 C 
BRANCH  10  12
ATOM     12  N13 <0> d   1      19.807   0.765  12.529  0.00  0.00    -0.165 N 
ATOM     13  O14 <0> d   1      21.165   0.583  12.173  0.00  0.00    -0.081 OA
ATOM     14  C15 <0> d   1      19.249  -0.013  13.478  0.00  0.00     0.343 C 
ATOM     15  N16 <0> d   1      20.008  -0.893  14.161  0.00  0.00    -0.350 N 
ATOM     16  O17 <0> d   1      18.061   0.080  13.718  0.00  0.00    -0.245 OA
ATOM     17  H26 <0> d   1      20.956  -0.966  13.969  0.00  0.00     0.160 HD
ATOM     18  H27 <0> d   1      19.606  -1.452  14.843  0.00  0.00     0.160 HD
ENDBRANCH  10  12
ENDBRANCH   1  10
TORSDOF 2
ENDMDL
MODEL 3
REMARK VINA RESULT:      -6.7      4.384      7.749
REMARK  2 active torsions:
REMARK  status: ('A' for Active; 'I' for Inactive)
REMARK    1  A    between atoms: C2_2  and  C4_3 
REMARK    2  A    between atoms: C2_2  and  N13_12 
REMARK       I    between atoms: N13_12  and  C15_14 
REMARK       I    between atoms: C15_14  and  N16_15 
ROOT
ATOM      1  C4  <0> d   1      18.369  -0.598  13.574  0.00  0.00     0.009 A 
ATOM      2  C5  <0> d   1      18.872  -1.343  14.538  0.00  0.00     0.029 A 
ATOM      3  C6  <0> d   1      18.840  -0.739  15.860  0.00  0.00    -0.018 A 
ATOM      4  C7  <0> d   1      19.291  -1.259  17.093  0.00  0.00     0.013 A 
ATOM      5  C8  <0> d   1      19.171  -0.528  18.235  0.00  0.00     0.001 A 
ATOM      6  C9  <0> d   1      18.605   0.740  18.206  0.00  0.00     0.001 A 
ATOM      7  C10 <0> d   1      18.158   1.271  17.020  0.00  0.00     0.019 A 
ATOM      8  C11 <0> d   1      18.271   0.537  15.835  0.00  0.00     0.015 A 
ATOM      9  S12 <0> d   1      17.805   0.945  14.187  0.00  0.00    -0.092 SA
ENDROOT
BRANCH   1  10
ATOM     10  C2  <0> d   1      18.296  -1.015  12.128  0.00  0.00     0.158 C 
ATOM     11  C1  <0> d   1      17.416  -2.261  12.001  0.00  0.00     0.041 C 
BRANCH  10  12
ATOM     12  N13 <0> d   1      19.644  -1.317  11.639  0.00  0.00    -0.165 N 
ATOM     13  O14 <0> d   1      20.077  -2.661  11.543  0.00  0.00    -0.081 OA
ATOM     14  C15 <0> d   1      20.471  -0.315  11.281  0.00  0.00     0.343 C 
ATOM     15  N16 <0> d   1      21.671  -0.594  10.734  0.00  0.00    -0.350 N 
ATOM     16  O17 <0> d   1      20.134   0.841  11.451  0.00  0.00    -0.245 OA
ATOM     17  H26 <0> d   1      21.939  -1.517  10.598  0.00  0.00     0.160 HD
ATOM     18  H27 <0> d   1      22.266   0.127  10.477  0.00  0.00     0.160 HD
ENDBRANCH  10  12
ENDBRANCH   1  10
TORSDOF 2
ENDMDL
MODEL 4
REMARK VINA RESULT:      -6.7      4.191      7.664
REMARK  2 active torsions:
REMARK  status: ('A' for Active; 'I' for Inactive)
REMARK    1  A    between atoms: C2_2  and  C4_3 
REMARK    2  A    between atoms: C2_2  and  N13_12 
REMARK       I    between atoms: N13_12  and  C15_14 
REMARK       I    between atoms: C15_14  and  N16_15 
ROOT
ATOM      1  C4  <0> d   1      17.864   0.483  13.577  0.00  0.00     0.009 A 
ATOM      2  C5  <0> d   1      18.090  -0.556  14.356  0.00  0.00     0.029 A 
ATOM      3  C6  <0> d   1      18.540  -0.229  15.699  0.00  0.00    -0.018 A 
ATOM      4  C7  <0> d   1      18.866  -1.091  16.768  0.00  0.00     0.013 A 
ATOM      5  C8  <0> d   1      19.272  -0.584  17.964  0.00  0.00     0.001 A 
ATOM      6  C9  <0> d   1      19.374   0.788  18.151  0.00  0.00     0.001 A 
ATOM      7  C10 <0> d   1      19.062   1.651  17.127  0.00  0.00     0.019 A 
ATOM      8  C11 <0> d   1      18.643   1.151  15.891  0.00  0.00     0.015 A 
ATOM      9  S12 <0> d   1      18.190   1.990  14.411  0.00  0.00    -0.092 SA
ENDROOT
BRANCH   1  10
ATOM     10  C2  <0> d   1      17.394   0.388  12.149  0.00  0.00     0.158 C 
ATOM     11  C1  <0> d   1      17.238  -1.084  11.760  0.00  0.00     0.041 C 
BRANCH  10  12
ATOM     12  N13 <0> d   1      18.378   1.022  11.267  0.00  0.00    -0.165 N 
ATOM     13  O14 <0> d   1      19.622   0.392  11.024  0.00  0.00    -0.081 OA
ATOM     14  C15 <0> d   1      18.099   2.208  10.689  0.00  0.00     0.343 C 
ATOM     15  N16 <0> d   1      18.959   2.742   9.799  0.00  0.00    -0.350 N 
ATOM     16  O17 <0> d   1      17.072   2.794  10.970  0.00  0.00    -0.245 OA
ATOM     17  H26 <0> d   1      19.777   2.273   9.574  0.00  0.00     0.160 HD
ATOM     18  H27 <0> d   1      18.757   3.594   9.383  0.00  0.00     0.160 HD
ENDBRANCH  10  12
ENDBRANCH   1  10
TORSDOF 2
ENDMDL
MODEL 5
REMARK VINA RESULT:      -6.6      5.134      6.707
REMARK  2 active torsions:
REMARK  status: ('A' for Active; 'I' for Inactive)
REMARK    1  A    between atoms: C2_2  and  C4_3 
REMARK    2  A    between atoms: C2_2  and  N13_12 
REMARK       I    between atoms: N13_12  and  C15_14 
REMARK       I    between atoms: C15_14  and  N16_15 
ROOT
ATOM      1  C4  <0> d   1      18.679   0.694  14.904  0.00  0.00     0.009 A 
ATOM      2  C5  <0> d   1      18.875   1.986  14.735  0.00  0.00     0.029 A 
ATOM      3  C6  <0> d   1      18.507   2.495  13.424  0.00  0.00    -0.018 A 
ATOM      4  C7  <0> d   1      18.586   3.811  12.919  0.00  0.00     0.013 A 
ATOM      5  C8  <0> d   1      18.187   4.088  11.648  0.00  0.00     0.001 A 
ATOM      6  C9  <0> d   1      17.696   3.082  10.827  0.00  0.00     0.001 A 
ATOM      7  C10 <0> d   1      17.607   1.791  11.291  0.00  0.00     0.019 A 
ATOM      8  C11 <0> d   1      18.011   1.485  12.594  0.00  0.00     0.015 A 
ATOM      9  S12 <0> d   1      18.025  -0.049  13.457  0.00  0.00    -0.092 SA
ENDROOT
BRANCH   1  10
ATOM     10  C2  <0> d   1      18.987  -0.052  16.176  0.00  0.00     0.158 C 
ATOM     11  C1  <0> d   1      18.821  -1.555  15.940  0.00  0.00     0.041 C 
BRANCH  10  12
ATOM     12  N13 <0> d   1      18.065   0.380  17.231  0.00  0.00    -0.165 N 
ATOM     13  O14 <0> d   1      16.678   0.131  17.104  0.00  0.00    -0.081 OA
ATOM     14  C15 <0> d   1      18.539   1.017  18.320  0.00  0.00     0.343 C 
ATOM     15  N16 <0> d   1      17.708   1.323  19.337  0.00  0.00    -0.350 N 
ATOM     16  O17 <0> d   1      19.716   1.314  18.387  0.00  0.00    -0.245 OA
ATOM     17  H26 <0> d   1      16.770   1.085  19.284  0.00  0.00     0.160 HD
ATOM     18  H27 <0> d   1      18.049   1.780  20.121  0.00  0.00     0.160 HD
ENDBRANCH  10  12
ENDBRANCH   1  10
TORSDOF 2
ENDMDL
MODEL 6
REMARK VINA RESULT:      -6.4      3.897      4.765
REMARK  2 active torsions:
REMARK  status: ('A' for Active; 'I' for Inactive)
REMARK    1  A    between atoms: C2_2  and  C4_3 
REMARK    2  A    between atoms: C2_2  and  N13_12 
REMARK       I    between atoms: N13_12  and  C15_14 
REMARK       I    between atoms: C15_14  and  N16_15 
ROOT
ATOM      1  C4  <0> d   1      18.067  -1.659  10.333  0.00  0.00     0.009 A 
ATOM      2  C5  <0> d   1      17.759  -2.529  11.274  0.00  0.00     0.029 A 
ATOM      3  C6  <0> d   1      17.544  -3.888  10.805  0.00  0.00    -0.018 A 
ATOM      4  C7  <0> d   1      17.206  -5.046  11.539  0.00  0.00     0.013 A 
ATOM      5  C8  <0> d   1      17.047  -6.241  10.907  0.00  0.00     0.001 A 
ATOM      6  C9  <0> d   1      17.213  -6.341   9.532  0.00  0.00     0.001 A 
ATOM      7  C10 <0> d   1      17.543  -5.231   8.793  0.00  0.00     0.019 A 
ATOM      8  C11 <0> d   1      17.712  -3.993   9.421  0.00  0.00     0.015 A 
ATOM      9  S12 <0> d   1      18.119  -2.416   8.753  0.00  0.00    -0.092 SA
ENDROOT
BRANCH   1  10
ATOM     10  C2  <0> d   1      18.333  -0.197  10.583  0.00  0.00     0.158 C 
ATOM     11  C1  <0> d   1      17.892   0.617   9.365  0.00  0.00     0.041 C 
BRANCH  10  12
ATOM     12  N13 <0> d   1      19.766   0.007  10.812  0.00  0.00    -0.165 N 
ATOM     13  O14 <0> d   1      20.681  -0.135   9.742  0.00  0.00    -0.081 OA
ATOM     14  C15 <0> d   1      20.213   0.327  12.043  0.00  0.00     0.343 C 
ATOM     15  N16 <0> d   1      21.516   0.615  12.233  0.00  0.00    -0.350 N 
ATOM     16  O17 <0> d   1      19.440   0.357  12.981  0.00  0.00    -0.245 OA
ATOM     17  H26 <0> d   1      22.132   0.592  11.484  0.00  0.00     0.160 HD
ATOM     18  H27 <0> d   1      21.837   0.846  13.118  0.00  0.00     0.160 HD
ENDBRANCH  10  12
ENDBRANCH   1  10
TORSDOF 2
ENDMDL
MODEL 7
REMARK VINA RESULT:      -6.3      1.594      1.803
REMARK  2 active torsions:
REMARK  status: ('A' for Active; 'I' for Inactive)
REMARK    1  A    between atoms: C2_2  and  C4_3 
REMARK    2  A    between atoms: C2_2  and  N13_12 
REMARK       I    between atoms: N13_12  and  C15_14 
REMARK       I    between atoms: C15_14  and  N16_15 
ROOT
ATOM      1  C4  <0> d   1      18.368  -0.152   9.720  0.00  0.00     0.009 A 
ATOM      2  C5  <0> d   1      18.272   0.735   8.749  0.00  0.00     0.029 A 
ATOM      3  C6  <0> d   1      18.577   0.225   7.422  0.00  0.00    -0.018 A 
ATOM      4  C7  <0> d   1      18.571   0.899   6.182  0.00  0.00     0.013 A 
ATOM      5  C8  <0> d   1      18.891   0.237   5.036  0.00  0.00     0.001 A 
ATOM      6  C9  <0> d   1      19.229  -1.109   5.068  0.00  0.00     0.001 A 
ATOM      7  C10 <0> d   1      19.243  -1.790   6.262  0.00  0.00     0.019 A 
ATOM      8  C11 <0> d   1      18.917  -1.130   7.451  0.00  0.00     0.015 A 
ATOM      9  S12 <0> d   1      18.855  -1.720   9.108  0.00  0.00    -0.092 SA
ENDROOT
BRANCH   1  10
ATOM     10  C2  <0> d   1      18.100   0.147  11.172  0.00  0.00     0.158 C 
ATOM     11  C1  <0> d   1      16.626  -0.121  11.485  0.00  0.00     0.041 C 
BRANCH  10  12
ATOM     12  N13 <0> d   1      18.408   1.554  11.446  0.00  0.00    -0.165 N 
ATOM     13  O14 <0> d   1      17.414   2.545  11.264  0.00  0.00    -0.081 OA
ATOM     14  C15 <0> d   1      19.639   1.904  11.870  0.00  0.00     0.343 C 
ATOM     15  N16 <0> d   1      19.893   3.180  12.221  0.00  0.00    -0.350 N 
ATOM     16  O17 <0> d   1      20.519   1.068  11.937  0.00  0.00    -0.245 OA
ATOM     17  H26 <0> d   1      19.191   3.846  12.168  0.00  0.00     0.160 HD
ATOM     18  H27 <0> d   1      20.778   3.431  12.526  0.00  0.00     0.160 HD
ENDBRANCH  10  12
ENDBRANCH   1  10
TORSDOF 2
ENDMDL
MODEL 8
REMARK VINA RESULT:      -6.3      5.163      7.163
REMARK  2 active torsions:
REMARK  status: ('A' for Active; 'I' for Inactive)
REMARK    1  A    between atoms: C2_2  and  C4_3 
REMARK    2  A    between atoms: C2_2  and  N13_12 
REMARK       I    between atoms: N13_12  and  C15_14 
REMARK       I    between atoms: C15_14  and  N16_15 
ROOT
ATOM      1  C4  <0> d   1      18.643   1.900  13.100  0.00  0.00     0.009 A 
ATOM      2  C5  <0> d   1      17.764   1.764  14.073  0.00  0.00     0.029 A 
ATOM      3  C6  <0> d   1      17.959   0.596  14.916  0.00  0.00    -0.018 A 
ATOM      4  C7  <0> d   1      17.208   0.160  16.030  0.00  0.00     0.013 A 
ATOM      5  C8  <0> d   1      17.557  -0.975  16.695  0.00  0.00     0.001 A 
ATOM      6  C9  <0> d   1      18.654  -1.723  16.289  0.00  0.00     0.001 A 
ATOM      7  C10 <0> d   1      19.403  -1.323  15.208  0.00  0.00     0.019 A 
ATOM      8  C11 <0> d   1      19.063  -0.159  14.511  0.00  0.00     0.015 A 
ATOM      9  S12 <0> d   1      19.811   0.593  13.106  0.00  0.00    -0.092 SA
ENDROOT
BRANCH   1  10
ATOM     10  C2  <0> d   1      18.639   3.031  12.104  0.00  0.00     0.158 C 
ATOM     11  C1  <0> d   1      20.060   3.256  11.583  0.00  0.00     0.041 C 
BRANCH  10  12
ATOM     12  N13 <0> d   1      18.160   4.253  12.755  0.00  0.00    -0.165 N 
ATOM     13  O14 <0> d   1      18.843   4.771  13.881  0.00  0.00    -0.081 OA
ATOM     14  C15 <0> d   1      17.066   4.884  12.283  0.00  0.00     0.343 C 
ATOM     15  N16 <0> d   1      16.685   6.062  12.815  0.00  0.00    -0.350 N 
ATOM     16  O17 <0> d   1      16.425   4.390  11.375  0.00  0.00    -0.245 OA
ATOM     17  H26 <0> d   1      17.197   6.455  13.538  0.00  0.00     0.160 HD
ATOM     18  H27 <0> d   1      15.898   6.515  12.474  0.00  0.00     0.160 HD
ENDBRANCH  10  12
ENDBRANCH   1  10
TORSDOF 2
ENDMDL
MODEL 9
REMARK VINA RESULT:      -6.2      3.791      5.771
REMARK  2 active torsions:
REMARK  status: ('A' for Active; 'I' for Inactive)
REMARK    1  A    between atoms: C2_2  and  C4_3 
REMARK    2  A    between atoms: C2_2  and  N13_12 
REMARK       I    between atoms: N13_12  and  C15_14 
REMARK       I    between atoms: C15_14  and  N16_15 
ROOT
ATOM      1  C4  <0> d   1      18.763   0.074   8.292  0.00  0.00     0.009 A 
ATOM      2  C5  <0> d   1      18.250   0.853   9.224  0.00  0.00     0.029 A 
ATOM      3  C6  <0> d   1      18.030   0.208  10.508  0.00  0.00    -0.018 A 
ATOM      4  C7  <0> d   1      17.503   0.747  11.702  0.00  0.00     0.013 A 
ATOM      5  C8  <0> d   1      17.375  -0.030  12.812  0.00  0.00     0.001 A 
ATOM      6  C9  <0> d   1      17.760  -1.364  12.789  0.00  0.00     0.001 A 
ATOM      7  C10 <0> d   1      18.276  -1.915  11.640  0.00  0.00     0.019 A 
ATOM      8  C11 <0> d   1      18.417  -1.135  10.488  0.00  0.00     0.015 A 
ATOM      9  S12 <0> d   1      19.026  -1.552   8.891  0.00  0.00    -0.092 SA
ENDROOT
BRANCH   1  10
ATOM     10  C2  <0> d   1      19.076   0.523   6.888  0.00  0.00     0.158 C 
ATOM     11  C1  <0> d   1      18.879   2.037   6.781  0.00  0.00     0.041 C 
BRANCH  10  12
ATOM     12  N13 <0> d   1      18.177  -0.153   5.948  0.00  0.00    -0.165 N 
ATOM     13  O14 <0> d   1      16.779  -0.137   6.169  0.00  0.00    -0.081 OA
ATOM     14  C15 <0> d   1      18.682  -0.791   4.874  0.00  0.00     0.343 C 
ATOM     15  N16 <0> d   1      17.853  -1.324   3.954  0.00  0.00    -0.350 N 
ATOM     16  O17 <0> d   1      19.886  -0.885   4.733  0.00  0.00    -0.245 OA
ATOM     17  H26 <0> d   1      16.892  -1.248   4.066  0.00  0.00     0.160 HD
ATOM     18  H27 <0> d   1      18.216  -1.783   3.182  0.00  0.00     0.160 HD
ENDBRANCH  10  12
ENDBRANCH   1  10
TORSDOF 2
ENDMDL
