MODEL 1
REMARK VINA RESULT:      -7.8      0.000      0.000
REMARK  6 active torsions:
REMARK  status: ('A' for Active; 'I' for Inactive)
REMARK    1  A    between atoms: N5_5  and  C6_6 
REMARK    2  A    between atoms: C6_6  and  C9_8 
REMARK    3  A    between atoms: C9_8  and  O10_9 
REMARK    4  A    between atoms: C9_8  and  C11_10 
REMARK    5  A    between atoms: C9_8  and  C17_16 
REMARK    6  A    between atoms: C11_10  and  N12_11 
ROOT
ATOM      1  C9  ZIN A   1      19.375  -1.017  10.951  0.00  0.00     0.136 C 
ENDROOT
BRANCH   1   2
ATOM      2  C6  ZIN A   1      20.016  -0.507  12.243  0.00  0.00     0.259 C 
ATOM      3  C8  ZIN A   1      20.515   0.925  12.035  0.00  0.00     0.046 C 
BRANCH   2   4
ATOM      4  N5  ZIN A   1      19.023  -0.527  13.325  0.00  0.00     0.096 N 
ATOM      5  C4  ZIN A   1      18.679   0.837  13.748  0.00  0.00     0.277 C 
ATOM      6  C3  ZIN A   1      17.474   0.788  14.695  0.00  0.00     0.063 C 
ATOM      7  C2  ZIN A   1      17.795  -0.173  15.820  0.00  0.00    -0.086 C 
ATOM      8  C1  ZIN A   1      17.608   0.164  17.072  0.00  0.00     0.014 C 
ATOM      9  C26 ZIN A   1      18.345  -1.535  15.449  0.00  0.00     0.063 C 
ATOM     10  C25 ZIN A   1      19.489  -1.341  14.454  0.00  0.00     0.277 C 
ENDBRANCH   2   4
ENDBRANCH   1   2
BRANCH   1  11
ATOM     11  O10 ZIN A   1      20.352  -1.029   9.907  0.00  0.00    -0.381 OA
ATOM     12  H36 ZIN A   1      21.207  -1.395  10.173  0.00  0.00     0.211 HD
ENDBRANCH   1  11
BRANCH   1  13
ATOM     13  C11 ZIN A   1      18.219  -0.096  10.557  0.00  0.00     0.197 C 
BRANCH  13  14
ATOM     14  N12 ZIN A   1      18.321   0.233   9.133  0.00  0.00    -0.259 N 
ATOM     15  N16 ZIN A   1      19.215   1.139   8.541  0.00  0.00    -0.165 NA
ATOM     16  C15 ZIN A   1      18.969   1.128   7.257  0.00  0.00     0.256 A 
ATOM     17  N14 ZIN A   1      17.972   0.278   7.015  0.00  0.00    -0.234 NA
ATOM     18  C13 ZIN A   1      17.572  -0.268   8.135  0.00  0.00     0.230 A 
ENDBRANCH  13  14
ENDBRANCH   1  13
BRANCH   1  19
ATOM     19  C17 ZIN A   1      18.853  -2.415  11.167  0.00  0.00     0.019 A 
ATOM     20  C23 ZIN A   1      19.739  -3.461  11.363  0.00  0.00     0.128 A 
ATOM     21  C22 ZIN A   1      19.259  -4.743  11.566  0.00  0.00     0.085 A 
ATOM     22  F24 ZIN A   1      21.069  -3.228  11.368  0.00  0.00    -0.205 F 
ATOM     23  C20 ZIN A   1      17.895  -4.980  11.561  0.00  0.00     0.119 A 
ATOM     24  C19 ZIN A   1      17.012  -3.933  11.358  0.00  0.00     0.043 A 
ATOM     25  F21 ZIN A   1      17.426  -6.232  11.753  0.00  0.00    -0.206 F 
ATOM     26  C18 ZIN A   1      17.491  -2.652  11.162  0.00  0.00     0.016 A 
ENDBRANCH   1  19
TORSDOF 6
ENDMDL
MODEL 2
REMARK VINA RESULT:      -7.8      3.045      4.487
REMARK  6 active torsions:
REMARK  status: ('A' for Active; 'I' for Inactive)
REMARK    1  A    between atoms: N5_5  and  C6_6 
REMARK    2  A    between atoms: C6_6  and  C9_8 
REMARK    3  A    between atoms: C9_8  and  O10_9 
REMARK    4  A    between atoms: C9_8  and  C11_10 
REMARK    5  A    between atoms: C9_8  and  C17_16 
REMARK    6  A    between atoms: C11_10  and  N12_11 
ROOT
ATOM      1  C9  ZIN A   1      18.905   1.413  11.009  0.00  0.00     0.136 C 
ENDROOT
BRANCH   1   2
ATOM      2  C6  ZIN A   1      19.608   0.244  11.701  0.00  0.00     0.259 C 
ATOM      3  C8  ZIN A   1      21.102   0.549  11.826  0.00  0.00     0.046 C 
BRANCH   2   4
ATOM      4  N5  ZIN A   1      19.034   0.050  13.039  0.00  0.00     0.096 N 
ATOM      5  C4  ZIN A   1      19.813   0.770  14.054  0.00  0.00     0.277 C 
ATOM      6  C3  ZIN A   1      19.056   0.749  15.388  0.00  0.00     0.063 C 
ATOM      7  C2  ZIN A   1      18.734  -0.691  15.726  0.00  0.00    -0.086 C 
ATOM      8  C1  ZIN A   1      18.994  -1.183  16.912  0.00  0.00     0.014 C 
ATOM      9  C26 ZIN A   1      18.106  -1.547  14.645  0.00  0.00     0.063 C 
ATOM     10  C25 ZIN A   1      18.919  -1.378  13.361  0.00  0.00     0.277 C 
ENDBRANCH   2   4
ENDBRANCH   1   2
BRANCH   1  11
ATOM     11  O10 ZIN A   1      19.764   2.555  11.012  0.00  0.00    -0.381 OA
ATOM     12  H36 ZIN A   1      20.621   2.404  10.588  0.00  0.00     0.211 HD
ENDBRANCH   1  11
BRANCH   1  13
ATOM     13  C11 ZIN A   1      17.612   1.746  11.756  0.00  0.00     0.197 C 
BRANCH  13  14
ATOM     14  N12 ZIN A   1      17.434   3.199  11.800  0.00  0.00    -0.259 N 
ATOM     15  N16 ZIN A   1      17.063   4.034  10.735  0.00  0.00    -0.165 NA
ATOM     16  C15 ZIN A   1      17.018   5.252  11.207  0.00  0.00     0.256 A 
ATOM     17  N14 ZIN A   1      17.346   5.228  12.498  0.00  0.00    -0.234 NA
ATOM     18  C13 ZIN A   1      17.599   3.998  12.868  0.00  0.00     0.230 A 
ENDBRANCH  13  14
ENDBRANCH   1  13
BRANCH   1  19
ATOM     19  C17 ZIN A   1      18.580   1.033   9.586  0.00  0.00     0.019 A 
ATOM     20  C23 ZIN A   1      17.633   0.055   9.331  0.00  0.00     0.128 A 
ATOM     21  C22 ZIN A   1      17.331  -0.290   8.026  0.00  0.00     0.085 A 
ATOM     22  F24 ZIN A   1      16.996  -0.552  10.355  0.00  0.00    -0.205 F 
ATOM     23  C20 ZIN A   1      17.984   0.335   6.976  0.00  0.00     0.119 A 
ATOM     24  C19 ZIN A   1      18.935   1.307   7.235  0.00  0.00     0.043 A 
ATOM     25  F21 ZIN A   1      17.694  -0.005   5.702  0.00  0.00    -0.206 F 
ATOM     26  C18 ZIN A   1      19.232   1.656   8.539  0.00  0.00     0.016 A 
ENDBRANCH   1  19
TORSDOF 6
ENDMDL
MODEL 3
REMARK VINA RESULT:      -7.7      3.115      5.478
REMARK  6 active torsions:
REMARK  status: ('A' for Active; 'I' for Inactive)
REMARK    1  A    between atoms: N5_5  and  C6_6 
REMARK    2  A    between atoms: C6_6  and  C9_8 
REMARK    3  A    between atoms: C9_8  and  O10_9 
REMARK    4  A    between atoms: C9_8  and  C11_10 
REMARK    5  A    between atoms: C9_8  and  C17_16 
REMARK    6  A    between atoms: C11_10  and  N12_11 
ROOT
ATOM      1  C9  ZIN A   1      19.020  -0.119  13.569  0.00  0.00     0.136 C 
ENDROOT
BRANCH   1   2
ATOM      2  C6  ZIN A   1      19.742   1.097  12.986  0.00  0.00     0.259 C 
ATOM      3  C8  ZIN A   1      20.885   0.628  12.082  0.00  0.00     0.046 C 
BRANCH   2   4
ATOM      4  N5  ZIN A   1      18.795   1.900  12.201  0.00  0.00     0.096 N 
ATOM      5  C4  ZIN A   1      19.295   2.118  10.837  0.00  0.00     0.277 C 
ATOM      6  C3  ZIN A   1      18.185   2.741   9.981  0.00  0.00     0.063 C 
ATOM      7  C2  ZIN A   1      17.683   3.982  10.688  0.00  0.00    -0.086 C 
ATOM      8  C1  ZIN A   1      17.556   5.120  10.051  0.00  0.00     0.014 C 
ATOM      9  C26 ZIN A   1      17.338   3.865  12.159  0.00  0.00     0.063 C 
ATOM     10  C25 ZIN A   1      18.495   3.169  12.875  0.00  0.00     0.277 C 
ENDBRANCH   2   4
ENDBRANCH   1   2
BRANCH   1  11
ATOM     11  O10 ZIN A   1      19.807  -1.292  13.347  0.00  0.00    -0.381 OA
ATOM     12  H36 ZIN A   1      20.548  -1.159  12.740  0.00  0.00     0.211 HD
ENDBRANCH   1  11
BRANCH   1  13
ATOM     13  C11 ZIN A   1      17.661  -0.280  12.887  0.00  0.00     0.197 C 
BRANCH  13  14
ATOM     14  N12 ZIN A   1      17.739  -1.347  11.886  0.00  0.00    -0.259 N 
ATOM     15  N16 ZIN A   1      17.735  -2.730  12.128  0.00  0.00    -0.165 NA
ATOM     16  C15 ZIN A   1      17.818  -3.318  10.963  0.00  0.00     0.256 A 
ATOM     17  N14 ZIN A   1      17.882  -2.386  10.013  0.00  0.00    -0.234 NA
ATOM     18  C13 ZIN A   1      17.836  -1.196  10.554  0.00  0.00     0.230 A 
ENDBRANCH  13  14
ENDBRANCH   1  13
BRANCH   1  19
ATOM     19  C17 ZIN A   1      18.820   0.078  15.050  0.00  0.00     0.019 A 
ATOM     20  C23 ZIN A   1      18.309  -0.953  15.821  0.00  0.00     0.128 A 
ATOM     21  C22 ZIN A   1      18.130  -0.774  17.182  0.00  0.00     0.085 A 
ATOM     22  F24 ZIN A   1      17.998  -2.135  15.248  0.00  0.00    -0.205 F 
ATOM     23  C20 ZIN A   1      18.450   0.439  17.768  0.00  0.00     0.119 A 
ATOM     24  C19 ZIN A   1      18.954   1.470  16.993  0.00  0.00     0.043 A 
ATOM     25  F21 ZIN A   1      18.270   0.617  19.095  0.00  0.00    -0.206 F 
ATOM     26  C18 ZIN A   1      19.139   1.288  15.635  0.00  0.00     0.016 A 
ENDBRANCH   1  19
TORSDOF 6
ENDMDL
MODEL 4
REMARK VINA RESULT:      -7.6      2.769      5.730
REMARK  6 active torsions:
REMARK  status: ('A' for Active; 'I' for Inactive)
REMARK    1  A    between atoms: N5_5  and  C6_6 
REMARK    2  A    between atoms: C6_6  and  C9_8 
REMARK    3  A    between atoms: C9_8  and  O10_9 
REMARK    4  A    between atoms: C9_8  and  C11_10 
REMARK    5  A    between atoms: C9_8  and  C17_16 
REMARK    6  A    between atoms: C11_10  and  N12_11 
ROOT
ATOM      1  C9  ZIN A   1      18.877  -1.287  12.662  0.00  0.00     0.136 C 
ENDROOT
BRANCH   1   2
ATOM      2  C6  ZIN A   1      19.238   0.015  11.945  0.00  0.00     0.259 C 
ATOM      3  C8  ZIN A   1      20.742   0.268  12.072  0.00  0.00     0.046 C 
BRANCH   2   4
ATOM      4  N5  ZIN A   1      18.878  -0.092  10.525  0.00  0.00     0.096 N 
ATOM      5  C4  ZIN A   1      20.069  -0.322   9.696  0.00  0.00     0.277 C 
ATOM      6  C3  ZIN A   1      19.636  -0.670   8.267  0.00  0.00     0.063 C 
ATOM      7  C2  ZIN A   1      18.709   0.421   7.774  0.00  0.00    -0.086 C 
ATOM      8  C1  ZIN A   1      18.890   0.986   6.605  0.00  0.00     0.014 C 
ATOM      9  C26 ZIN A   1      17.571   0.843   8.679  0.00  0.00     0.063 C 
ATOM     10  C25 ZIN A   1      18.131   1.091  10.080  0.00  0.00     0.277 C 
ENDBRANCH   2   4
ENDBRANCH   1   2
BRANCH   1  11
ATOM     11  O10 ZIN A   1      19.965  -2.208  12.555  0.00  0.00    -0.381 OA
ATOM     12  H36 ZIN A   1      20.493  -2.288  13.361  0.00  0.00     0.211 HD
ENDBRANCH   1  11
BRANCH   1  13
ATOM     13  C11 ZIN A   1      17.629  -1.894  12.020  0.00  0.00     0.197 C 
BRANCH  13  14
ATOM     14  N12 ZIN A   1      17.943  -3.233  11.515  0.00  0.00    -0.259 N 
ATOM     15  N16 ZIN A   1      18.755  -3.548  10.414  0.00  0.00    -0.165 NA
ATOM     16  C15 ZIN A   1      18.768  -4.852  10.315  0.00  0.00     0.256 A 
ATOM     17  N14 ZIN A   1      18.008  -5.367  11.280  0.00  0.00    -0.234 NA
ATOM     18  C13 ZIN A   1      17.504  -4.404  12.010  0.00  0.00     0.230 A 
ENDBRANCH  13  14
ENDBRANCH   1  13
BRANCH   1  19
ATOM     19  C17 ZIN A   1      18.605  -1.000  14.117  0.00  0.00     0.019 A 
ATOM     20  C23 ZIN A   1      17.672  -0.039  14.469  0.00  0.00     0.128 A 
ATOM     21  C22 ZIN A   1      17.418   0.222  15.805  0.00  0.00     0.085 A 
ATOM     22  F24 ZIN A   1      17.002   0.636  13.511  0.00  0.00    -0.205 F 
ATOM     23  C20 ZIN A   1      18.106  -0.472  16.787  0.00  0.00     0.119 A 
ATOM     24  C19 ZIN A   1      19.042  -1.427  16.431  0.00  0.00     0.043 A 
ATOM     25  F21 ZIN A   1      17.863  -0.215  18.091  0.00  0.00    -0.206 F 
ATOM     26  C18 ZIN A   1      19.291  -1.691  15.098  0.00  0.00     0.016 A 
ENDBRANCH   1  19
TORSDOF 6
ENDMDL
MODEL 5
REMARK VINA RESULT:      -7.6      3.334      5.403
REMARK  6 active torsions:
REMARK  status: ('A' for Active; 'I' for Inactive)
REMARK    1  A    between atoms: N5_5  and  C6_6 
REMARK    2  A    between atoms: C6_6  and  C9_8 
REMARK    3  A    between atoms: C9_8  and  O10_9 
REMARK    4  A    between atoms: C9_8  and  C11_10 
REMARK    5  A    between atoms: C9_8  and  C17_16 
REMARK    6  A    between atoms: C11_10  and  N12_11 
ROOT
ATOM      1  C9  ZIN A   1      19.167   0.243   9.399  0.00  0.00     0.136 C 
ENDROOT
BRANCH   1   2
ATOM      2  C6  ZIN A   1      19.844  -1.017   9.941  0.00  0.00     0.259 C 
ATOM      3  C8  ZIN A   1      20.833  -0.631  11.043  0.00  0.00     0.046 C 
BRANCH   2   4
ATOM      4  N5  ZIN A   1      18.827  -1.923  10.491  0.00  0.00     0.096 N 
ATOM      5  C4  ZIN A   1      19.112  -2.242  11.896  0.00  0.00     0.277 C 
ATOM      6  C3  ZIN A   1      17.914  -2.981  12.504  0.00  0.00     0.063 C 
ATOM      7  C2  ZIN A   1      17.597  -4.172  11.625  0.00  0.00    -0.086 C 
ATOM      8  C1  ZIN A   1      17.430  -5.367  12.138  0.00  0.00     0.014 C 
ATOM      9  C26 ZIN A   1      17.487  -3.939  10.133  0.00  0.00     0.063 C 
ATOM     10  C25 ZIN A   1      18.706  -3.137   9.676  0.00  0.00     0.277 C 
ENDBRANCH   2   4
ENDBRANCH   1   2
BRANCH   1  11
ATOM     11  O10 ZIN A   1      19.914   1.394   9.796  0.00  0.00    -0.381 OA
ATOM     12  H36 ZIN A   1      19.481   2.234   9.591  0.00  0.00     0.211 HD
ENDBRANCH   1  11
BRANCH   1  13
ATOM     13  C11 ZIN A   1      17.746   0.339   9.957  0.00  0.00     0.197 C 
BRANCH  13  14
ATOM     14  N12 ZIN A   1      17.684   1.414  10.950  0.00  0.00    -0.259 N 
ATOM     15  N16 ZIN A   1      17.481   2.780  10.700  0.00  0.00    -0.165 NA
ATOM     16  C15 ZIN A   1      17.492   3.383  11.860  0.00  0.00     0.256 A 
ATOM     17  N14 ZIN A   1      17.697   2.478  12.816  0.00  0.00    -0.234 NA
ATOM     18  C13 ZIN A   1      17.814   1.288  12.282  0.00  0.00     0.230 A 
ENDBRANCH  13  14
ENDBRANCH   1  13
BRANCH   1  19
ATOM     19  C17 ZIN A   1      19.111   0.175   7.893  0.00  0.00     0.019 A 
ATOM     20  C23 ZIN A   1      18.968   1.337   7.155  0.00  0.00     0.128 A 
ATOM     21  C22 ZIN A   1      18.921   1.276   5.773  0.00  0.00     0.085 A 
ATOM     22  F24 ZIN A   1      18.884   2.531   7.781  0.00  0.00    -0.205 F 
ATOM     23  C20 ZIN A   1      19.008   0.052   5.132  0.00  0.00     0.119 A 
ATOM     24  C19 ZIN A   1      19.145  -1.109   5.874  0.00  0.00     0.043 A 
ATOM     25  F21 ZIN A   1      18.957  -0.010   3.783  0.00  0.00    -0.206 F 
ATOM     26  C18 ZIN A   1      19.197  -1.046   7.253  0.00  0.00     0.016 A 
ENDBRANCH   1  19
TORSDOF 6
ENDMDL
MODEL 6
REMARK VINA RESULT:      -7.4      2.733      5.724
REMARK  6 active torsions:
REMARK  status: ('A' for Active; 'I' for Inactive)
REMARK    1  A    between atoms: N5_5  and  C6_6 
REMARK    2  A    between atoms: C6_6  and  C9_8 
REMARK    3  A    between atoms: C9_8  and  O10_9 
REMARK    4  A    between atoms: C9_8  and  C11_10 
REMARK    5  A    between atoms: C9_8  and  C17_16 
REMARK    6  A    between atoms: C11_10  and  N12_11 
ROOT
ATOM      1  C9  ZIN A   1      18.052   0.618  11.914  0.00  0.00     0.136 C 
ENDROOT
BRANCH   1   2
ATOM      2  C6  ZIN A   1      18.400  -0.425  10.851  0.00  0.00     0.259 C 
ATOM      3  C8  ZIN A   1      17.463  -1.627  10.990  0.00  0.00     0.046 C 
BRANCH   2   4
ATOM      4  N5  ZIN A   1      18.244   0.165   9.515  0.00  0.00     0.096 N 
ATOM      5  C4  ZIN A   1      17.598  -0.779   8.595  0.00  0.00     0.277 C 
ATOM      6  C3  ZIN A   1      17.231  -0.054   7.294  0.00  0.00     0.063 C 
ATOM      7  C2  ZIN A   1      18.479   0.615   6.758  0.00  0.00    -0.086 C 
ATOM      8  C1  ZIN A   1      18.838   0.474   5.506  0.00  0.00     0.014 C 
ATOM      9  C26 ZIN A   1      19.302   1.447   7.719  0.00  0.00     0.063 C 
ATOM     10  C25 ZIN A   1      19.534   0.632   8.991  0.00  0.00     0.277 C 
ENDBRANCH   2   4
ENDBRANCH   1   2
BRANCH   1  11
ATOM     11  O10 ZIN A   1      16.675   0.981  11.793  0.00  0.00    -0.381 OA
ATOM     12  H36 ZIN A   1      16.322   0.894  10.897  0.00  0.00     0.211 HD
ENDBRANCH   1  11
BRANCH   1  13
ATOM     13  C11 ZIN A   1      18.925   1.859  11.716  0.00  0.00     0.197 C 
BRANCH  13  14
ATOM     14  N12 ZIN A   1      18.085   3.058  11.756  0.00  0.00    -0.259 N 
ATOM     15  N16 ZIN A   1      17.258   3.541  10.730  0.00  0.00    -0.165 NA
ATOM     16  C15 ZIN A   1      16.689   4.628  11.182  0.00  0.00     0.256 A 
ATOM     17  N14 ZIN A   1      17.116   4.855  12.423  0.00  0.00    -0.234 NA
ATOM     18  C13 ZIN A   1      17.958   3.919  12.782  0.00  0.00     0.230 A 
ENDBRANCH  13  14
ENDBRANCH   1  13
BRANCH   1  19
ATOM     19  C17 ZIN A   1      18.301   0.042  13.285  0.00  0.00     0.019 A 
ATOM     20  C23 ZIN A   1      19.452  -0.688  13.529  0.00  0.00     0.128 A 
ATOM     21  C22 ZIN A   1      19.683  -1.213  14.788  0.00  0.00     0.085 A 
ATOM     22  F24 ZIN A   1      20.354  -0.878  12.542  0.00  0.00    -0.205 F 
ATOM     23  C20 ZIN A   1      18.758  -1.017  15.800  0.00  0.00     0.119 A 
ATOM     24  C19 ZIN A   1      17.605  -0.292  15.550  0.00  0.00     0.043 A 
ATOM     25  F21 ZIN A   1      18.979  -1.534  17.028  0.00  0.00    -0.206 F 
ATOM     26  C18 ZIN A   1      17.378   0.237  14.294  0.00  0.00     0.016 A 
ENDBRANCH   1  19
TORSDOF 6
ENDMDL
MODEL 7
REMARK VINA RESULT:      -7.3      3.076      5.002
REMARK  6 active torsions:
REMARK  status: ('A' for Active; 'I' for Inactive)
REMARK    1  A    between atoms: N5_5  and  C6_6 
REMARK    2  A    between atoms: C6_6  and  C9_8 
REMARK    3  A    between atoms: C9_8  and  O10_9 
REMARK    4  A    between atoms: C9_8  and  C11_10 
REMARK    5  A    between atoms: C9_8  and  C17_16 
REMARK    6  A    between atoms: C11_10  and  N12_11 
ROOT
ATOM      1  C9  ZIN A   1      18.407  -0.391  11.509  0.00  0.00     0.136 C 
ENDROOT
BRANCH   1   2
ATOM      2  C6  ZIN A   1      19.553  -0.445  12.520  0.00  0.00     0.259 C 
ATOM      3  C8  ZIN A   1      20.520   0.712  12.261  0.00  0.00     0.046 C 
BRANCH   2   4
ATOM      4  N5  ZIN A   1      19.011  -0.335  13.881  0.00  0.00     0.096 N 
ATOM      5  C4  ZIN A   1      19.488   0.889  14.539  0.00  0.00     0.277 C 
ATOM      6  C3  ZIN A   1      18.719   1.096  15.849  0.00  0.00     0.063 C 
ATOM      7  C2  ZIN A   1      18.841  -0.168  16.675  0.00  0.00    -0.086 C 
ATOM      8  C1  ZIN A   1      19.190  -0.122  17.937  0.00  0.00     0.014 C 
ATOM      9  C26 ZIN A   1      18.552  -1.488  15.990  0.00  0.00     0.063 C 
ATOM     10  C25 ZIN A   1      19.326  -1.531  14.672  0.00  0.00     0.277 C 
ENDBRANCH   2   4
ENDBRANCH   1   2
BRANCH   1  11
ATOM     11  O10 ZIN A   1      17.176  -0.698  12.167  0.00  0.00    -0.381 OA
ATOM     12  H36 ZIN A   1      17.232  -0.685  13.132  0.00  0.00     0.211 HD
ENDBRANCH   1  11
BRANCH   1  13
ATOM     13  C11 ZIN A   1      18.659  -1.410  10.397  0.00  0.00     0.197 C 
BRANCH  13  14
ATOM     14  N12 ZIN A   1      18.384  -2.758  10.899  0.00  0.00    -0.259 N 
ATOM     15  N16 ZIN A   1      17.124  -3.325  11.144  0.00  0.00    -0.165 NA
ATOM     16  C15 ZIN A   1      17.333  -4.540  11.579  0.00  0.00     0.256 A 
ATOM     17  N14 ZIN A   1      18.646  -4.761  11.628  0.00  0.00    -0.234 NA
ATOM     18  C13 ZIN A   1      19.291  -3.698  11.222  0.00  0.00     0.230 A 
ENDBRANCH  13  14
ENDBRANCH   1  13
BRANCH   1  19
ATOM     19  C17 ZIN A   1      18.327   0.992  10.914  0.00  0.00     0.019 A 
ATOM     20  C23 ZIN A   1      17.689   2.007  11.607  0.00  0.00     0.128 A 
ATOM     21  C22 ZIN A   1      17.620   3.278  11.064  0.00  0.00     0.085 A 
ATOM     22  F24 ZIN A   1      17.146   1.760  12.819  0.00  0.00    -0.205 F 
ATOM     23  C20 ZIN A   1      18.179   3.530   9.822  0.00  0.00     0.119 A 
ATOM     24  C19 ZIN A   1      18.810   2.512   9.128  0.00  0.00     0.043 A 
ATOM     25  F21 ZIN A   1      18.106   4.769   9.288  0.00  0.00    -0.206 F 
ATOM     26  C18 ZIN A   1      18.884   1.244   9.675  0.00  0.00     0.016 A 
ENDBRANCH   1  19
TORSDOF 6
ENDMDL
MODEL 8
REMARK VINA RESULT:      -7.3      3.644      5.802
REMARK  6 active torsions:
REMARK  status: ('A' for Active; 'I' for Inactive)
REMARK    1  A    between atoms: N5_5  and  C6_6 
REMARK    2  A    between atoms: C6_6  and  C9_8 
REMARK    3  A    between atoms: C9_8  and  O10_9 
REMARK    4  A    between atoms: C9_8  and  C11_10 
REMARK    5  A    between atoms: C9_8  and  C17_16 
REMARK    6  A    between atoms: C11_10  and  N12_11 
ROOT
ATOM      1  C9  ZIN A   1      18.294   2.131  11.220  0.00  0.00     0.136 C 
ENDROOT
BRANCH   1   2
ATOM      2  C6  ZIN A   1      18.525   3.642  11.164  0.00  0.00     0.259 C 
ATOM      3  C8  ZIN A   1      17.400   4.302  10.363  0.00  0.00     0.046 C 
BRANCH   2   4
ATOM      4  N5  ZIN A   1      18.539   4.187  12.528  0.00  0.00     0.096 N 
ATOM      5  C4  ZIN A   1      17.320   4.962  12.797  0.00  0.00     0.277 C 
ATOM      6  C3  ZIN A   1      17.254   5.305  14.290  0.00  0.00     0.063 C 
ATOM      7  C2  ZIN A   1      18.549   5.988  14.677  0.00  0.00    -0.086 C 
ATOM      8  C1  ZIN A   1      18.548   7.110  15.353  0.00  0.00     0.014 C 
ATOM      9  C26 ZIN A   1      19.847   5.333  14.250  0.00  0.00     0.063 C 
ATOM     10  C25 ZIN A   1      19.748   4.984  12.765  0.00  0.00     0.277 C 
ENDBRANCH   2   4
ENDBRANCH   1   2
BRANCH   1  11
ATOM     11  O10 ZIN A   1      17.016   1.866  11.803  0.00  0.00    -0.381 OA
ATOM     12  H36 ZIN A   1      16.882   0.941  12.052  0.00  0.00     0.211 HD
ENDBRANCH   1  11
BRANCH   1  13
ATOM     13  C11 ZIN A   1      19.387   1.479  12.068  0.00  0.00     0.197 C 
BRANCH  13  14
ATOM     14  N12 ZIN A   1      18.770   0.717  13.157  0.00  0.00    -0.259 N 
ATOM     15  N16 ZIN A   1      18.137   1.237  14.296  0.00  0.00    -0.165 NA
ATOM     16  C15 ZIN A   1      17.729   0.216  15.002  0.00  0.00     0.256 A 
ATOM     17  N14 ZIN A   1      18.076  -0.908  14.377  0.00  0.00    -0.234 NA
ATOM     18  C13 ZIN A   1      18.704  -0.622  13.265  0.00  0.00     0.230 A 
ENDBRANCH  13  14
ENDBRANCH   1  13
BRANCH   1  19
ATOM     19  C17 ZIN A   1      18.336   1.564   9.824  0.00  0.00     0.019 A 
ATOM     20  C23 ZIN A   1      17.526   0.493   9.488  0.00  0.00     0.128 A 
ATOM     21  C22 ZIN A   1      17.561  -0.025   8.205  0.00  0.00     0.085 A 
ATOM     22  F24 ZIN A   1      16.692  -0.039  10.408  0.00  0.00    -0.205 F 
ATOM     23  C20 ZIN A   1      18.415   0.522   7.262  0.00  0.00     0.119 A 
ATOM     24  C19 ZIN A   1      19.229   1.588   7.603  0.00  0.00     0.043 A 
ATOM     25  F21 ZIN A   1      18.455   0.014   6.011  0.00  0.00    -0.206 F 
ATOM     26  C18 ZIN A   1      19.189   2.109   8.882  0.00  0.00     0.016 A 
ENDBRANCH   1  19
TORSDOF 6
ENDMDL
MODEL 9
REMARK VINA RESULT:      -7.2      2.661      4.194
REMARK  6 active torsions:
REMARK  status: ('A' for Active; 'I' for Inactive)
REMARK    1  A    between atoms: N5_5  and  C6_6 
REMARK    2  A    between atoms: C6_6  and  C9_8 
REMARK    3  A    between atoms: C9_8  and  O10_9 
REMARK    4  A    between atoms: C9_8  and  C11_10 
REMARK    5  A    between atoms: C9_8  and  C17_16 
REMARK    6  A    between atoms: C11_10  and  N12_11 
ROOT
ATOM      1  C9  ZIN A   1      18.134  -0.951  11.551  0.00  0.00     0.136 C 
ENDROOT
BRANCH   1   2
ATOM      2  C6  ZIN A   1      18.663   0.061  12.570  0.00  0.00     0.259 C 
ATOM      3  C8  ZIN A   1      17.968   1.408  12.360  0.00  0.00     0.046 C 
BRANCH   2   4
ATOM      4  N5  ZIN A   1      18.390  -0.424  13.929  0.00  0.00     0.096 N 
ATOM      5  C4  ZIN A   1      17.746   0.617  14.739  0.00  0.00     0.277 C 
ATOM      6  C3  ZIN A   1      17.258   0.007  16.059  0.00  0.00     0.063 C 
ATOM      7  C2  ZIN A   1      18.428  -0.691  16.720  0.00  0.00    -0.086 C 
ATOM      8  C1  ZIN A   1      18.717  -0.482  17.980  0.00  0.00     0.014 C 
ATOM      9  C26 ZIN A   1      19.257  -1.633  15.872  0.00  0.00     0.063 C 
ATOM     10  C25 ZIN A   1      19.615  -0.924  14.566  0.00  0.00     0.277 C 
ENDBRANCH   2   4
ENDBRANCH   1   2
BRANCH   1  11
ATOM     11  O10 ZIN A   1      16.745  -1.188  11.792  0.00  0.00    -0.381 OA
ATOM     12  H36 ZIN A   1      16.565  -1.658  12.619  0.00  0.00     0.211 HD
ENDBRANCH   1  11
BRANCH   1  13
ATOM     13  C11 ZIN A   1      18.907  -2.263  11.687  0.00  0.00     0.197 C 
BRANCH  13  14
ATOM     14  N12 ZIN A   1      18.167  -3.337  11.019  0.00  0.00    -0.259 N 
ATOM     15  N16 ZIN A   1      17.002  -3.969  11.480  0.00  0.00    -0.165 NA
ATOM     16  C15 ZIN A   1      16.675  -4.861  10.582  0.00  0.00     0.256 A 
ATOM     17  N14 ZIN A   1      17.570  -4.830   9.596  0.00  0.00    -0.234 NA
ATOM     18  C13 ZIN A   1      18.474  -3.917   9.845  0.00  0.00     0.230 A 
ENDBRANCH  13  14
ENDBRANCH   1  13
BRANCH   1  19
ATOM     19  C17 ZIN A   1      18.315  -0.403  10.158  0.00  0.00     0.019 A 
ATOM     20  C23 ZIN A   1      19.573  -0.021   9.724  0.00  0.00     0.128 A 
ATOM     21  C22 ZIN A   1      19.740   0.477   8.443  0.00  0.00     0.085 A 
ATOM     22  F24 ZIN A   1      20.638  -0.146  10.544  0.00  0.00    -0.205 F 
ATOM     23  C20 ZIN A   1      18.646   0.604   7.603  0.00  0.00     0.119 A 
ATOM     24  C19 ZIN A   1      17.389   0.227   8.043  0.00  0.00     0.043 A 
ATOM     25  F21 ZIN A   1      18.807   1.095   6.355  0.00  0.00    -0.206 F 
ATOM     26  C18 ZIN A   1      17.224  -0.276   9.319  0.00  0.00     0.016 A 
ENDBRANCH   1  19
TORSDOF 6
ENDMDL
