MODEL 1
REMARK VINA RESULT:      -9.4      0.000      0.000
REMARK  13 active torsions:
REMARK  status: ('A' for Active; 'I' for Inactive)
REMARK    1  A    between atoms: C2_2  and  O4_4 
REMARK    2  A    between atoms: C2_2  and  C5_5 
REMARK    3  A    between atoms: C10_10  and  C11_11 
REMARK    4  A    between atoms: C11_11  and  C12_12 
REMARK    5  A    between atoms: C12_12  and  C13_13 
REMARK    6  A    between atoms: C13_13  and  S15_14 
REMARK    7  A    between atoms: C13_13  and  C24_23 
REMARK    8  A    between atoms: S15_14  and  C16_15 
REMARK    9  A    between atoms: C16_15  and  C17_16 
REMARK   10  A    between atoms: C17_16  and  C18_17 
REMARK   11  A    between atoms: C18_17  and  C19_18 
REMARK   12  A    between atoms: C28_27  and  C29_28 
REMARK   13  A    between atoms: C30_29  and  C31_30 
ROOT
ATOM      1  C13 ZIN A   1      19.226   2.761  16.035  0.00  0.00     0.080 C 
ENDROOT
BRANCH   1   2
ATOM      2  C12 ZIN A   1      18.390   3.461  14.961  0.00  0.00     0.025 C 
BRANCH   2   3
ATOM      3  C11 ZIN A   1      19.219   3.604  13.682  0.00  0.00     0.040 C 
BRANCH   3   4
ATOM      4  C10 ZIN A   1      18.350   4.154  12.581  0.00  0.00    -0.049 A 
ATOM      5  C5  ZIN A   1      18.461   3.653  11.297  0.00  0.00    -0.019 A 
ATOM      6  C6  ZIN A   1      17.663   4.157  10.287  0.00  0.00     0.011 A 
ATOM      7  C7  ZIN A   1      16.757   5.165  10.559  0.00  0.00     0.001 A 
ATOM      8  C8  ZIN A   1      16.649   5.669  11.842  0.00  0.00     0.001 A 
ATOM      9  C9  ZIN A   1      17.447   5.165  12.852  0.00  0.00     0.007 A 
BRANCH   5  10
ATOM     10  C2  ZIN A   1      19.448   2.553  11.000  0.00  0.00     0.078 C 
ATOM     11  C1  ZIN A   1      19.418   2.231   9.505  0.00  0.00     0.051 C 
ATOM     12  C3  ZIN A   1      19.074   1.303  11.799  0.00  0.00     0.051 C 
BRANCH  10  13
ATOM     13  O4  ZIN A   1      20.761   2.979  11.370  0.00  0.00    -0.386 OA
ATOM     14  H49 ZIN A   1      21.332   3.192  10.621  0.00  0.00     0.211 HD
ENDBRANCH  10  13
ENDBRANCH   5  10
ENDBRANCH   3   4
ENDBRANCH   2   3
ENDBRANCH   1   2
BRANCH   1  15
ATOM     15  S15 ZIN A   1      19.061   3.653  17.606  0.00  0.00    -0.159 SA
BRANCH  15  16
ATOM     16  C16 ZIN A   1      17.555   4.634  17.364  0.00  0.00     0.084 C 
BRANCH  16  17
ATOM     17  C17 ZIN A   1      16.983   5.035  18.724  0.00  0.00    -0.022 A 
ATOM     18  C23 ZIN A   1      17.651   4.453  19.971  0.00  0.00     0.011 A 
ATOM     19  C22 ZIN A   1      16.272   3.952  19.538  0.00  0.00     0.011 A 
BRANCH  17  20
ATOM     20  C18 ZIN A   1      16.437   6.461  18.816  0.00  0.00     0.123 C 
BRANCH  20  21
ATOM     21  C19 ZIN A   1      17.576   7.443  18.705  0.00  0.00     0.173 C 
ATOM     22  O20 ZIN A   1      18.174   7.799  19.706  0.00  0.00    -0.648 OA
ATOM     23  O21 ZIN A   1      17.900   7.880  17.613  0.00  0.00    -0.648 OA
ENDBRANCH  20  21
ENDBRANCH  17  20
ENDBRANCH  16  17
ENDBRANCH  15  16
ENDBRANCH   1  15
BRANCH   1  24
ATOM     24  C24 ZIN A   1      18.740   1.346  16.207  0.00  0.00    -0.043 A 
ATOM     25  C42 ZIN A   1      19.007   0.403  15.236  0.00  0.00     0.019 A 
ATOM     26  C28 ZIN A   1      18.558  -0.910  15.401  0.00  0.00    -0.036 A 
ATOM     27  C27 ZIN A   1      17.833  -1.257  16.545  0.00  0.00     0.011 A 
ATOM     28  C26 ZIN A   1      17.570  -0.302  17.504  0.00  0.00     0.001 A 
ATOM     29  C25 ZIN A   1      18.021   0.996  17.337  0.00  0.00     0.008 A 
BRANCH  26  30
ATOM     30  C29 ZIN A   1      18.843  -1.924  14.370  0.00  0.00     0.014 C 
ATOM     31  C30 ZIN A   1      18.166  -1.913  13.210  0.00  0.00     0.032 C 
BRANCH  31  32
ATOM     32  C31 ZIN A   1      18.451  -2.925  12.181  0.00  0.00     0.057 A 
ATOM     33  N41 ZIN A   1      17.445  -3.524  11.565  0.00  0.00    -0.248 NA
ATOM     34  C40 ZIN A   1      17.659  -4.444  10.622  0.00  0.00     0.069 A 
ATOM     35  C34 ZIN A   1      18.985  -4.804  10.271  0.00  0.00    -0.007 A 
ATOM     36  C39 ZIN A   1      16.584  -5.073   9.969  0.00  0.00     0.056 A 
ATOM     37  C33 ZIN A   1      20.065  -4.175  10.925  0.00  0.00     0.016 A 
ATOM     38  C35 ZIN A   1      19.201  -5.775   9.283  0.00  0.00     0.015 A 
ATOM     39  C32 ZIN A   1      19.788  -3.240  11.875  0.00  0.00     0.032 A 
ATOM     40  C36 ZIN A   1      18.136  -6.364   8.671  0.00  0.00     0.025 A 
ATOM     41  C37 ZIN A   1      16.831  -6.013   9.014  0.00  0.00     0.036 A 
ATOM     42 Cl38 ZIN A   1      15.499  -6.785   8.211  0.00  0.00    -0.084 Cl
ENDBRANCH  31  32
ENDBRANCH  26  30
ENDBRANCH   1  24
TORSDOF 13
ENDMDL
MODEL 2
REMARK VINA RESULT:      -9.3      1.968      2.369
REMARK  13 active torsions:
REMARK  status: ('A' for Active; 'I' for Inactive)
REMARK    1  A    between atoms: C2_2  and  O4_4 
REMARK    2  A    between atoms: C2_2  and  C5_5 
REMARK    3  A    between atoms: C10_10  and  C11_11 
REMARK    4  A    between atoms: C11_11  and  C12_12 
REMARK    5  A    between atoms: C12_12  and  C13_13 
REMARK    6  A    between atoms: C13_13  and  S15_14 
REMARK    7  A    between atoms: C13_13  and  C24_23 
REMARK    8  A    between atoms: S15_14  and  C16_15 
REMARK    9  A    between atoms: C16_15  and  C17_16 
REMARK   10  A    between atoms: C17_16  and  C18_17 
REMARK   11  A    between atoms: C18_17  and  C19_18 
REMARK   12  A    between atoms: C28_27  and  C29_28 
REMARK   13  A    between atoms: C30_29  and  C31_30 
ROOT
ATOM      1  C13 ZIN A   1      18.883   2.477  15.012  0.00  0.00     0.080 C 
ENDROOT
BRANCH   1   2
ATOM      2  C12 ZIN A   1      17.630   2.748  14.177  0.00  0.00     0.025 C 
BRANCH   2   3
ATOM      3  C11 ZIN A   1      17.821   2.173  12.771  0.00  0.00     0.040 C 
BRANCH   3   4
ATOM      4  C10 ZIN A   1      17.707   3.282  11.756  0.00  0.00    -0.049 A 
ATOM      5  C5  ZIN A   1      18.209   3.105  10.480  0.00  0.00    -0.019 A 
ATOM      6  C6  ZIN A   1      18.103   4.120   9.549  0.00  0.00     0.011 A 
ATOM      7  C7  ZIN A   1      17.499   5.315   9.894  0.00  0.00     0.001 A 
ATOM      8  C8  ZIN A   1      17.001   5.493  11.171  0.00  0.00     0.001 A 
ATOM      9  C9  ZIN A   1      17.106   4.477  12.102  0.00  0.00     0.007 A 
BRANCH   5  10
ATOM     10  C2  ZIN A   1      18.868   1.802  10.103  0.00  0.00     0.078 C 
ATOM     11  C1  ZIN A   1      19.266   1.840   8.626  0.00  0.00     0.051 C 
ATOM     12  C3  ZIN A   1      17.888   0.650  10.337  0.00  0.00     0.051 C 
BRANCH  10  13
ATOM     13  O4  ZIN A   1      20.032   1.607  10.907  0.00  0.00    -0.386 OA
ATOM     14  H49 ZIN A   1      20.435   2.427  11.222  0.00  0.00     0.211 HD
ENDBRANCH  10  13
ENDBRANCH   5  10
ENDBRANCH   3   4
ENDBRANCH   2   3
ENDBRANCH   1   2
BRANCH   1  15
ATOM     15  S15 ZIN A   1      18.883   3.559  16.469  0.00  0.00    -0.159 SA
BRANCH  15  16
ATOM     16  C16 ZIN A   1      20.276   4.677  16.148  0.00  0.00     0.084 C 
BRANCH  16  17
ATOM     17  C17 ZIN A   1      19.787   5.884  15.347  0.00  0.00    -0.022 A 
ATOM     18  C23 ZIN A   1      19.735   5.748  13.825  0.00  0.00     0.011 A 
ATOM     19  C22 ZIN A   1      20.811   6.617  14.478  0.00  0.00     0.011 A 
BRANCH  17  20
ATOM     20  C18 ZIN A   1      18.699   6.725  16.018  0.00  0.00     0.123 C 
BRANCH  20  21
ATOM     21  C19 ZIN A   1      17.481   6.771  15.131  0.00  0.00     0.173 C 
ATOM     22  O20 ZIN A   1      17.307   7.717  14.382  0.00  0.00    -0.648 OA
ATOM     23  O21 ZIN A   1      16.670   5.860  15.161  0.00  0.00    -0.648 OA
ENDBRANCH  20  21
ENDBRANCH  17  20
ENDBRANCH  16  17
ENDBRANCH  15  16
ENDBRANCH   1  15
BRANCH   1  24
ATOM     24  C24 ZIN A   1      18.889   1.038  15.456  0.00  0.00    -0.043 A 
ATOM     25  C42 ZIN A   1      18.908   0.028  14.517  0.00  0.00     0.019 A 
ATOM     26  C28 ZIN A   1      18.918  -1.307  14.932  0.00  0.00    -0.036 A 
ATOM     27  C27 ZIN A   1      18.899  -1.608  16.297  0.00  0.00     0.011 A 
ATOM     28  C26 ZIN A   1      18.876  -0.588  17.224  0.00  0.00     0.001 A 
ATOM     29  C25 ZIN A   1      18.871   0.732  16.806  0.00  0.00     0.008 A 
BRANCH  26  30
ATOM     30  C29 ZIN A   1      18.942  -2.391  13.934  0.00  0.00     0.014 C 
ATOM     31  C30 ZIN A   1      18.606  -2.138  12.659  0.00  0.00     0.032 C 
BRANCH  31  32
ATOM     32  C31 ZIN A   1      18.631  -3.221  11.662  0.00  0.00     0.057 A 
ATOM     33  N41 ZIN A   1      17.496  -3.625  11.116  0.00  0.00    -0.248 NA
ATOM     34  C40 ZIN A   1      17.474  -4.600  10.205  0.00  0.00     0.069 A 
ATOM     35  C34 ZIN A   1      18.682  -5.232   9.813  0.00  0.00    -0.007 A 
ATOM     36  C39 ZIN A   1      16.264  -5.021   9.625  0.00  0.00     0.056 A 
ATOM     37  C33 ZIN A   1      19.897  -4.813  10.393  0.00  0.00     0.016 A 
ATOM     38  C35 ZIN A   1      18.650  -6.260   8.859  0.00  0.00     0.015 A 
ATOM     39  C32 ZIN A   1      19.861  -3.810  11.314  0.00  0.00     0.032 A 
ATOM     40  C36 ZIN A   1      17.458  -6.641   8.319  0.00  0.00     0.025 A 
ATOM     41  C37 ZIN A   1      16.269  -6.022   8.701  0.00  0.00     0.036 A 
ATOM     42 Cl38 ZIN A   1      14.771  -6.536   7.989  0.00  0.00    -0.084 Cl
ENDBRANCH  31  32
ENDBRANCH  26  30
ENDBRANCH   1  24
TORSDOF 13
ENDMDL
MODEL 3
REMARK VINA RESULT:      -9.3      2.956      6.041
REMARK  13 active torsions:
REMARK  status: ('A' for Active; 'I' for Inactive)
REMARK    1  A    between atoms: C2_2  and  O4_4 
REMARK    2  A    between atoms: C2_2  and  C5_5 
REMARK    3  A    between atoms: C10_10  and  C11_11 
REMARK    4  A    between atoms: C11_11  and  C12_12 
REMARK    5  A    between atoms: C12_12  and  C13_13 
REMARK    6  A    between atoms: C13_13  and  S15_14 
REMARK    7  A    between atoms: C13_13  and  C24_23 
REMARK    8  A    between atoms: S15_14  and  C16_15 
REMARK    9  A    between atoms: C16_15  and  C17_16 
REMARK   10  A    between atoms: C17_16  and  C18_17 
REMARK   11  A    between atoms: C18_17  and  C19_18 
REMARK   12  A    between atoms: C28_27  and  C29_28 
REMARK   13  A    between atoms: C30_29  and  C31_30 
ROOT
ATOM      1  C13 ZIN A   1      18.914   3.410  14.396  0.00  0.00     0.080 C 
ENDROOT
BRANCH   1   2
ATOM      2  C12 ZIN A   1      17.872   3.946  15.379  0.00  0.00     0.025 C 
BRANCH   2   3
ATOM      3  C11 ZIN A   1      18.499   5.048  16.237  0.00  0.00     0.040 C 
BRANCH   3   4
ATOM      4  C10 ZIN A   1      17.475   5.569  17.211  0.00  0.00    -0.049 A 
ATOM      5  C5  ZIN A   1      17.018   6.869  17.103  0.00  0.00    -0.019 A 
ATOM      6  C6  ZIN A   1      16.077   7.348  17.995  0.00  0.00     0.011 A 
ATOM      7  C7  ZIN A   1      15.597   6.527  19.000  0.00  0.00     0.001 A 
ATOM      8  C8  ZIN A   1      16.058   5.229  19.111  0.00  0.00     0.001 A 
ATOM      9  C9  ZIN A   1      16.998   4.750  18.217  0.00  0.00     0.007 A 
BRANCH   5  10
ATOM     10  C2  ZIN A   1      17.541   7.763  16.008  0.00  0.00     0.078 C 
ATOM     11  C1  ZIN A   1      17.402   9.226  16.434  0.00  0.00     0.051 C 
ATOM     12  C3  ZIN A   1      16.736   7.527  14.729  0.00  0.00     0.051 C 
BRANCH  10  13
ATOM     13  O4  ZIN A   1      18.917   7.466  15.767  0.00  0.00    -0.386 OA
ATOM     14  H49 ZIN A   1      19.306   7.966  15.038  0.00  0.00     0.211 HD
ENDBRANCH  10  13
ENDBRANCH   5  10
ENDBRANCH   3   4
ENDBRANCH   2   3
ENDBRANCH   1   2
BRANCH   1  15
ATOM     15  S15 ZIN A   1      19.134   1.628  14.660  0.00  0.00    -0.159 SA
BRANCH  15  16
ATOM     16  C16 ZIN A   1      17.532   1.114  15.338  0.00  0.00     0.084 C 
BRANCH  16  17
ATOM     17  C17 ZIN A   1      17.756   0.297  16.612  0.00  0.00    -0.022 A 
ATOM     18  C23 ZIN A   1      18.639  -0.947  16.507  0.00  0.00     0.011 A 
ATOM     19  C22 ZIN A   1      17.126  -1.096  16.678  0.00  0.00     0.011 A 
BRANCH  17  20
ATOM     20  C18 ZIN A   1      17.824   1.104  17.910  0.00  0.00     0.123 C 
BRANCH  20  21
ATOM     21  C19 ZIN A   1      19.261   1.443  18.215  0.00  0.00     0.173 C 
ATOM     22  O20 ZIN A   1      19.636   2.602  18.176  0.00  0.00    -0.648 OA
ATOM     23  O21 ZIN A   1      20.049   0.557  18.503  0.00  0.00    -0.648 OA
ENDBRANCH  20  21
ENDBRANCH  17  20
ENDBRANCH  16  17
ENDBRANCH  15  16
ENDBRANCH   1  15
BRANCH   1  24
ATOM     24  C24 ZIN A   1      18.445   3.653  12.985  0.00  0.00    -0.043 A 
ATOM     25  C42 ZIN A   1      18.520   2.642  12.050  0.00  0.00     0.019 A 
ATOM     26  C28 ZIN A   1      18.081   2.869  10.743  0.00  0.00    -0.036 A 
ATOM     27  C27 ZIN A   1      17.578   4.125  10.389  0.00  0.00     0.011 A 
ATOM     28  C26 ZIN A   1      17.514   5.128  11.334  0.00  0.00     0.001 A 
ATOM     29  C25 ZIN A   1      17.946   4.894  12.628  0.00  0.00     0.008 A 
BRANCH  26  30
ATOM     30  C29 ZIN A   1      18.154   1.792   9.740  0.00  0.00     0.014 C 
ATOM     31  C30 ZIN A   1      18.897   1.954   8.632  0.00  0.00     0.032 C 
BRANCH  31  32
ATOM     32  C31 ZIN A   1      18.969   0.878   7.631  0.00  0.00     0.057 A 
ATOM     33  N41 ZIN A   1      19.017  -0.381   8.035  0.00  0.00    -0.248 NA
ATOM     34  C40 ZIN A   1      19.078  -1.387   7.160  0.00  0.00     0.069 A 
ATOM     35  C34 ZIN A   1      19.102  -1.116   5.768  0.00  0.00    -0.007 A 
ATOM     36  C39 ZIN A   1      19.124  -2.723   7.597  0.00  0.00     0.056 A 
ATOM     37  C33 ZIN A   1      19.057   0.223   5.327  0.00  0.00     0.016 A 
ATOM     38  C35 ZIN A   1      19.172  -2.179   4.856  0.00  0.00     0.015 A 
ATOM     39  C32 ZIN A   1      18.990   1.210   6.263  0.00  0.00     0.032 A 
ATOM     40  C36 ZIN A   1      19.216  -3.461   5.315  0.00  0.00     0.025 A 
ATOM     41  C37 ZIN A   1      19.192  -3.731   6.683  0.00  0.00     0.036 A 
ATOM     42 Cl38 ZIN A   1      19.248  -5.378   7.229  0.00  0.00    -0.084 Cl
ENDBRANCH  31  32
ENDBRANCH  26  30
ENDBRANCH   1  24
TORSDOF 13
ENDMDL
MODEL 4
REMARK VINA RESULT:      -9.3      5.117     11.950
REMARK  13 active torsions:
REMARK  status: ('A' for Active; 'I' for Inactive)
REMARK    1  A    between atoms: C2_2  and  O4_4 
REMARK    2  A    between atoms: C2_2  and  C5_5 
REMARK    3  A    between atoms: C10_10  and  C11_11 
REMARK    4  A    between atoms: C11_11  and  C12_12 
REMARK    5  A    between atoms: C12_12  and  C13_13 
REMARK    6  A    between atoms: C13_13  and  S15_14 
REMARK    7  A    between atoms: C13_13  and  C24_23 
REMARK    8  A    between atoms: S15_14  and  C16_15 
REMARK    9  A    between atoms: C16_15  and  C17_16 
REMARK   10  A    between atoms: C17_16  and  C18_17 
REMARK   11  A    between atoms: C18_17  and  C19_18 
REMARK   12  A    between atoms: C28_27  and  C29_28 
REMARK   13  A    between atoms: C30_29  and  C31_30 
ROOT
ATOM      1  C13 ZIN A   1      19.200  -3.058   6.415  0.00  0.00     0.080 C 
ENDROOT
BRANCH   1   2
ATOM      2  C12 ZIN A   1      18.405  -3.359   7.687  0.00  0.00     0.025 C 
BRANCH   2   3
ATOM      3  C11 ZIN A   1      19.372  -3.707   8.822  0.00  0.00     0.040 C 
BRANCH   3   4
ATOM      4  C10 ZIN A   1      18.626  -4.435   9.910  0.00  0.00    -0.049 A 
ATOM      5  C5  ZIN A   1      18.733  -4.012  11.222  0.00  0.00    -0.019 A 
ATOM      6  C6  ZIN A   1      18.049  -4.678  12.221  0.00  0.00     0.011 A 
ATOM      7  C7  ZIN A   1      17.260  -5.770  11.909  0.00  0.00     0.001 A 
ATOM      8  C8  ZIN A   1      17.156  -6.195  10.597  0.00  0.00     0.001 A 
ATOM      9  C9  ZIN A   1      17.840  -5.528   9.598  0.00  0.00     0.007 A 
BRANCH   5  10
ATOM     10  C2  ZIN A   1      19.594  -2.822  11.563  0.00  0.00     0.078 C 
ATOM     11  C1  ZIN A   1      19.335  -2.404  13.012  0.00  0.00     0.051 C 
ATOM     12  C3  ZIN A   1      19.250  -1.661  10.628  0.00  0.00     0.051 C 
BRANCH  10  13
ATOM     13  O4  ZIN A   1      20.970  -3.168  11.405  0.00  0.00    -0.386 OA
ATOM     14  H49 ZIN A   1      21.161  -3.667  10.600  0.00  0.00     0.211 HD
ENDBRANCH  10  13
ENDBRANCH   5  10
ENDBRANCH   3   4
ENDBRANCH   2   3
ENDBRANCH   1   2
BRANCH   1  15
ATOM     15  S15 ZIN A   1      18.480  -3.972   5.022  0.00  0.00    -0.159 SA
BRANCH  15  16
ATOM     16  C16 ZIN A   1      17.300  -5.087   5.830  0.00  0.00     0.084 C 
BRANCH  16  17
ATOM     17  C17 ZIN A   1      16.659  -5.998   4.782  0.00  0.00    -0.022 A 
ATOM     18  C23 ZIN A   1      16.361  -5.394   3.409  0.00  0.00     0.011 A 
ATOM     19  C22 ZIN A   1      15.214  -5.698   4.375  0.00  0.00     0.011 A 
BRANCH  17  20
ATOM     20  C18 ZIN A   1      17.089  -7.465   4.830  0.00  0.00     0.123 C 
BRANCH  20  21
ATOM     21  C19 ZIN A   1      17.066  -7.948   6.258  0.00  0.00     0.173 C 
ATOM     22  O20 ZIN A   1      16.002  -8.118   6.828  0.00  0.00    -0.648 OA
ATOM     23  O21 ZIN A   1      18.114  -8.171   6.843  0.00  0.00    -0.648 OA
ENDBRANCH  20  21
ENDBRANCH  17  20
ENDBRANCH  16  17
ENDBRANCH  15  16
ENDBRANCH   1  15
BRANCH   1  24
ATOM     24  C24 ZIN A   1      19.146  -1.580   6.127  0.00  0.00    -0.043 A 
ATOM     25  C42 ZIN A   1      19.114  -0.677   7.168  0.00  0.00     0.019 A 
ATOM     26  C28 ZIN A   1      19.069   0.694   6.898  0.00  0.00    -0.036 A 
ATOM     27  C27 ZIN A   1      19.046   1.139   5.573  0.00  0.00     0.011 A 
ATOM     28  C26 ZIN A   1      19.075   0.223   4.542  0.00  0.00     0.001 A 
ATOM     29  C25 ZIN A   1      19.124  -1.133   4.817  0.00  0.00     0.008 A 
BRANCH  26  30
ATOM     30  C29 ZIN A   1      19.039   1.666   8.006  0.00  0.00     0.014 C 
ATOM     31  C30 ZIN A   1      18.366   1.379   9.132  0.00  0.00     0.032 C 
BRANCH  31  32
ATOM     32  C31 ZIN A   1      18.336   2.350  10.239  0.00  0.00     0.057 A 
ATOM     33  N41 ZIN A   1      18.587   1.936  11.470  0.00  0.00    -0.248 NA
ATOM     34  C40 ZIN A   1      18.576   2.784  12.501  0.00  0.00     0.069 A 
ATOM     35  C34 ZIN A   1      18.281   4.155  12.289  0.00  0.00    -0.007 A 
ATOM     36  C39 ZIN A   1      18.849   2.338  13.806  0.00  0.00     0.056 A 
ATOM     37  C33 ZIN A   1      18.006   4.605  10.981  0.00  0.00     0.016 A 
ATOM     38  C35 ZIN A   1      18.265   5.038  13.378  0.00  0.00     0.015 A 
ATOM     39  C32 ZIN A   1      18.036   3.697   9.965  0.00  0.00     0.032 A 
ATOM     40  C36 ZIN A   1      18.534   4.570  14.630  0.00  0.00     0.025 A 
ATOM     41  C37 ZIN A   1      18.825   3.223  14.842  0.00  0.00     0.036 A 
ATOM     42 Cl38 ZIN A   1      19.163   2.665  16.451  0.00  0.00    -0.084 Cl
ENDBRANCH  31  32
ENDBRANCH  26  30
ENDBRANCH   1  24
TORSDOF 13
ENDMDL
MODEL 5
REMARK VINA RESULT:      -9.3      4.619     10.809
REMARK  13 active torsions:
REMARK  status: ('A' for Active; 'I' for Inactive)
REMARK    1  A    between atoms: C2_2  and  O4_4 
REMARK    2  A    between atoms: C2_2  and  C5_5 
REMARK    3  A    between atoms: C10_10  and  C11_11 
REMARK    4  A    between atoms: C11_11  and  C12_12 
REMARK    5  A    between atoms: C12_12  and  C13_13 
REMARK    6  A    between atoms: C13_13  and  S15_14 
REMARK    7  A    between atoms: C13_13  and  C24_23 
REMARK    8  A    between atoms: S15_14  and  C16_15 
REMARK    9  A    between atoms: C16_15  and  C17_16 
REMARK   10  A    between atoms: C17_16  and  C18_17 
REMARK   11  A    between atoms: C18_17  and  C19_18 
REMARK   12  A    between atoms: C28_27  and  C29_28 
REMARK   13  A    between atoms: C30_29  and  C31_30 
ROOT
ATOM      1  C13 ZIN A   1      18.549  -2.959   6.970  0.00  0.00     0.080 C 
ENDROOT
BRANCH   1   2
ATOM      2  C12 ZIN A   1      19.357  -3.811   5.990  0.00  0.00     0.025 C 
BRANCH   2   3
ATOM      3  C11 ZIN A   1      18.777  -5.228   5.949  0.00  0.00     0.040 C 
BRANCH   3   4
ATOM      4  C10 ZIN A   1      17.527  -5.235   5.108  0.00  0.00    -0.049 A 
ATOM      5  C5  ZIN A   1      16.544  -6.180   5.339  0.00  0.00    -0.019 A 
ATOM      6  C6  ZIN A   1      15.397  -6.186   4.569  0.00  0.00     0.011 A 
ATOM      7  C7  ZIN A   1      15.233  -5.249   3.565  0.00  0.00     0.001 A 
ATOM      8  C8  ZIN A   1      16.217  -4.307   3.332  0.00  0.00     0.001 A 
ATOM      9  C9  ZIN A   1      17.365  -4.301   4.103  0.00  0.00     0.007 A 
BRANCH   5  10
ATOM     10  C2  ZIN A   1      16.723  -7.201   6.433  0.00  0.00     0.078 C 
ATOM     11  C1  ZIN A   1      15.687  -8.314   6.266  0.00  0.00     0.051 C 
ATOM     12  C3  ZIN A   1      16.533  -6.528   7.794  0.00  0.00     0.051 C 
BRANCH  10  13
ATOM     13  O4  ZIN A   1      18.037  -7.756   6.357  0.00  0.00    -0.386 OA
ATOM     14  H49 ZIN A   1      18.115  -8.498   5.743  0.00  0.00     0.211 HD
ENDBRANCH  10  13
ENDBRANCH   5  10
ENDBRANCH   3   4
ENDBRANCH   2   3
ENDBRANCH   1   2
BRANCH   1  15
ATOM     15  S15 ZIN A   1      19.088  -3.314   8.666  0.00  0.00    -0.159 SA
BRANCH  15  16
ATOM     16  C16 ZIN A   1      17.522  -3.506   9.561  0.00  0.00     0.084 C 
BRANCH  16  17
ATOM     17  C17 ZIN A   1      17.798  -3.578  11.063  0.00  0.00    -0.022 A 
ATOM     18  C23 ZIN A   1      18.902  -4.525  11.534  0.00  0.00     0.011 A 
ATOM     19  C22 ZIN A   1      17.434  -4.875  11.788  0.00  0.00     0.011 A 
BRANCH  17  20
ATOM     20  C18 ZIN A   1      17.618  -2.266  11.831  0.00  0.00     0.123 C 
BRANCH  20  21
ATOM     21  C19 ZIN A   1      18.970  -1.707  12.192  0.00  0.00     0.173 C 
ATOM     22  O20 ZIN A   1      19.415  -1.864  13.316  0.00  0.00    -0.648 OA
ATOM     23  O21 ZIN A   1      19.620  -1.098  11.358  0.00  0.00    -0.648 OA
ENDBRANCH  20  21
ENDBRANCH  17  20
ENDBRANCH  16  17
ENDBRANCH  15  16
ENDBRANCH   1  15
BRANCH   1  24
ATOM     24  C24 ZIN A   1      18.772  -1.500   6.668  0.00  0.00    -0.043 A 
ATOM     25  C42 ZIN A   1      18.723  -0.571   7.687  0.00  0.00     0.019 A 
ATOM     26  C28 ZIN A   1      18.934   0.782   7.405  0.00  0.00    -0.036 A 
ATOM     27  C27 ZIN A   1      19.183   1.184   6.089  0.00  0.00     0.011 A 
ATOM     28  C26 ZIN A   1      19.224   0.245   5.081  0.00  0.00     0.001 A 
ATOM     29  C25 ZIN A   1      19.018  -1.094   5.368  0.00  0.00     0.008 A 
BRANCH  26  30
ATOM     30  C29 ZIN A   1      18.889   1.779   8.488  0.00  0.00     0.014 C 
ATOM     31  C30 ZIN A   1      18.165   1.538   9.594  0.00  0.00     0.032 C 
BRANCH  31  32
ATOM     32  C31 ZIN A   1      18.120   2.534  10.676  0.00  0.00     0.057 A 
ATOM     33  N41 ZIN A   1      18.438   2.169  11.907  0.00  0.00    -0.248 NA
ATOM     34  C40 ZIN A   1      18.416   3.041  12.916  0.00  0.00     0.069 A 
ATOM     35  C34 ZIN A   1      18.035   4.387  12.682  0.00  0.00    -0.007 A 
ATOM     36  C39 ZIN A   1      18.760   2.646  14.222  0.00  0.00     0.056 A 
ATOM     37  C33 ZIN A   1      17.689   4.786  11.374  0.00  0.00     0.016 A 
ATOM     38  C35 ZIN A   1      18.008   5.297  13.749  0.00  0.00     0.015 A 
ATOM     39  C32 ZIN A   1      17.734   3.855  10.381  0.00  0.00     0.032 A 
ATOM     40  C36 ZIN A   1      18.348   4.878  15.001  0.00  0.00     0.025 A 
ATOM     41  C37 ZIN A   1      18.723   3.556  15.235  0.00  0.00     0.036 A 
ATOM     42 Cl38 ZIN A   1      19.150   3.061  16.844  0.00  0.00    -0.084 Cl
ENDBRANCH  31  32
ENDBRANCH  26  30
ENDBRANCH   1  24
TORSDOF 13
ENDMDL
MODEL 6
REMARK VINA RESULT:      -9.3      4.987     11.045
REMARK  13 active torsions:
REMARK  status: ('A' for Active; 'I' for Inactive)
REMARK    1  A    between atoms: C2_2  and  O4_4 
REMARK    2  A    between atoms: C2_2  and  C5_5 
REMARK    3  A    between atoms: C10_10  and  C11_11 
REMARK    4  A    between atoms: C11_11  and  C12_12 
REMARK    5  A    between atoms: C12_12  and  C13_13 
REMARK    6  A    between atoms: C13_13  and  S15_14 
REMARK    7  A    between atoms: C13_13  and  C24_23 
REMARK    8  A    between atoms: S15_14  and  C16_15 
REMARK    9  A    between atoms: C16_15  and  C17_16 
REMARK   10  A    between atoms: C17_16  and  C18_17 
REMARK   11  A    between atoms: C18_17  and  C19_18 
REMARK   12  A    between atoms: C28_27  and  C29_28 
REMARK   13  A    between atoms: C30_29  and  C31_30 
ROOT
ATOM      1  C13 ZIN A   1      17.309  -3.980   9.330  0.00  0.00     0.080 C 
ENDROOT
BRANCH   1   2
ATOM      2  C12 ZIN A   1      17.990  -3.773   7.976  0.00  0.00     0.025 C 
BRANCH   2   3
ATOM      3  C11 ZIN A   1      19.040  -2.665   8.097  0.00  0.00     0.040 C 
BRANCH   3   4
ATOM      4  C10 ZIN A   1      19.004  -1.804   6.861  0.00  0.00    -0.049 A 
ATOM      5  C5  ZIN A   1      18.936  -0.428   6.979  0.00  0.00    -0.019 A 
ATOM      6  C6  ZIN A   1      18.905   0.362   5.846  0.00  0.00     0.011 A 
ATOM      7  C7  ZIN A   1      18.938  -0.223   4.593  0.00  0.00     0.001 A 
ATOM      8  C8  ZIN A   1      19.002  -1.599   4.475  0.00  0.00     0.001 A 
ATOM      9  C9  ZIN A   1      19.034  -2.389   5.609  0.00  0.00     0.007 A 
BRANCH   5  10
ATOM     10  C2  ZIN A   1      18.900   0.210   8.344  0.00  0.00     0.078 C 
ATOM     11  C1  ZIN A   1      17.516   0.010   8.964  0.00  0.00     0.051 C 
ATOM     12  C3  ZIN A   1      19.189   1.707   8.215  0.00  0.00     0.051 C 
BRANCH  10  13
ATOM     13  O4  ZIN A   1      19.889  -0.395   9.179  0.00  0.00    -0.386 OA
ATOM     14  H49 ZIN A   1      19.580  -0.598  10.071  0.00  0.00     0.211 HD
ENDBRANCH  10  13
ENDBRANCH   5  10
ENDBRANCH   3   4
ENDBRANCH   2   3
ENDBRANCH   1   2
BRANCH   1  15
ATOM     15  S15 ZIN A   1      16.777  -5.708   9.481  0.00  0.00    -0.159 SA
BRANCH  15  16
ATOM     16  C16 ZIN A   1      15.377  -5.807   8.332  0.00  0.00     0.084 C 
BRANCH  16  17
ATOM     17  C17 ZIN A   1      15.357  -7.185   7.670  0.00  0.00    -0.022 A 
ATOM     18  C23 ZIN A   1      14.610  -7.319   6.341  0.00  0.00     0.011 A 
ATOM     19  C22 ZIN A   1      14.018  -7.923   7.616  0.00  0.00     0.011 A 
BRANCH  17  20
ATOM     20  C18 ZIN A   1      16.621  -8.027   7.858  0.00  0.00     0.123 C 
BRANCH  20  21
ATOM     21  C19 ZIN A   1      17.449  -7.975   6.600  0.00  0.00     0.173 C 
ATOM     22  O20 ZIN A   1      17.579  -8.974   5.913  0.00  0.00    -0.648 OA
ATOM     23  O21 ZIN A   1      17.989  -6.932   6.268  0.00  0.00    -0.648 OA
ENDBRANCH  20  21
ENDBRANCH  17  20
ENDBRANCH  16  17
ENDBRANCH  15  16
ENDBRANCH   1  15
BRANCH   1  24
ATOM     24  C24 ZIN A   1      18.280  -3.656  10.435  0.00  0.00    -0.043 A 
ATOM     25  C42 ZIN A   1      17.932  -2.747  11.412  0.00  0.00     0.019 A 
ATOM     26  C28 ZIN A   1      18.833  -2.450  12.439  0.00  0.00    -0.036 A 
ATOM     27  C27 ZIN A   1      20.085  -3.071  12.462  0.00  0.00     0.011 A 
ATOM     28  C26 ZIN A   1      20.421  -3.974  11.476  0.00  0.00     0.001 A 
ATOM     29  C25 ZIN A   1      19.522  -4.266  10.464  0.00  0.00     0.008 A 
BRANCH  26  30
ATOM     30  C29 ZIN A   1      18.466  -1.484  13.489  0.00  0.00     0.014 C 
ATOM     31  C30 ZIN A   1      19.311  -1.243  14.505  0.00  0.00     0.032 C 
BRANCH  31  32
ATOM     32  C31 ZIN A   1      18.945  -0.278  15.554  0.00  0.00     0.057 A 
ATOM     33  N41 ZIN A   1      19.184   1.009  15.363  0.00  0.00    -0.248 NA
ATOM     34  C40 ZIN A   1      18.863   1.918  16.286  0.00  0.00     0.069 A 
ATOM     35  C34 ZIN A   1      18.262   1.510  17.504  0.00  0.00    -0.007 A 
ATOM     36  C39 ZIN A   1      19.117   3.285  16.073  0.00  0.00     0.056 A 
ATOM     37  C33 ZIN A   1      18.007   0.140  17.721  0.00  0.00     0.016 A 
ATOM     38  C35 ZIN A   1      17.933   2.471  18.471  0.00  0.00     0.015 A 
ATOM     39  C32 ZIN A   1      18.351  -0.744  16.743  0.00  0.00     0.032 A 
ATOM     40  C36 ZIN A   1      18.194   3.787  18.231  0.00  0.00     0.025 A 
ATOM     41  C37 ZIN A   1      18.784   4.192  17.034  0.00  0.00     0.036 A 
ATOM     42 Cl38 ZIN A   1      19.100   5.877  16.765  0.00  0.00    -0.084 Cl
ENDBRANCH  31  32
ENDBRANCH  26  30
ENDBRANCH   1  24
TORSDOF 13
ENDMDL
MODEL 7
REMARK VINA RESULT:      -9.2      5.270     11.012
REMARK  13 active torsions:
REMARK  status: ('A' for Active; 'I' for Inactive)
REMARK    1  A    between atoms: C2_2  and  O4_4 
REMARK    2  A    between atoms: C2_2  and  C5_5 
REMARK    3  A    between atoms: C10_10  and  C11_11 
REMARK    4  A    between atoms: C11_11  and  C12_12 
REMARK    5  A    between atoms: C12_12  and  C13_13 
REMARK    6  A    between atoms: C13_13  and  S15_14 
REMARK    7  A    between atoms: C13_13  and  C24_23 
REMARK    8  A    between atoms: S15_14  and  C16_15 
REMARK    9  A    between atoms: C16_15  and  C17_16 
REMARK   10  A    between atoms: C17_16  and  C18_17 
REMARK   11  A    between atoms: C18_17  and  C19_18 
REMARK   12  A    between atoms: C28_27  and  C29_28 
REMARK   13  A    between atoms: C30_29  and  C31_30 
ROOT
ATOM      1  C13 ZIN A   1      17.814  -4.447   7.727  0.00  0.00     0.080 C 
ENDROOT
BRANCH   1   2
ATOM      2  C12 ZIN A   1      19.198  -3.861   7.442  0.00  0.00     0.025 C 
BRANCH   2   3
ATOM      3  C11 ZIN A   1      19.264  -2.428   7.977  0.00  0.00     0.040 C 
BRANCH   3   4
ATOM      4  C10 ZIN A   1      19.159  -1.459   6.828  0.00  0.00    -0.049 A 
ATOM      5  C5  ZIN A   1      19.080  -0.101   7.075  0.00  0.00    -0.019 A 
ATOM      6  C6  ZIN A   1      18.985   0.789   6.022  0.00  0.00     0.011 A 
ATOM      7  C7  ZIN A   1      18.964   0.320   4.721  0.00  0.00     0.001 A 
ATOM      8  C8  ZIN A   1      19.038  -1.038   4.474  0.00  0.00     0.001 A 
ATOM      9  C9  ZIN A   1      19.134  -1.927   5.528  0.00  0.00     0.007 A 
BRANCH   5  10
ATOM     10  C2  ZIN A   1      19.103   0.410   8.493  0.00  0.00     0.078 C 
ATOM     11  C1  ZIN A   1      17.846  -0.063   9.226  0.00  0.00     0.051 C 
ATOM     12  C3  ZIN A   1      19.142   1.939   8.483  0.00  0.00     0.051 C 
BRANCH  10  13
ATOM     13  O4  ZIN A   1      20.262  -0.092   9.161  0.00  0.00    -0.386 OA
ATOM     14  H49 ZIN A   1      20.582   0.476   9.874  0.00  0.00     0.211 HD
ENDBRANCH  10  13
ENDBRANCH   5  10
ENDBRANCH   3   4
ENDBRANCH   2   3
ENDBRANCH   1   2
BRANCH   1  15
ATOM     15  S15 ZIN A   1      17.616  -6.003   6.813  0.00  0.00    -0.159 SA
BRANCH  15  16
ATOM     16  C16 ZIN A   1      15.905  -5.914   6.220  0.00  0.00     0.084 C 
BRANCH  16  17
ATOM     17  C17 ZIN A   1      15.011  -6.782   7.107  0.00  0.00    -0.022 A 
ATOM     18  C23 ZIN A   1      13.499  -6.677   6.905  0.00  0.00     0.011 A 
ATOM     19  C22 ZIN A   1      14.148  -6.071   8.151  0.00  0.00     0.011 A 
BRANCH  17  20
ATOM     20  C18 ZIN A   1      15.580  -8.154   7.476  0.00  0.00     0.123 C 
BRANCH  20  21
ATOM     21  C19 ZIN A   1      15.117  -9.176   6.471  0.00  0.00     0.173 C 
ATOM     22  O20 ZIN A   1      15.496  -9.110   5.314  0.00  0.00    -0.648 OA
ATOM     23  O21 ZIN A   1      14.364 -10.072   6.815  0.00  0.00    -0.648 OA
ENDBRANCH  20  21
ENDBRANCH  17  20
ENDBRANCH  16  17
ENDBRANCH  15  16
ENDBRANCH   1  15
BRANCH   1  24
ATOM     24  C24 ZIN A   1      17.673  -4.711   9.203  0.00  0.00    -0.043 A 
ATOM     25  C42 ZIN A   1      17.734  -3.664  10.099  0.00  0.00     0.019 A 
ATOM     26  C28 ZIN A   1      17.599  -3.911  11.468  0.00  0.00    -0.036 A 
ATOM     27  C27 ZIN A   1      17.414  -5.221  11.920  0.00  0.00     0.011 A 
ATOM     28  C26 ZIN A   1      17.361  -6.258  11.014  0.00  0.00     0.001 A 
ATOM     29  C25 ZIN A   1      17.490  -6.005   9.659  0.00  0.00     0.008 A 
BRANCH  26  30
ATOM     30  C29 ZIN A   1      17.658  -2.796  12.430  0.00  0.00     0.014 C 
ATOM     31  C30 ZIN A   1      18.767  -2.043  12.519  0.00  0.00     0.032 C 
BRANCH  31  32
ATOM     32  C31 ZIN A   1      18.825  -0.930  13.480  0.00  0.00     0.057 A 
ATOM     33  N41 ZIN A   1      18.812   0.314  13.031  0.00  0.00    -0.248 NA
ATOM     34  C40 ZIN A   1      18.858   1.353  13.868  0.00  0.00     0.069 A 
ATOM     35  C34 ZIN A   1      18.933   1.133  15.267  0.00  0.00    -0.007 A 
ATOM     36  C39 ZIN A   1      18.839   2.673  13.384  0.00  0.00     0.056 A 
ATOM     37  C33 ZIN A   1      18.953  -0.189  15.756  0.00  0.00     0.016 A 
ATOM     38  C35 ZIN A   1      18.987   2.230  16.140  0.00  0.00     0.015 A 
ATOM     39  C32 ZIN A   1      18.899  -1.211  14.857  0.00  0.00     0.032 A 
ATOM     40  C36 ZIN A   1      18.967   3.496  15.635  0.00  0.00     0.025 A 
ATOM     41  C37 ZIN A   1      18.893   3.715  14.260  0.00  0.00     0.036 A 
ATOM     42 Cl38 ZIN A   1      18.868   5.342  13.655  0.00  0.00    -0.084 Cl
ENDBRANCH  31  32
ENDBRANCH  26  30
ENDBRANCH   1  24
TORSDOF 13
ENDMDL
MODEL 8
REMARK VINA RESULT:      -9.2      5.080     11.067
REMARK  13 active torsions:
REMARK  status: ('A' for Active; 'I' for Inactive)
REMARK    1  A    between atoms: C2_2  and  O4_4 
REMARK    2  A    between atoms: C2_2  and  C5_5 
REMARK    3  A    between atoms: C10_10  and  C11_11 
REMARK    4  A    between atoms: C11_11  and  C12_12 
REMARK    5  A    between atoms: C12_12  and  C13_13 
REMARK    6  A    between atoms: C13_13  and  S15_14 
REMARK    7  A    between atoms: C13_13  and  C24_23 
REMARK    8  A    between atoms: S15_14  and  C16_15 
REMARK    9  A    between atoms: C16_15  and  C17_16 
REMARK   10  A    between atoms: C17_16  and  C18_17 
REMARK   11  A    between atoms: C18_17  and  C19_18 
REMARK   12  A    between atoms: C28_27  and  C29_28 
REMARK   13  A    between atoms: C30_29  and  C31_30 
ROOT
ATOM      1  C13 ZIN A   1      17.717  -4.574   7.574  0.00  0.00     0.080 C 
ENDROOT
BRANCH   1   2
ATOM      2  C12 ZIN A   1      19.112  -4.049   7.228  0.00  0.00     0.025 C 
BRANCH   2   3
ATOM      3  C11 ZIN A   1      19.282  -2.638   7.798  0.00  0.00     0.040 C 
BRANCH   3   4
ATOM      4  C10 ZIN A   1      19.135  -1.629   6.689  0.00  0.00    -0.049 A 
ATOM      5  C5  ZIN A   1      19.078  -0.279   6.986  0.00  0.00    -0.019 A 
ATOM      6  C6  ZIN A   1      18.945   0.647   5.970  0.00  0.00     0.011 A 
ATOM      7  C7  ZIN A   1      18.864   0.225   4.656  0.00  0.00     0.001 A 
ATOM      8  C8  ZIN A   1      18.918  -1.124   4.359  0.00  0.00     0.001 A 
ATOM      9  C9  ZIN A   1      19.052  -2.051   5.376  0.00  0.00     0.007 A 
BRANCH   5  10
ATOM     10  C2  ZIN A   1      19.165   0.181   8.419  0.00  0.00     0.078 C 
ATOM     11  C1  ZIN A   1      17.848  -0.126   9.135  0.00  0.00     0.051 C 
ATOM     12  C3  ZIN A   1      19.425   1.688   8.455  0.00  0.00     0.051 C 
BRANCH  10  13
ATOM     13  O4  ZIN A   1      20.235  -0.502   9.074  0.00  0.00    -0.386 OA
ATOM     14  H49 ZIN A   1      20.728  -1.104   8.501  0.00  0.00     0.211 HD
ENDBRANCH  10  13
ENDBRANCH   5  10
ENDBRANCH   3   4
ENDBRANCH   2   3
ENDBRANCH   1   2
BRANCH   1  15
ATOM     15  S15 ZIN A   1      17.452  -6.171   6.754  0.00  0.00    -0.159 SA
BRANCH  15  16
ATOM     16  C16 ZIN A   1      15.710  -6.089   6.255  0.00  0.00     0.084 C 
BRANCH  16  17
ATOM     17  C17 ZIN A   1      15.608  -6.214   4.735  0.00  0.00    -0.022 A 
ATOM     18  C23 ZIN A   1      14.212  -6.163   4.113  0.00  0.00     0.011 A 
ATOM     19  C22 ZIN A   1      14.974  -7.488   4.171  0.00  0.00     0.011 A 
BRANCH  17  20
ATOM     20  C18 ZIN A   1      16.758  -5.588   3.942  0.00  0.00     0.123 C 
BRANCH  20  21
ATOM     21  C19 ZIN A   1      16.299  -4.284   3.340  0.00  0.00     0.173 C 
ATOM     22  O20 ZIN A   1      16.000  -3.350   4.063  0.00  0.00    -0.648 OA
ATOM     23  O21 ZIN A   1      16.230  -4.164   2.128  0.00  0.00    -0.648 OA
ENDBRANCH  20  21
ENDBRANCH  17  20
ENDBRANCH  16  17
ENDBRANCH  15  16
ENDBRANCH   1  15
BRANCH   1  24
ATOM     24  C24 ZIN A   1      17.603  -4.750   9.066  0.00  0.00    -0.043 A 
ATOM     25  C42 ZIN A   1      17.657  -3.649   9.895  0.00  0.00     0.019 A 
ATOM     26  C28 ZIN A   1      17.546  -3.815  11.279  0.00  0.00    -0.036 A 
ATOM     27  C27 ZIN A   1      17.390  -5.098  11.812  0.00  0.00     0.011 A 
ATOM     28  C26 ZIN A   1      17.343  -6.190  10.971  0.00  0.00     0.001 A 
ATOM     29  C25 ZIN A   1      17.449  -6.017   9.601  0.00  0.00     0.008 A 
BRANCH  26  30
ATOM     30  C29 ZIN A   1      17.598  -2.644  12.171  0.00  0.00     0.014 C 
ATOM     31  C30 ZIN A   1      18.764  -2.273  12.725  0.00  0.00     0.032 C 
BRANCH  31  32
ATOM     32  C31 ZIN A   1      18.815  -1.103  13.617  0.00  0.00     0.057 A 
ATOM     33  N41 ZIN A   1      18.800   0.112  13.093  0.00  0.00    -0.248 NA
ATOM     34  C40 ZIN A   1      18.840   1.200  13.865  0.00  0.00     0.069 A 
ATOM     35  C34 ZIN A   1      18.911   1.066  15.275  0.00  0.00    -0.007 A 
ATOM     36  C39 ZIN A   1      18.819   2.488  13.300  0.00  0.00     0.056 A 
ATOM     37  C33 ZIN A   1      18.934  -0.224  15.844  0.00  0.00     0.016 A 
ATOM     38  C35 ZIN A   1      18.959   2.215  16.079  0.00  0.00     0.015 A 
ATOM     39  C32 ZIN A   1      18.885  -1.299  15.009  0.00  0.00     0.032 A 
ATOM     40  C36 ZIN A   1      18.937   3.447  15.497  0.00  0.00     0.025 A 
ATOM     41  C37 ZIN A   1      18.867   3.582  14.111  0.00  0.00     0.036 A 
ATOM     42 Cl38 ZIN A   1      18.839   5.169  13.408  0.00  0.00    -0.084 Cl
ENDBRANCH  31  32
ENDBRANCH  26  30
ENDBRANCH   1  24
TORSDOF 13
ENDMDL
MODEL 9
REMARK VINA RESULT:      -9.2      2.693      5.348
REMARK  13 active torsions:
REMARK  status: ('A' for Active; 'I' for Inactive)
REMARK    1  A    between atoms: C2_2  and  O4_4 
REMARK    2  A    between atoms: C2_2  and  C5_5 
REMARK    3  A    between atoms: C10_10  and  C11_11 
REMARK    4  A    between atoms: C11_11  and  C12_12 
REMARK    5  A    between atoms: C12_12  and  C13_13 
REMARK    6  A    between atoms: C13_13  and  S15_14 
REMARK    7  A    between atoms: C13_13  and  C24_23 
REMARK    8  A    between atoms: S15_14  and  C16_15 
REMARK    9  A    between atoms: C16_15  and  C17_16 
REMARK   10  A    between atoms: C17_16  and  C18_17 
REMARK   11  A    between atoms: C18_17  and  C19_18 
REMARK   12  A    between atoms: C28_27  and  C29_28 
REMARK   13  A    between atoms: C30_29  and  C31_30 
ROOT
ATOM      1  C13 ZIN A   1      18.131   4.642  14.509  0.00  0.00     0.080 C 
ENDROOT
BRANCH   1   2
ATOM      2  C12 ZIN A   1      19.205   3.582  14.762  0.00  0.00     0.025 C 
BRANCH   2   3
ATOM      3  C11 ZIN A   1      18.609   2.440  15.590  0.00  0.00     0.040 C 
BRANCH   3   4
ATOM      4  C10 ZIN A   1      18.875   1.128  14.899  0.00  0.00    -0.049 A 
ATOM      5  C5  ZIN A   1      18.602  -0.062  15.547  0.00  0.00    -0.019 A 
ATOM      6  C6  ZIN A   1      18.844  -1.266  14.913  0.00  0.00     0.011 A 
ATOM      7  C7  ZIN A   1      19.363  -1.280  13.632  0.00  0.00     0.001 A 
ATOM      8  C8  ZIN A   1      19.640  -0.091  12.985  0.00  0.00     0.001 A 
ATOM      9  C9  ZIN A   1      19.397   1.114  13.619  0.00  0.00     0.007 A 
BRANCH   5  10
ATOM     10  C2  ZIN A   1      18.036  -0.047  16.944  0.00  0.00     0.078 C 
ATOM     11  C1  ZIN A   1      19.169  -0.231  17.956  0.00  0.00     0.051 C 
ATOM     12  C3  ZIN A   1      17.026  -1.185  17.097  0.00  0.00     0.051 C 
BRANCH  10  13
ATOM     13  O4  ZIN A   1      17.385   1.202  17.180  0.00  0.00    -0.386 OA
ATOM     14  H49 ZIN A   1      17.838   1.962  16.792  0.00  0.00     0.211 HD
ENDBRANCH  10  13
ENDBRANCH   5  10
ENDBRANCH   3   4
ENDBRANCH   2   3
ENDBRANCH   1   2
BRANCH   1  15
ATOM     15  S15 ZIN A   1      18.758   6.270  15.007  0.00  0.00    -0.159 SA
BRANCH  15  16
ATOM     16  C16 ZIN A   1      17.562   6.802  16.263  0.00  0.00     0.084 C 
BRANCH  16  17
ATOM     17  C17 ZIN A   1      16.770   8.000  15.737  0.00  0.00    -0.022 A 
ATOM     18  C23 ZIN A   1      17.324   8.732  14.514  0.00  0.00     0.011 A 
ATOM     19  C22 ZIN A   1      17.398   9.387  15.895  0.00  0.00     0.011 A 
BRANCH  17  20
ATOM     20  C18 ZIN A   1      15.249   7.895  15.868  0.00  0.00     0.123 C 
BRANCH  20  21
ATOM     21  C19 ZIN A   1      14.847   6.442  15.889  0.00  0.00     0.173 C 
ATOM     22  O20 ZIN A   1      14.681   5.871  16.953  0.00  0.00    -0.648 OA
ATOM     23  O21 ZIN A   1      14.686   5.839  14.841  0.00  0.00    -0.648 OA
ENDBRANCH  20  21
ENDBRANCH  17  20
ENDBRANCH  16  17
ENDBRANCH  15  16
ENDBRANCH   1  15
BRANCH   1  24
ATOM     24  C24 ZIN A   1      17.783   4.665  13.044  0.00  0.00    -0.043 A 
ATOM     25  C42 ZIN A   1      18.215   3.648  12.217  0.00  0.00     0.019 A 
ATOM     26  C28 ZIN A   1      17.888   3.670  10.859  0.00  0.00    -0.036 A 
ATOM     27  C27 ZIN A   1      17.132   4.728  10.345  0.00  0.00     0.011 A 
ATOM     28  C26 ZIN A   1      16.711   5.739  11.182  0.00  0.00     0.001 A 
ATOM     29  C25 ZIN A   1      17.035   5.709  12.528  0.00  0.00     0.008 A 
BRANCH  26  30
ATOM     30  C29 ZIN A   1      18.342   2.585   9.971  0.00  0.00     0.014 C 
ATOM     31  C30 ZIN A   1      17.753   1.380  10.027  0.00  0.00     0.032 C 
BRANCH  31  32
ATOM     32  C31 ZIN A   1      18.206   0.296   9.140  0.00  0.00     0.057 A 
ATOM     33  N41 ZIN A   1      18.316  -0.931   9.621  0.00  0.00    -0.248 NA
ATOM     34  C40 ZIN A   1      18.718  -1.943   8.850  0.00  0.00     0.069 A 
ATOM     35  C34 ZIN A   1      19.048  -1.711   7.490  0.00  0.00    -0.007 A 
ATOM     36  C39 ZIN A   1      18.828  -3.247   9.367  0.00  0.00     0.056 A 
ATOM     37  C33 ZIN A   1      18.939  -0.406   6.969  0.00  0.00     0.016 A 
ATOM     38  C35 ZIN A   1      19.476  -2.780   6.688  0.00  0.00     0.015 A 
ATOM     39  C32 ZIN A   1      18.519   0.589   7.800  0.00  0.00     0.032 A 
ATOM     40  C36 ZIN A   1      19.571  -4.029   7.223  0.00  0.00     0.025 A 
ATOM     41  C37 ZIN A   1      19.247  -4.261   8.560  0.00  0.00     0.036 A 
ATOM     42 Cl38 ZIN A   1      19.380  -5.868   9.204  0.00  0.00    -0.084 Cl
ENDBRANCH  31  32
ENDBRANCH  26  30
ENDBRANCH   1  24
TORSDOF 13
ENDMDL
