MODEL 1
REMARK VINA RESULT:      -8.3      0.000      0.000
REMARK  4 active torsions:
REMARK  status: ('A' for Active; 'I' for Inactive)
REMARK    1  A    between atoms: S2_2  and  C3_3 
REMARK    2  A    between atoms: N14_14  and  C15_15 
REMARK    3  A    between atoms: C15_15  and  C16_16 
REMARK    4  A    between atoms: C16_16  and  C17_17 
ROOT
ATOM      1  C3  <0> d   1      17.772   3.258  10.598  0.00  0.00     0.002 A 
ATOM      2  C4  <0> d   1      18.509   3.247   9.421  0.00  0.00     0.020 A 
ATOM      3  C5  <0> d   1      19.115   2.078   9.001  0.00  0.00     0.022 A 
ATOM      4  C6  <0> d   1      18.991   0.915   9.749  0.00  0.00     0.032 A 
ATOM      5  S7  <0> d   1      19.766  -0.561   9.181  0.00  0.00    -0.086 SA
ATOM      6  C8  <0> d   1      18.949  -1.827  10.088  0.00  0.00     0.032 A 
ATOM      7  C9  <0> d   1      19.036  -3.143   9.650  0.00  0.00     0.021 A 
ATOM      8  C10 <0> d   1      18.400  -4.152  10.348  0.00  0.00     0.002 A 
ATOM      9  C11 <0> d   1      17.675  -3.853  11.486  0.00  0.00     0.002 A 
ATOM     10  C12 <0> d   1      17.584  -2.547  11.929  0.00  0.00     0.031 A 
ATOM     11  C13 <0> d   1      18.222  -1.525  11.235  0.00  0.00     0.052 A 
ATOM     12  N14 <0> d   1      18.116  -0.221  11.715  0.00  0.00    -0.345 N 
ATOM     13  C26 <0> d   1      18.257   0.922  10.931  0.00  0.00     0.053 A 
ATOM     14  C27 <0> d   1      17.651   2.099  11.353  0.00  0.00     0.049 A 
ENDROOT
BRANCH  12  15
ATOM     15  C15 <0> d   1      17.834  -0.040  13.141  0.00  0.00     0.131 C 
BRANCH  15  16
ATOM     16  C16 <0> d   1      19.144   0.201  13.893  0.00  0.00     0.053 C 
BRANCH  16  17
ATOM     17  C17 <0> d   1      18.917   0.000  15.393  0.00  0.00     0.189 C 
ATOM     18  N23 <0> d   1      19.335   1.206  16.117  0.00  0.00    -0.071 N 
ATOM     19  C22 <0> d   1      19.193   0.995  17.562  0.00  0.00     0.235 C 
ATOM     20  H24 <0> d   1      20.299   1.409  15.901  0.00  0.00     0.279 HD
ATOM     21  C25 <0> d   1      18.493   2.338  15.704  0.00  0.00     0.270 C 
ATOM     22  C21 <0> d   1      17.719   0.767  17.905  0.00  0.00     0.028 C 
ATOM     23  C20 <0> d   1      17.211  -0.467  17.154  0.00  0.00     0.004 C 
ATOM     24  C19 <0> d   1      17.432  -0.266  15.652  0.00  0.00     0.033 C 
ENDBRANCH  16  17
ENDBRANCH  15  16
ENDBRANCH  12  15
BRANCH   1  25
ATOM     25  S2  <0> d   1      16.994   4.745  11.135  0.00  0.00    -0.134 SA
ATOM     26  C1  <0> d   1      17.326   4.758  12.918  0.00  0.00     0.095 C 
ENDBRANCH   1  25
TORSDOF 4
ENDMDL
MODEL 2
REMARK VINA RESULT:      -8.2      2.782      5.411
REMARK  4 active torsions:
REMARK  status: ('A' for Active; 'I' for Inactive)
REMARK    1  A    between atoms: S2_2  and  C3_3 
REMARK    2  A    between atoms: N14_14  and  C15_15 
REMARK    3  A    between atoms: C15_15  and  C16_16 
REMARK    4  A    between atoms: C16_16  and  C17_17 
ROOT
ATOM      1  C3  <0> d   1      19.115  -1.926  12.179  0.00  0.00     0.002 A 
ATOM      2  C4  <0> d   1      19.403  -3.238  11.829  0.00  0.00     0.020 A 
ATOM      3  C5  <0> d   1      19.340  -3.626  10.504  0.00  0.00     0.022 A 
ATOM      4  C6  <0> d   1      18.990  -2.710   9.520  0.00  0.00     0.032 A 
ATOM      5  S7  <0> d   1      18.929  -3.233   7.840  0.00  0.00    -0.086 SA
ATOM      6  C8  <0> d   1      18.973  -1.721   6.940  0.00  0.00     0.032 A 
ATOM      7  C9  <0> d   1      19.305  -1.742   5.591  0.00  0.00     0.021 A 
ATOM      8  C10 <0> d   1      19.345  -0.564   4.868  0.00  0.00     0.002 A 
ATOM      9  C11 <0> d   1      19.056   0.636   5.486  0.00  0.00     0.002 A 
ATOM     10  C12 <0> d   1      18.724   0.665   6.827  0.00  0.00     0.031 A 
ATOM     11  C13 <0> d   1      18.678  -0.513   7.564  0.00  0.00     0.052 A 
ATOM     12  N14 <0> d   1      18.332  -0.448   8.912  0.00  0.00    -0.345 N 
ATOM     13  C26 <0> d   1      18.696  -1.394   9.867  0.00  0.00     0.053 A 
ATOM     14  C27 <0> d   1      18.757  -1.008  11.200  0.00  0.00     0.049 A 
ENDROOT
BRANCH  12  15
ATOM     15  C15 <0> d   1      17.532   0.697   9.356  0.00  0.00     0.131 C 
BRANCH  15  16
ATOM     16  C16 <0> d   1      18.458   1.870   9.682  0.00  0.00     0.053 C 
BRANCH  16  17
ATOM     17  C17 <0> d   1      17.756   2.819  10.656  0.00  0.00     0.189 C 
ATOM     18  N23 <0> d   1      18.467   2.815  11.940  0.00  0.00    -0.071 N 
ATOM     19  C22 <0> d   1      17.758   3.663  12.905  0.00  0.00     0.235 C 
ATOM     20  H24 <0> d   1      18.516   1.872  12.293  0.00  0.00     0.279 HD
ATOM     21  C25 <0> d   1      19.828   3.334  11.743  0.00  0.00     0.270 C 
ATOM     22  C21 <0> d   1      17.753   5.111  12.411  0.00  0.00     0.028 C 
ATOM     23  C20 <0> d   1      17.047   5.179  11.054  0.00  0.00     0.004 C 
ATOM     24  C19 <0> d   1      17.752   4.234  10.075  0.00  0.00     0.033 C 
ENDBRANCH  16  17
ENDBRANCH  15  16
ENDBRANCH  12  15
BRANCH   1  25
ATOM     25  S2  <0> d   1      19.198  -1.426  13.867  0.00  0.00    -0.134 SA
ATOM     26  C1  <0> d   1      19.988   0.203  13.772  0.00  0.00     0.095 C 
ENDBRANCH   1  25
TORSDOF 4
ENDMDL
MODEL 3
REMARK VINA RESULT:      -8.1      3.417      7.907
REMARK  4 active torsions:
REMARK  status: ('A' for Active; 'I' for Inactive)
REMARK    1  A    between atoms: S2_2  and  C3_3 
REMARK    2  A    between atoms: N14_14  and  C15_15 
REMARK    3  A    between atoms: C15_15  and  C16_16 
REMARK    4  A    between atoms: C16_16  and  C17_17 
ROOT
ATOM      1  C3  <0> d   1      17.905  -3.391  10.959  0.00  0.00     0.002 A 
ATOM      2  C4  <0> d   1      18.975  -3.523  11.834  0.00  0.00     0.020 A 
ATOM      3  C5  <0> d   1      19.765  -2.427  12.125  0.00  0.00     0.022 A 
ATOM      4  C6  <0> d   1      19.494  -1.194  11.548  0.00  0.00     0.032 A 
ATOM      5  S7  <0> d   1      20.512   0.186  11.948  0.00  0.00    -0.086 SA
ATOM      6  C8  <0> d   1      19.542   1.567  11.450  0.00  0.00     0.032 A 
ATOM      7  C9  <0> d   1      19.857   2.830  11.936  0.00  0.00     0.021 A 
ATOM      8  C10 <0> d   1      19.106   3.928  11.558  0.00  0.00     0.002 A 
ATOM      9  C11 <0> d   1      18.040   3.770  10.694  0.00  0.00     0.002 A 
ATOM     10  C12 <0> d   1      17.721   2.517  10.205  0.00  0.00     0.031 A 
ATOM     11  C13 <0> d   1      18.471   1.407  10.577  0.00  0.00     0.052 A 
ATOM     12  N14 <0> d   1      18.126   0.160  10.059  0.00  0.00    -0.345 N 
ATOM     13  C26 <0> d   1      18.426  -1.057  10.666  0.00  0.00     0.053 A 
ATOM     14  C27 <0> d   1      17.635  -2.162  10.372  0.00  0.00     0.049 A 
ENDROOT
BRANCH  12  15
ATOM     15  C15 <0> d   1      17.396   0.128   8.789  0.00  0.00     0.131 C 
BRANCH  15  16
ATOM     16  C16 <0> d   1      18.392   0.150   7.628  0.00  0.00     0.053 C 
BRANCH  16  17
ATOM     17  C17 <0> d   1      18.158  -1.068   6.732  0.00  0.00     0.189 C 
ATOM     18  N23 <0> d   1      18.045  -0.633   5.335  0.00  0.00    -0.071 N 
ATOM     19  C22 <0> d   1      17.744  -1.785   4.477  0.00  0.00     0.235 C 
ATOM     20  H24 <0> d   1      17.306   0.048   5.255  0.00  0.00     0.279 HD
ATOM     21  C25 <0> d   1      19.315  -0.028   4.911  0.00  0.00     0.270 C 
ATOM     22  C21 <0> d   1      18.902  -2.784   4.533  0.00  0.00     0.028 C 
ATOM     23  C20 <0> d   1      19.092  -3.257   5.977  0.00  0.00     0.004 C 
ATOM     24  C19 <0> d   1      19.331  -2.039   6.875  0.00  0.00     0.033 C 
ENDBRANCH  16  17
ENDBRANCH  15  16
ENDBRANCH  12  15
BRANCH   1  25
ATOM     25  S2  <0> d   1      16.894  -4.786  10.587  0.00  0.00    -0.134 SA
ATOM     26  C1  <0> d   1      16.949  -4.859   8.776  0.00  0.00     0.095 C 
ENDBRANCH   1  25
TORSDOF 4
ENDMDL
MODEL 4
REMARK VINA RESULT:      -7.9      2.302      7.510
REMARK  4 active torsions:
REMARK  status: ('A' for Active; 'I' for Inactive)
REMARK    1  A    between atoms: S2_2  and  C3_3 
REMARK    2  A    between atoms: N14_14  and  C15_15 
REMARK    3  A    between atoms: C15_15  and  C16_16 
REMARK    4  A    between atoms: C16_16  and  C17_17 
ROOT
ATOM      1  C3  <0> d   1      19.221  -1.432  12.421  0.00  0.00     0.002 A 
ATOM      2  C4  <0> d   1      19.024  -1.329  13.791  0.00  0.00     0.020 A 
ATOM      3  C5  <0> d   1      18.758  -0.096  14.357  0.00  0.00     0.022 A 
ATOM      4  C6  <0> d   1      18.687   1.040  13.561  0.00  0.00     0.032 A 
ATOM      5  S7  <0> d   1      18.335   2.594  14.310  0.00  0.00    -0.086 SA
ATOM      6  C8  <0> d   1      17.835   3.598  12.954  0.00  0.00     0.032 A 
ATOM      7  C9  <0> d   1      17.138   4.775  13.199  0.00  0.00     0.021 A 
ATOM      8  C10 <0> d   1      16.735   5.575  12.146  0.00  0.00     0.002 A 
ATOM      9  C11 <0> d   1      17.026   5.206  10.847  0.00  0.00     0.002 A 
ATOM     10  C12 <0> d   1      17.719   4.038  10.595  0.00  0.00     0.031 A 
ATOM     11  C13 <0> d   1      18.131   3.226  11.646  0.00  0.00     0.052 A 
ATOM     12  N14 <0> d   1      18.835   2.059  11.356  0.00  0.00    -0.345 N 
ATOM     13  C26 <0> d   1      18.889   0.942  12.187  0.00  0.00     0.053 A 
ATOM     14  C27 <0> d   1      19.159  -0.298  11.622  0.00  0.00     0.049 A 
ENDROOT
BRANCH  12  15
ATOM     15  C15 <0> d   1      19.567   2.002  10.088  0.00  0.00     0.131 C 
BRANCH  15  16
ATOM     16  C16 <0> d   1      18.578   1.823   8.936  0.00  0.00     0.053 C 
BRANCH  16  17
ATOM     17  C17 <0> d   1      19.169   0.865   7.899  0.00  0.00     0.189 C 
ATOM     18  N23 <0> d   1      18.654  -0.489   8.136  0.00  0.00    -0.071 N 
ATOM     19  C22 <0> d   1      19.274  -1.430   7.196  0.00  0.00     0.235 C 
ATOM     20  H24 <0> d   1      18.868  -0.769   9.081  0.00  0.00     0.279 HD
ATOM     21  C25 <0> d   1      17.197  -0.496   7.944  0.00  0.00     0.270 C 
ATOM     22  C21 <0> d   1      18.884  -1.057   5.764  0.00  0.00     0.028 C 
ATOM     23  C20 <0> d   1      19.369   0.364   5.462  0.00  0.00     0.004 C 
ATOM     24  C19 <0> d   1      18.774   1.326   6.495  0.00  0.00     0.033 C 
ENDBRANCH  16  17
ENDBRANCH  15  16
ENDBRANCH  12  15
BRANCH   1  25
ATOM     25  S2  <0> d   1      19.557  -3.003  11.696  0.00  0.00    -0.134 SA
ATOM     26  C1  <0> d   1      18.146  -3.249  10.583  0.00  0.00     0.095 C 
ENDBRANCH   1  25
TORSDOF 4
ENDMDL
MODEL 5
REMARK VINA RESULT:      -7.8      1.745      5.844
REMARK  4 active torsions:
REMARK  status: ('A' for Active; 'I' for Inactive)
REMARK    1  A    between atoms: S2_2  and  C3_3 
REMARK    2  A    between atoms: N14_14  and  C15_15 
REMARK    3  A    between atoms: C15_15  and  C16_16 
REMARK    4  A    between atoms: C16_16  and  C17_17 
ROOT
ATOM      1  C3  <0> d   1      18.744   1.728   9.817  0.00  0.00     0.002 A 
ATOM      2  C4  <0> d   1      18.876   3.037  10.263  0.00  0.00     0.020 A 
ATOM      3  C5  <0> d   1      18.722   3.325  11.606  0.00  0.00     0.022 A 
ATOM      4  C6  <0> d   1      18.437   2.313  12.513  0.00  0.00     0.032 A 
ATOM      5  S7  <0> d   1      18.259   2.710  14.218  0.00  0.00    -0.086 SA
ATOM      6  C8  <0> d   1      18.431   1.154  15.021  0.00  0.00     0.032 A 
ATOM      7  C9  <0> d   1      18.709   1.117  16.382  0.00  0.00     0.021 A 
ATOM      8  C10 <0> d   1      18.850  -0.095  17.030  0.00  0.00     0.002 A 
ATOM      9  C11 <0> d   1      18.714  -1.275  16.325  0.00  0.00     0.002 A 
ATOM     10  C12 <0> d   1      18.438  -1.247  14.971  0.00  0.00     0.031 A 
ATOM     11  C13 <0> d   1      18.292  -0.033  14.309  0.00  0.00     0.052 A 
ATOM     12  N14 <0> d   1      18.005  -0.043  12.946  0.00  0.00    -0.345 N 
ATOM     13  C26 <0> d   1      18.299   1.000  12.070  0.00  0.00     0.053 A 
ATOM     14  C27 <0> d   1      18.451   0.714  10.719  0.00  0.00     0.049 A 
ENDROOT
BRANCH  12  15
ATOM     15  C15 <0> d   1      17.350  -1.232  12.395  0.00  0.00     0.131 C 
BRANCH  15  16
ATOM     16  C16 <0> d   1      18.410  -2.265  12.009  0.00  0.00     0.053 C 
BRANCH  16  17
ATOM     17  C17 <0> d   1      17.874  -3.150  10.882  0.00  0.00     0.189 C 
ATOM     18  N23 <0> d   1      18.995  -3.652  10.079  0.00  0.00    -0.071 N 
ATOM     19  C22 <0> d   1      18.486  -4.439   8.949  0.00  0.00     0.235 C 
ATOM     20  H24 <0> d   1      19.532  -2.873   9.730  0.00  0.00     0.279 HD
ATOM     21  C25 <0> d   1      19.853  -4.500  10.917  0.00  0.00     0.270 C 
ATOM     22  C21 <0> d   1      17.739  -5.667   9.474  0.00  0.00     0.028 C 
ATOM     23  C20 <0> d   1      16.568  -5.210  10.349  0.00  0.00     0.004 C 
ATOM     24  C19 <0> d   1      17.103  -4.328  11.481  0.00  0.00     0.033 C 
ENDBRANCH  16  17
ENDBRANCH  15  16
ENDBRANCH  12  15
BRANCH   1  25
ATOM     25  S2  <0> d   1      18.943   1.356   8.106  0.00  0.00    -0.134 SA
ATOM     26  C1  <0> d   1      19.213  -0.437   8.107  0.00  0.00     0.095 C 
ENDBRANCH   1  25
TORSDOF 4
ENDMDL
MODEL 6
REMARK VINA RESULT:      -7.6      1.806      2.423
REMARK  4 active torsions:
REMARK  status: ('A' for Active; 'I' for Inactive)
REMARK    1  A    between atoms: S2_2  and  C3_3 
REMARK    2  A    between atoms: N14_14  and  C15_15 
REMARK    3  A    between atoms: C15_15  and  C16_16 
REMARK    4  A    between atoms: C16_16  and  C17_17 
ROOT
ATOM      1  C3  <0> d   1      18.604   1.076   9.373  0.00  0.00     0.002 A 
ATOM      2  C4  <0> d   1      18.509   0.780   8.020  0.00  0.00     0.020 A 
ATOM      3  C5  <0> d   1      18.481  -0.538   7.604  0.00  0.00     0.022 A 
ATOM      4  C6  <0> d   1      18.548  -1.568   8.532  0.00  0.00     0.032 A 
ATOM      5  S7  <0> d   1      18.498  -3.237   7.972  0.00  0.00    -0.086 SA
ATOM      6  C8  <0> d   1      18.087  -4.143   9.423  0.00  0.00     0.032 A 
ATOM      7  C9  <0> d   1      17.607  -5.441   9.302  0.00  0.00     0.021 A 
ATOM      8  C10 <0> d   1      17.277  -6.169  10.430  0.00  0.00     0.002 A 
ATOM      9  C11 <0> d   1      17.426  -5.606  11.682  0.00  0.00     0.002 A 
ATOM     10  C12 <0> d   1      17.904  -4.316  11.812  0.00  0.00     0.031 A 
ATOM     11  C13 <0> d   1      18.241  -3.575  10.684  0.00  0.00     0.052 A 
ATOM     12  N14 <0> d   1      18.727  -2.281  10.852  0.00  0.00    -0.345 N 
ATOM     13  C26 <0> d   1      18.649  -1.277   9.890  0.00  0.00     0.053 A 
ATOM     14  C27 <0> d   1      18.680   0.049  10.305  0.00  0.00     0.049 A 
ENDROOT
BRANCH  12  15
ATOM     15  C15 <0> d   1      19.364  -1.952  12.131  0.00  0.00     0.131 C 
BRANCH  15  16
ATOM     16  C16 <0> d   1      18.289  -1.592  13.158  0.00  0.00     0.053 C 
BRANCH  16  17
ATOM     17  C17 <0> d   1      18.939  -0.887  14.350  0.00  0.00     0.189 C 
ATOM     18  N23 <0> d   1      18.746   0.563  14.225  0.00  0.00    -0.071 N 
ATOM     19  C22 <0> d   1      19.432   1.253  15.324  0.00  0.00     0.235 C 
ATOM     20  H24 <0> d   1      19.124   0.877  13.344  0.00  0.00     0.279 HD
ATOM     21  C25 <0> d   1      17.310   0.869  14.278  0.00  0.00     0.270 C 
ATOM     22  C21 <0> d   1      18.807   0.841  16.659  0.00  0.00     0.028 C 
ATOM     23  C20 <0> d   1      18.949  -0.673  16.837  0.00  0.00     0.004 C 
ATOM     24  C19 <0> d   1      18.295  -1.381  15.647  0.00  0.00     0.033 C 
ENDBRANCH  16  17
ENDBRANCH  15  16
ENDBRANCH  12  15
BRANCH   1  25
ATOM     25  S2  <0> d   1      18.637   2.755   9.907  0.00  0.00    -0.134 SA
ATOM     26  C1  <0> d   1      19.643   2.684  11.414  0.00  0.00     0.095 C 
ENDBRANCH   1  25
TORSDOF 4
ENDMDL
MODEL 7
REMARK VINA RESULT:      -7.2      3.352      7.794
REMARK  4 active torsions:
REMARK  status: ('A' for Active; 'I' for Inactive)
REMARK    1  A    between atoms: S2_2  and  C3_3 
REMARK    2  A    between atoms: N14_14  and  C15_15 
REMARK    3  A    between atoms: C15_15  and  C16_16 
REMARK    4  A    between atoms: C16_16  and  C17_17 
ROOT
ATOM      1  C3  <0> d   1      17.667  -5.173   8.588  0.00  0.00     0.002 A 
ATOM      2  C4  <0> d   1      18.765  -5.863   9.083  0.00  0.00     0.020 A 
ATOM      3  C5  <0> d   1      19.543  -5.298  10.076  0.00  0.00     0.022 A 
ATOM      4  C6  <0> d   1      19.233  -4.042  10.580  0.00  0.00     0.032 A 
ATOM      5  S7  <0> d   1      20.237  -3.353  11.852  0.00  0.00    -0.086 SA
ATOM      6  C8  <0> d   1      19.228  -2.078  12.524  0.00  0.00     0.032 A 
ATOM      7  C9  <0> d   1      19.534  -1.556  13.775  0.00  0.00     0.021 A 
ATOM      8  C10 <0> d   1      18.752  -0.555  14.320  0.00  0.00     0.002 A 
ATOM      9  C11 <0> d   1      17.664  -0.070  13.621  0.00  0.00     0.002 A 
ATOM     10  C12 <0> d   1      17.353  -0.584  12.376  0.00  0.00     0.031 A 
ATOM     11  C13 <0> d   1      18.134  -1.589  11.817  0.00  0.00     0.052 A 
ATOM     12  N14 <0> d   1      17.796  -2.078  10.557  0.00  0.00    -0.345 N 
ATOM     13  C26 <0> d   1      18.136  -3.343  10.084  0.00  0.00     0.053 A 
ATOM     14  C27 <0> d   1      17.358  -3.913   9.083  0.00  0.00     0.049 A 
ENDROOT
BRANCH  12  15
ATOM     15  C15 <0> d   1      17.030  -1.200   9.668  0.00  0.00     0.131 C 
BRANCH  15  16
ATOM     16  C16 <0> d   1      17.992  -0.344   8.843  0.00  0.00     0.053 C 
BRANCH  16  17
ATOM     17  C17 <0> d   1      18.008  -0.845   7.396  0.00  0.00     0.189 C 
ATOM     18  N23 <0> d   1      17.854   0.294   6.484  0.00  0.00    -0.071 N 
ATOM     19  C22 <0> d   1      17.792  -0.183   5.097  0.00  0.00     0.235 C 
ATOM     20  H24 <0> d   1      17.005   0.791   6.707  0.00  0.00     0.279 HD
ATOM     21  C25 <0> d   1      19.003   1.198   6.636  0.00  0.00     0.270 C 
ATOM     22  C21 <0> d   1      19.111  -0.866   4.729  0.00  0.00     0.028 C 
ATOM     23  C20 <0> d   1      19.346  -2.051   5.669  0.00  0.00     0.004 C 
ATOM     24  C19 <0> d   1      19.335  -1.552   7.117  0.00  0.00     0.033 C 
ENDBRANCH  16  17
ENDBRANCH  15  16
ENDBRANCH  12  15
BRANCH   1  25
ATOM     25  S2  <0> d   1      16.671  -5.892   7.325  0.00  0.00    -0.134 SA
ATOM     26  C1  <0> d   1      17.488  -5.348   5.800  0.00  0.00     0.095 C 
ENDBRANCH   1  25
TORSDOF 4
ENDMDL
MODEL 8
REMARK VINA RESULT:      -7.1      2.586      4.825
REMARK  4 active torsions:
REMARK  status: ('A' for Active; 'I' for Inactive)
REMARK    1  A    between atoms: S2_2  and  C3_3 
REMARK    2  A    between atoms: N14_14  and  C15_15 
REMARK    3  A    between atoms: C15_15  and  C16_16 
REMARK    4  A    between atoms: C16_16  and  C17_17 
ROOT
ATOM      1  C3  <0> d   1      17.965  -0.696   7.326  0.00  0.00     0.002 A 
ATOM      2  C4  <0> d   1      18.948  -1.676   7.316  0.00  0.00     0.020 A 
ATOM      3  C5  <0> d   1      19.613  -1.996   8.485  0.00  0.00     0.022 A 
ATOM      4  C6  <0> d   1      19.302  -1.343   9.670  0.00  0.00     0.032 A 
ATOM      5  S7  <0> d   1      20.158  -1.781  11.144  0.00  0.00    -0.086 SA
ATOM      6  C8  <0> d   1      19.135  -1.132  12.420  0.00  0.00     0.032 A 
ATOM      7  C9  <0> d   1      19.294  -1.593  13.721  0.00  0.00     0.021 A 
ATOM      8  C10 <0> d   1      18.499  -1.096  14.737  0.00  0.00     0.002 A 
ATOM      9  C11 <0> d   1      17.542  -0.139  14.459  0.00  0.00     0.002 A 
ATOM     10  C12 <0> d   1      17.377   0.324  13.168  0.00  0.00     0.031 A 
ATOM     11  C13 <0> d   1      18.173  -0.167  12.139  0.00  0.00     0.052 A 
ATOM     12  N14 <0> d   1      17.985   0.329  10.850  0.00  0.00    -0.345 N 
ATOM     13  C26 <0> d   1      18.320  -0.356   9.685  0.00  0.00     0.053 A 
ATOM     14  C27 <0> d   1      17.657  -0.034   8.507  0.00  0.00     0.049 A 
ENDROOT
BRANCH  12  15
ATOM     15  C15 <0> d   1      17.393   1.662  10.712  0.00  0.00     0.131 C 
BRANCH  15  16
ATOM     16  C16 <0> d   1      18.397   2.717  11.179  0.00  0.00     0.053 C 
BRANCH  16  17
ATOM     17  C17 <0> d   1      17.772   3.559  12.294  0.00  0.00     0.189 C 
ATOM     18  N23 <0> d   1      18.803   3.910  13.278  0.00  0.00    -0.071 N 
ATOM     19  C22 <0> d   1      18.198   4.652  14.390  0.00  0.00     0.235 C 
ATOM     20  H24 <0> d   1      19.231   3.067  13.630  0.00  0.00     0.279 HD
ATOM     21  C25 <0> d   1      19.826   4.745  12.633  0.00  0.00     0.270 C 
ATOM     22  C21 <0> d   1      17.619   5.970  13.873  0.00  0.00     0.028 C 
ATOM     23  C20 <0> d   1      16.552   5.673  12.816  0.00  0.00     0.004 C 
ATOM     24  C19 <0> d   1      17.176   4.835  11.696  0.00  0.00     0.033 C 
ENDBRANCH  16  17
ENDBRANCH  15  16
ENDBRANCH  12  15
BRANCH   1  25
ATOM     25  S2  <0> d   1      17.113  -0.287   5.838  0.00  0.00    -0.134 SA
ATOM     26  C1  <0> d   1      18.455  -0.145   4.626  0.00  0.00     0.095 C 
ENDBRANCH   1  25
TORSDOF 4
ENDMDL
MODEL 9
REMARK VINA RESULT:      -6.9      2.207      4.833
REMARK  4 active torsions:
REMARK  status: ('A' for Active; 'I' for Inactive)
REMARK    1  A    between atoms: S2_2  and  C3_3 
REMARK    2  A    between atoms: N14_14  and  C15_15 
REMARK    3  A    between atoms: C15_15  and  C16_16 
REMARK    4  A    between atoms: C16_16  and  C17_17 
ROOT
ATOM      1  C3  <0> d   1      18.309  -0.288   9.641  0.00  0.00     0.002 A 
ATOM      2  C4  <0> d   1      19.110  -1.421   9.687  0.00  0.00     0.020 A 
ATOM      3  C5  <0> d   1      19.559  -1.897  10.905  0.00  0.00     0.022 A 
ATOM      4  C6  <0> d   1      19.213  -1.248  12.082  0.00  0.00     0.032 A 
ATOM      5  S7  <0> d   1      19.791  -1.885  13.618  0.00  0.00    -0.086 SA
ATOM      6  C8  <0> d   1      18.736  -1.122  14.801  0.00  0.00     0.032 A 
ATOM      7  C9  <0> d   1      18.651  -1.655  16.082  0.00  0.00     0.021 A 
ATOM      8  C10 <0> d   1      17.826  -1.070  17.024  0.00  0.00     0.002 A 
ATOM      9  C11 <0> d   1      17.083   0.046  16.694  0.00  0.00     0.002 A 
ATOM     10  C12 <0> d   1      17.162   0.582  15.423  0.00  0.00     0.031 A 
ATOM     11  C13 <0> d   1      17.990   0.004  14.468  0.00  0.00     0.052 A 
ATOM     12  N14 <0> d   1      18.051   0.576  13.199  0.00  0.00    -0.345 N 
ATOM     13  C26 <0> d   1      18.413  -0.109  12.041  0.00  0.00     0.053 A 
ATOM     14  C27 <0> d   1      17.966   0.369  10.815  0.00  0.00     0.049 A 
ENDROOT
BRANCH  12  15
ATOM     15  C15 <0> d   1      17.708   1.995  13.073  0.00  0.00     0.131 C 
BRANCH  15  16
ATOM     16  C16 <0> d   1      18.932   2.847  13.413  0.00  0.00     0.053 C 
BRANCH  16  17
ATOM     17  C17 <0> d   1      18.477   4.167  14.040  0.00  0.00     0.189 C 
ATOM     18  N23 <0> d   1      18.097   3.938  15.439  0.00  0.00    -0.071 N 
ATOM     19  C22 <0> d   1      17.586   5.182  16.026  0.00  0.00     0.235 C 
ATOM     20  H24 <0> d   1      17.380   3.229  15.479  0.00  0.00     0.279 HD
ATOM     21  C25 <0> d   1      19.273   3.488  16.196  0.00  0.00     0.270 C 
ATOM     22  C21 <0> d   1      18.696   6.236  16.041  0.00  0.00     0.028 C 
ATOM     23  C20 <0> d   1      19.160   6.500  14.606  0.00  0.00     0.004 C 
ATOM     24  C19 <0> d   1      19.621   5.181  13.978  0.00  0.00     0.033 C 
ENDBRANCH  16  17
ENDBRANCH  15  16
ENDBRANCH  12  15
BRANCH   1  25
ATOM     25  S2  <0> d   1      17.731   0.319   8.090  0.00  0.00    -0.134 SA
ATOM     26  C1  <0> d   1      18.930  -0.362   6.913  0.00  0.00     0.095 C 
ENDBRANCH   1  25
TORSDOF 4
ENDMDL
