MODEL 1
REMARK VINA RESULT:       4.7      0.000      0.000
REMARK  7 active torsions:
REMARK  status: ('A' for Active; 'I' for Inactive)
REMARK    1  A    between atoms: O2_2  and  C3_3 
REMARK    2  A    between atoms: C8_8  and  O9_9 
REMARK    3  A    between atoms: C19_18  and  O20_19 
REMARK    4  A    between atoms: O20_19  and  C21_20 
REMARK    5  A    between atoms: C44_40  and  O45_41 
REMARK    6  A    between atoms: C46_42  and  O47_43 
REMARK    7  A    between atoms: C56_51  and  O58_52 
ROOT
ATOM      1  C3  ZIN A   1      13.650  -6.364   4.023  0.00  0.00     0.101 A 
ATOM      2  C4  ZIN A   1      14.601  -5.776   4.834  0.00  0.00     0.050 A 
ATOM      3  C5  ZIN A   1      15.677  -6.509   5.310  0.00  0.00    -0.011 A 
ATOM      4  C6  ZIN A   1      15.817  -7.829   4.959  0.00  0.00    -0.044 A 
ATOM      5  C7  ZIN A   1      14.874  -8.426   4.132  0.00  0.00     0.047 A 
ATOM      6  C8  ZIN A   1      13.792  -7.705   3.670  0.00  0.00     0.099 A 
ATOM      7  C10 ZIN A   1      16.970  -8.672   5.442  0.00  0.00     0.058 C 
ATOM      8  C11 ZIN A   1      18.093  -7.773   5.963  0.00  0.00     0.120 C 
ATOM      9  N12 ZIN A   1      17.535  -6.767   6.854  0.00  0.00    -0.400 N 
ATOM     10  C13 ZIN A   1      16.672  -5.796   6.200  0.00  0.00     0.151 C 
ATOM     11  C14 ZIN A   1      15.865  -5.031   7.258  0.00  0.00     0.121 C 
ATOM     12  S15 ZIN A   1      16.720  -4.958   8.867  0.00  0.00    -0.154 SA
ATOM     13  C16 ZIN A   1      18.193  -4.066   8.452  0.00  0.00     0.119 C 
ATOM     14  C18 ZIN A   1      19.564  -4.665   8.412  0.00  0.00     0.004 A 
ATOM     15  C19 ZIN A   1      19.945  -5.603   9.358  0.00  0.00     0.096 A 
ATOM     16  C24 ZIN A   1      21.190  -6.222   9.338  0.00  0.00     0.009 A 
ATOM     17  C25 ZIN A   1      21.573  -7.226  10.395  0.00  0.00     0.054 C 
ATOM     18  C26 ZIN A   1      22.071  -5.882   8.321  0.00  0.00     0.114 A 
ATOM     19  O27 ZIN A   1      23.310  -6.344   8.056  0.00  0.00    -0.322 OA
ATOM     20  C28 ZIN A   1      23.633  -5.879   6.732  0.00  0.00     0.352 C 
ATOM     21  O29 ZIN A   1      22.749  -4.766   6.500  0.00  0.00    -0.322 OA
ATOM     22  C30 ZIN A   1      21.714  -4.923   7.356  0.00  0.00     0.114 A 
ATOM     23  C31 ZIN A   1      20.488  -4.307   7.399  0.00  0.00     0.024 A 
ATOM     24  C32 ZIN A   1      20.101  -3.229   6.364  0.00  0.00     0.287 C 
ATOM     25  C34 ZIN A   1      19.672  -3.734   5.013  0.00  0.00     0.220 C 
ATOM     26  O35 ZIN A   1      18.813  -4.889   5.262  0.00  0.00    -0.317 OA
ATOM     27  C36 ZIN A   1      17.497  -4.876   5.334  0.00  0.00     0.292 C 
ATOM     28  O37 ZIN A   1      16.895  -4.081   4.648  0.00  0.00    -0.262 OA
ATOM     29  N38 ZIN A   1      19.383  -2.179   7.177  0.00  0.00     0.139 NA
ATOM     30  C39 ZIN A   1      18.088  -2.751   7.693  0.00  0.00     0.283 C 
ATOM     31  C41 ZIN A   1      17.332  -1.701   8.493  0.00  0.00     0.294 C 
ATOM     32  C43 ZIN A   1      18.067  -1.292   9.730  0.00  0.00     0.020 A 
ATOM     33  C44 ZIN A   1      17.762  -1.892  10.942  0.00  0.00     0.108 A 
ATOM     34  C46 ZIN A   1      18.480  -1.551  12.086  0.00  0.00     0.107 A 
ATOM     35  C49 ZIN A   1      19.495  -0.614  11.996  0.00  0.00    -0.025 A 
ATOM     36  C50 ZIN A   1      20.286  -0.245  13.223  0.00  0.00     0.051 C 
ATOM     37  C51 ZIN A   1      19.781  -0.010  10.787  0.00  0.00     0.017 A 
ATOM     38  C52 ZIN A   1      19.063  -0.335   9.649  0.00  0.00    -0.044 A 
ATOM     39  C53 ZIN A   1      19.342   0.364   8.355  0.00  0.00     0.079 C 
ATOM     40  C54 ZIN A   1      18.418   0.022   7.218  0.00  0.00     0.286 C 
ATOM     41  C56 ZIN A   1      19.035  -1.036   6.293  0.00  0.00     0.392 C 
ATOM     42  N59 ZIN A   1      17.079  -0.495   7.633  0.00  0.00     0.104 N 
ATOM     43  C60 ZIN A   1      16.509   0.548   8.557  0.00  0.00     0.311 C 
ATOM     44  H71 ZIN A   1      18.041  -6.512   7.642  0.00  0.00     0.154 HD
ENDROOT
BRANCH   1  45
ATOM     45  O2  ZIN A   1      12.586  -5.643   3.576  0.00  0.00    -0.353 OA
ATOM     46  C1  ZIN A   1      12.601  -5.249   2.202  0.00  0.00     0.210 C 
ENDBRANCH   1  45
BRANCH   6  47
ATOM     47  O9  ZIN A   1      12.867  -8.297   2.868  0.00  0.00    -0.358 OA
ATOM     48  H66 ZIN A   1      12.030  -7.816   2.810  0.00  0.00     0.217 HD
ENDBRANCH   6  47
BRANCH  15  49
ATOM     49  O20 ZIN A   1      19.078  -5.926  10.356  0.00  0.00    -0.278 OA
BRANCH  49  50
ATOM     50  C21 ZIN A   1      19.092  -5.149  11.450  0.00  0.00     0.260 C 
ATOM     51  C22 ZIN A   1      20.281  -4.268  11.733  0.00  0.00     0.126 C 
ATOM     52  O23 ZIN A   1      18.151  -5.156  12.209  0.00  0.00    -0.265 OA
ENDBRANCH  49  50
ENDBRANCH  15  49
BRANCH  41  53
ATOM     53  O58 ZIN A   1      18.068  -1.413   5.319  0.00  0.00    -0.366 OA
ATOM     54  H94 ZIN A   1      18.437  -1.563   4.438  0.00  0.00     0.212 HD
ENDBRANCH  41  53
BRANCH  33  55
ATOM     55  O45 ZIN A   1      16.769  -2.816  11.020  0.00  0.00    -0.357 OA
ATOM     56  H84 ZIN A   1      16.160  -2.804  10.269  0.00  0.00     0.217 HD
ENDBRANCH  33  55
BRANCH  34  57
ATOM     57  O47 ZIN A   1      18.186  -2.134  13.279  0.00  0.00    -0.353 OA
ATOM     58  C48 ZIN A   1      17.813  -1.264  14.351  0.00  0.00     0.210 C 
ENDBRANCH  34  57
TORSDOF 7
ENDMDL
MODEL 2
REMARK VINA RESULT:       4.9      7.303     13.354
REMARK  7 active torsions:
REMARK  status: ('A' for Active; 'I' for Inactive)
REMARK    1  A    between atoms: O2_2  and  C3_3 
REMARK    2  A    between atoms: C8_8  and  O9_9 
REMARK    3  A    between atoms: C19_18  and  O20_19 
REMARK    4  A    between atoms: O20_19  and  C21_20 
REMARK    5  A    between atoms: C44_40  and  O45_41 
REMARK    6  A    between atoms: C46_42  and  O47_43 
REMARK    7  A    between atoms: C56_51  and  O58_52 
ROOT
ATOM      1  C3  ZIN A   1      13.079   7.384  17.744  0.00  0.00     0.101 A 
ATOM      2  C4  ZIN A   1      14.088   6.577  17.254  0.00  0.00     0.050 A 
ATOM      3  C5  ZIN A   1      15.161   7.123  16.566  0.00  0.00    -0.011 A 
ATOM      4  C6  ZIN A   1      15.240   8.481  16.383  0.00  0.00    -0.044 A 
ATOM      5  C7  ZIN A   1      14.239   9.303  16.885  0.00  0.00     0.047 A 
ATOM      6  C8  ZIN A   1      13.160   8.763  17.556  0.00  0.00     0.099 A 
ATOM      7  C10 ZIN A   1      16.386   9.129  15.649  0.00  0.00     0.058 C 
ATOM      8  C11 ZIN A   1      17.562   8.155  15.553  0.00  0.00     0.120 C 
ATOM      9  N12 ZIN A   1      17.081   6.857  15.103  0.00  0.00    -0.400 N 
ATOM     10  C13 ZIN A   1      16.221   6.172  16.053  0.00  0.00     0.151 C 
ATOM     11  C14 ZIN A   1      15.491   5.019  15.349  0.00  0.00     0.121 C 
ATOM     12  S15 ZIN A   1      16.425   4.375  13.921  0.00  0.00    -0.154 SA
ATOM     13  C16 ZIN A   1      17.905   3.785  14.695  0.00  0.00     0.119 C 
ATOM     14  C18 ZIN A   1      19.253   4.420  14.544  0.00  0.00     0.004 A 
ATOM     15  C19 ZIN A   1      19.648   4.939  13.322  0.00  0.00     0.096 A 
ATOM     16  C24 ZIN A   1      20.868   5.578  13.140  0.00  0.00     0.009 A 
ATOM     17  C25 ZIN A   1      21.269   6.115  11.790  0.00  0.00     0.054 C 
ATOM     18  C26 ZIN A   1      21.710   5.700  14.237  0.00  0.00     0.114 A 
ATOM     19  O27 ZIN A   1      22.919   6.289  14.342  0.00  0.00    -0.322 OA
ATOM     20  C28 ZIN A   1      23.193   6.387  15.753  0.00  0.00     0.352 C 
ATOM     21  O29 ZIN A   1      22.336   5.407  16.369  0.00  0.00    -0.322 OA
ATOM     22  C30 ZIN A   1      21.339   5.170  15.486  0.00  0.00     0.114 A 
ATOM     23  C31 ZIN A   1      20.137   4.525  15.646  0.00  0.00     0.024 A 
ATOM     24  C32 ZIN A   1      19.737   3.911  17.004  0.00  0.00     0.287 C 
ATOM     25  C34 ZIN A   1      19.226   4.876  18.040  0.00  0.00     0.220 C 
ATOM     26  O35 ZIN A   1      18.343   5.802  17.336  0.00  0.00    -0.317 OA
ATOM     27  C36 ZIN A   1      17.033   5.698  17.233  0.00  0.00     0.292 C 
ATOM     28  O37 ZIN A   1      16.425   5.199  18.154  0.00  0.00    -0.262 OA
ATOM     29  N38 ZIN A   1      19.094   2.595  16.639  0.00  0.00     0.139 NA
ATOM     30  C39 ZIN A   1      17.807   2.860  15.900  0.00  0.00     0.283 C 
ATOM     31  C41 ZIN A   1      17.126   1.547  15.545  0.00  0.00     0.294 C 
ATOM     32  C43 ZIN A   1      17.933   0.731  14.586  0.00  0.00     0.020 A 
ATOM     33  C44 ZIN A   1      17.667   0.801  13.228  0.00  0.00     0.108 A 
ATOM     34  C46 ZIN A   1      18.451   0.083  12.328  0.00  0.00     0.107 A 
ATOM     35  C49 ZIN A   1      19.491  -0.696  12.805  0.00  0.00    -0.025 A 
ATOM     36  C50 ZIN A   1      20.353  -1.470  11.843  0.00  0.00     0.051 C 
ATOM     37  C51 ZIN A   1      19.738  -0.774  14.163  0.00  0.00     0.017 A 
ATOM     38  C52 ZIN A   1      18.955  -0.071  15.063  0.00  0.00    -0.044 A 
ATOM     39  C53 ZIN A   1      19.195  -0.204  16.535  0.00  0.00     0.079 C 
ATOM     40  C54 ZIN A   1      18.205   0.503  17.421  0.00  0.00     0.286 C 
ATOM     41  C56 ZIN A   1      18.742   1.865  17.884  0.00  0.00     0.392 C 
ATOM     42  N59 ZIN A   1      16.872   0.755  16.796  0.00  0.00     0.104 N 
ATOM     43  C60 ZIN A   1      16.383  -0.590  16.330  0.00  0.00     0.311 C 
ATOM     44  H71 ZIN A   1      17.633   6.344  14.492  0.00  0.00     0.154 HD
ENDROOT
BRANCH   1  45
ATOM     45  O2  ZIN A   1      12.020   6.840  18.400  0.00  0.00    -0.353 OA
ATOM     46  C1  ZIN A   1      12.278   6.268  19.685  0.00  0.00     0.210 C 
ENDBRANCH   1  45
BRANCH   6  47
ATOM     47  O9  ZIN A   1      12.178   9.572  18.036  0.00  0.00    -0.358 OA
ATOM     48  H66 ZIN A   1      12.160  10.451  17.632  0.00  0.00     0.217 HD
ENDBRANCH   6  47
BRANCH  15  49
ATOM     49  O20 ZIN A   1      18.819   4.810  12.250  0.00  0.00    -0.278 OA
BRANCH  49  50
ATOM     50  C21 ZIN A   1      19.045   3.774  11.427  0.00  0.00     0.260 C 
ATOM     51  C22 ZIN A   1      18.167   3.564  10.220  0.00  0.00     0.126 C 
ATOM     52  O23 ZIN A   1      19.954   3.010  11.653  0.00  0.00    -0.265 OA
ENDBRANCH  49  50
ENDBRANCH  15  49
BRANCH  41  53
ATOM     53  O58 ZIN A   1      17.717   2.540  18.605  0.00  0.00    -0.366 OA
ATOM     54  H94 ZIN A   1      17.272   3.233  18.098  0.00  0.00     0.212 HD
ENDBRANCH  41  53
BRANCH  33  55
ATOM     55  O45 ZIN A   1      16.649   1.575  12.767  0.00  0.00    -0.357 OA
ATOM     56  H84 ZIN A   1      15.814   1.448  13.238  0.00  0.00     0.217 HD
ENDBRANCH  33  55
BRANCH  34  57
ATOM     57  O47 ZIN A   1      18.196   0.145  10.993  0.00  0.00    -0.353 OA
ATOM     58  C48 ZIN A   1      17.327  -0.852  10.452  0.00  0.00     0.210 C 
ENDBRANCH  34  57
TORSDOF 7
ENDMDL
MODEL 3
REMARK VINA RESULT:       5.8      1.684      2.168
REMARK  7 active torsions:
REMARK  status: ('A' for Active; 'I' for Inactive)
REMARK    1  A    between atoms: O2_2  and  C3_3 
REMARK    2  A    between atoms: C8_8  and  O9_9 
REMARK    3  A    between atoms: C19_18  and  O20_19 
REMARK    4  A    between atoms: O20_19  and  C21_20 
REMARK    5  A    between atoms: C44_40  and  O45_41 
REMARK    6  A    between atoms: C46_42  and  O47_43 
REMARK    7  A    between atoms: C56_51  and  O58_52 
ROOT
ATOM      1  C3  ZIN A   1      13.304  -8.101   5.247  0.00  0.00     0.101 A 
ATOM      2  C4  ZIN A   1      14.247  -7.182   5.664  0.00  0.00     0.050 A 
ATOM      3  C5  ZIN A   1      15.289  -7.564   6.496  0.00  0.00    -0.011 A 
ATOM      4  C6  ZIN A   1      15.403  -8.872   6.896  0.00  0.00    -0.044 A 
ATOM      5  C7  ZIN A   1      14.468  -9.807   6.470  0.00  0.00     0.047 A 
ATOM      6  C8  ZIN A   1      13.420  -9.428   5.656  0.00  0.00     0.099 A 
ATOM      7  C10 ZIN A   1      16.518  -9.345   7.794  0.00  0.00     0.058 C 
ATOM      8  C11 ZIN A   1      17.649  -8.316   7.809  0.00  0.00     0.120 C 
ATOM      9  N12 ZIN A   1      17.093  -6.986   8.016  0.00  0.00    -0.400 N 
ATOM     10  C13 ZIN A   1      16.277  -6.498   6.917  0.00  0.00     0.151 C 
ATOM     11  C14 ZIN A   1      15.460  -5.284   7.383  0.00  0.00     0.121 C 
ATOM     12  S15 ZIN A   1      16.270  -4.383   8.746  0.00  0.00    -0.154 SA
ATOM     13  C16 ZIN A   1      17.778  -3.854   7.982  0.00  0.00     0.119 C 
ATOM     14  C18 ZIN A   1      19.134  -4.396   8.316  0.00  0.00     0.004 A 
ATOM     15  C19 ZIN A   1      19.461  -4.700   9.628  0.00  0.00     0.096 A 
ATOM     16  C24 ZIN A   1      20.688  -5.246   9.984  0.00  0.00     0.009 A 
ATOM     17  C25 ZIN A   1      21.014  -5.547  11.425  0.00  0.00     0.054 C 
ATOM     18  C26 ZIN A   1      21.608  -5.499   8.976  0.00  0.00     0.114 A 
ATOM     19  O27 ZIN A   1      22.840  -6.041   9.041  0.00  0.00    -0.322 OA
ATOM     20  C28 ZIN A   1      23.214  -6.344   7.684  0.00  0.00     0.352 C 
ATOM     21  O29 ZIN A   1      22.368  -5.513   6.867  0.00  0.00    -0.322 OA
ATOM     22  C30 ZIN A   1      21.305  -5.187   7.638  0.00  0.00     0.114 A 
ATOM     23  C31 ZIN A   1      20.096  -4.631   7.302  0.00  0.00     0.024 A 
ATOM     24  C32 ZIN A   1      19.768  -4.255   5.842  0.00  0.00     0.287 C 
ATOM     25  C34 ZIN A   1      19.364  -5.392   4.942  0.00  0.00     0.220 C 
ATOM     26  O35 ZIN A   1      18.468  -6.236   5.727  0.00  0.00    -0.317 OA
ATOM     27  C36 ZIN A   1      17.151  -6.177   5.730  0.00  0.00     0.292 C 
ATOM     28  O37 ZIN A   1      16.591  -5.856   4.705  0.00  0.00    -0.262 OA
ATOM     29  N38 ZIN A   1      19.055  -2.929   5.953  0.00  0.00     0.139 NA
ATOM     30  C39 ZIN A   1      17.731  -3.133   6.643  0.00  0.00     0.283 C 
ATOM     31  C41 ZIN A   1      16.981  -1.814   6.741  0.00  0.00     0.294 C 
ATOM     32  C43 ZIN A   1      17.691  -0.822   7.607  0.00  0.00     0.020 A 
ATOM     33  C44 ZIN A   1      17.335  -0.692   8.940  0.00  0.00     0.108 A 
ATOM     34  C46 ZIN A   1      18.029   0.193   9.762  0.00  0.00     0.107 A 
ATOM     35  C49 ZIN A   1      19.071   0.935   9.234  0.00  0.00    -0.025 A 
ATOM     36  C50 ZIN A   1      19.837   1.888  10.113  0.00  0.00     0.051 C 
ATOM     37  C51 ZIN A   1      19.408   0.811   7.899  0.00  0.00     0.017 A 
ATOM     38  C52 ZIN A   1      18.715  -0.058   7.075  0.00  0.00    -0.044 A 
ATOM     39  C53 ZIN A   1      19.051  -0.146   5.618  0.00  0.00     0.079 C 
ATOM     40  C54 ZIN A   1      18.150  -1.027   4.795  0.00  0.00     0.286 C 
ATOM     41  C56 ZIN A   1      18.765  -2.418   4.589  0.00  0.00     0.392 C 
ATOM     42  N59 ZIN A   1      16.787  -1.238   5.367  0.00  0.00     0.104 N 
ATOM     43  C60 ZIN A   1      16.219   0.139   5.583  0.00  0.00     0.311 C 
ATOM     44  H71 ZIN A   1      17.583  -6.359   8.571  0.00  0.00     0.154 HD
ENDROOT
BRANCH   1  45
ATOM     45  O2  ZIN A   1      12.274  -7.714   4.447  0.00  0.00    -0.353 OA
ATOM     46  C1  ZIN A   1      12.508  -7.725   3.037  0.00  0.00     0.210 C 
ENDBRANCH   1  45
BRANCH   6  47
ATOM     47  O9  ZIN A   1      12.502 -10.346   5.249  0.00  0.00    -0.358 OA
ATOM     48  H66 ZIN A   1      12.278 -10.288   4.310  0.00  0.00     0.217 HD
ENDBRANCH   6  47
BRANCH  15  49
ATOM     49  O20 ZIN A   1      18.557  -4.442  10.612  0.00  0.00    -0.278 OA
BRANCH  49  50
ATOM     50  C21 ZIN A   1      18.689  -3.281  11.272  0.00  0.00     0.260 C 
ATOM     51  C22 ZIN A   1      17.706  -2.914  12.354  0.00  0.00     0.126 C 
ATOM     52  O23 ZIN A   1      19.595  -2.530  10.999  0.00  0.00    -0.265 OA
ENDBRANCH  49  50
ENDBRANCH  15  49
BRANCH  41  53
ATOM     53  O58 ZIN A   1      17.817  -3.243   3.921  0.00  0.00    -0.366 OA
ATOM     54  H94 ZIN A   1      16.898  -2.977   4.062  0.00  0.00     0.212 HD
ENDBRANCH  41  53
BRANCH  33  55
ATOM     55  O45 ZIN A   1      16.315  -1.430   9.453  0.00  0.00    -0.357 OA
ATOM     56  H84 ZIN A   1      15.873  -1.019  10.208  0.00  0.00     0.217 HD
ENDBRANCH  33  55
BRANCH  34  57
ATOM     57  O47 ZIN A   1      17.685   0.327  11.071  0.00  0.00    -0.353 OA
ATOM     58  C48 ZIN A   1      17.278   1.628  11.505  0.00  0.00     0.210 C 
ENDBRANCH  34  57
TORSDOF 7
ENDMDL
