MODEL 1
REMARK VINA RESULT:     -10.0      0.000      0.000
REMARK  8 active torsions:
REMARK  status: ('A' for Active; 'I' for Inactive)
REMARK    1  A    between atoms: C2_2  and  O4_3 
REMARK    2  A    between atoms: C2_2  and  C27_24 
REMARK    3  A    between atoms: O4_3  and  C5_4 
REMARK    4  A    between atoms: N10_8  and  C11_9 
REMARK    5  A    between atoms: C11_9  and  C12_10 
REMARK    6  A    between atoms: C18_16  and  C20_17 
REMARK    7  A    between atoms: C29_26  and  C30_27 
REMARK    8  A    between atoms: C35_32  and  C36_33 
ROOT
ATOM      1  C5  ZIN A   1      19.808  -0.060  10.997  0.00  0.00     0.298 C 
ATOM      2  O7  ZIN A   1      20.322  -1.367  10.723  0.00  0.00    -0.357 OA
ATOM      3  C8  ZIN A   1      19.322  -2.306  10.317  0.00  0.00     0.201 C 
ATOM      4  C9  ZIN A   1      18.624  -1.786   9.057  0.00  0.00     0.300 C 
ATOM      5  N10 ZIN A   1      18.061  -0.456   9.328  0.00  0.00     0.111 N 
ATOM      6  C18 ZIN A   1      19.115   0.483   9.744  0.00  0.00     0.311 C 
ENDROOT
BRANCH   1   7
ATOM      7  O4  ZIN A   1      18.865  -0.132  12.068  0.00  0.00    -0.349 OA
BRANCH   7   8
ATOM      8  C2  ZIN A   1      19.436  -0.527  13.318  0.00  0.00     0.153 C 
ATOM      9  C1  ZIN A   1      18.748  -1.800  13.814  0.00  0.00     0.045 C 
BRANCH   8  10
ATOM     10  C27 ZIN A   1      19.243   0.574  14.328  0.00  0.00    -0.028 A 
ATOM     11  C40 ZIN A   1      19.147   0.268  15.673  0.00  0.00     0.025 A 
ATOM     12  C35 ZIN A   1      18.973   1.279  16.601  0.00  0.00     0.049 A 
ATOM     13  C34 ZIN A   1      18.887   2.594  16.183  0.00  0.00     0.032 A 
ATOM     14  C29 ZIN A   1      18.977   2.898  14.837  0.00  0.00     0.049 A 
ATOM     15  C28 ZIN A   1      19.156   1.889  13.911  0.00  0.00     0.025 A 
BRANCH  12  16
ATOM     16  C36 ZIN A   1      18.874   0.947  18.068  0.00  0.00     0.417 C 
ATOM     17  F37 ZIN A   1      19.398   2.003  18.821  0.00  0.00    -0.166 F 
ATOM     18  F38 ZIN A   1      17.532   0.749  18.411  0.00  0.00    -0.166 F 
ATOM     19  F39 ZIN A   1      19.601  -0.219  18.331  0.00  0.00    -0.166 F 
ENDBRANCH  12  16
BRANCH  14  20
ATOM     20  C30 ZIN A   1      18.883   4.332  14.381  0.00  0.00     0.417 C 
ATOM     21  F31 ZIN A   1      17.538   4.690  14.245  0.00  0.00    -0.166 F 
ATOM     22  F32 ZIN A   1      19.493   5.163  15.327  0.00  0.00    -0.166 F 
ATOM     23  F33 ZIN A   1      19.531   4.473  13.149  0.00  0.00    -0.166 F 
ENDBRANCH  14  20
ENDBRANCH   8  10
ENDBRANCH   7   8
ENDBRANCH   1   7
BRANCH   6  24
ATOM     24  C20 ZIN A   1      18.503   1.826  10.047  0.00  0.00    -0.020 A 
ATOM     25  C26 ZIN A   1      17.568   1.947  11.058  0.00  0.00     0.012 A 
ATOM     26  C25 ZIN A   1      17.010   3.179  11.339  0.00  0.00     0.043 A 
ATOM     27  C23 ZIN A   1      17.379   4.291  10.601  0.00  0.00     0.116 A 
ATOM     28  C22 ZIN A   1      18.311   4.168   9.585  0.00  0.00     0.043 A 
ATOM     29  F24 ZIN A   1      16.829   5.495  10.872  0.00  0.00    -0.206 F 
ATOM     30  C21 ZIN A   1      18.872   2.935   9.309  0.00  0.00     0.012 A 
ENDBRANCH   6  24
BRANCH   5  31
ATOM     31  C11 ZIN A   1      17.333   0.056   8.159  0.00  0.00     0.355 C 
BRANCH  31  32
ATOM     32  C12 ZIN A   1      18.220  -0.016   6.943  0.00  0.00     0.179 A 
ATOM     33  N17 ZIN A   1      18.480  -1.147   6.210  0.00  0.00    -0.174 NA
ATOM     34  C15 ZIN A   1      19.310  -0.817   5.200  0.00  0.00     0.364 A 
ATOM     35  N14 ZIN A   1      19.570   0.502   5.308  0.00  0.00    -0.225 N 
ATOM     36  O16 ZIN A   1      19.748  -1.572   4.350  0.00  0.00    -0.243 OA
ATOM     37  N13 ZIN A   1      18.864   0.977   6.421  0.00  0.00    -0.153 NA
ATOM     38  H50 ZIN A   1      20.141   1.025   4.723  0.00  0.00     0.194 HD
ENDBRANCH  31  32
ENDBRANCH   5  31
TORSDOF 8
ENDMDL
MODEL 2
REMARK VINA RESULT:     -10.0      0.020      2.846
REMARK  8 active torsions:
REMARK  status: ('A' for Active; 'I' for Inactive)
REMARK    1  A    between atoms: C2_2  and  O4_3 
REMARK    2  A    between atoms: C2_2  and  C27_24 
REMARK    3  A    between atoms: O4_3  and  C5_4 
REMARK    4  A    between atoms: N10_8  and  C11_9 
REMARK    5  A    between atoms: C11_9  and  C12_10 
REMARK    6  A    between atoms: C18_16  and  C20_17 
REMARK    7  A    between atoms: C29_26  and  C30_27 
REMARK    8  A    between atoms: C35_32  and  C36_33 
ROOT
ATOM      1  C5  ZIN A   1      19.807  -0.052  10.984  0.00  0.00     0.298 C 
ATOM      2  O7  ZIN A   1      20.318  -1.361  10.713  0.00  0.00    -0.357 OA
ATOM      3  C8  ZIN A   1      19.317  -2.298  10.307  0.00  0.00     0.201 C 
ATOM      4  C9  ZIN A   1      18.623  -1.779   9.045  0.00  0.00     0.300 C 
ATOM      5  N10 ZIN A   1      18.061  -0.448   9.313  0.00  0.00     0.111 N 
ATOM      6  C18 ZIN A   1      19.116   0.490   9.729  0.00  0.00     0.311 C 
ENDROOT
BRANCH   1   7
ATOM      7  O4  ZIN A   1      18.863  -0.121  12.055  0.00  0.00    -0.349 OA
BRANCH   7   8
ATOM      8  C2  ZIN A   1      19.430  -0.522  13.304  0.00  0.00     0.153 C 
ATOM      9  C1  ZIN A   1      18.734  -1.793  13.795  0.00  0.00     0.045 C 
BRANCH   8  10
ATOM     10  C27 ZIN A   1      19.241   0.577  14.317  0.00  0.00    -0.028 A 
ATOM     11  C40 ZIN A   1      19.157   1.893  13.900  0.00  0.00     0.025 A 
ATOM     12  C35 ZIN A   1      18.979   2.902  14.829  0.00  0.00     0.049 A 
ATOM     13  C34 ZIN A   1      18.896   2.596  16.175  0.00  0.00     0.032 A 
ATOM     14  C29 ZIN A   1      18.985   1.281  16.591  0.00  0.00     0.049 A 
ATOM     15  C28 ZIN A   1      19.158   0.272  15.662  0.00  0.00     0.025 A 
BRANCH  12  16
ATOM     16  C36 ZIN A   1      18.882   4.336  14.375  0.00  0.00     0.417 C 
ATOM     17  F37 ZIN A   1      17.536   4.693  14.247  0.00  0.00    -0.166 F 
ATOM     18  F38 ZIN A   1      19.498   5.166  15.317  0.00  0.00    -0.166 F 
ATOM     19  F39 ZIN A   1      19.522   4.477  13.138  0.00  0.00    -0.166 F 
ENDBRANCH  12  16
BRANCH  14  20
ATOM     20  C30 ZIN A   1      18.894   0.947  18.058  0.00  0.00     0.417 C 
ATOM     21  F31 ZIN A   1      19.425   2.000  18.810  0.00  0.00    -0.166 F 
ATOM     22  F32 ZIN A   1      17.554   0.752  18.409  0.00  0.00    -0.166 F 
ATOM     23  F33 ZIN A   1      19.618  -0.222  18.316  0.00  0.00    -0.166 F 
ENDBRANCH  14  20
ENDBRANCH   8  10
ENDBRANCH   7   8
ENDBRANCH   1   7
BRANCH   6  24
ATOM     24  C20 ZIN A   1      18.506   1.834  10.029  0.00  0.00    -0.020 A 
ATOM     25  C26 ZIN A   1      17.574   1.960  11.042  0.00  0.00     0.012 A 
ATOM     26  C25 ZIN A   1      17.017   3.193  11.321  0.00  0.00     0.043 A 
ATOM     27  C23 ZIN A   1      17.385   4.302  10.578  0.00  0.00     0.116 A 
ATOM     28  C22 ZIN A   1      18.315   4.175   9.560  0.00  0.00     0.043 A 
ATOM     29  F24 ZIN A   1      16.837   5.507  10.846  0.00  0.00    -0.206 F 
ATOM     30  C21 ZIN A   1      18.874   2.941   9.287  0.00  0.00     0.012 A 
ENDBRANCH   6  24
BRANCH   5  31
ATOM     31  C11 ZIN A   1      17.335   0.064   8.143  0.00  0.00     0.355 C 
BRANCH  31  32
ATOM     32  C12 ZIN A   1      18.221  -0.018   6.927  0.00  0.00     0.179 A 
ATOM     33  N17 ZIN A   1      18.492  -1.157   6.210  0.00  0.00    -0.174 NA
ATOM     34  C15 ZIN A   1      19.317  -0.833   5.194  0.00  0.00     0.364 A 
ATOM     35  N14 ZIN A   1      19.565   0.490   5.283  0.00  0.00    -0.225 N 
ATOM     36  O16 ZIN A   1      19.761  -1.596   4.354  0.00  0.00    -0.243 OA
ATOM     37  N13 ZIN A   1      18.856   0.974   6.391  0.00  0.00    -0.153 NA
ATOM     38  H50 ZIN A   1      20.131   1.010   4.690  0.00  0.00     0.194 HD
ENDBRANCH  31  32
ENDBRANCH   5  31
TORSDOF 8
ENDMDL
MODEL 3
REMARK VINA RESULT:      -9.9      5.491      8.169
REMARK  8 active torsions:
REMARK  status: ('A' for Active; 'I' for Inactive)
REMARK    1  A    between atoms: C2_2  and  O4_3 
REMARK    2  A    between atoms: C2_2  and  C27_24 
REMARK    3  A    between atoms: O4_3  and  C5_4 
REMARK    4  A    between atoms: N10_8  and  C11_9 
REMARK    5  A    between atoms: C11_9  and  C12_10 
REMARK    6  A    between atoms: C18_16  and  C20_17 
REMARK    7  A    between atoms: C29_26  and  C30_27 
REMARK    8  A    between atoms: C35_32  and  C36_33 
ROOT
ATOM      1  C5  ZIN A   1      17.195  -0.906  11.010  0.00  0.00     0.298 C 
ATOM      2  O7  ZIN A   1      16.754  -0.917  12.370  0.00  0.00    -0.357 OA
ATOM      3  C8  ZIN A   1      17.535  -0.091  13.237  0.00  0.00     0.201 C 
ATOM      4  C9  ZIN A   1      17.497   1.353  12.727  0.00  0.00     0.300 C 
ATOM      5  N10 ZIN A   1      17.979   1.390  11.339  0.00  0.00     0.111 N 
ATOM      6  C18 ZIN A   1      17.154   0.529  10.477  0.00  0.00     0.311 C 
ENDROOT
BRANCH   1   7
ATOM      7  O4  ZIN A   1      18.534  -1.402  10.938  0.00  0.00    -0.349 OA
BRANCH   7   8
ATOM      8  C2  ZIN A   1      18.638  -2.818  11.111  0.00  0.00     0.153 C 
ATOM      9  C1  ZIN A   1      20.059  -3.174  11.554  0.00  0.00     0.045 C 
BRANCH   8  10
ATOM     10  C27 ZIN A   1      18.332  -3.506   9.806  0.00  0.00    -0.028 A 
ATOM     11  C40 ZIN A   1      17.266  -4.384   9.722  0.00  0.00     0.025 A 
ATOM     12  C35 ZIN A   1      16.982  -5.013   8.524  0.00  0.00     0.049 A 
ATOM     13  C34 ZIN A   1      17.768  -4.771   7.413  0.00  0.00     0.032 A 
ATOM     14  C29 ZIN A   1      18.836  -3.898   7.499  0.00  0.00     0.049 A 
ATOM     15  C28 ZIN A   1      19.117  -3.265   8.695  0.00  0.00     0.025 A 
BRANCH  12  16
ATOM     16  C36 ZIN A   1      15.817  -5.965   8.430  0.00  0.00     0.417 C 
ATOM     17  F37 ZIN A   1      16.224  -7.239   8.841  0.00  0.00    -0.166 F 
ATOM     18  F38 ZIN A   1      14.781  -5.516   9.256  0.00  0.00    -0.166 F 
ATOM     19  F39 ZIN A   1      15.368  -6.023   7.106  0.00  0.00    -0.166 F 
ENDBRANCH  12  16
BRANCH  14  20
ATOM     20  C30 ZIN A   1      19.694  -3.634   6.287  0.00  0.00     0.417 C 
ATOM     21  F31 ZIN A   1      19.837  -2.253   6.110  0.00  0.00    -0.166 F 
ATOM     22  F32 ZIN A   1      20.953  -4.214   6.472  0.00  0.00    -0.166 F 
ATOM     23  F33 ZIN A   1      19.086  -4.189   5.156  0.00  0.00    -0.166 F 
ENDBRANCH  14  20
ENDBRANCH   8  10
ENDBRANCH   7   8
ENDBRANCH   1   7
BRANCH   6  24
ATOM     24  C20 ZIN A   1      17.692   0.561   9.070  0.00  0.00    -0.020 A 
ATOM     25  C26 ZIN A   1      18.805   1.326   8.772  0.00  0.00     0.012 A 
ATOM     26  C25 ZIN A   1      19.301   1.352   7.484  0.00  0.00     0.043 A 
ATOM     27  C23 ZIN A   1      18.679   0.620   6.487  0.00  0.00     0.116 A 
ATOM     28  C22 ZIN A   1      17.563  -0.142   6.784  0.00  0.00     0.043 A 
ATOM     29  F24 ZIN A   1      19.161   0.650   5.225  0.00  0.00    -0.206 F 
ATOM     30  C21 ZIN A   1      17.070  -0.171   8.075  0.00  0.00     0.012 A 
ENDBRANCH   6  24
BRANCH   5  31
ATOM     31  C11 ZIN A   1      18.012   2.767  10.829  0.00  0.00     0.355 C 
BRANCH  31  32
ATOM     32  C12 ZIN A   1      18.763   3.644  11.797  0.00  0.00     0.179 A 
ATOM     33  N17 ZIN A   1      18.195   4.533  12.676  0.00  0.00    -0.174 NA
ATOM     34  C15 ZIN A   1      19.183   5.128  13.374  0.00  0.00     0.364 A 
ATOM     35  N14 ZIN A   1      20.352   4.623  12.930  0.00  0.00    -0.225 N 
ATOM     36  O16 ZIN A   1      19.045   5.970  14.244  0.00  0.00    -0.243 OA
ATOM     37  N13 ZIN A   1      20.049   3.687  11.931  0.00  0.00    -0.153 NA
ATOM     38  H50 ZIN A   1      21.238   4.863  13.242  0.00  0.00     0.194 HD
ENDBRANCH  31  32
ENDBRANCH   5  31
TORSDOF 8
ENDMDL
MODEL 4
REMARK VINA RESULT:      -9.9      5.490      8.442
REMARK  8 active torsions:
REMARK  status: ('A' for Active; 'I' for Inactive)
REMARK    1  A    between atoms: C2_2  and  O4_3 
REMARK    2  A    between atoms: C2_2  and  C27_24 
REMARK    3  A    between atoms: O4_3  and  C5_4 
REMARK    4  A    between atoms: N10_8  and  C11_9 
REMARK    5  A    between atoms: C11_9  and  C12_10 
REMARK    6  A    between atoms: C18_16  and  C20_17 
REMARK    7  A    between atoms: C29_26  and  C30_27 
REMARK    8  A    between atoms: C35_32  and  C36_33 
ROOT
ATOM      1  C5  ZIN A   1      17.207  -0.930  11.002  0.00  0.00     0.298 C 
ATOM      2  O7  ZIN A   1      16.759  -0.953  12.361  0.00  0.00    -0.357 OA
ATOM      3  C8  ZIN A   1      17.531  -0.125  13.235  0.00  0.00     0.201 C 
ATOM      4  C9  ZIN A   1      17.484   1.321  12.734  0.00  0.00     0.300 C 
ATOM      5  N10 ZIN A   1      17.971   1.370  11.348  0.00  0.00     0.111 N 
ATOM      6  C18 ZIN A   1      17.156   0.507  10.477  0.00  0.00     0.311 C 
ENDROOT
BRANCH   1   7
ATOM      7  O4  ZIN A   1      18.549  -1.415  10.933  0.00  0.00    -0.349 OA
BRANCH   7   8
ATOM      8  C2  ZIN A   1      18.665  -2.830  11.102  0.00  0.00     0.153 C 
ATOM      9  C1  ZIN A   1      20.092  -3.178  11.529  0.00  0.00     0.045 C 
BRANCH   8  10
ATOM     10  C27 ZIN A   1      18.347  -3.519   9.800  0.00  0.00    -0.028 A 
ATOM     11  C40 ZIN A   1      19.121  -3.270   8.681  0.00  0.00     0.025 A 
ATOM     12  C35 ZIN A   1      18.833  -3.905   7.487  0.00  0.00     0.049 A 
ATOM     13  C34 ZIN A   1      17.766  -4.781   7.409  0.00  0.00     0.032 A 
ATOM     14  C29 ZIN A   1      16.990  -5.024   8.527  0.00  0.00     0.049 A 
ATOM     15  C28 ZIN A   1      17.281  -4.394   9.721  0.00  0.00     0.025 A 
BRANCH  12  16
ATOM     16  C36 ZIN A   1      19.679  -3.638   6.269  0.00  0.00     0.417 C 
ATOM     17  F37 ZIN A   1      19.048  -4.167   5.138  0.00  0.00    -0.166 F 
ATOM     18  F38 ZIN A   1      19.845  -2.258   6.109  0.00  0.00    -0.166 F 
ATOM     19  F39 ZIN A   1      20.931  -4.243   6.429  0.00  0.00    -0.166 F 
ENDBRANCH  12  16
BRANCH  14  20
ATOM     20  C30 ZIN A   1      15.826  -5.979   8.443  0.00  0.00     0.417 C 
ATOM     21  F31 ZIN A   1      14.793  -5.529   9.271  0.00  0.00    -0.166 F 
ATOM     22  F32 ZIN A   1      15.370  -6.043   7.122  0.00  0.00    -0.166 F 
ATOM     23  F33 ZIN A   1      16.236  -7.251   8.857  0.00  0.00    -0.166 F 
ENDBRANCH  14  20
ENDBRANCH   8  10
ENDBRANCH   7   8
ENDBRANCH   1   7
BRANCH   6  24
ATOM     24  C20 ZIN A   1      17.700   0.552   9.073  0.00  0.00    -0.020 A 
ATOM     25  C26 ZIN A   1      17.093  -0.185   8.073  0.00  0.00     0.012 A 
ATOM     26  C25 ZIN A   1      17.589  -0.141   6.784  0.00  0.00     0.043 A 
ATOM     27  C23 ZIN A   1      18.700   0.633   6.496  0.00  0.00     0.116 A 
ATOM     28  C22 ZIN A   1      19.310   1.367   7.498  0.00  0.00     0.043 A 
ATOM     29  F24 ZIN A   1      19.188   0.673   5.237  0.00  0.00    -0.206 F 
ATOM     30  C21 ZIN A   1      18.809   1.325   8.786  0.00  0.00     0.012 A 
ENDBRANCH   6  24
BRANCH   5  31
ATOM     31  C11 ZIN A   1      17.995   2.750  10.846  0.00  0.00     0.355 C 
BRANCH  31  32
ATOM     32  C12 ZIN A   1      18.779   3.618  11.797  0.00  0.00     0.179 A 
ATOM     33  N17 ZIN A   1      18.242   4.510  12.691  0.00  0.00    -0.174 NA
ATOM     34  C15 ZIN A   1      19.253   5.094  13.366  0.00  0.00     0.364 A 
ATOM     35  N14 ZIN A   1      20.405   4.578  12.892  0.00  0.00    -0.225 N 
ATOM     36  O16 ZIN A   1      19.145   5.936  14.240  0.00  0.00    -0.243 OA
ATOM     37  N13 ZIN A   1      20.068   3.647  11.900  0.00  0.00    -0.153 NA
ATOM     38  H50 ZIN A   1      21.302   4.808  13.183  0.00  0.00     0.194 HD
ENDBRANCH  31  32
ENDBRANCH   5  31
TORSDOF 8
ENDMDL
MODEL 5
REMARK VINA RESULT:      -9.6      5.258      9.384
REMARK  8 active torsions:
REMARK  status: ('A' for Active; 'I' for Inactive)
REMARK    1  A    between atoms: C2_2  and  O4_3 
REMARK    2  A    between atoms: C2_2  and  C27_24 
REMARK    3  A    between atoms: O4_3  and  C5_4 
REMARK    4  A    between atoms: N10_8  and  C11_9 
REMARK    5  A    between atoms: C11_9  and  C12_10 
REMARK    6  A    between atoms: C18_16  and  C20_17 
REMARK    7  A    between atoms: C29_26  and  C30_27 
REMARK    8  A    between atoms: C35_32  and  C36_33 
ROOT
ATOM      1  C5  ZIN A   1      20.195  -0.249  11.528  0.00  0.00     0.298 C 
ATOM      2  O7  ZIN A   1      20.634   1.023  12.014  0.00  0.00    -0.357 OA
ATOM      3  C8  ZIN A   1      19.610   1.772  12.674  0.00  0.00     0.201 C 
ATOM      4  C9  ZIN A   1      19.072   0.961  13.856  0.00  0.00     0.300 C 
ATOM      5  N10 ZIN A   1      18.585  -0.338  13.371  0.00  0.00     0.111 N 
ATOM      6  C18 ZIN A   1      19.663  -1.081  12.698  0.00  0.00     0.311 C 
ENDROOT
BRANCH   1   7
ATOM      7  O4  ZIN A   1      19.154  -0.059  10.567  0.00  0.00    -0.349 OA
BRANCH   7   8
ATOM      8  C2  ZIN A   1      19.604   0.482   9.323  0.00  0.00     0.153 C 
ATOM      9  C1  ZIN A   1      18.944   1.842   9.089  0.00  0.00     0.045 C 
BRANCH   8  10
ATOM     10  C27 ZIN A   1      19.232  -0.456   8.204  0.00  0.00    -0.028 A 
ATOM     11  C40 ZIN A   1      18.879   0.051   6.967  0.00  0.00     0.025 A 
ATOM     12  C35 ZIN A   1      18.541  -0.810   5.938  0.00  0.00     0.049 A 
ATOM     13  C34 ZIN A   1      18.547  -2.176   6.150  0.00  0.00     0.032 A 
ATOM     14  C29 ZIN A   1      18.895  -2.682   7.389  0.00  0.00     0.049 A 
ATOM     15  C28 ZIN A   1      19.237  -1.822   8.415  0.00  0.00     0.025 A 
BRANCH  12  16
ATOM     16  C36 ZIN A   1      18.162  -0.258   4.588  0.00  0.00     0.417 C 
ATOM     17  F37 ZIN A   1      19.314   0.158   3.914  0.00  0.00    -0.166 F 
ATOM     18  F38 ZIN A   1      17.518  -1.252   3.843  0.00  0.00    -0.166 F 
ATOM     19  F39 ZIN A   1      17.300   0.831   4.756  0.00  0.00    -0.166 F 
ENDBRANCH  12  16
BRANCH  14  20
ATOM     20  C30 ZIN A   1      18.902  -4.172   7.620  0.00  0.00     0.417 C 
ATOM     21  F31 ZIN A   1      17.676  -4.564   8.167  0.00  0.00    -0.166 F 
ATOM     22  F32 ZIN A   1      19.102  -4.831   6.402  0.00  0.00    -0.166 F 
ATOM     23  F33 ZIN A   1      19.935  -4.502   8.504  0.00  0.00    -0.166 F 
ENDBRANCH  14  20
ENDBRANCH   8  10
ENDBRANCH   7   8
ENDBRANCH   1   7
BRANCH   6  24
ATOM     24  C20 ZIN A   1      19.126  -2.391  12.184  0.00  0.00    -0.020 A 
ATOM     25  C26 ZIN A   1      19.988  -3.445  11.941  0.00  0.00     0.012 A 
ATOM     26  C25 ZIN A   1      19.495  -4.648  11.473  0.00  0.00     0.043 A 
ATOM     27  C23 ZIN A   1      18.139  -4.795  11.237  0.00  0.00     0.116 A 
ATOM     28  C22 ZIN A   1      17.277  -3.739  11.476  0.00  0.00     0.043 A 
ATOM     29  F24 ZIN A   1      17.658  -5.970  10.775  0.00  0.00    -0.206 F 
ATOM     30  C21 ZIN A   1      17.772  -2.538  11.948  0.00  0.00     0.012 A 
ENDBRANCH   6  24
BRANCH   5  31
ATOM     31  C11 ZIN A   1      18.009  -1.127  14.468  0.00  0.00     0.355 C 
BRANCH  31  32
ATOM     32  C12 ZIN A   1      18.124  -0.356  15.757  0.00  0.00     0.179 A 
ATOM     33  N17 ZIN A   1      19.266  -0.217  16.506  0.00  0.00    -0.174 NA
ATOM     34  C15 ZIN A   1      18.978   0.541  17.582  0.00  0.00     0.364 A 
ATOM     35  N14 ZIN A   1      17.670   0.864  17.510  0.00  0.00    -0.225 N 
ATOM     36  O16 ZIN A   1      19.755   0.871  18.462  0.00  0.00    -0.243 OA
ATOM     37  N13 ZIN A   1      17.161   0.279  16.343  0.00  0.00    -0.153 NA
ATOM     38  H50 ZIN A   1      17.174   1.400  18.148  0.00  0.00     0.194 HD
ENDBRANCH  31  32
ENDBRANCH   5  31
TORSDOF 8
ENDMDL
MODEL 6
REMARK VINA RESULT:      -9.5      4.830      7.552
REMARK  8 active torsions:
REMARK  status: ('A' for Active; 'I' for Inactive)
REMARK    1  A    between atoms: C2_2  and  O4_3 
REMARK    2  A    between atoms: C2_2  and  C27_24 
REMARK    3  A    between atoms: O4_3  and  C5_4 
REMARK    4  A    between atoms: N10_8  and  C11_9 
REMARK    5  A    between atoms: C11_9  and  C12_10 
REMARK    6  A    between atoms: C18_16  and  C20_17 
REMARK    7  A    between atoms: C29_26  and  C30_27 
REMARK    8  A    between atoms: C35_32  and  C36_33 
ROOT
ATOM      1  C5  ZIN A   1      17.812   1.895  14.712  0.00  0.00     0.298 C 
ATOM      2  O7  ZIN A   1      17.783   1.814  16.140  0.00  0.00    -0.357 OA
ATOM      3  C8  ZIN A   1      19.016   2.186  16.762  0.00  0.00     0.201 C 
ATOM      4  C9  ZIN A   1      19.370   3.621  16.365  0.00  0.00     0.300 C 
ATOM      5  N10 ZIN A   1      19.437   3.716  14.900  0.00  0.00     0.111 N 
ATOM      6  C18 ZIN A   1      18.154   3.327  14.293  0.00  0.00     0.311 C 
ENDROOT
BRANCH   1   7
ATOM      7  O4  ZIN A   1      18.803   1.000  14.203  0.00  0.00    -0.349 OA
BRANCH   7   8
ATOM      8  C2  ZIN A   1      18.421  -0.376  14.247  0.00  0.00     0.153 C 
ATOM      9  C1  ZIN A   1      19.337  -1.130  15.213  0.00  0.00     0.045 C 
BRANCH   8  10
ATOM     10  C27 ZIN A   1      18.543  -0.975  12.869  0.00  0.00    -0.028 A 
ATOM     11  C40 ZIN A   1      19.098  -2.231  12.709  0.00  0.00     0.025 A 
ATOM     12  C35 ZIN A   1      19.206  -2.782  11.445  0.00  0.00     0.049 A 
ATOM     13  C34 ZIN A   1      18.768  -2.073  10.342  0.00  0.00     0.032 A 
ATOM     14  C29 ZIN A   1      18.218  -0.816  10.503  0.00  0.00     0.049 A 
ATOM     15  C28 ZIN A   1      18.105  -0.267  11.766  0.00  0.00     0.025 A 
BRANCH  12  16
ATOM     16  C36 ZIN A   1      19.806  -4.154  11.270  0.00  0.00     0.417 C 
ATOM     17  F37 ZIN A   1      18.983  -5.104  11.883  0.00  0.00    -0.166 F 
ATOM     18  F38 ZIN A   1      19.919  -4.443   9.906  0.00  0.00    -0.166 F 
ATOM     19  F39 ZIN A   1      21.075  -4.185  11.860  0.00  0.00    -0.166 F 
ENDBRANCH  12  16
BRANCH  14  20
ATOM     20  C30 ZIN A   1      17.740  -0.043   9.300  0.00  0.00     0.417 C 
ATOM     21  F31 ZIN A   1      17.122  -0.917   8.400  0.00  0.00    -0.166 F 
ATOM     22  F32 ZIN A   1      16.822   0.932   9.707  0.00  0.00    -0.166 F 
ATOM     23  F33 ZIN A   1      18.830   0.574   8.678  0.00  0.00    -0.166 F 
ENDBRANCH  14  20
ENDBRANCH   8  10
ENDBRANCH   7   8
ENDBRANCH   1   7
BRANCH   6  24
ATOM     24  C20 ZIN A   1      18.263   3.402  12.792  0.00  0.00    -0.020 A 
ATOM     25  C26 ZIN A   1      17.231   3.945  12.050  0.00  0.00     0.012 A 
ATOM     26  C25 ZIN A   1      17.333   4.018  10.674  0.00  0.00     0.043 A 
ATOM     27  C23 ZIN A   1      18.464   3.538  10.037  0.00  0.00     0.116 A 
ATOM     28  C22 ZIN A   1      19.496   2.990  10.781  0.00  0.00     0.043 A 
ATOM     29  F24 ZIN A   1      18.562   3.604   8.692  0.00  0.00    -0.206 F 
ATOM     30  C21 ZIN A   1      19.393   2.922  12.157  0.00  0.00     0.012 A 
ENDBRANCH   6  24
BRANCH   5  31
ATOM     31  C11 ZIN A   1      19.829   5.067  14.477  0.00  0.00     0.355 C 
BRANCH  31  32
ATOM     32  C12 ZIN A   1      18.883   6.076  15.074  0.00  0.00     0.179 A 
ATOM     33  N17 ZIN A   1      19.055   6.721  16.273  0.00  0.00    -0.174 NA
ATOM     34  C15 ZIN A   1      18.007   7.547  16.465  0.00  0.00     0.364 A 
ATOM     35  N14 ZIN A   1      17.187   7.412  15.402  0.00  0.00    -0.225 N 
ATOM     36  O16 ZIN A   1      17.830   8.277  17.424  0.00  0.00    -0.243 OA
ATOM     37  N13 ZIN A   1      17.773   6.473  14.541  0.00  0.00    -0.153 NA
ATOM     38  H50 ZIN A   1      16.348   7.877  15.260  0.00  0.00     0.194 HD
ENDBRANCH  31  32
ENDBRANCH   5  31
TORSDOF 8
ENDMDL
MODEL 7
REMARK VINA RESULT:      -9.4      2.707      4.062
REMARK  8 active torsions:
REMARK  status: ('A' for Active; 'I' for Inactive)
REMARK    1  A    between atoms: C2_2  and  O4_3 
REMARK    2  A    between atoms: C2_2  and  C27_24 
REMARK    3  A    between atoms: O4_3  and  C5_4 
REMARK    4  A    between atoms: N10_8  and  C11_9 
REMARK    5  A    between atoms: C11_9  and  C12_10 
REMARK    6  A    between atoms: C18_16  and  C20_17 
REMARK    7  A    between atoms: C29_26  and  C30_27 
REMARK    8  A    between atoms: C35_32  and  C36_33 
ROOT
ATOM      1  C5  ZIN A   1      19.332  -0.325  11.581  0.00  0.00     0.298 C 
ATOM      2  O7  ZIN A   1      19.864  -0.929  12.763  0.00  0.00    -0.357 OA
ATOM      3  C8  ZIN A   1      19.340  -2.233  13.029  0.00  0.00     0.201 C 
ATOM      4  C9  ZIN A   1      19.639  -3.150  11.840  0.00  0.00     0.300 C 
ATOM      5  N10 ZIN A   1      19.071  -2.561  10.619  0.00  0.00     0.111 N 
ATOM      6  C18 ZIN A   1      19.630  -1.222  10.376  0.00  0.00     0.311 C 
ENDROOT
BRANCH   1   7
ATOM      7  O4  ZIN A   1      17.918  -0.169  11.720  0.00  0.00    -0.349 OA
BRANCH   7   8
ATOM      8  C2  ZIN A   1      17.513   1.152  12.085  0.00  0.00     0.153 C 
ATOM      9  C1  ZIN A   1      18.276   2.172  11.238  0.00  0.00     0.045 C 
BRANCH   8  10
ATOM     10  C27 ZIN A   1      17.815   1.384  13.543  0.00  0.00    -0.028 A 
ATOM     11  C40 ZIN A   1      17.502   0.413  14.477  0.00  0.00     0.025 A 
ATOM     12  C35 ZIN A   1      17.783   0.624  15.814  0.00  0.00     0.049 A 
ATOM     13  C34 ZIN A   1      18.368   1.810  16.219  0.00  0.00     0.032 A 
ATOM     14  C29 ZIN A   1      18.675   2.782  15.286  0.00  0.00     0.049 A 
ATOM     15  C28 ZIN A   1      18.399   2.570  13.949  0.00  0.00     0.025 A 
BRANCH  12  16
ATOM     16  C36 ZIN A   1      17.448  -0.437  16.831  0.00  0.00     0.417 C 
ATOM     17  F37 ZIN A   1      17.773  -1.695  16.315  0.00  0.00    -0.166 F 
ATOM     18  F38 ZIN A   1      18.179  -0.208  18.001  0.00  0.00    -0.166 F 
ATOM     19  F39 ZIN A   1      16.079  -0.389  17.119  0.00  0.00    -0.166 F 
ENDBRANCH  12  16
BRANCH  14  20
ATOM     20  C30 ZIN A   1      19.313   4.075  15.727  0.00  0.00     0.417 C 
ATOM     21  F31 ZIN A   1      19.774   4.773  14.606  0.00  0.00    -0.166 F 
ATOM     22  F32 ZIN A   1      18.368   4.854  16.404  0.00  0.00    -0.166 F 
ATOM     23  F33 ZIN A   1      20.387   3.799  16.580  0.00  0.00    -0.166 F 
ENDBRANCH  14  20
ENDBRANCH   8  10
ENDBRANCH   7   8
ENDBRANCH   1   7
BRANCH   6  24
ATOM     24  C20 ZIN A   1      19.004  -0.632   9.139  0.00  0.00    -0.020 A 
ATOM     25  C26 ZIN A   1      19.743   0.204   8.322  0.00  0.00     0.012 A 
ATOM     26  C25 ZIN A   1      19.170   0.742   7.186  0.00  0.00     0.043 A 
ATOM     27  C23 ZIN A   1      17.854   0.453   6.870  0.00  0.00     0.116 A 
ATOM     28  C22 ZIN A   1      17.113  -0.380   7.691  0.00  0.00     0.043 A 
ATOM     29  F24 ZIN A   1      17.292   0.983   5.762  0.00  0.00    -0.206 F 
ATOM     30  C21 ZIN A   1      17.689  -0.921   8.825  0.00  0.00     0.012 A 
ENDBRANCH   6  24
BRANCH   5  31
ATOM     31  C11 ZIN A   1      19.286  -3.439   9.461  0.00  0.00     0.355 C 
BRANCH  31  32
ATOM     32  C12 ZIN A   1      18.214  -4.497   9.425  0.00  0.00     0.179 A 
ATOM     33  N17 ZIN A   1      16.905  -4.297   9.066  0.00  0.00    -0.174 NA
ATOM     34  C15 ZIN A   1      16.256  -5.475   9.154  0.00  0.00     0.364 A 
ATOM     35  N14 ZIN A   1      17.148  -6.397   9.572  0.00  0.00    -0.225 N 
ATOM     36  O16 ZIN A   1      15.079  -5.670   8.906  0.00  0.00    -0.243 OA
ATOM     37  N13 ZIN A   1      18.377  -5.743   9.734  0.00  0.00    -0.153 NA
ATOM     38  H50 ZIN A   1      16.971  -7.337   9.731  0.00  0.00     0.194 HD
ENDBRANCH  31  32
ENDBRANCH   5  31
TORSDOF 8
ENDMDL
MODEL 8
REMARK VINA RESULT:      -9.3      4.811      7.926
REMARK  8 active torsions:
REMARK  status: ('A' for Active; 'I' for Inactive)
REMARK    1  A    between atoms: C2_2  and  O4_3 
REMARK    2  A    between atoms: C2_2  and  C27_24 
REMARK    3  A    between atoms: O4_3  and  C5_4 
REMARK    4  A    between atoms: N10_8  and  C11_9 
REMARK    5  A    between atoms: C11_9  and  C12_10 
REMARK    6  A    between atoms: C18_16  and  C20_17 
REMARK    7  A    between atoms: C29_26  and  C30_27 
REMARK    8  A    between atoms: C35_32  and  C36_33 
ROOT
ATOM      1  C5  ZIN A   1      17.788   1.712  14.634  0.00  0.00     0.298 C 
ATOM      2  O7  ZIN A   1      17.743   1.576  16.057  0.00  0.00    -0.357 OA
ATOM      3  C8  ZIN A   1      18.967   1.926  16.708  0.00  0.00     0.201 C 
ATOM      4  C9  ZIN A   1      19.321   3.377  16.371  0.00  0.00     0.300 C 
ATOM      5  N10 ZIN A   1      19.405   3.529  14.911  0.00  0.00     0.111 N 
ATOM      6  C18 ZIN A   1      18.130   3.160  14.274  0.00  0.00     0.311 C 
ENDROOT
BRANCH   1   7
ATOM      7  O4  ZIN A   1      18.788   0.840  14.103  0.00  0.00    -0.349 OA
BRANCH   7   8
ATOM      8  C2  ZIN A   1      18.430  -0.543  14.136  0.00  0.00     0.153 C 
ATOM      9  C1  ZIN A   1      19.380  -1.293  15.073  0.00  0.00     0.045 C 
BRANCH   8  10
ATOM     10  C27 ZIN A   1      18.532  -1.122  12.749  0.00  0.00    -0.028 A 
ATOM     11  C40 ZIN A   1      18.147  -0.368  11.656  0.00  0.00     0.025 A 
ATOM     12  C35 ZIN A   1      18.244  -0.897  10.382  0.00  0.00     0.049 A 
ATOM     13  C34 ZIN A   1      18.719  -2.183  10.202  0.00  0.00     0.032 A 
ATOM     14  C29 ZIN A   1      19.099  -2.938  11.295  0.00  0.00     0.049 A 
ATOM     15  C28 ZIN A   1      19.006  -2.408  12.568  0.00  0.00     0.025 A 
BRANCH  12  16
ATOM     16  C36 ZIN A   1      17.829  -0.073   9.190  0.00  0.00     0.417 C 
ATOM     17  F37 ZIN A   1      18.964   0.481   8.589  0.00  0.00    -0.166 F 
ATOM     18  F38 ZIN A   1      17.164  -0.889   8.269  0.00  0.00    -0.166 F 
ATOM     19  F39 ZIN A   1      16.975   0.953   9.608  0.00  0.00    -0.166 F 
ENDBRANCH  12  16
BRANCH  14  20
ATOM     20  C30 ZIN A   1      19.616  -4.341  11.100  0.00  0.00     0.417 C 
ATOM     21  F31 ZIN A   1      19.915  -4.542   9.748  0.00  0.00    -0.166 F 
ATOM     22  F32 ZIN A   1      20.774  -4.521  11.864  0.00  0.00    -0.166 F 
ATOM     23  F33 ZIN A   1      18.642  -5.258  11.505  0.00  0.00    -0.166 F 
ENDBRANCH  14  20
ENDBRANCH   8  10
ENDBRANCH   7   8
ENDBRANCH   1   7
BRANCH   6  24
ATOM     24  C20 ZIN A   1      18.258   3.294  12.779  0.00  0.00    -0.020 A 
ATOM     25  C26 ZIN A   1      17.262   3.922  12.053  0.00  0.00     0.012 A 
ATOM     26  C25 ZIN A   1      17.381   4.048  10.683  0.00  0.00     0.043 A 
ATOM     27  C23 ZIN A   1      18.491   3.536  10.034  0.00  0.00     0.116 A 
ATOM     28  C22 ZIN A   1      19.485   2.903  10.760  0.00  0.00     0.043 A 
ATOM     29  F24 ZIN A   1      18.605   3.655   8.693  0.00  0.00    -0.206 F 
ATOM     30  C21 ZIN A   1      19.367   2.782  12.132  0.00  0.00     0.012 A 
ENDBRANCH   6  24
BRANCH   5  31
ATOM     31  C11 ZIN A   1      19.799   4.896  14.545  0.00  0.00     0.355 C 
BRANCH  31  32
ATOM     32  C12 ZIN A   1      18.903   5.883  15.248  0.00  0.00     0.179 A 
ATOM     33  N17 ZIN A   1      17.600   6.156  14.916  0.00  0.00    -0.174 NA
ATOM     34  C15 ZIN A   1      17.130   7.086  15.771  0.00  0.00     0.364 A 
ATOM     35  N14 ZIN A   1      18.131   7.396  16.620  0.00  0.00    -0.225 N 
ATOM     36  O16 ZIN A   1      16.009   7.563  15.774  0.00  0.00    -0.243 OA
ATOM     37  N13 ZIN A   1      19.239   6.616  16.260  0.00  0.00    -0.153 NA
ATOM     38  H50 ZIN A   1      18.093   8.039  17.345  0.00  0.00     0.194 HD
ENDBRANCH  31  32
ENDBRANCH   5  31
TORSDOF 8
ENDMDL
MODEL 9
REMARK VINA RESULT:      -9.3      2.874      4.789
REMARK  8 active torsions:
REMARK  status: ('A' for Active; 'I' for Inactive)
REMARK    1  A    between atoms: C2_2  and  O4_3 
REMARK    2  A    between atoms: C2_2  and  C27_24 
REMARK    3  A    between atoms: O4_3  and  C5_4 
REMARK    4  A    between atoms: N10_8  and  C11_9 
REMARK    5  A    between atoms: C11_9  and  C12_10 
REMARK    6  A    between atoms: C18_16  and  C20_17 
REMARK    7  A    between atoms: C29_26  and  C30_27 
REMARK    8  A    between atoms: C35_32  and  C36_33 
ROOT
ATOM      1  C5  ZIN A   1      17.381   1.067  11.827  0.00  0.00     0.298 C 
ATOM      2  O7  ZIN A   1      16.946   1.115  10.465  0.00  0.00    -0.357 OA
ATOM      3  C8  ZIN A   1      17.664   0.231   9.599  0.00  0.00     0.201 C 
ATOM      4  C9  ZIN A   1      17.512  -1.206  10.106  0.00  0.00     0.300 C 
ATOM      5  N10 ZIN A   1      17.985  -1.283  11.495  0.00  0.00     0.111 N 
ATOM      6  C18 ZIN A   1      17.226  -0.362  12.357  0.00  0.00     0.311 C 
ENDROOT
BRANCH   1   7
ATOM      7  O4  ZIN A   1      18.754   1.457  11.904  0.00  0.00    -0.349 OA
BRANCH   7   8
ATOM      8  C2  ZIN A   1      18.963   2.867  11.804  0.00  0.00     0.153 C 
ATOM      9  C1  ZIN A   1      20.447   3.147  11.556  0.00  0.00     0.045 C 
BRANCH   8  10
ATOM     10  C27 ZIN A   1      18.535   3.530  13.088  0.00  0.00    -0.028 A 
ATOM     11  C40 ZIN A   1      19.223   3.274  14.260  0.00  0.00     0.025 A 
ATOM     12  C35 ZIN A   1      18.834   3.885  15.438  0.00  0.00     0.049 A 
ATOM     13  C34 ZIN A   1      17.751   4.744  15.446  0.00  0.00     0.032 A 
ATOM     14  C29 ZIN A   1      17.060   4.995  14.275  0.00  0.00     0.049 A 
ATOM     15  C28 ZIN A   1      17.452   4.389  13.097  0.00  0.00     0.025 A 
BRANCH  12  16
ATOM     16  C36 ZIN A   1      19.587   3.610  16.714  0.00  0.00     0.417 C 
ATOM     17  F37 ZIN A   1      18.791   3.961  17.809  0.00  0.00    -0.166 F 
ATOM     18  F38 ZIN A   1      19.904   2.249  16.784  0.00  0.00    -0.166 F 
ATOM     19  F39 ZIN A   1      20.765   4.366  16.732  0.00  0.00    -0.166 F 
ENDBRANCH  12  16
BRANCH  14  20
ATOM     20  C30 ZIN A   1      15.879   5.933  14.283  0.00  0.00     0.417 C 
ATOM     21  F31 ZIN A   1      16.323   7.242  14.068  0.00  0.00    -0.166 F 
ATOM     22  F32 ZIN A   1      14.989   5.569  13.267  0.00  0.00    -0.166 F 
ATOM     23  F33 ZIN A   1      15.231   5.856  15.520  0.00  0.00    -0.166 F 
ENDBRANCH  14  20
ENDBRANCH   8  10
ENDBRANCH   7   8
ENDBRANCH   1   7
BRANCH   6  24
ATOM     24  C20 ZIN A   1      17.756  -0.439  13.765  0.00  0.00    -0.020 A 
ATOM     25  C26 ZIN A   1      17.116   0.246  14.782  0.00  0.00     0.012 A 
ATOM     26  C25 ZIN A   1      17.599   0.172  16.075  0.00  0.00     0.043 A 
ATOM     27  C23 ZIN A   1      18.729  -0.579  16.350  0.00  0.00     0.116 A 
ATOM     28  C22 ZIN A   1      19.372  -1.259  15.330  0.00  0.00     0.043 A 
ATOM     29  F24 ZIN A   1      19.205  -0.647  17.613  0.00  0.00    -0.206 F 
ATOM     30  C21 ZIN A   1      18.885  -1.188  14.039  0.00  0.00     0.012 A 
ENDBRANCH   6  24
BRANCH   5  31
ATOM     31  C11 ZIN A   1      17.909  -2.659  12.002  0.00  0.00     0.355 C 
BRANCH  31  32
ATOM     32  C12 ZIN A   1      18.720  -3.568  11.115  0.00  0.00     0.179 A 
ATOM     33  N17 ZIN A   1      18.210  -4.519  10.266  0.00  0.00    -0.174 NA
ATOM     34  C15 ZIN A   1      19.240  -5.124   9.641  0.00  0.00     0.364 A 
ATOM     35  N14 ZIN A   1      20.377  -4.565  10.101  0.00  0.00    -0.225 N 
ATOM     36  O16 ZIN A   1      19.158  -6.017   8.815  0.00  0.00    -0.243 OA
ATOM     37  N13 ZIN A   1      20.011  -3.584  11.033  0.00  0.00    -0.153 NA
ATOM     38  H50 ZIN A   1      21.281  -4.798   9.838  0.00  0.00     0.194 HD
ENDBRANCH  31  32
ENDBRANCH   5  31
TORSDOF 8
ENDMDL
