MODEL 1
REMARK VINA RESULT:      -7.1      0.000      0.000
REMARK  4 active torsions:
REMARK  status: ('A' for Active; 'I' for Inactive)
REMARK    1  A    between atoms: N2_2  and  C5_5 
REMARK    2  A    between atoms: C5_5  and  C6_6 
REMARK    3  A    between atoms: C6_6  and  C7_7 
REMARK    4  A    between atoms: C7_7  and  C8_8 
ROOT
ATOM      1  C8  <0> d   1      18.586   0.374  12.793  0.00  0.00     0.015 C 
ATOM      2  C9  <0> d   1      20.086   0.377  13.166  0.00  0.00     0.020 C 
ATOM      3  C10 <0> d   1      20.967   0.303  11.921  0.00  0.00     0.015 C 
ATOM      4  C11 <0> d   1      20.116   0.246  10.633  0.00  0.00     0.052 C 
ATOM      5  C12 <0> d   1      19.188  -0.946  10.817  0.00  0.00    -0.042 A 
ATOM      6  C13 <0> d   1      19.112  -2.013   9.969  0.00  0.00     0.008 A 
ATOM      7  C14 <0> d   1      18.216  -3.035  10.259  0.00  0.00     0.001 A 
ATOM      8  C15 <0> d   1      17.419  -2.968  11.387  0.00  0.00     0.001 A 
ATOM      9  C16 <0> d   1      17.501  -1.878  12.244  0.00  0.00     0.009 A 
ATOM     10  C17 <0> d   1      18.384  -0.878  11.953  0.00  0.00    -0.038 A 
ATOM     11  C18 <0> d   1      19.214   1.469  10.692  0.00  0.00    -0.042 A 
ATOM     12  C19 <0> d   1      19.158   2.445   9.738  0.00  0.00     0.008 A 
ATOM     13  C20 <0> d   1      18.284   3.509   9.920  0.00  0.00     0.001 A 
ATOM     14  C21 <0> d   1      17.487   3.576  11.047  0.00  0.00     0.001 A 
ATOM     15  C22 <0> d   1      17.548   2.579  12.013  0.00  0.00     0.009 A 
ATOM     16  C23 <0> d   1      18.385   1.536  11.834  0.00  0.00    -0.038 A 
ENDROOT
BRANCH   1  17
ATOM     17  C7  <0> d   1      17.664   0.435  14.012  0.00  0.00     0.021 C 
BRANCH  17  18
ATOM     18  C6  <0> d   1      18.447   0.035  15.263  0.00  0.00     0.029 C 
BRANCH  18  19
ATOM     19  C5  <0> d   1      17.513  -0.676  16.244  0.00  0.00     0.231 C 
BRANCH  19  20
ATOM     20  N2  <0> d   1      16.777   0.321  17.032  0.00  0.00    -0.079 N 
ATOM     21  C1  <0> d   1      17.658   0.875  18.068  0.00  0.00     0.266 C 
ATOM     22  H3  <0> d   1      15.979  -0.117  17.467  0.00  0.00     0.276 HD
ATOM     23  H4  <0> d   1      16.462   1.063  16.425  0.00  0.00     0.276 HD
ENDBRANCH  19  20
ENDBRANCH  18  19
ENDBRANCH  17  18
ENDBRANCH   1  17
TORSDOF 4
ENDMDL
MODEL 2
REMARK VINA RESULT:      -6.9      1.996      5.102
REMARK  4 active torsions:
REMARK  status: ('A' for Active; 'I' for Inactive)
REMARK    1  A    between atoms: N2_2  and  C5_5 
REMARK    2  A    between atoms: C5_5  and  C6_6 
REMARK    3  A    between atoms: C6_6  and  C7_7 
REMARK    4  A    between atoms: C7_7  and  C8_8 
ROOT
ATOM      1  C8  <0> d   1      18.221   0.247  13.041  0.00  0.00     0.015 C 
ATOM      2  C9  <0> d   1      19.653   0.822  12.963  0.00  0.00     0.020 C 
ATOM      3  C10 <0> d   1      20.680  -0.169  13.503  0.00  0.00     0.015 C 
ATOM      4  C11 <0> d   1      20.004  -1.475  13.979  0.00  0.00     0.052 C 
ATOM      5  C12 <0> d   1      18.959  -1.038  14.994  0.00  0.00    -0.042 A 
ATOM      6  C13 <0> d   1      18.900  -1.469  16.288  0.00  0.00     0.008 A 
ATOM      7  C14 <0> d   1      17.887  -0.988  17.108  0.00  0.00     0.001 A 
ATOM      8  C15 <0> d   1      16.957  -0.089  16.618  0.00  0.00     0.001 A 
ATOM      9  C16 <0> d   1      17.022   0.344  15.300  0.00  0.00     0.009 A 
ATOM     10  C17 <0> d   1      18.021  -0.133  14.500  0.00  0.00    -0.038 A 
ATOM     11  C18 <0> d   1      19.214  -1.979  12.781  0.00  0.00    -0.042 A 
ATOM     12  C19 <0> d   1      19.371  -3.206  12.203  0.00  0.00     0.008 A 
ATOM     13  C20 <0> d   1      18.578  -3.537  11.112  0.00  0.00     0.001 A 
ATOM     14  C21 <0> d   1      17.649  -2.639  10.622  0.00  0.00     0.001 A 
ATOM     15  C22 <0> d   1      17.494  -1.392  11.216  0.00  0.00     0.009 A 
ATOM     16  C23 <0> d   1      18.252  -1.072  12.285  0.00  0.00    -0.038 A 
ENDROOT
BRANCH   1  17
ATOM     17  C7  <0> d   1      17.156   1.213  12.520  0.00  0.00     0.021 C 
BRANCH  17  18
ATOM     18  C6  <0> d   1      17.749   2.620  12.421  0.00  0.00     0.029 C 
BRANCH  18  19
ATOM     19  C5  <0> d   1      17.616   3.130  10.985  0.00  0.00     0.231 C 
BRANCH  19  20
ATOM     20  N2  <0> d   1      17.751   2.005  10.050  0.00  0.00    -0.079 N 
ATOM     21  C1  <0> d   1      18.950   2.198   9.223  0.00  0.00     0.266 C 
ATOM     22  H3  <0> d   1      16.936   1.961   9.457  0.00  0.00     0.276 HD
ATOM     23  H4  <0> d   1      17.835   1.144  10.569  0.00  0.00     0.276 HD
ENDBRANCH  19  20
ENDBRANCH  18  19
ENDBRANCH  17  18
ENDBRANCH   1  17
TORSDOF 4
ENDMDL
MODEL 3
REMARK VINA RESULT:      -6.8      1.341      4.147
REMARK  4 active torsions:
REMARK  status: ('A' for Active; 'I' for Inactive)
REMARK    1  A    between atoms: N2_2  and  C5_5 
REMARK    2  A    between atoms: C5_5  and  C6_6 
REMARK    3  A    between atoms: C6_6  and  C7_7 
REMARK    4  A    between atoms: C7_7  and  C8_8 
ROOT
ATOM      1  C8  <0> d   1      18.763  -0.298  12.751  0.00  0.00     0.015 C 
ATOM      2  C9  <0> d   1      17.270  -0.279  13.147  0.00  0.00     0.020 C 
ATOM      3  C10 <0> d   1      16.368  -0.306  11.915  0.00  0.00     0.015 C 
ATOM      4  C11 <0> d   1      17.198  -0.345  10.613  0.00  0.00     0.052 C 
ATOM      5  C12 <0> d   1      18.122   0.862  10.689  0.00  0.00    -0.042 A 
ATOM      6  C13 <0> d   1      18.178   1.861   9.760  0.00  0.00     0.008 A 
ATOM      7  C14 <0> d   1      19.072   2.906   9.955  0.00  0.00     0.001 A 
ATOM      8  C15 <0> d   1      19.888   2.930  11.071  0.00  0.00     0.001 A 
ATOM      9  C16 <0> d   1      19.826   1.910  12.012  0.00  0.00     0.009 A 
ATOM     10  C17 <0> d   1      18.945   0.886  11.814  0.00  0.00    -0.038 A 
ATOM     11  C18 <0> d   1      18.109  -1.555  10.752  0.00  0.00    -0.042 A 
ATOM     12  C19 <0> d   1      18.155  -2.602   9.876  0.00  0.00     0.008 A 
ATOM     13  C20 <0> d   1      19.038  -3.644  10.125  0.00  0.00     0.001 A 
ATOM     14  C21 <0> d   1      19.853  -3.620  11.241  0.00  0.00     0.001 A 
ATOM     15  C22 <0> d   1      19.802  -2.552  12.127  0.00  0.00     0.009 A 
ATOM     16  C23 <0> d   1      18.956  -1.530  11.882  0.00  0.00    -0.038 A 
ENDROOT
BRANCH   1  17
ATOM     17  C7  <0> d   1      19.705  -0.260  13.956  0.00  0.00     0.021 C 
BRANCH  17  18
ATOM     18  C6  <0> d   1      18.902  -0.492  15.237  0.00  0.00     0.029 C 
BRANCH  18  19
ATOM     19  C5  <0> d   1      18.971   0.758  16.116  0.00  0.00     0.231 C 
BRANCH  19  20
ATOM     20  N2  <0> d   1      17.676   0.965  16.777  0.00  0.00    -0.079 N 
ATOM     21  C1  <0> d   1      16.961  -0.314  16.865  0.00  0.00     0.266 C 
ATOM     22  H3  <0> d   1      17.127   1.622  16.243  0.00  0.00     0.276 HD
ATOM     23  H4  <0> d   1      17.827   1.331  17.705  0.00  0.00     0.276 HD
ENDBRANCH  19  20
ENDBRANCH  18  19
ENDBRANCH  17  18
ENDBRANCH   1  17
TORSDOF 4
ENDMDL
MODEL 4
REMARK VINA RESULT:      -6.8      2.077      3.861
REMARK  4 active torsions:
REMARK  status: ('A' for Active; 'I' for Inactive)
REMARK    1  A    between atoms: N2_2  and  C5_5 
REMARK    2  A    between atoms: C5_5  and  C6_6 
REMARK    3  A    between atoms: C6_6  and  C7_7 
REMARK    4  A    between atoms: C7_7  and  C8_8 
ROOT
ATOM      1  C8  <0> d   1      18.614   1.486  11.978  0.00  0.00     0.015 C 
ATOM      2  C9  <0> d   1      20.135   1.752  11.918  0.00  0.00     0.020 C 
ATOM      3  C10 <0> d   1      20.929   0.449  11.973  0.00  0.00     0.015 C 
ATOM      4  C11 <0> d   1      19.992  -0.775  12.072  0.00  0.00     0.052 C 
ATOM      5  C12 <0> d   1      19.123  -0.518  13.295  0.00  0.00    -0.042 A 
ATOM      6  C13 <0> d   1      19.026  -1.350  14.373  0.00  0.00     0.008 A 
ATOM      7  C14 <0> d   1      18.190  -0.991  15.423  0.00  0.00     0.001 A 
ATOM      8  C15 <0> d   1      17.472   0.190  15.373  0.00  0.00     0.001 A 
ATOM      9  C16 <0> d   1      17.575   1.031  14.273  0.00  0.00     0.009 A 
ATOM     10  C17 <0> d   1      18.398   0.672  13.244  0.00  0.00    -0.038 A 
ATOM     11  C18 <0> d   1      19.052  -0.662  10.882  0.00  0.00    -0.042 A 
ATOM     12  C19 <0> d   1      18.894  -1.616   9.919  0.00  0.00     0.008 A 
ATOM     13  C20 <0> d   1      17.997  -1.381   8.885  0.00  0.00     0.001 A 
ATOM     14  C21 <0> d   1      17.280  -0.201   8.835  0.00  0.00     0.001 A 
ATOM     15  C22 <0> d   1      17.445   0.766   9.819  0.00  0.00     0.009 A 
ATOM     16  C23 <0> d   1      18.304   0.535  10.833  0.00  0.00    -0.038 A 
ENDROOT
BRANCH   1  17
ATOM     17  C7  <0> d   1      17.778   2.767  11.938  0.00  0.00     0.021 C 
BRANCH  17  18
ATOM     18  C6  <0> d   1      18.706   3.982  11.984  0.00  0.00     0.029 C 
BRANCH  18  19
ATOM     19  C5  <0> d   1      18.470   4.755  13.284  0.00  0.00     0.231 C 
BRANCH  19  20
ATOM     20  N2  <0> d   1      19.631   4.592  14.169  0.00  0.00    -0.079 N 
ATOM     21  C1  <0> d   1      19.183   4.111  15.482  0.00  0.00     0.266 C 
ATOM     22  H3  <0> d   1      20.098   5.480  14.277  0.00  0.00     0.276 HD
ATOM     23  H4  <0> d   1      20.271   3.924  13.766  0.00  0.00     0.276 HD
ENDBRANCH  19  20
ENDBRANCH  18  19
ENDBRANCH  17  18
ENDBRANCH   1  17
TORSDOF 4
ENDMDL
MODEL 5
REMARK VINA RESULT:      -6.6      2.998      5.081
REMARK  4 active torsions:
REMARK  status: ('A' for Active; 'I' for Inactive)
REMARK    1  A    between atoms: N2_2  and  C5_5 
REMARK    2  A    between atoms: C5_5  and  C6_6 
REMARK    3  A    between atoms: C6_6  and  C7_7 
REMARK    4  A    between atoms: C7_7  and  C8_8 
ROOT
ATOM      1  C8  <0> d   1      18.546   0.560  10.214  0.00  0.00     0.015 C 
ATOM      2  C9  <0> d   1      17.014   0.461  10.040  0.00  0.00     0.020 C 
ATOM      3  C10 <0> d   1      16.313   0.273  11.383  0.00  0.00     0.015 C 
ATOM      4  C11 <0> d   1      17.330   0.233  12.546  0.00  0.00     0.052 C 
ATOM      5  C12 <0> d   1      18.308  -0.876  12.186  0.00  0.00    -0.042 A 
ATOM      6  C13 <0> d   1      18.572  -1.966  12.966  0.00  0.00     0.008 A 
ATOM      7  C14 <0> d   1      19.491  -2.904  12.514  0.00  0.00     0.001 A 
ATOM      8  C15 <0> d   1      20.125  -2.733  11.296  0.00  0.00     0.001 A 
ATOM      9  C16 <0> d   1      19.852  -1.622  10.510  0.00  0.00     0.009 A 
ATOM     10  C17 <0> d   1      18.947  -0.704  10.960  0.00  0.00    -0.038 A 
ATOM     11  C18 <0> d   1      18.127   1.523  12.429  0.00  0.00    -0.042 A 
ATOM     12  C19 <0> d   1      18.240   2.463  13.412  0.00  0.00     0.008 A 
ATOM     13  C20 <0> d   1      19.004   3.597  13.170  0.00  0.00     0.001 A 
ATOM     14  C21 <0> d   1      19.637   3.768  11.953  0.00  0.00     0.001 A 
ATOM     15  C22 <0> d   1      19.519   2.807  10.957  0.00  0.00     0.009 A 
ATOM     16  C23 <0> d   1      18.790   1.697  11.193  0.00  0.00    -0.038 A 
ENDROOT
BRANCH   1  17
ATOM     17  C7  <0> d   1      19.292   0.737   8.890  0.00  0.00     0.021 C 
BRANCH  17  18
ATOM     18  C6  <0> d   1      18.330   0.488   7.727  0.00  0.00     0.029 C 
BRANCH  18  19
ATOM     19  C5  <0> d   1      18.761  -0.770   6.970  0.00  0.00     0.231 C 
BRANCH  19  20
ATOM     20  N2  <0> d   1      17.918  -1.902   7.378  0.00  0.00    -0.079 N 
ATOM     21  C1  <0> d   1      18.698  -3.144   7.307  0.00  0.00     0.266 C 
ATOM     22  H3  <0> d   1      17.122  -1.968   6.762  0.00  0.00     0.276 HD
ATOM     23  H4  <0> d   1      17.598  -1.759   8.324  0.00  0.00     0.276 HD
ENDBRANCH  19  20
ENDBRANCH  18  19
ENDBRANCH  17  18
ENDBRANCH   1  17
TORSDOF 4
ENDMDL
MODEL 6
REMARK VINA RESULT:      -6.6      3.775      6.148
REMARK  4 active torsions:
REMARK  status: ('A' for Active; 'I' for Inactive)
REMARK    1  A    between atoms: N2_2  and  C5_5 
REMARK    2  A    between atoms: C5_5  and  C6_6 
REMARK    3  A    between atoms: C6_6  and  C7_7 
REMARK    4  A    between atoms: C7_7  and  C8_8 
ROOT
ATOM      1  C8  <0> d   1      18.295  -4.148   9.083  0.00  0.00     0.015 C 
ATOM      2  C9  <0> d   1      19.552  -5.044   9.153  0.00  0.00     0.020 C 
ATOM      3  C10 <0> d   1      19.906  -5.611   7.781  0.00  0.00     0.015 C 
ATOM      4  C11 <0> d   1      18.911  -5.131   6.701  0.00  0.00     0.052 C 
ATOM      5  C12 <0> d   1      17.537  -5.539   7.212  0.00  0.00    -0.042 A 
ATOM      6  C13 <0> d   1      16.659  -6.339   6.538  0.00  0.00     0.008 A 
ATOM      7  C14 <0> d   1      15.434  -6.630   7.124  0.00  0.00     0.001 A 
ATOM      8  C15 <0> d   1      15.114  -6.117   8.368  0.00  0.00     0.001 A 
ATOM      9  C16 <0> d   1      16.011  -5.303   9.047  0.00  0.00     0.009 A 
ATOM     10  C17 <0> d   1      17.213  -5.021   8.465  0.00  0.00    -0.038 A 
ATOM     11  C18 <0> d   1      18.933  -3.613   6.778  0.00  0.00    -0.042 A 
ATOM     12  C19 <0> d   1      19.236  -2.782   5.737  0.00  0.00     0.008 A 
ATOM     13  C20 <0> d   1      19.216  -1.410   5.949  0.00  0.00     0.001 A 
ATOM     14  C21 <0> d   1      18.896  -0.897   7.191  0.00  0.00     0.001 A 
ATOM     15  C22 <0> d   1      18.588  -1.748   8.246  0.00  0.00     0.009 A 
ATOM     16  C23 <0> d   1      18.592  -3.081   8.041  0.00  0.00    -0.038 A 
ENDROOT
BRANCH   1  17
ATOM     17  C7  <0> d   1      17.894  -3.567  10.440  0.00  0.00     0.021 C 
BRANCH  17  18
ATOM     18  C6  <0> d   1      19.021  -3.803  11.447  0.00  0.00     0.029 C 
BRANCH  18  19
ATOM     19  C5  <0> d   1      19.518  -2.457  11.980  0.00  0.00     0.231 C 
BRANCH  19  20
ATOM     20  N2  <0> d   1      20.696  -2.031  11.213  0.00  0.00    -0.079 N 
ATOM     21  C1  <0> d   1      20.632  -0.581  10.984  0.00  0.00     0.266 C 
ATOM     22  H3  <0> d   1      20.712  -2.512  10.327  0.00  0.00     0.276 HD
ATOM     23  H4  <0> d   1      21.533  -2.253  11.731  0.00  0.00     0.276 HD
ENDBRANCH  19  20
ENDBRANCH  18  19
ENDBRANCH  17  18
ENDBRANCH   1  17
TORSDOF 4
ENDMDL
MODEL 7
REMARK VINA RESULT:      -6.5      3.948      7.189
REMARK  4 active torsions:
REMARK  status: ('A' for Active; 'I' for Inactive)
REMARK    1  A    between atoms: N2_2  and  C5_5 
REMARK    2  A    between atoms: C5_5  and  C6_6 
REMARK    3  A    between atoms: C6_6  and  C7_7 
REMARK    4  A    between atoms: C7_7  and  C8_8 
ROOT
ATOM      1  C8  <0> d   1      18.401   4.389  14.156  0.00  0.00     0.015 C 
ATOM      2  C9  <0> d   1      19.641   5.310  14.150  0.00  0.00     0.020 C 
ATOM      3  C10 <0> d   1      19.909   5.889  15.537  0.00  0.00     0.015 C 
ATOM      4  C11 <0> d   1      18.867   5.393  16.564  0.00  0.00     0.052 C 
ATOM      5  C12 <0> d   1      17.515   5.771  15.976  0.00  0.00    -0.042 A 
ATOM      6  C13 <0> d   1      16.586   6.555  16.598  0.00  0.00     0.008 A 
ATOM      7  C14 <0> d   1      15.388   6.820  15.944  0.00  0.00     0.001 A 
ATOM      8  C15 <0> d   1      15.147   6.296  14.687  0.00  0.00     0.001 A 
ATOM      9  C16 <0> d   1      16.096   5.498  14.062  0.00  0.00     0.009 A 
ATOM     10  C17 <0> d   1      17.270   5.242  14.710  0.00  0.00    -0.038 A 
ATOM     11  C18 <0> d   1      18.923   3.875  16.494  0.00  0.00    -0.042 A 
ATOM     12  C19 <0> d   1      19.185   3.055  17.554  0.00  0.00     0.008 A 
ATOM     13  C20 <0> d   1      19.204   1.681  17.348  0.00  0.00     0.001 A 
ATOM     14  C21 <0> d   1      18.963   1.158  16.092  0.00  0.00     0.001 A 
ATOM     15  C22 <0> d   1      18.696   1.999  15.019  0.00  0.00     0.009 A 
ATOM     16  C23 <0> d   1      18.662   3.332  15.217  0.00  0.00    -0.038 A 
ENDROOT
BRANCH   1  17
ATOM     17  C7  <0> d   1      18.087   3.796  12.781  0.00  0.00     0.021 C 
BRANCH  17  18
ATOM     18  C6  <0> d   1      19.296   3.973  11.862  0.00  0.00     0.029 C 
BRANCH  18  19
ATOM     19  C5  <0> d   1      19.653   2.630  11.223  0.00  0.00     0.231 C 
BRANCH  19  20
ATOM     20  N2  <0> d   1      20.777   2.024  11.948  0.00  0.00    -0.079 N 
ATOM     21  C1  <0> d   1      20.540   0.583  12.106  0.00  0.00     0.266 C 
ATOM     22  H3  <0> d   1      20.861   2.454  12.857  0.00  0.00     0.276 HD
ATOM     23  H4  <0> d   1      21.630   2.170  11.429  0.00  0.00     0.276 HD
ENDBRANCH  19  20
ENDBRANCH  18  19
ENDBRANCH  17  18
ENDBRANCH   1  17
TORSDOF 4
ENDMDL
MODEL 8
REMARK VINA RESULT:      -6.5      1.810      2.256
REMARK  4 active torsions:
REMARK  status: ('A' for Active; 'I' for Inactive)
REMARK    1  A    between atoms: N2_2  and  C5_5 
REMARK    2  A    between atoms: C5_5  and  C6_6 
REMARK    3  A    between atoms: C6_6  and  C7_7 
REMARK    4  A    between atoms: C7_7  and  C8_8 
ROOT
ATOM      1  C8  <0> d   1      18.412   0.878  13.232  0.00  0.00     0.015 C 
ATOM      2  C9  <0> d   1      19.830   0.284  13.395  0.00  0.00     0.020 C 
ATOM      3  C10 <0> d   1      20.800   0.877  12.377  0.00  0.00     0.015 C 
ATOM      4  C11 <0> d   1      20.098   1.907  11.465  0.00  0.00     0.052 C 
ATOM      5  C12 <0> d   1      18.921   1.163  10.851  0.00  0.00    -0.042 A 
ATOM      6  C13 <0> d   1      18.706   1.012   9.511  0.00  0.00     0.008 A 
ATOM      7  C14 <0> d   1      17.586   0.308   9.088  0.00  0.00     0.001 A 
ATOM      8  C15 <0> d   1      16.708  -0.230  10.011  0.00  0.00     0.001 A 
ATOM      9  C16 <0> d   1      16.932  -0.071  11.372  0.00  0.00     0.009 A 
ATOM     10  C17 <0> d   1      18.035   0.622  11.781  0.00  0.00    -0.038 A 
ATOM     11  C18 <0> d   1      19.479   2.925  12.409  0.00  0.00    -0.042 A 
ATOM     12  C19 <0> d   1      19.735   4.266  12.388  0.00  0.00     0.008 A 
ATOM     13  C20 <0> d   1      19.097   5.085  13.311  0.00  0.00     0.001 A 
ATOM     14  C21 <0> d   1      18.219   4.547  14.233  0.00  0.00     0.001 A 
ATOM     15  C22 <0> d   1      17.962   3.182  14.249  0.00  0.00     0.009 A 
ATOM     16  C23 <0> d   1      18.569   2.386  13.345  0.00  0.00    -0.038 A 
ENDROOT
BRANCH   1  17
ATOM     17  C7  <0> d   1      17.401   0.303  14.226  0.00  0.00     0.021 C 
BRANCH  17  18
ATOM     18  C6  <0> d   1      18.148  -0.385  15.370  0.00  0.00     0.029 C 
BRANCH  18  19
ATOM     19  C5  <0> d   1      17.558   0.066  16.708  0.00  0.00     0.231 C 
BRANCH  19  20
ATOM     20  N2  <0> d   1      18.427  -0.383  17.803  0.00  0.00    -0.079 N 
ATOM     21  C1  <0> d   1      19.373   0.687  18.148  0.00  0.00     0.266 C 
ATOM     22  H3  <0> d   1      18.938  -1.203  17.513  0.00  0.00     0.276 HD
ATOM     23  H4  <0> d   1      17.864  -0.607  18.610  0.00  0.00     0.276 HD
ENDBRANCH  19  20
ENDBRANCH  18  19
ENDBRANCH  17  18
ENDBRANCH   1  17
TORSDOF 4
ENDMDL
MODEL 9
REMARK VINA RESULT:      -6.5      2.436      4.731
REMARK  4 active torsions:
REMARK  status: ('A' for Active; 'I' for Inactive)
REMARK    1  A    between atoms: N2_2  and  C5_5 
REMARK    2  A    between atoms: C5_5  and  C6_6 
REMARK    3  A    between atoms: C6_6  and  C7_7 
REMARK    4  A    between atoms: C7_7  and  C8_8 
ROOT
ATOM      1  C8  <0> d   1      19.115  -0.105  12.307  0.00  0.00     0.015 C 
ATOM      2  C9  <0> d   1      17.814  -0.465  11.554  0.00  0.00     0.020 C 
ATOM      3  C10 <0> d   1      16.603   0.227  12.176  0.00  0.00     0.015 C 
ATOM      4  C11 <0> d   1      17.014   1.097  13.385  0.00  0.00     0.052 C 
ATOM      5  C12 <0> d   1      17.750   0.154  14.326  0.00  0.00    -0.042 A 
ATOM      6  C13 <0> d   1      17.398  -0.084  15.624  0.00  0.00     0.008 A 
ATOM      7  C14 <0> d   1      18.163  -0.971  16.371  0.00  0.00     0.001 A 
ATOM      8  C15 <0> d   1      19.258  -1.599  15.808  0.00  0.00     0.001 A 
ATOM      9  C16 <0> d   1      19.611  -1.350  14.487  0.00  0.00     0.009 A 
ATOM     10  C17 <0> d   1      18.855  -0.477  13.758  0.00  0.00    -0.038 A 
ATOM     11  C18 <0> d   1      18.077   2.046  12.857  0.00  0.00    -0.042 A 
ATOM     12  C19 <0> d   1      18.005   3.409  12.911  0.00  0.00     0.008 A 
ATOM     13  C20 <0> d   1      19.053   4.157  12.390  0.00  0.00     0.001 A 
ATOM     14  C21 <0> d   1      20.147   3.530  11.827  0.00  0.00     0.001 A 
ATOM     15  C22 <0> d   1      20.216   2.143  11.775  0.00  0.00     0.009 A 
ATOM     16  C23 <0> d   1      19.207   1.413  12.293  0.00  0.00    -0.038 A 
ENDROOT
BRANCH   1  17
ATOM     17  C7  <0> d   1      20.354  -0.787  11.725  0.00  0.00     0.021 C 
BRANCH  17  18
ATOM     18  C6  <0> d   1      19.921  -1.905  10.775  0.00  0.00     0.029 C 
BRANCH  18  19
ATOM     19  C5  <0> d   1      20.201  -3.262  11.424  0.00  0.00     0.231 C 
BRANCH  19  20
ATOM     20  N2  <0> d   1      19.961  -4.332  10.447  0.00  0.00    -0.079 N 
ATOM     21  C1  <0> d   1      18.744  -4.033   9.681  0.00  0.00     0.266 C 
ATOM     22  H3  <0> d   1      19.847  -5.210  10.931  0.00  0.00     0.276 HD
ATOM     23  H4  <0> d   1      20.748  -4.397   9.819  0.00  0.00     0.276 HD
ENDBRANCH  19  20
ENDBRANCH  18  19
ENDBRANCH  17  18
ENDBRANCH   1  17
TORSDOF 4
ENDMDL
