MODEL 1
REMARK VINA RESULT:      -8.1      0.000      0.000
REMARK  9 active torsions:
REMARK  status: ('A' for Active; 'I' for Inactive)
REMARK    1  A    between atoms: C2_2  and  C4_3 
REMARK    2  A    between atoms: C2_2  and  N12_11 
REMARK    3  A    between atoms: C4_3  and  C5_4 
REMARK    4  A    between atoms: C5_4  and  C6_5 
REMARK    5  A    between atoms: N12_11  and  C15_14 
REMARK    6  A    between atoms: C15_14  and  C16_15 
REMARK    7  A    between atoms: C16_15  and  O18_16 
REMARK    8  A    between atoms: C16_15  and  C19_17 
REMARK    9  A    between atoms: C24_22  and  C25_23 
REMARK       I    between atoms: C25_23  and  N26_24 
ROOT
ATOM      1  C16 ZIN A   1      20.478  -0.405  10.894  0.00  0.00     0.176 C 
ENDROOT
BRANCH   1   2
ATOM      2  C15 ZIN A   1      20.222   0.749  11.867  0.00  0.00     0.269 C 
BRANCH   2   3
ATOM      3  N12 ZIN A   1      20.767   0.406  13.187  0.00  0.00    -0.069 N 
ATOM      4  H13 ZIN A   1      21.308   1.181  13.540  0.00  0.00     0.277 HD
ATOM      5  H14 ZIN A   1      21.359  -0.408  13.105  0.00  0.00     0.277 HD
BRANCH   3   6
ATOM      6  C2  ZIN A   1      19.663   0.117  14.112  0.00  0.00     0.182 C 
ATOM      7  C1  ZIN A   1      18.397   0.830  13.633  0.00  0.00     0.040 C 
BRANCH   6   8
ATOM      8  C4  ZIN A   1      19.414  -1.392  14.154  0.00  0.00     0.037 C 
BRANCH   8   9
ATOM      9  C5  ZIN A   1      18.112  -1.715  13.418  0.00  0.00     0.040 C 
BRANCH   9  10
ATOM     10  C6  ZIN A   1      18.401  -2.649  12.271  0.00  0.00    -0.058 A 
ATOM     11  C11 ZIN A   1      19.635  -3.267  12.177  0.00  0.00     0.007 A 
ATOM     12  C10 ZIN A   1      19.898  -4.127  11.127  0.00  0.00     0.001 A 
ATOM     13  C9  ZIN A   1      18.932  -4.361  10.166  0.00  0.00     0.000 A 
ATOM     14  C8  ZIN A   1      17.702  -3.737  10.256  0.00  0.00     0.001 A 
ATOM     15  C7  ZIN A   1      17.436  -2.882  11.309  0.00  0.00     0.007 A 
ENDBRANCH   9  10
ENDBRANCH   8   9
ENDBRANCH   6   8
ENDBRANCH   3   6
ENDBRANCH   2   3
ENDBRANCH   1   2
BRANCH   1  16
ATOM     16  O18 ZIN A   1      21.886  -0.590  10.735  0.00  0.00    -0.389 OA
ATOM     17  H43 ZIN A   1      22.122  -1.284  10.103  0.00  0.00     0.210 HD
ENDBRANCH   1  16
BRANCH   1  18
ATOM     18  C19 ZIN A   1      19.860  -0.082   9.559  0.00  0.00    -0.027 A 
ATOM     19  C28 ZIN A   1      19.695  -1.078   8.620  0.00  0.00     0.029 A 
ATOM     20  C24 ZIN A   1      19.117  -0.781   7.384  0.00  0.00     0.068 A 
ATOM     21  C22 ZIN A   1      18.719   0.532   7.102  0.00  0.00     0.122 A 
ATOM     22  C21 ZIN A   1      18.897   1.523   8.056  0.00  0.00     0.041 A 
ATOM     23  O23 ZIN A   1      18.161   0.834   5.903  0.00  0.00    -0.191 OA
ATOM     24  C20 ZIN A   1      19.465   1.215   9.277  0.00  0.00     0.012 A 
BRANCH  20  25
ATOM     25  C25 ZIN A   1      18.932  -1.845   6.377  0.00  0.00     0.252 C 
ATOM     26  N26 ZIN A   1      17.887  -2.689   6.474  0.00  0.00    -0.366 N 
ATOM     27  H46 ZIN A   1      17.256  -2.599   7.205  0.00  0.00     0.159 HD
ATOM     28  H47 ZIN A   1      17.765  -3.388   5.812  0.00  0.00     0.159 HD
ATOM     29  O27 ZIN A   1      19.723  -1.958   5.460  0.00  0.00    -0.268 OA
ENDBRANCH  20  25
ENDBRANCH   1  18
TORSDOF 9
ENDMDL
MODEL 2
REMARK VINA RESULT:      -8.0      3.512      7.597
REMARK  9 active torsions:
REMARK  status: ('A' for Active; 'I' for Inactive)
REMARK    1  A    between atoms: C2_2  and  C4_3 
REMARK    2  A    between atoms: C2_2  and  N12_11 
REMARK    3  A    between atoms: C4_3  and  C5_4 
REMARK    4  A    between atoms: C5_4  and  C6_5 
REMARK    5  A    between atoms: N12_11  and  C15_14 
REMARK    6  A    between atoms: C15_14  and  C16_15 
REMARK    7  A    between atoms: C16_15  and  O18_16 
REMARK    8  A    between atoms: C16_15  and  C19_17 
REMARK    9  A    between atoms: C24_22  and  C25_23 
REMARK       I    between atoms: C25_23  and  N26_24 
ROOT
ATOM      1  C16 ZIN A   1      20.400   0.913  12.145  0.00  0.00     0.176 C 
ENDROOT
BRANCH   1   2
ATOM      2  C15 ZIN A   1      19.736   0.255  10.932  0.00  0.00     0.269 C 
BRANCH   2   3
ATOM      3  N12 ZIN A   1      19.892   1.125   9.759  0.00  0.00    -0.069 N 
ATOM      4  H13 ZIN A   1      20.252   0.585   8.986  0.00  0.00     0.277 HD
ATOM      5  H14 ZIN A   1      20.535   1.871   9.976  0.00  0.00     0.277 HD
BRANCH   3   6
ATOM      6  C2  ZIN A   1      18.587   1.693   9.394  0.00  0.00     0.182 C 
ATOM      7  C1  ZIN A   1      17.474   0.888  10.067  0.00  0.00     0.040 C 
BRANCH   6   8
ATOM      8  C4  ZIN A   1      18.517   3.149   9.859  0.00  0.00     0.037 C 
BRANCH   8   9
ATOM      9  C5  ZIN A   1      17.462   3.283  10.958  0.00  0.00     0.040 C 
BRANCH   9  10
ATOM     10  C6  ZIN A   1      18.079   3.930  12.171  0.00  0.00    -0.058 A 
ATOM     11  C11 ZIN A   1      19.366   4.433  12.107  0.00  0.00     0.007 A 
ATOM     12  C10 ZIN A   1      19.929   5.031  13.218  0.00  0.00     0.001 A 
ATOM     13  C9  ZIN A   1      19.212   5.117  14.397  0.00  0.00     0.000 A 
ATOM     14  C8  ZIN A   1      17.928   4.608  14.463  0.00  0.00     0.001 A 
ATOM     15  C7  ZIN A   1      17.362   4.015  13.350  0.00  0.00     0.007 A 
ENDBRANCH   9  10
ENDBRANCH   8   9
ENDBRANCH   6   8
ENDBRANCH   3   6
ENDBRANCH   2   3
ENDBRANCH   1   2
BRANCH   1  16
ATOM     16  O18 ZIN A   1      21.786   0.568  12.175  0.00  0.00    -0.389 OA
ATOM     17  H43 ZIN A   1      22.220   0.757  13.019  0.00  0.00     0.210 HD
ENDBRANCH   1  16
BRANCH   1  18
ATOM     18  C19 ZIN A   1      19.734   0.427  13.406  0.00  0.00    -0.027 A 
ATOM     19  C28 ZIN A   1      19.569   1.288  14.470  0.00  0.00     0.029 A 
ATOM     20  C24 ZIN A   1      18.948   0.840  15.638  0.00  0.00     0.068 A 
ATOM     21  C22 ZIN A   1      18.504  -0.486  15.723  0.00  0.00     0.122 A 
ATOM     22  C21 ZIN A   1      18.682  -1.340  14.644  0.00  0.00     0.041 A 
ATOM     23  O23 ZIN A   1      17.903  -0.934  16.853  0.00  0.00    -0.191 OA
ATOM     24  C20 ZIN A   1      19.294  -0.883  13.493  0.00  0.00     0.012 A 
BRANCH  20  25
ATOM     25  C25 ZIN A   1      18.763   1.759  16.779  0.00  0.00     0.252 C 
ATOM     26  N26 ZIN A   1      17.582   1.799  17.426  0.00  0.00    -0.366 N 
ATOM     27  H46 ZIN A   1      16.853   1.226  17.143  0.00  0.00     0.159 HD
ATOM     28  H47 ZIN A   1      17.461   2.403  18.176  0.00  0.00     0.159 HD
ATOM     29  O27 ZIN A   1      19.677   2.477  17.134  0.00  0.00    -0.268 OA
ENDBRANCH  20  25
ENDBRANCH   1  18
TORSDOF 9
ENDMDL
MODEL 3
REMARK VINA RESULT:      -7.6      2.836      6.610
REMARK  9 active torsions:
REMARK  status: ('A' for Active; 'I' for Inactive)
REMARK    1  A    between atoms: C2_2  and  C4_3 
REMARK    2  A    between atoms: C2_2  and  N12_11 
REMARK    3  A    between atoms: C4_3  and  C5_4 
REMARK    4  A    between atoms: C5_4  and  C6_5 
REMARK    5  A    between atoms: N12_11  and  C15_14 
REMARK    6  A    between atoms: C15_14  and  C16_15 
REMARK    7  A    between atoms: C16_15  and  O18_16 
REMARK    8  A    between atoms: C16_15  and  C19_17 
REMARK    9  A    between atoms: C24_22  and  C25_23 
REMARK       I    between atoms: C25_23  and  N26_24 
ROOT
ATOM      1  C16 ZIN A   1      18.099  -2.834  10.387  0.00  0.00     0.176 C 
ENDROOT
BRANCH   1   2
ATOM      2  C15 ZIN A   1      17.943  -2.191   9.008  0.00  0.00     0.269 C 
BRANCH   2   3
ATOM      3  N12 ZIN A   1      19.266  -1.816   8.491  0.00  0.00    -0.069 N 
ATOM      4  H13 ZIN A   1      19.541  -2.464   7.769  0.00  0.00     0.277 HD
ATOM      5  H14 ZIN A   1      19.940  -1.842   9.242  0.00  0.00     0.277 HD
BRANCH   3   6
ATOM      6  C2  ZIN A   1      19.207  -0.457   7.934  0.00  0.00     0.182 C 
ATOM      7  C1  ZIN A   1      17.761  -0.121   7.562  0.00  0.00     0.040 C 
BRANCH   6   8
ATOM      8  C4  ZIN A   1      19.712   0.543   8.975  0.00  0.00     0.037 C 
BRANCH   8   9
ATOM      9  C5  ZIN A   1      19.104   1.919   8.697  0.00  0.00     0.040 C 
BRANCH   9  10
ATOM     10  C6  ZIN A   1      18.862   2.635  10.001  0.00  0.00    -0.058 A 
ATOM     11  C11 ZIN A   1      17.792   3.502  10.125  0.00  0.00     0.007 A 
ATOM     12  C10 ZIN A   1      17.568   4.154  11.323  0.00  0.00     0.001 A 
ATOM     13  C9  ZIN A   1      18.420   3.949  12.393  0.00  0.00     0.000 A 
ATOM     14  C8  ZIN A   1      19.493   3.088  12.266  0.00  0.00     0.001 A 
ATOM     15  C7  ZIN A   1      19.715   2.431  11.070  0.00  0.00     0.007 A 
ENDBRANCH   9  10
ENDBRANCH   8   9
ENDBRANCH   6   8
ENDBRANCH   3   6
ENDBRANCH   2   3
ENDBRANCH   1   2
BRANCH   1  16
ATOM     16  O18 ZIN A   1      17.136  -3.880  10.536  0.00  0.00    -0.389 OA
ATOM     17  H43 ZIN A   1      17.051  -4.210  11.442  0.00  0.00     0.210 HD
ENDBRANCH   1  16
BRANCH   1  18
ATOM     18  C19 ZIN A   1      17.879  -1.794  11.454  0.00  0.00    -0.027 A 
ATOM     19  C28 ZIN A   1      18.401  -1.984  12.716  0.00  0.00     0.029 A 
ATOM     20  C24 ZIN A   1      18.202  -1.017  13.705  0.00  0.00     0.068 A 
ATOM     21  C22 ZIN A   1      17.463   0.136  13.408  0.00  0.00     0.122 A 
ATOM     22  C21 ZIN A   1      16.942   0.309  12.135  0.00  0.00     0.041 A 
ATOM     23  O23 ZIN A   1      17.260   1.080  14.361  0.00  0.00    -0.191 OA
ATOM     24  C20 ZIN A   1      17.149  -0.653  11.165  0.00  0.00     0.012 A 
BRANCH  20  25
ATOM     25  C25 ZIN A   1      18.763  -1.212  15.056  0.00  0.00     0.252 C 
ATOM     26  N26 ZIN A   1      17.978  -1.058  16.140  0.00  0.00    -0.366 N 
ATOM     27  H46 ZIN A   1      17.044  -0.819  16.033  0.00  0.00     0.159 HD
ATOM     28  H47 ZIN A   1      18.347  -1.186  17.028  0.00  0.00     0.159 HD
ATOM     29  O27 ZIN A   1      19.934  -1.512  15.190  0.00  0.00    -0.268 OA
ENDBRANCH  20  25
ENDBRANCH   1  18
TORSDOF 9
ENDMDL
MODEL 4
REMARK VINA RESULT:      -7.5      2.368      4.945
REMARK  9 active torsions:
REMARK  status: ('A' for Active; 'I' for Inactive)
REMARK    1  A    between atoms: C2_2  and  C4_3 
REMARK    2  A    between atoms: C2_2  and  N12_11 
REMARK    3  A    between atoms: C4_3  and  C5_4 
REMARK    4  A    between atoms: C5_4  and  C6_5 
REMARK    5  A    between atoms: N12_11  and  C15_14 
REMARK    6  A    between atoms: C15_14  and  C16_15 
REMARK    7  A    between atoms: C16_15  and  O18_16 
REMARK    8  A    between atoms: C16_15  and  C19_17 
REMARK    9  A    between atoms: C24_22  and  C25_23 
REMARK       I    between atoms: C25_23  and  N26_24 
ROOT
ATOM      1  C16 ZIN A   1      20.357   0.334  12.674  0.00  0.00     0.176 C 
ENDROOT
BRANCH   1   2
ATOM      2  C15 ZIN A   1      19.638   1.682  12.585  0.00  0.00     0.269 C 
BRANCH   2   3
ATOM      3  N12 ZIN A   1      19.834   2.253  11.245  0.00  0.00    -0.069 N 
ATOM      4  H13 ZIN A   1      20.498   1.691  10.734  0.00  0.00     0.277 HD
ATOM      5  H14 ZIN A   1      20.185   3.195  11.329  0.00  0.00     0.277 HD
BRANCH   3   6
ATOM      6  C2  ZIN A   1      18.552   2.269  10.528  0.00  0.00     0.182 C 
ATOM      7  C1  ZIN A   1      18.354   3.636   9.868  0.00  0.00     0.040 C 
BRANCH   6   8
ATOM      8  C4  ZIN A   1      18.554   1.180   9.454  0.00  0.00     0.037 C 
BRANCH   8   9
ATOM      9  C5  ZIN A   1      19.102   1.753   8.146  0.00  0.00     0.040 C 
BRANCH   9  10
ATOM     10  C6  ZIN A   1      19.113   0.677   7.091  0.00  0.00    -0.058 A 
ATOM     11  C11 ZIN A   1      19.124  -0.655   7.462  0.00  0.00     0.007 A 
ATOM     12  C10 ZIN A   1      19.129  -1.641   6.494  0.00  0.00     0.001 A 
ATOM     13  C9  ZIN A   1      19.136  -1.297   5.155  0.00  0.00     0.000 A 
ATOM     14  C8  ZIN A   1      19.132   0.035   4.784  0.00  0.00     0.001 A 
ATOM     15  C7  ZIN A   1      19.120   1.022   5.752  0.00  0.00     0.007 A 
ENDBRANCH   9  10
ENDBRANCH   8   9
ENDBRANCH   6   8
ENDBRANCH   3   6
ENDBRANCH   2   3
ENDBRANCH   1   2
BRANCH   1  16
ATOM     16  O18 ZIN A   1      21.496   0.343  11.812  0.00  0.00    -0.389 OA
ATOM     17  H43 ZIN A   1      21.667  -0.504  11.377  0.00  0.00     0.210 HD
ENDBRANCH   1  16
BRANCH   1  18
ATOM     18  C19 ZIN A   1      19.416  -0.765  12.251  0.00  0.00    -0.027 A 
ATOM     19  C28 ZIN A   1      19.895  -1.838  11.531  0.00  0.00     0.029 A 
ATOM     20  C24 ZIN A   1      19.025  -2.860  11.143  0.00  0.00     0.068 A 
ATOM     21  C22 ZIN A   1      17.667  -2.780  11.481  0.00  0.00     0.122 A 
ATOM     22  C21 ZIN A   1      17.202  -1.691  12.202  0.00  0.00     0.041 A 
ATOM     23  O23 ZIN A   1      16.811  -3.764  11.106  0.00  0.00    -0.191 OA
ATOM     24  C20 ZIN A   1      18.074  -0.689  12.584  0.00  0.00     0.012 A 
BRANCH  20  25
ATOM     25  C25 ZIN A   1      19.532  -4.015  10.376  0.00  0.00     0.252 C 
ATOM     26  N26 ZIN A   1      19.377  -4.055   9.039  0.00  0.00    -0.366 N 
ATOM     27  H46 ZIN A   1      18.934  -3.326   8.579  0.00  0.00     0.159 HD
ATOM     28  H47 ZIN A   1      19.711  -4.815   8.535  0.00  0.00     0.159 HD
ATOM     29  O27 ZIN A   1      20.088  -4.929  10.953  0.00  0.00    -0.268 OA
ENDBRANCH  20  25
ENDBRANCH   1  18
TORSDOF 9
ENDMDL
MODEL 5
REMARK VINA RESULT:      -7.5      3.075      7.438
REMARK  9 active torsions:
REMARK  status: ('A' for Active; 'I' for Inactive)
REMARK    1  A    between atoms: C2_2  and  C4_3 
REMARK    2  A    between atoms: C2_2  and  N12_11 
REMARK    3  A    between atoms: C4_3  and  C5_4 
REMARK    4  A    between atoms: C5_4  and  C6_5 
REMARK    5  A    between atoms: N12_11  and  C15_14 
REMARK    6  A    between atoms: C15_14  and  C16_15 
REMARK    7  A    between atoms: C16_15  and  O18_16 
REMARK    8  A    between atoms: C16_15  and  C19_17 
REMARK    9  A    between atoms: C24_22  and  C25_23 
REMARK       I    between atoms: C25_23  and  N26_24 
ROOT
ATOM      1  C16 ZIN A   1      20.179   0.585  12.539  0.00  0.00     0.176 C 
ENDROOT
BRANCH   1   2
ATOM      2  C15 ZIN A   1      19.748  -0.443  11.490  0.00  0.00     0.269 C 
BRANCH   2   3
ATOM      3  N12 ZIN A   1      20.641  -0.356  10.326  0.00  0.00    -0.069 N 
ATOM      4  H13 ZIN A   1      21.324  -1.097  10.370  0.00  0.00     0.277 HD
ATOM      5  H14 ZIN A   1      21.111   0.536  10.329  0.00  0.00     0.277 HD
BRANCH   3   6
ATOM      6  C2  ZIN A   1      19.852  -0.489   9.094  0.00  0.00     0.182 C 
ATOM      7  C1  ZIN A   1      19.086  -1.814   9.119  0.00  0.00     0.040 C 
BRANCH   6   8
ATOM      8  C4  ZIN A   1      18.860   0.671   8.995  0.00  0.00     0.037 C 
BRANCH   8   9
ATOM      9  C5  ZIN A   1      19.109   1.446   7.700  0.00  0.00     0.040 C 
BRANCH   9  10
ATOM     10  C6  ZIN A   1      18.647   0.623   6.525  0.00  0.00    -0.058 A 
ATOM     11  C11 ZIN A   1      19.477   0.451   5.433  0.00  0.00     0.007 A 
ATOM     12  C10 ZIN A   1      19.055  -0.308   4.357  0.00  0.00     0.001 A 
ATOM     13  C9  ZIN A   1      17.799  -0.886   4.369  0.00  0.00     0.000 A 
ATOM     14  C8  ZIN A   1      16.967  -0.708   5.458  0.00  0.00     0.001 A 
ATOM     15  C7  ZIN A   1      17.390   0.046   6.536  0.00  0.00     0.007 A 
ENDBRANCH   9  10
ENDBRANCH   8   9
ENDBRANCH   6   8
ENDBRANCH   3   6
ENDBRANCH   2   3
ENDBRANCH   1   2
BRANCH   1  16
ATOM     16  O18 ZIN A   1      21.603   0.585  12.650  0.00  0.00    -0.389 OA
ATOM     17  H43 ZIN A   1      22.063   0.404  11.817  0.00  0.00     0.210 HD
ENDBRANCH   1  16
BRANCH   1  18
ATOM     18  C19 ZIN A   1      19.572   0.226  13.871  0.00  0.00    -0.027 A 
ATOM     19  C28 ZIN A   1      19.550   1.157  14.888  0.00  0.00     0.029 A 
ATOM     20  C24 ZIN A   1      18.984   0.827  16.121  0.00  0.00     0.068 A 
ATOM     21  C22 ZIN A   1      18.449  -0.453  16.318  0.00  0.00     0.122 A 
ATOM     22  C21 ZIN A   1      18.483  -1.378  15.286  0.00  0.00     0.041 A 
ATOM     23  O23 ZIN A   1      17.900  -0.787  17.513  0.00  0.00    -0.191 OA
ATOM     24  C20 ZIN A   1      19.043  -1.038  14.070  0.00  0.00     0.012 A 
BRANCH  20  25
ATOM     25  C25 ZIN A   1      18.952   1.820  17.213  0.00  0.00     0.252 C 
ATOM     26  N26 ZIN A   1      18.015   2.788  17.215  0.00  0.00    -0.366 N 
ATOM     27  H46 ZIN A   1      17.361   2.832  16.501  0.00  0.00     0.159 HD
ATOM     28  H47 ZIN A   1      17.994   3.441  17.933  0.00  0.00     0.159 HD
ATOM     29  O27 ZIN A   1      19.772   1.764  18.109  0.00  0.00    -0.268 OA
ENDBRANCH  20  25
ENDBRANCH   1  18
TORSDOF 9
ENDMDL
MODEL 6
REMARK VINA RESULT:      -7.4      2.701      5.146
REMARK  9 active torsions:
REMARK  status: ('A' for Active; 'I' for Inactive)
REMARK    1  A    between atoms: C2_2  and  C4_3 
REMARK    2  A    between atoms: C2_2  and  N12_11 
REMARK    3  A    between atoms: C4_3  and  C5_4 
REMARK    4  A    between atoms: C5_4  and  C6_5 
REMARK    5  A    between atoms: N12_11  and  C15_14 
REMARK    6  A    between atoms: C15_14  and  C16_15 
REMARK    7  A    between atoms: C16_15  and  O18_16 
REMARK    8  A    between atoms: C16_15  and  C19_17 
REMARK    9  A    between atoms: C24_22  and  C25_23 
REMARK       I    between atoms: C25_23  and  N26_24 
ROOT
ATOM      1  C16 ZIN A   1      17.452   1.262  13.579  0.00  0.00     0.176 C 
ENDROOT
BRANCH   1   2
ATOM      2  C15 ZIN A   1      18.301   2.536  13.602  0.00  0.00     0.269 C 
BRANCH   2   3
ATOM      3  N12 ZIN A   1      17.587   3.612  12.903  0.00  0.00    -0.069 N 
ATOM      4  H13 ZIN A   1      17.493   4.407  13.516  0.00  0.00     0.277 HD
ATOM      5  H14 ZIN A   1      16.671   3.287  12.631  0.00  0.00     0.277 HD
BRANCH   3   6
ATOM      6  C2  ZIN A   1      18.343   4.003  11.705  0.00  0.00     0.182 C 
ATOM      7  C1  ZIN A   1      19.837   3.781  11.950  0.00  0.00     0.040 C 
BRANCH   6   8
ATOM      8  C4  ZIN A   1      17.889   3.155  10.516  0.00  0.00     0.037 C 
BRANCH   8   9
ATOM      9  C5  ZIN A   1      19.101   2.458   9.894  0.00  0.00     0.040 C 
BRANCH   9  10
ATOM     10  C6  ZIN A   1      18.641   1.539   8.791  0.00  0.00    -0.058 A 
ATOM     11  C11 ZIN A   1      17.691   0.569   9.052  0.00  0.00     0.007 A 
ATOM     12  C10 ZIN A   1      17.266  -0.271   8.039  0.00  0.00     0.001 A 
ATOM     13  C9  ZIN A   1      17.798  -0.148   6.769  0.00  0.00     0.000 A 
ATOM     14  C8  ZIN A   1      18.753   0.819   6.511  0.00  0.00     0.001 A 
ATOM     15  C7  ZIN A   1      19.174   1.662   7.522  0.00  0.00     0.007 A 
ENDBRANCH   9  10
ENDBRANCH   8   9
ENDBRANCH   6   8
ENDBRANCH   3   6
ENDBRANCH   2   3
ENDBRANCH   1   2
BRANCH   1  16
ATOM     16  O18 ZIN A   1      17.183   0.844  14.919  0.00  0.00    -0.389 OA
ATOM     17  H43 ZIN A   1      17.396   1.509  15.588  0.00  0.00     0.210 HD
ENDBRANCH   1  16
BRANCH   1  18
ATOM     18  C19 ZIN A   1      18.200   0.174  12.853  0.00  0.00    -0.027 A 
ATOM     19  C28 ZIN A   1      17.515  -0.911  12.349  0.00  0.00     0.029 A 
ATOM     20  C24 ZIN A   1      18.207  -1.918  11.672  0.00  0.00     0.068 A 
ATOM     21  C22 ZIN A   1      19.596  -1.822  11.520  0.00  0.00     0.122 A 
ATOM     22  C21 ZIN A   1      20.270  -0.727  12.037  0.00  0.00     0.041 A 
ATOM     23  O23 ZIN A   1      20.280  -2.796  10.868  0.00  0.00    -0.191 OA
ATOM     24  C20 ZIN A   1      19.574   0.265  12.700  0.00  0.00     0.012 A 
BRANCH  20  25
ATOM     25  C25 ZIN A   1      17.478  -3.079  11.125  0.00  0.00     0.252 C 
ATOM     26  N26 ZIN A   1      17.590  -3.390   9.819  0.00  0.00    -0.366 N 
ATOM     27  H46 ZIN A   1      18.149  -2.851   9.238  0.00  0.00     0.159 HD
ATOM     28  H47 ZIN A   1      17.111  -4.153   9.459  0.00  0.00     0.159 HD
ATOM     29  O27 ZIN A   1      16.778  -3.755  11.854  0.00  0.00    -0.268 OA
ENDBRANCH  20  25
ENDBRANCH   1  18
TORSDOF 9
ENDMDL
MODEL 7
REMARK VINA RESULT:      -7.3      1.710      2.261
REMARK  9 active torsions:
REMARK  status: ('A' for Active; 'I' for Inactive)
REMARK    1  A    between atoms: C2_2  and  C4_3 
REMARK    2  A    between atoms: C2_2  and  N12_11 
REMARK    3  A    between atoms: C4_3  and  C5_4 
REMARK    4  A    between atoms: C5_4  and  C6_5 
REMARK    5  A    between atoms: N12_11  and  C15_14 
REMARK    6  A    between atoms: C15_14  and  C16_15 
REMARK    7  A    between atoms: C16_15  and  O18_16 
REMARK    8  A    between atoms: C16_15  and  C19_17 
REMARK    9  A    between atoms: C24_22  and  C25_23 
REMARK       I    between atoms: C25_23  and  N26_24 
ROOT
ATOM      1  C16 ZIN A   1      18.073   1.111   9.113  0.00  0.00     0.176 C 
ENDROOT
BRANCH   1   2
ATOM      2  C15 ZIN A   1      19.303   1.453   9.956  0.00  0.00     0.269 C 
BRANCH   2   3
ATOM      3  N12 ZIN A   1      18.884   1.765  11.328  0.00  0.00    -0.069 N 
ATOM      4  H13 ZIN A   1      17.946   1.427  11.479  0.00  0.00     0.277 HD
ATOM      5  H14 ZIN A   1      18.909   2.764  11.469  0.00  0.00     0.277 HD
BRANCH   3   6
ATOM      6  C2  ZIN A   1      19.797   1.114  12.278  0.00  0.00     0.182 C 
ATOM      7  C1  ZIN A   1      19.137   1.051  13.658  0.00  0.00     0.040 C 
BRANCH   6   8
ATOM      8  C4  ZIN A   1      20.108  -0.304  11.796  0.00  0.00     0.037 C 
BRANCH   8   9
ATOM      9  C5  ZIN A   1      19.337  -1.314  12.648  0.00  0.00     0.040 C 
BRANCH   9  10
ATOM     10  C6  ZIN A   1      19.031  -2.538  11.824  0.00  0.00    -0.058 A 
ATOM     11  C11 ZIN A   1      20.032  -3.450  11.544  0.00  0.00     0.007 A 
ATOM     12  C10 ZIN A   1      19.750  -4.575  10.792  0.00  0.00     0.001 A 
ATOM     13  C9  ZIN A   1      18.471  -4.782  10.310  0.00  0.00     0.000 A 
ATOM     14  C8  ZIN A   1      17.472  -3.867  10.585  0.00  0.00     0.001 A 
ATOM     15  C7  ZIN A   1      17.753  -2.744  11.342  0.00  0.00     0.007 A 
ENDBRANCH   9  10
ENDBRANCH   8   9
ENDBRANCH   6   8
ENDBRANCH   3   6
ENDBRANCH   2   3
ENDBRANCH   1   2
BRANCH   1  16
ATOM     16  O18 ZIN A   1      17.166   0.326   9.890  0.00  0.00    -0.389 OA
ATOM     17  H43 ZIN A   1      16.262   0.315   9.547  0.00  0.00     0.210 HD
ENDBRANCH   1  16
BRANCH   1  18
ATOM     18  C19 ZIN A   1      18.499   0.329   7.897  0.00  0.00    -0.027 A 
ATOM     19  C28 ZIN A   1      18.634  -1.041   7.975  0.00  0.00     0.029 A 
ATOM     20  C24 ZIN A   1      19.024  -1.766   6.847  0.00  0.00     0.068 A 
ATOM     21  C22 ZIN A   1      19.285  -1.094   5.645  0.00  0.00     0.122 A 
ATOM     22  C21 ZIN A   1      19.148   0.285   5.587  0.00  0.00     0.041 A 
ATOM     23  O23 ZIN A   1      19.668  -1.787   4.544  0.00  0.00    -0.191 OA
ATOM     24  C20 ZIN A   1      18.757   0.990   6.708  0.00  0.00     0.012 A 
BRANCH  20  25
ATOM     25  C25 ZIN A   1      19.165  -3.234   6.921  0.00  0.00     0.252 C 
ATOM     26  N26 ZIN A   1      20.391  -3.791   6.957  0.00  0.00    -0.366 N 
ATOM     27  H46 ZIN A   1      21.181  -3.229   6.935  0.00  0.00     0.159 HD
ATOM     28  H47 ZIN A   1      20.484  -4.756   7.006  0.00  0.00     0.159 HD
ATOM     29  O27 ZIN A   1      18.175  -3.939   6.950  0.00  0.00    -0.268 OA
ENDBRANCH  20  25
ENDBRANCH   1  18
TORSDOF 9
ENDMDL
MODEL 8
REMARK VINA RESULT:      -7.3      1.578      2.434
REMARK  9 active torsions:
REMARK  status: ('A' for Active; 'I' for Inactive)
REMARK    1  A    between atoms: C2_2  and  C4_3 
REMARK    2  A    between atoms: C2_2  and  N12_11 
REMARK    3  A    between atoms: C4_3  and  C5_4 
REMARK    4  A    between atoms: C5_4  and  C6_5 
REMARK    5  A    between atoms: N12_11  and  C15_14 
REMARK    6  A    between atoms: C15_14  and  C16_15 
REMARK    7  A    between atoms: C16_15  and  O18_16 
REMARK    8  A    between atoms: C16_15  and  C19_17 
REMARK    9  A    between atoms: C24_22  and  C25_23 
REMARK       I    between atoms: C25_23  and  N26_24 
ROOT
ATOM      1  C16 ZIN A   1      19.236   2.273  10.333  0.00  0.00     0.176 C 
ENDROOT
BRANCH   1   2
ATOM      2  C15 ZIN A   1      18.724   1.796  11.694  0.00  0.00     0.269 C 
BRANCH   2   3
ATOM      3  N12 ZIN A   1      19.788   1.942  12.696  0.00  0.00    -0.069 N 
ATOM      4  H13 ZIN A   1      19.710   2.843  13.142  0.00  0.00     0.277 HD
ATOM      5  H14 ZIN A   1      20.688   1.866  12.244  0.00  0.00     0.277 HD
BRANCH   3   6
ATOM      6  C2  ZIN A   1      19.658   0.882  13.706  0.00  0.00     0.182 C 
ATOM      7  C1  ZIN A   1      19.081   1.474  14.994  0.00  0.00     0.040 C 
BRANCH   6   8
ATOM      8  C4  ZIN A   1      18.723  -0.209  13.182  0.00  0.00     0.037 C 
BRANCH   8   9
ATOM      9  C5  ZIN A   1      19.294  -1.583  13.536  0.00  0.00     0.040 C 
BRANCH   9  10
ATOM     10  C6  ZIN A   1      18.973  -2.560  12.434  0.00  0.00    -0.058 A 
ATOM     11  C11 ZIN A   1      17.699  -2.603  11.898  0.00  0.00     0.007 A 
ATOM     12  C10 ZIN A   1      17.406  -3.496  10.884  0.00  0.00     0.001 A 
ATOM     13  C9  ZIN A   1      18.383  -4.353  10.413  0.00  0.00     0.000 A 
ATOM     14  C8  ZIN A   1      19.655  -4.314  10.954  0.00  0.00     0.001 A 
ATOM     15  C7  ZIN A   1      19.950  -3.418  11.964  0.00  0.00     0.007 A 
ENDBRANCH   9  10
ENDBRANCH   8   9
ENDBRANCH   6   8
ENDBRANCH   3   6
ENDBRANCH   2   3
ENDBRANCH   1   2
BRANCH   1  16
ATOM     16  O18 ZIN A   1      18.362   3.280   9.821  0.00  0.00    -0.389 OA
ATOM     17  H43 ZIN A   1      18.813   3.974   9.318  0.00  0.00     0.210 HD
ENDBRANCH   1  16
BRANCH   1  18
ATOM     18  C19 ZIN A   1      19.277   1.109   9.377  0.00  0.00    -0.027 A 
ATOM     19  C28 ZIN A   1      18.922   1.293   8.057  0.00  0.00     0.029 A 
ATOM     20  C24 ZIN A   1      18.964   0.216   7.169  0.00  0.00     0.068 A 
ATOM     21  C22 ZIN A   1      19.358  -1.047   7.629  0.00  0.00     0.122 A 
ATOM     22  C21 ZIN A   1      19.707  -1.215   8.961  0.00  0.00     0.041 A 
ATOM     23  O23 ZIN A   1      19.399  -2.102   6.777  0.00  0.00    -0.191 OA
ATOM     24  C20 ZIN A   1      19.666  -0.141   9.828  0.00  0.00     0.012 A 
BRANCH  20  25
ATOM     25  C25 ZIN A   1      18.591   0.407   5.753  0.00  0.00     0.252 C 
ATOM     26  N26 ZIN A   1      19.541   0.385   4.798  0.00  0.00    -0.366 N 
ATOM     27  H46 ZIN A   1      20.469   0.244   5.040  0.00  0.00     0.159 HD
ATOM     28  H47 ZIN A   1      19.296   0.511   3.868  0.00  0.00     0.159 HD
ATOM     29  O27 ZIN A   1      17.427   0.584   5.451  0.00  0.00    -0.268 OA
ENDBRANCH  20  25
ENDBRANCH   1  18
TORSDOF 9
ENDMDL
MODEL 9
REMARK VINA RESULT:      -7.3      2.686      5.159
REMARK  9 active torsions:
REMARK  status: ('A' for Active; 'I' for Inactive)
REMARK    1  A    between atoms: C2_2  and  C4_3 
REMARK    2  A    between atoms: C2_2  and  N12_11 
REMARK    3  A    between atoms: C4_3  and  C5_4 
REMARK    4  A    between atoms: C5_4  and  C6_5 
REMARK    5  A    between atoms: N12_11  and  C15_14 
REMARK    6  A    between atoms: C15_14  and  C16_15 
REMARK    7  A    between atoms: C16_15  and  O18_16 
REMARK    8  A    between atoms: C16_15  and  C19_17 
REMARK    9  A    between atoms: C24_22  and  C25_23 
REMARK       I    between atoms: C25_23  and  N26_24 
ROOT
ATOM      1  C16 ZIN A   1      20.001  -0.154   9.270  0.00  0.00     0.176 C 
ENDROOT
BRANCH   1   2
ATOM      2  C15 ZIN A   1      18.885  -1.190   9.422  0.00  0.00     0.269 C 
BRANCH   2   3
ATOM      3  N12 ZIN A   1      19.146  -2.019  10.606  0.00  0.00    -0.069 N 
ATOM      4  H13 ZIN A   1      19.719  -1.505  11.257  0.00  0.00     0.277 HD
ATOM      5  H14 ZIN A   1      19.626  -2.862  10.327  0.00  0.00     0.277 HD
BRANCH   3   6
ATOM      6  C2  ZIN A   1      17.872  -2.372  11.247  0.00  0.00     0.182 C 
ATOM      7  C1  ZIN A   1      18.018  -3.713  11.969  0.00  0.00     0.040 C 
BRANCH   6   8
ATOM      8  C4  ZIN A   1      17.492  -1.288  12.257  0.00  0.00     0.037 C 
BRANCH   8   9
ATOM      9  C5  ZIN A   1      18.746  -0.815  12.994  0.00  0.00     0.040 C 
BRANCH   9  10
ATOM     10  C6  ZIN A   1      18.495  -0.836  14.480  0.00  0.00    -0.058 A 
ATOM     11  C11 ZIN A   1      19.268  -1.638  15.300  0.00  0.00     0.007 A 
ATOM     12  C10 ZIN A   1      19.040  -1.654  16.663  0.00  0.00     0.001 A 
ATOM     13  C9  ZIN A   1      18.033  -0.877  17.205  0.00  0.00     0.000 A 
ATOM     14  C8  ZIN A   1      17.257  -0.080  16.384  0.00  0.00     0.001 A 
ATOM     15  C7  ZIN A   1      17.488  -0.060  15.022  0.00  0.00     0.007 A 
ENDBRANCH   9  10
ENDBRANCH   8   9
ENDBRANCH   6   8
ENDBRANCH   3   6
ENDBRANCH   2   3
ENDBRANCH   1   2
BRANCH   1  16
ATOM     16  O18 ZIN A   1      21.091  -0.499  10.126  0.00  0.00    -0.389 OA
ATOM     17  H43 ZIN A   1      21.485   0.256  10.585  0.00  0.00     0.210 HD
ENDBRANCH   1  16
BRANCH   1  18
ATOM     18  C19 ZIN A   1      19.477   1.208   9.647  0.00  0.00    -0.027 A 
ATOM     19  C28 ZIN A   1      19.615   1.661  10.942  0.00  0.00     0.029 A 
ATOM     20  C24 ZIN A   1      19.134   2.925  11.292  0.00  0.00     0.068 A 
ATOM     21  C22 ZIN A   1      18.506   3.720  10.324  0.00  0.00     0.122 A 
ATOM     22  C21 ZIN A   1      18.373   3.246   9.027  0.00  0.00     0.041 A 
ATOM     23  O23 ZIN A   1      18.032   4.948  10.652  0.00  0.00    -0.191 OA
ATOM     24  C20 ZIN A   1      18.856   1.996   8.693  0.00  0.00     0.012 A 
BRANCH  20  25
ATOM     25  C25 ZIN A   1      19.283   3.418  12.675  0.00  0.00     0.252 C 
ATOM     26  N26 ZIN A   1      19.925   4.579  12.910  0.00  0.00    -0.366 N 
ATOM     27  H46 ZIN A   1      20.289   5.091  12.171  0.00  0.00     0.159 HD
ATOM     28  H47 ZIN A   1      20.023   4.903  13.819  0.00  0.00     0.159 HD
ATOM     29  O27 ZIN A   1      18.825   2.777  13.601  0.00  0.00    -0.268 OA
ENDBRANCH  20  25
ENDBRANCH   1  18
TORSDOF 9
ENDMDL
