MODEL 1
REMARK VINA RESULT:      -7.1      0.000      0.000
REMARK  5 active torsions:
REMARK  status: ('A' for Active; 'I' for Inactive)
REMARK    1  A    between atoms: N10_10  and  C11_11 
REMARK    2  A    between atoms: C14_13  and  C16_14 
REMARK    3  A    between atoms: C16_14  and  O17_15 
REMARK    4  A    between atoms: C18_16  and  O20_17 
REMARK    5  A    between atoms: C21_18  and  O23_19 
ROOT
ATOM      1  C11 <0> d   1      19.569  -0.596   9.751  0.00  0.00     0.262 C 
ATOM      2  O13 <0> d   1      18.373  -1.388   9.913  0.00  0.00    -0.353 OA
ATOM      3  C14 <0> d   1      18.736  -2.547  10.681  0.00  0.00     0.179 C 
ATOM      4  C18 <0> d   1      19.956  -2.162  11.541  0.00  0.00     0.182 C 
ATOM      5  C21 <0> d   1      20.265  -0.699  11.132  0.00  0.00     0.198 C 
ENDROOT
BRANCH   1   6
ATOM      6  N10 <0> d   1      19.230   0.796   9.447  0.00  0.00    -0.294 N 
ATOM      7  C6  <0> d   1      18.621   1.683  10.292  0.00  0.00     0.169 A 
ATOM      8  N5  <0> d   1      18.162   1.613  11.550  0.00  0.00    -0.223 NA
ATOM      9  C7  <0> d   1      18.502   2.879   9.578  0.00  0.00     0.172 A 
ATOM     10  C4  <0> d   1      17.609   2.645  12.125  0.00  0.00     0.212 A 
ATOM     11  N3  <0> d   1      17.468   3.836  11.491  0.00  0.00    -0.316 N 
ATOM     12  C2  <0> d   1      17.904   3.992  10.222  0.00  0.00     0.279 A 
ATOM     13  H24 <0> d   1      17.052   4.581  11.953  0.00  0.00     0.170 HD
ATOM     14  O1  <0> d   1      17.783   5.058   9.644  0.00  0.00    -0.265 OA
ATOM     15  N8  <0> d   1      19.039   2.673   8.354  0.00  0.00    -0.234 NA
ATOM     16  C9  <0> d   1      19.472   1.447   8.274  0.00  0.00     0.214 A 
ENDBRANCH   1   6
BRANCH   5  17
ATOM     17  O23 <0> d   1      21.674  -0.488  11.017  0.00  0.00    -0.388 OA
ATOM     18  H31 <0> d   1      21.927   0.083  10.279  0.00  0.00     0.210 HD
ENDBRANCH   5  17
BRANCH   4  19
ATOM     19  O20 <0> d   1      21.067  -3.010  11.241  0.00  0.00    -0.390 OA
ATOM     20  H30 <0> d   1      21.926  -2.630  11.472  0.00  0.00     0.210 HD
ENDBRANCH   4  19
BRANCH   3  21
ATOM     21  C16 <0> d   1      17.571  -2.961  11.582  0.00  0.00     0.198 C 
BRANCH  21  22
ATOM     22  O17 <0> d   1      16.836  -1.799  11.972  0.00  0.00    -0.398 OA
ATOM     23  H29 <0> d   1      16.224  -1.477  11.296  0.00  0.00     0.209 HD
ENDBRANCH  21  22
ENDBRANCH   3  21
TORSDOF 5
ENDMDL
MODEL 2
REMARK VINA RESULT:      -7.0      3.033      4.559
REMARK  5 active torsions:
REMARK  status: ('A' for Active; 'I' for Inactive)
REMARK    1  A    between atoms: N10_10  and  C11_11 
REMARK    2  A    between atoms: C14_13  and  C16_14 
REMARK    3  A    between atoms: C16_14  and  O17_15 
REMARK    4  A    between atoms: C18_16  and  O20_17 
REMARK    5  A    between atoms: C21_18  and  O23_19 
ROOT
ATOM      1  C11 <0> d   1      19.146  -1.110   9.861  0.00  0.00     0.262 C 
ATOM      2  O13 <0> d   1      17.825  -1.022  10.437  0.00  0.00    -0.353 OA
ATOM      3  C14 <0> d   1      17.987  -1.040  11.866  0.00  0.00     0.179 C 
ATOM      4  C18 <0> d   1      19.389  -0.478  12.173  0.00  0.00     0.182 C 
ATOM      5  C21 <0> d   1      20.005  -0.203  10.778  0.00  0.00     0.198 C 
ENDROOT
BRANCH   1   6
ATOM      6  N10 <0> d   1      19.145  -0.601   8.487  0.00  0.00    -0.294 N 
ATOM      7  C6  <0> d   1      19.180  -1.354   7.346  0.00  0.00     0.169 A 
ATOM      8  N5  <0> d   1      19.226  -2.670   7.094  0.00  0.00    -0.223 NA
ATOM      9  C7  <0> d   1      19.162  -0.447   6.282  0.00  0.00     0.172 A 
ATOM     10  C4  <0> d   1      19.251  -3.123   5.871  0.00  0.00     0.212 A 
ATOM     11  N3  <0> d   1      19.230  -2.298   4.794  0.00  0.00    -0.316 N 
ATOM     12  C2  <0> d   1      19.184  -0.958   4.960  0.00  0.00     0.279 A 
ATOM     13  H24 <0> d   1      19.249  -2.673   3.899  0.00  0.00     0.170 HD
ATOM     14  O1  <0> d   1      19.164  -0.208   3.999  0.00  0.00    -0.265 OA
ATOM     15  N8  <0> d   1      19.115   0.796   6.814  0.00  0.00    -0.234 NA
ATOM     16  C9  <0> d   1      19.102   0.709   8.113  0.00  0.00     0.214 A 
ENDBRANCH   1   6
BRANCH   5  17
ATOM     17  O23 <0> d   1      21.381  -0.588  10.743  0.00  0.00    -0.388 OA
ATOM     18  H31 <0> d   1      21.995   0.153  10.645  0.00  0.00     0.210 HD
ENDBRANCH   5  17
BRANCH   4  19
ATOM     19  O20 <0> d   1      20.170  -1.443  12.883  0.00  0.00    -0.390 OA
ATOM     20  H30 <0> d   1      20.941  -1.760  12.395  0.00  0.00     0.210 HD
ENDBRANCH   4  19
BRANCH   3  21
ATOM     21  C16 <0> d   1      16.917  -0.164  12.521  0.00  0.00     0.198 C 
BRANCH  21  22
ATOM     22  O17 <0> d   1      15.911   0.158  11.559  0.00  0.00    -0.398 OA
ATOM     23  H29 <0> d   1      15.288   0.836  11.854  0.00  0.00     0.209 HD
ENDBRANCH  21  22
ENDBRANCH   3  21
TORSDOF 5
ENDMDL
MODEL 3
REMARK VINA RESULT:      -6.9      2.859      4.960
REMARK  5 active torsions:
REMARK  status: ('A' for Active; 'I' for Inactive)
REMARK    1  A    between atoms: N10_10  and  C11_11 
REMARK    2  A    between atoms: C14_13  and  C16_14 
REMARK    3  A    between atoms: C16_14  and  O17_15 
REMARK    4  A    between atoms: C18_16  and  O20_17 
REMARK    5  A    between atoms: C21_18  and  O23_19 
ROOT
ATOM      1  C11 <0> d   1      18.330  -0.726   9.962  0.00  0.00     0.262 C 
ATOM      2  O13 <0> d   1      19.319   0.245  10.367  0.00  0.00    -0.353 OA
ATOM      3  C14 <0> d   1      19.236   0.359  11.797  0.00  0.00     0.179 C 
ATOM      4  C18 <0> d   1      18.689  -0.979  12.331  0.00  0.00     0.182 C 
ATOM      5  C21 <0> d   1      18.424  -1.820  11.056  0.00  0.00     0.198 C 
ENDROOT
BRANCH   1   6
ATOM      6  N10 <0> d   1      18.661  -1.282   8.647  0.00  0.00    -0.294 N 
ATOM      7  C6  <0> d   1      18.869  -0.571   7.498  0.00  0.00     0.169 A 
ATOM      8  N5  <0> d   1      18.847   0.734   7.187  0.00  0.00    -0.223 NA
ATOM      9  C7  <0> d   1      19.155  -1.513   6.505  0.00  0.00     0.172 A 
ATOM     10  C4  <0> d   1      19.092   1.143   5.973  0.00  0.00     0.212 A 
ATOM     11  N3  <0> d   1      19.382   0.281   4.965  0.00  0.00    -0.316 N 
ATOM     12  C2  <0> d   1      19.425  -1.049   5.193  0.00  0.00     0.279 A 
ATOM     13  H24 <0> d   1      19.558   0.624   4.074  0.00  0.00     0.170 HD
ATOM     14  O1  <0> d   1      19.685  -1.831   4.294  0.00  0.00    -0.265 OA
ATOM     15  N8  <0> d   1      19.112  -2.734   7.085  0.00  0.00    -0.234 NA
ATOM     16  C9  <0> d   1      18.824  -2.602   8.349  0.00  0.00     0.214 A 
ENDBRANCH   1   6
BRANCH   5  17
ATOM     17  O23 <0> d   1      17.198  -2.545  11.167  0.00  0.00    -0.388 OA
ATOM     18  H31 <0> d   1      16.407  -1.996  11.078  0.00  0.00     0.210 HD
ENDBRANCH   5  17
BRANCH   4  19
ATOM     19  O20 <0> d   1      17.472  -0.770  13.052  0.00  0.00    -0.390 OA
ATOM     20  H30 <0> d   1      16.837  -0.203  12.595  0.00  0.00     0.210 HD
ENDBRANCH   4  19
BRANCH   3  21
ATOM     21  C16 <0> d   1      20.626   0.625  12.379  0.00  0.00     0.198 C 
BRANCH  21  22
ATOM     22  O17 <0> d   1      21.613  -0.006  11.561  0.00  0.00    -0.398 OA
ATOM     23  H29 <0> d   1      21.392  -0.913  11.308  0.00  0.00     0.209 HD
ENDBRANCH  21  22
ENDBRANCH   3  21
TORSDOF 5
ENDMDL
MODEL 4
REMARK VINA RESULT:      -6.9      2.749      4.321
REMARK  5 active torsions:
REMARK  status: ('A' for Active; 'I' for Inactive)
REMARK    1  A    between atoms: N10_10  and  C11_11 
REMARK    2  A    between atoms: C14_13  and  C16_14 
REMARK    3  A    between atoms: C16_14  and  O17_15 
REMARK    4  A    between atoms: C18_16  and  O20_17 
REMARK    5  A    between atoms: C21_18  and  O23_19 
ROOT
ATOM      1  C11 <0> d   1      19.322  -1.551  10.224  0.00  0.00     0.262 C 
ATOM      2  O13 <0> d   1      18.003  -1.183  10.681  0.00  0.00    -0.353 OA
ATOM      3  C14 <0> d   1      18.165  -0.521  11.946  0.00  0.00     0.179 C 
ATOM      4  C18 <0> d   1      19.575   0.102  11.959  0.00  0.00     0.182 C 
ATOM      5  C21 <0> d   1      20.194  -0.328  10.605  0.00  0.00     0.198 C 
ENDROOT
BRANCH   1   6
ATOM      6  N10 <0> d   1      19.328  -1.758   8.774  0.00  0.00    -0.294 N 
ATOM      7  C6  <0> d   1      19.234  -0.784   7.818  0.00  0.00     0.169 A 
ATOM      8  N5  <0> d   1      19.112   0.551   7.850  0.00  0.00    -0.223 NA
ATOM      9  C7  <0> d   1      19.283  -1.444   6.586  0.00  0.00     0.172 A 
ATOM     10  C4  <0> d   1      19.042   1.250   6.752  0.00  0.00     0.212 A 
ATOM     11  N3  <0> d   1      19.090   0.673   5.524  0.00  0.00    -0.316 N 
ATOM     12  C2  <0> d   1      19.212  -0.667   5.402  0.00  0.00     0.279 A 
ATOM     13  H24 <0> d   1      19.036   1.226   4.729  0.00  0.00     0.170 HD
ATOM     14  O1  <0> d   1      19.257  -1.195   4.305  0.00  0.00    -0.265 OA
ATOM     15  N8  <0> d   1      19.407  -2.766   6.843  0.00  0.00    -0.234 NA
ATOM     16  C9  <0> d   1      19.437  -2.955   8.131  0.00  0.00     0.214 A 
ENDBRANCH   1   6
BRANCH   5  17
ATOM     17  O23 <0> d   1      21.564  -0.702  10.766  0.00  0.00    -0.388 OA
ATOM     18  H31 <0> d   1      22.045  -0.165  11.411  0.00  0.00     0.210 HD
ENDBRANCH   5  17
BRANCH   4  19
ATOM     19  O20 <0> d   1      20.342  -0.419  13.047  0.00  0.00    -0.390 OA
ATOM     20  H30 <0> d   1      19.901  -0.355  13.905  0.00  0.00     0.210 HD
ENDBRANCH   4  19
BRANCH   3  21
ATOM     21  C16 <0> d   1      17.108   0.575  12.099  0.00  0.00     0.198 C 
BRANCH  21  22
ATOM     22  O17 <0> d   1      15.874   0.127  11.535  0.00  0.00    -0.398 OA
ATOM     23  H29 <0> d   1      15.483  -0.629  11.995  0.00  0.00     0.209 HD
ENDBRANCH  21  22
ENDBRANCH   3  21
TORSDOF 5
ENDMDL
MODEL 5
REMARK VINA RESULT:      -6.9      2.976      5.054
REMARK  5 active torsions:
REMARK  status: ('A' for Active; 'I' for Inactive)
REMARK    1  A    between atoms: N10_10  and  C11_11 
REMARK    2  A    between atoms: C14_13  and  C16_14 
REMARK    3  A    between atoms: C16_14  and  O17_15 
REMARK    4  A    between atoms: C18_16  and  O20_17 
REMARK    5  A    between atoms: C21_18  and  O23_19 
ROOT
ATOM      1  C11 <0> d   1      19.045  -0.173  10.134  0.00  0.00     0.262 C 
ATOM      2  O13 <0> d   1      18.642   1.146  10.560  0.00  0.00    -0.353 OA
ATOM      3  C14 <0> d   1      19.080   1.301  11.921  0.00  0.00     0.179 C 
ATOM      4  C18 <0> d   1      20.299   0.378  12.116  0.00  0.00     0.182 C 
ATOM      5  C21 <0> d   1      20.456  -0.340  10.752  0.00  0.00     0.198 C 
ENDROOT
BRANCH   1   6
ATOM      6  N10 <0> d   1      19.110  -0.245   8.672  0.00  0.00    -0.294 N 
ATOM      7  C6  <0> d   1      19.216  -1.384   7.922  0.00  0.00     0.169 A 
ATOM      8  N5  <0> d   1      19.295  -2.691   8.212  0.00  0.00    -0.223 NA
ATOM      9  C7  <0> d   1      19.243  -0.969   6.587  0.00  0.00     0.172 A 
ATOM     10  C4  <0> d   1      19.392  -3.587   7.269  0.00  0.00     0.212 A 
ATOM     11  N3  <0> d   1      19.417  -3.253   5.954  0.00  0.00    -0.316 N 
ATOM     12  C2  <0> d   1      19.342  -1.958   5.576  0.00  0.00     0.279 A 
ATOM     13  H24 <0> d   1      19.490  -3.948   5.282  0.00  0.00     0.170 HD
ATOM     14  O1  <0> d   1      19.363  -1.647   4.398  0.00  0.00    -0.265 OA
ATOM     15  N8  <0> d   1      19.149   0.380   6.583  0.00  0.00    -0.234 NA
ATOM     16  C9  <0> d   1      19.068   0.810   7.810  0.00  0.00     0.214 A 
ENDBRANCH   1   6
BRANCH   5  17
ATOM     17  O23 <0> d   1      20.778  -1.721  10.936  0.00  0.00    -0.388 OA
ATOM     18  H31 <0> d   1      20.131  -2.330  10.554  0.00  0.00     0.210 HD
ENDBRANCH   5  17
BRANCH   4  19
ATOM     19  O20 <0> d   1      20.047  -0.571  13.154  0.00  0.00    -0.390 OA
ATOM     20  H30 <0> d   1      19.123  -0.612  13.434  0.00  0.00     0.210 HD
ENDBRANCH   4  19
BRANCH   3  21
ATOM     21  C16 <0> d   1      19.478   2.756  12.177  0.00  0.00     0.198 C 
BRANCH  21  22
ATOM     22  O17 <0> d   1      20.799   2.982  11.682  0.00  0.00    -0.398 OA
ATOM     23  H29 <0> d   1      20.910   3.832  11.234  0.00  0.00     0.209 HD
ENDBRANCH  21  22
ENDBRANCH   3  21
TORSDOF 5
ENDMDL
MODEL 6
REMARK VINA RESULT:      -6.9      2.481      5.266
REMARK  5 active torsions:
REMARK  status: ('A' for Active; 'I' for Inactive)
REMARK    1  A    between atoms: N10_10  and  C11_11 
REMARK    2  A    between atoms: C14_13  and  C16_14 
REMARK    3  A    between atoms: C16_14  and  O17_15 
REMARK    4  A    between atoms: C18_16  and  O20_17 
REMARK    5  A    between atoms: C21_18  and  O23_19 
ROOT
ATOM      1  C11 <0> d   1      18.548   1.931  10.853  0.00  0.00     0.262 C 
ATOM      2  O13 <0> d   1      17.372   2.763  10.758  0.00  0.00    -0.353 OA
ATOM      3  C14 <0> d   1      17.484   3.768  11.780  0.00  0.00     0.179 C 
ATOM      4  C18 <0> d   1      18.986   3.970  12.060  0.00  0.00     0.182 C 
ATOM      5  C21 <0> d   1      19.688   2.942  11.136  0.00  0.00     0.198 C 
ENDROOT
BRANCH   1   6
ATOM      6  N10 <0> d   1      18.786   1.228   9.590  0.00  0.00    -0.294 N 
ATOM      7  C6  <0> d   1      18.919  -0.124   9.430  0.00  0.00     0.169 A 
ATOM      8  N5  <0> d   1      18.890  -1.173  10.265  0.00  0.00    -0.223 NA
ATOM      9  C7  <0> d   1      19.130  -0.334   8.064  0.00  0.00     0.172 A 
ATOM     10  C4  <0> d   1      19.050  -2.391   9.827  0.00  0.00     0.212 A 
ATOM     11  N3  <0> d   1      19.253  -2.664   8.513  0.00  0.00    -0.316 N 
ATOM     12  C2  <0> d   1      19.296  -1.666   7.605  0.00  0.00     0.279 A 
ATOM     13  H24 <0> d   1      19.368  -3.584   8.225  0.00  0.00     0.170 HD
ATOM     14  O1  <0> d   1      19.477  -1.901   6.422  0.00  0.00    -0.265 OA
ATOM     15  N8  <0> d   1      19.112   0.877   7.463  0.00  0.00    -0.234 NA
ATOM     16  C9  <0> d   1      18.907   1.800   8.359  0.00  0.00     0.214 A 
ENDBRANCH   1   6
BRANCH   5  17
ATOM     17  O23 <0> d   1      20.780   2.313  11.811  0.00  0.00    -0.388 OA
ATOM     18  H31 <0> d   1      20.625   1.384  12.029  0.00  0.00     0.210 HD
ENDBRANCH   5  17
BRANCH   4  19
ATOM     19  O20 <0> d   1      19.281   3.693  13.431  0.00  0.00    -0.390 OA
ATOM     20  H30 <0> d   1      18.658   4.089  14.055  0.00  0.00     0.210 HD
ENDBRANCH   4  19
BRANCH   3  21
ATOM     21  C16 <0> d   1      16.862   5.078  11.292  0.00  0.00     0.198 C 
BRANCH  21  22
ATOM     22  O17 <0> d   1      17.301   5.346   9.959  0.00  0.00    -0.398 OA
ATOM     23  H29 <0> d   1      16.813   4.859   9.280  0.00  0.00     0.209 HD
ENDBRANCH  21  22
ENDBRANCH   3  21
TORSDOF 5
ENDMDL
MODEL 7
REMARK VINA RESULT:      -6.8      4.065      5.835
REMARK  5 active torsions:
REMARK  status: ('A' for Active; 'I' for Inactive)
REMARK    1  A    between atoms: N10_10  and  C11_11 
REMARK    2  A    between atoms: C14_13  and  C16_14 
REMARK    3  A    between atoms: C16_14  and  O17_15 
REMARK    4  A    between atoms: C18_16  and  O20_17 
REMARK    5  A    between atoms: C21_18  and  O23_19 
ROOT
ATOM      1  C11 <0> d   1      18.294   0.905  13.002  0.00  0.00     0.262 C 
ATOM      2  O13 <0> d   1      19.270  -0.076  12.592  0.00  0.00    -0.353 OA
ATOM      3  C14 <0> d   1      19.193  -0.172  11.159  0.00  0.00     0.179 C 
ATOM      4  C18 <0> d   1      18.668   1.180  10.638  0.00  0.00     0.182 C 
ATOM      5  C21 <0> d   1      18.410   2.010  11.921  0.00  0.00     0.198 C 
ENDROOT
BRANCH   1   6
ATOM      6  N10 <0> d   1      18.625   1.441  14.325  0.00  0.00    -0.294 N 
ATOM      7  C6  <0> d   1      18.808   0.715  15.469  0.00  0.00     0.169 A 
ATOM      8  N5  <0> d   1      18.752  -0.591  15.769  0.00  0.00    -0.223 NA
ATOM      9  C7  <0> d   1      19.107   1.642  16.473  0.00  0.00     0.172 A 
ATOM     10  C4  <0> d   1      18.977  -1.017  16.980  0.00  0.00     0.212 A 
ATOM     11  N3  <0> d   1      19.278  -0.172  17.999  0.00  0.00    -0.316 N 
ATOM     12  C2  <0> d   1      19.354   1.159  17.783  0.00  0.00     0.279 A 
ATOM     13  H24 <0> d   1      19.439  -0.527  18.887  0.00  0.00     0.170 HD
ATOM     14  O1  <0> d   1      19.624   1.927  18.691  0.00  0.00    -0.265 OA
ATOM     15  N8  <0> d   1      19.097   2.868  15.904  0.00  0.00    -0.234 NA
ATOM     16  C9  <0> d   1      18.817   2.754  14.637  0.00  0.00     0.214 A 
ENDBRANCH   1   6
BRANCH   5  17
ATOM     17  O23 <0> d   1      17.194   2.754  11.812  0.00  0.00    -0.388 OA
ATOM     18  H31 <0> d   1      16.453   2.370  12.301  0.00  0.00     0.210 HD
ENDBRANCH   5  17
BRANCH   4  19
ATOM     19  O20 <0> d   1      17.452   0.996   9.909  0.00  0.00    -0.390 OA
ATOM     20  H30 <0> d   1      17.283   1.681   9.248  0.00  0.00     0.210 HD
ENDBRANCH   4  19
BRANCH   3  21
ATOM     21  C16 <0> d   1      20.582  -0.453  10.582  0.00  0.00     0.198 C 
BRANCH  21  22
ATOM     22  O17 <0> d   1      21.579  -0.051  11.523  0.00  0.00    -0.398 OA
ATOM     23  H29 <0> d   1      22.388   0.287  11.117  0.00  0.00     0.209 HD
ENDBRANCH  21  22
ENDBRANCH   3  21
TORSDOF 5
ENDMDL
MODEL 8
REMARK VINA RESULT:      -6.8      2.265      3.162
REMARK  5 active torsions:
REMARK  status: ('A' for Active; 'I' for Inactive)
REMARK    1  A    between atoms: N10_10  and  C11_11 
REMARK    2  A    between atoms: C14_13  and  C16_14 
REMARK    3  A    between atoms: C16_14  and  O17_15 
REMARK    4  A    between atoms: C18_16  and  O20_17 
REMARK    5  A    between atoms: C21_18  and  O23_19 
ROOT
ATOM      1  C11 <0> d   1      19.676   1.908  10.696  0.00  0.00     0.262 C 
ATOM      2  O13 <0> d   1      19.315   1.296   9.440  0.00  0.00    -0.353 OA
ATOM      3  C14 <0> d   1      20.036   0.055   9.354  0.00  0.00     0.179 C 
ATOM      4  C18 <0> d   1      20.313  -0.413  10.796  0.00  0.00     0.182 C 
ATOM      5  C21 <0> d   1      19.727   0.714  11.684  0.00  0.00     0.198 C 
ENDROOT
BRANCH   1   6
ATOM      6  N10 <0> d   1      18.657   2.876  11.111  0.00  0.00    -0.294 N 
ATOM      7  C6  <0> d   1      18.764   3.773  12.138  0.00  0.00     0.169 A 
ATOM      8  N5  <0> d   1      19.718   4.059  13.036  0.00  0.00    -0.223 NA
ATOM      9  C7  <0> d   1      17.560   4.483  12.159  0.00  0.00     0.172 A 
ATOM     10  C4  <0> d   1      19.547   4.992  13.930  0.00  0.00     0.212 A 
ATOM     11  N3  <0> d   1      18.405   5.723  14.002  0.00  0.00    -0.316 N 
ATOM     12  C2  <0> d   1      17.394   5.499  13.135  0.00  0.00     0.279 A 
ATOM     13  H24 <0> d   1      18.315   6.409  14.682  0.00  0.00     0.170 HD
ATOM     14  O1  <0> d   1      16.365   6.150  13.191  0.00  0.00    -0.265 OA
ATOM     15  N8  <0> d   1      16.789   3.999  11.159  0.00  0.00    -0.234 NA
ATOM     16  C9  <0> d   1      17.434   3.054  10.537  0.00  0.00     0.214 A 
ENDBRANCH   1   6
BRANCH   5  17
ATOM     17  O23 <0> d   1      20.589   0.995  12.788  0.00  0.00    -0.388 OA
ATOM     18  H31 <0> d   1      20.253   0.681  13.639  0.00  0.00     0.210 HD
ENDBRANCH   5  17
BRANCH   4  19
ATOM     19  O20 <0> d   1      21.720  -0.543  11.018  0.00  0.00    -0.390 OA
ATOM     20  H30 <0> d   1      21.953  -0.810  11.917  0.00  0.00     0.210 HD
ENDBRANCH   4  19
BRANCH   3  21
ATOM     21  C16 <0> d   1      19.191  -0.988   8.619  0.00  0.00     0.198 C 
BRANCH  21  22
ATOM     22  O17 <0> d   1      19.635  -2.298   8.977  0.00  0.00    -0.398 OA
ATOM     23  H29 <0> d   1      19.490  -2.521   9.907  0.00  0.00     0.209 HD
ENDBRANCH  21  22
ENDBRANCH   3  21
TORSDOF 5
ENDMDL
MODEL 9
REMARK VINA RESULT:      -6.8      3.614      4.986
REMARK  5 active torsions:
REMARK  status: ('A' for Active; 'I' for Inactive)
REMARK    1  A    between atoms: N10_10  and  C11_11 
REMARK    2  A    between atoms: C14_13  and  C16_14 
REMARK    3  A    between atoms: C16_14  and  O17_15 
REMARK    4  A    between atoms: C18_16  and  O20_17 
REMARK    5  A    between atoms: C21_18  and  O23_19 
ROOT
ATOM      1  C11 <0> d   1      19.339   0.939  12.389  0.00  0.00     0.262 C 
ATOM      2  O13 <0> d   1      18.215   0.167  11.916  0.00  0.00    -0.353 OA
ATOM      3  C14 <0> d   1      18.672  -0.591  10.783  0.00  0.00     0.179 C 
ATOM      4  C18 <0> d   1      20.189  -0.800  10.955  0.00  0.00     0.182 C 
ATOM      5  C21 <0> d   1      20.534  -0.039  12.260  0.00  0.00     0.198 C 
ENDROOT
BRANCH   1   6
ATOM      6  N10 <0> d   1      19.143   1.333  13.786  0.00  0.00    -0.294 N 
ATOM      7  C6  <0> d   1      19.083   0.492  14.863  0.00  0.00     0.169 A 
ATOM      8  N5  <0> d   1      19.165  -0.838  15.018  0.00  0.00    -0.223 NA
ATOM      9  C7  <0> d   1      18.888   1.307  15.982  0.00  0.00     0.172 A 
ATOM     10  C4  <0> d   1      19.071  -1.388  16.196  0.00  0.00     0.212 A 
ATOM     11  N3  <0> d   1      18.888  -0.655  17.323  0.00  0.00    -0.316 N 
ATOM     12  C2  <0> d   1      18.795   0.691  17.256  0.00  0.00     0.279 A 
ATOM     13  H24 <0> d   1      18.823  -1.101  18.183  0.00  0.00     0.170 HD
ATOM     14  O1  <0> d   1      18.631   1.359  18.263  0.00  0.00    -0.265 OA
ATOM     15  N8  <0> d   1      18.844   2.586  15.546  0.00  0.00    -0.234 NA
ATOM     16  C9  <0> d   1      18.997   2.606  14.252  0.00  0.00     0.214 A 
ENDBRANCH   1   6
BRANCH   5  17
ATOM     17  O23 <0> d   1      21.768   0.670  12.127  0.00  0.00    -0.388 OA
ATOM     18  H31 <0> d   1      21.717   1.601  12.382  0.00  0.00     0.210 HD
ENDBRANCH   5  17
BRANCH   4  19
ATOM     19  O20 <0> d   1      20.900  -0.241   9.848  0.00  0.00    -0.390 OA
ATOM     20  H30 <0> d   1      20.442  -0.330   9.001  0.00  0.00     0.210 HD
ENDBRANCH   4  19
BRANCH   3  21
ATOM     21  C16 <0> d   1      17.958  -1.943  10.739  0.00  0.00     0.198 C 
BRANCH  21  22
ATOM     22  O17 <0> d   1      16.987  -2.003  11.785  0.00  0.00    -0.398 OA
ATOM     23  H29 <0> d   1      16.072  -1.961  11.475  0.00  0.00     0.209 HD
ENDBRANCH  21  22
ENDBRANCH   3  21
TORSDOF 5
ENDMDL
