MODEL 1
REMARK VINA RESULT:      -8.0      0.000      0.000
REMARK  5 active torsions:
REMARK  status: ('A' for Active; 'I' for Inactive)
REMARK    1  A    between atoms: C2_2  and  C3_3 
REMARK    2  A    between atoms: C13_11  and  C15_12 
REMARK    3  A    between atoms: C15_12  and  O17_13 
REMARK    4  A    between atoms: C15_12  and  C18_14 
REMARK    5  A    between atoms: C21_17  and  O22_18 
ROOT
ATOM      1  C15 ZIN A   1      19.736  -3.662   7.422  0.00  0.00     0.183 C 
ENDROOT
BRANCH   1   2
ATOM      2  C13 ZIN A   1      18.652  -4.741   7.482  0.00  0.00     0.221 C 
ATOM      3  N6  ZIN A   1      17.486  -4.192   8.177  0.00  0.00    -0.063 N 
ATOM      4  C5  ZIN A   1      17.846  -3.765   9.531  0.00  0.00     0.244 C 
ATOM      5  H7  ZIN A   1      17.159  -3.386   7.665  0.00  0.00     0.280 HD
ATOM      6  C8  ZIN A   1      16.409  -5.183   8.218  0.00  0.00     0.236 C 
ATOM      7  C3  ZIN A   1      18.355  -4.960  10.340  0.00  0.00     0.037 C 
ATOM      8  C10 ZIN A   1      18.314  -6.213   9.455  0.00  0.00    -0.002 C 
ATOM      9  C9  ZIN A   1      16.869  -6.427   8.984  0.00  0.00     0.033 C 
ATOM     10  C12 ZIN A   1      19.192  -5.958   8.222  0.00  0.00     0.041 C 
BRANCH   7  11
ATOM     11  C2  ZIN A   1      19.771  -4.702  10.785  0.00  0.00    -0.030 C 
ATOM     12  C1  ZIN A   1      20.060  -3.608  11.445  0.00  0.00     0.007 C 
ENDBRANCH   7  11
ENDBRANCH   1   2
BRANCH   1  13
ATOM     13  O17 ZIN A   1      20.958  -4.239   6.958  0.00  0.00    -0.389 OA
ATOM     14  H41 ZIN A   1      21.382  -3.741   6.246  0.00  0.00     0.210 HD
ENDBRANCH   1  13
BRANCH   1  15
ATOM     15  C18 ZIN A   1      19.304  -2.569   6.479  0.00  0.00    -0.014 A 
ATOM     16  C29 ZIN A   1      19.013  -2.845   5.173  0.00  0.00     0.030 A 
ATOM     17  C28 ZIN A   1      18.612  -1.820   4.319  0.00  0.00     0.118 A 
ATOM     18  N27 ZIN A   1      18.513  -0.579   4.729  0.00  0.00    -0.260 NA
ATOM     19  C26 ZIN A   1      18.789  -0.240   5.993  0.00  0.00     0.067 A 
ATOM     20  C19 ZIN A   1      19.198  -1.236   6.916  0.00  0.00     0.004 A 
ATOM     21  C25 ZIN A   1      18.681   1.093   6.426  0.00  0.00     0.035 A 
ATOM     22  C20 ZIN A   1      19.487  -0.876   8.241  0.00  0.00     0.051 A 
ATOM     23  C21 ZIN A   1      19.372   0.429   8.627  0.00  0.00     0.069 A 
ATOM     24  C24 ZIN A   1      18.968   1.411   7.716  0.00  0.00     0.039 A 
BRANCH  23  25
ATOM     25  O22 ZIN A   1      19.653   0.777   9.909  0.00  0.00    -0.356 OA
ATOM     26  C23 ZIN A   1      19.236   2.077  10.335  0.00  0.00     0.210 C 
ENDBRANCH  23  25
ENDBRANCH   1  15
TORSDOF 5
ENDMDL
MODEL 2
REMARK VINA RESULT:      -7.9      3.098      4.478
REMARK  5 active torsions:
REMARK  status: ('A' for Active; 'I' for Inactive)
REMARK    1  A    between atoms: C2_2  and  C3_3 
REMARK    2  A    between atoms: C13_11  and  C15_12 
REMARK    3  A    between atoms: C15_12  and  O17_13 
REMARK    4  A    between atoms: C15_12  and  C18_14 
REMARK    5  A    between atoms: C21_17  and  O22_18 
ROOT
ATOM      1  C15 ZIN A   1      20.206  -0.430  10.969  0.00  0.00     0.183 C 
ENDROOT
BRANCH   1   2
ATOM      2  C13 ZIN A   1      19.577  -1.782  10.622  0.00  0.00     0.221 C 
ATOM      3  N6  ZIN A   1      18.122  -1.655  10.715  0.00  0.00    -0.063 N 
ATOM      4  C5  ZIN A   1      17.724  -1.248  12.065  0.00  0.00     0.244 C 
ATOM      5  H7  ZIN A   1      17.820  -0.945  10.066  0.00  0.00     0.280 HD
ATOM      6  C8  ZIN A   1      17.479  -2.920  10.349  0.00  0.00     0.236 C 
ATOM      7  C3  ZIN A   1      18.171  -2.300  13.083  0.00  0.00     0.037 C 
ATOM      8  C10 ZIN A   1      18.887  -3.437  12.342  0.00  0.00    -0.002 C 
ATOM      9  C9  ZIN A   1      17.918  -4.029  11.310  0.00  0.00     0.033 C 
ATOM     10  C12 ZIN A   1      20.086  -2.840  11.592  0.00  0.00     0.041 C 
BRANCH   7  11
ATOM     11  C2  ZIN A   1      19.113  -1.672  14.077  0.00  0.00    -0.030 C 
ATOM     12  C1  ZIN A   1      18.665  -1.265  15.238  0.00  0.00     0.007 C 
ENDBRANCH   7  11
ENDBRANCH   1   2
BRANCH   1  13
ATOM     13  O17 ZIN A   1      21.628  -0.525  10.860  0.00  0.00    -0.389 OA
ATOM     14  H41 ZIN A   1      22.109  -0.004  11.518  0.00  0.00     0.210 HD
ENDBRANCH   1  13
BRANCH   1  15
ATOM     15  C18 ZIN A   1      19.697   0.620  10.016  0.00  0.00    -0.014 A 
ATOM     16  C29 ZIN A   1      19.764   0.432   8.664  0.00  0.00     0.030 A 
ATOM     17  C28 ZIN A   1      19.284   1.414   7.802  0.00  0.00     0.118 A 
ATOM     18  N27 ZIN A   1      18.771   2.535   8.249  0.00  0.00    -0.260 NA
ATOM     19  C26 ZIN A   1      18.682   2.785   9.559  0.00  0.00     0.067 A 
ATOM     20  C19 ZIN A   1      19.147   1.824  10.492  0.00  0.00     0.004 A 
ATOM     21  C25 ZIN A   1      18.132   3.989  10.031  0.00  0.00     0.035 A 
ATOM     22  C20 ZIN A   1      19.052   2.090  11.867  0.00  0.00     0.051 A 
ATOM     23  C21 ZIN A   1      18.513   3.271  12.291  0.00  0.00     0.069 A 
ATOM     24  C24 ZIN A   1      18.053   4.218  11.370  0.00  0.00     0.039 A 
BRANCH  23  25
ATOM     25  O22 ZIN A   1      18.421   3.529  13.621  0.00  0.00    -0.356 OA
ATOM     26  C23 ZIN A   1      18.328   2.402  14.497  0.00  0.00     0.210 C 
ENDBRANCH  23  25
ENDBRANCH   1  15
TORSDOF 5
ENDMDL
MODEL 3
REMARK VINA RESULT:      -7.7      2.171      6.239
REMARK  5 active torsions:
REMARK  status: ('A' for Active; 'I' for Inactive)
REMARK    1  A    between atoms: C2_2  and  C3_3 
REMARK    2  A    between atoms: C13_11  and  C15_12 
REMARK    3  A    between atoms: C15_12  and  O17_13 
REMARK    4  A    between atoms: C15_12  and  C18_14 
REMARK    5  A    between atoms: C21_17  and  O22_18 
ROOT
ATOM      1  C15 ZIN A   1      20.123  -0.647  10.563  0.00  0.00     0.183 C 
ENDROOT
BRANCH   1   2
ATOM      2  C13 ZIN A   1      19.401   0.108  11.683  0.00  0.00     0.221 C 
ATOM      3  N6  ZIN A   1      17.963   0.087  11.406  0.00  0.00    -0.063 N 
ATOM      4  C5  ZIN A   1      17.677   0.712  10.113  0.00  0.00     0.244 C 
ATOM      5  H7  ZIN A   1      17.658  -0.874  11.371  0.00  0.00     0.280 HD
ATOM      6  C8  ZIN A   1      17.232   0.766  12.479  0.00  0.00     0.236 C 
ATOM      7  C3  ZIN A   1      18.133   2.173  10.124  0.00  0.00     0.037 C 
ATOM      8  C10 ZIN A   1      18.736   2.495  11.497  0.00  0.00    -0.002 C 
ATOM      9  C9  ZIN A   1      17.672   2.230  12.569  0.00  0.00     0.033 C 
ATOM     10  C12 ZIN A   1      19.914   1.541  11.738  0.00  0.00     0.041 C 
BRANCH   7  11
ATOM     11  C2  ZIN A   1      19.170   2.387   9.052  0.00  0.00    -0.030 C 
ATOM     12  C1  ZIN A   1      19.118   1.692   7.943  0.00  0.00     0.007 C 
ENDBRANCH   7  11
ENDBRANCH   1   2
BRANCH   1  13
ATOM     13  O17 ZIN A   1      21.530  -0.630  10.809  0.00  0.00    -0.389 OA
ATOM     14  H41 ZIN A   1      21.774  -0.858  11.717  0.00  0.00     0.210 HD
ENDBRANCH   1  13
BRANCH   1  15
ATOM     15  C18 ZIN A   1      19.635  -2.072  10.524  0.00  0.00    -0.014 A 
ATOM     16  C29 ZIN A   1      19.599  -2.832  11.659  0.00  0.00     0.030 A 
ATOM     17  C28 ZIN A   1      19.141  -4.146  11.600  0.00  0.00     0.118 A 
ATOM     18  N27 ZIN A   1      18.746  -4.691  10.475  0.00  0.00    -0.260 NA
ATOM     19  C26 ZIN A   1      18.762  -4.004   9.327  0.00  0.00     0.067 A 
ATOM     20  C19 ZIN A   1      19.212  -2.659   9.318  0.00  0.00     0.004 A 
ATOM     21  C25 ZIN A   1      18.338  -4.594   8.124  0.00  0.00     0.035 A 
ATOM     22  C20 ZIN A   1      19.227  -1.941   8.112  0.00  0.00     0.051 A 
ATOM     23  C21 ZIN A   1      18.809  -2.547   6.961  0.00  0.00     0.069 A 
ATOM     24  C24 ZIN A   1      18.365  -3.873   6.971  0.00  0.00     0.039 A 
BRANCH  23  25
ATOM     25  O22 ZIN A   1      18.824  -1.853   5.793  0.00  0.00    -0.356 OA
ATOM     26  C23 ZIN A   1      18.952  -2.612   4.588  0.00  0.00     0.210 C 
ENDBRANCH  23  25
ENDBRANCH   1  15
TORSDOF 5
ENDMDL
MODEL 4
REMARK VINA RESULT:      -7.7      2.866      5.420
REMARK  5 active torsions:
REMARK  status: ('A' for Active; 'I' for Inactive)
REMARK    1  A    between atoms: C2_2  and  C3_3 
REMARK    2  A    between atoms: C13_11  and  C15_12 
REMARK    3  A    between atoms: C15_12  and  O17_13 
REMARK    4  A    between atoms: C15_12  and  C18_14 
REMARK    5  A    between atoms: C21_17  and  O22_18 
ROOT
ATOM      1  C15 ZIN A   1      17.296  -0.002  11.136  0.00  0.00     0.183 C 
ENDROOT
BRANCH   1   2
ATOM      2  C13 ZIN A   1      18.036   0.162  12.466  0.00  0.00     0.221 C 
ATOM      3  N6  ZIN A   1      19.469  -0.018  12.226  0.00  0.00    -0.063 N 
ATOM      4  C5  ZIN A   1      19.736  -1.343  11.662  0.00  0.00     0.244 C 
ATOM      5  H7  ZIN A   1      19.772   0.679  11.561  0.00  0.00     0.280 HD
ATOM      6  C8  ZIN A   1      20.219   0.173  13.470  0.00  0.00     0.236 C 
ATOM      7  C3  ZIN A   1      19.283  -2.430  12.640  0.00  0.00     0.037 C 
ATOM      8  C10 ZIN A   1      18.702  -1.761  13.892  0.00  0.00    -0.002 C 
ATOM      9  C9  ZIN A   1      19.782  -0.863  14.509  0.00  0.00     0.033 C 
ATOM     10  C12 ZIN A   1      17.526  -0.873  13.459  0.00  0.00     0.041 C 
BRANCH   7  11
ATOM     11  C2  ZIN A   1      18.230  -3.287  11.989  0.00  0.00    -0.030 C 
ATOM     12  C1  ZIN A   1      18.533  -4.489  11.565  0.00  0.00     0.007 C 
ENDBRANCH   7  11
ENDBRANCH   1   2
BRANCH   1  13
ATOM     13  O17 ZIN A   1      15.897   0.205  11.342  0.00  0.00    -0.389 OA
ATOM     14  H41 ZIN A   1      15.624   0.153  12.268  0.00  0.00     0.210 HD
ENDBRANCH   1  13
BRANCH   1  15
ATOM     15  C18 ZIN A   1      17.815   1.008  10.145  0.00  0.00    -0.014 A 
ATOM     16  C29 ZIN A   1      17.937   2.326  10.486  0.00  0.00     0.030 A 
ATOM     17  C28 ZIN A   1      18.422   3.241   9.555  0.00  0.00     0.118 A 
ATOM     18  N27 ZIN A   1      18.762   2.879   8.342  0.00  0.00    -0.260 NA
ATOM     19  C26 ZIN A   1      18.660   1.607   7.943  0.00  0.00     0.067 A 
ATOM     20  C19 ZIN A   1      18.179   0.622   8.842  0.00  0.00     0.004 A 
ATOM     21  C25 ZIN A   1      19.026   1.225   6.640  0.00  0.00     0.035 A 
ATOM     22  C20 ZIN A   1      18.074  -0.712   8.419  0.00  0.00     0.051 A 
ATOM     23  C21 ZIN A   1      18.437  -1.047   7.146  0.00  0.00     0.069 A 
ATOM     24  C24 ZIN A   1      18.913  -0.076   6.259  0.00  0.00     0.039 A 
BRANCH  23  25
ATOM     25  O22 ZIN A   1      18.335  -2.338   6.736  0.00  0.00    -0.356 OA
ATOM     26  C23 ZIN A   1      18.480  -3.350   7.735  0.00  0.00     0.210 C 
ENDBRANCH  23  25
ENDBRANCH   1  15
TORSDOF 5
ENDMDL
MODEL 5
REMARK VINA RESULT:      -7.6      4.643      7.884
REMARK  5 active torsions:
REMARK  status: ('A' for Active; 'I' for Inactive)
REMARK    1  A    between atoms: C2_2  and  C3_3 
REMARK    2  A    between atoms: C13_11  and  C15_12 
REMARK    3  A    between atoms: C15_12  and  O17_13 
REMARK    4  A    between atoms: C15_12  and  C18_14 
REMARK    5  A    between atoms: C21_17  and  O22_18 
ROOT
ATOM      1  C15 ZIN A   1      17.324   0.579  12.154  0.00  0.00     0.183 C 
ENDROOT
BRANCH   1   2
ATOM      2  C13 ZIN A   1      18.138  -0.105  11.052  0.00  0.00     0.221 C 
ATOM      3  N6  ZIN A   1      19.536   0.310  11.180  0.00  0.00    -0.063 N 
ATOM      4  C5  ZIN A   1      19.655   1.765  11.063  0.00  0.00     0.244 C 
ATOM      5  H7  ZIN A   1      19.869   0.035  12.092  0.00  0.00     0.280 HD
ATOM      6  C8  ZIN A   1      20.357  -0.357  10.167  0.00  0.00     0.236 C 
ATOM      7  C3  ZIN A   1      19.152   2.224   9.692  0.00  0.00     0.037 C 
ATOM      8  C10 ZIN A   1      18.692   0.997   8.895  0.00  0.00    -0.002 C 
ATOM      9  C9  ZIN A   1      19.877   0.031   8.765  0.00  0.00     0.033 C 
ATOM     10  C12 ZIN A   1      17.583   0.296   9.691  0.00  0.00     0.041 C 
BRANCH   7  11
ATOM     11  C2  ZIN A   1      17.996   3.174   9.871  0.00  0.00    -0.030 C 
ATOM     12  C1  ZIN A   1      18.025   4.068  10.828  0.00  0.00     0.007 C 
ENDBRANCH   7  11
ENDBRANCH   1   2
BRANCH   1  13
ATOM     13  O17 ZIN A   1      15.962   0.154  12.074  0.00  0.00    -0.389 OA
ATOM     14  H41 ZIN A   1      15.829  -0.780  12.289  0.00  0.00     0.210 HD
ENDBRANCH   1  13
BRANCH   1  15
ATOM     15  C18 ZIN A   1      17.890   0.207  13.500  0.00  0.00    -0.014 A 
ATOM     16  C29 ZIN A   1      18.091  -1.101  13.838  0.00  0.00     0.030 A 
ATOM     17  C28 ZIN A   1      18.619  -1.422  15.087  0.00  0.00     0.118 A 
ATOM     18  N27 ZIN A   1      18.925  -0.499  15.966  0.00  0.00    -0.260 NA
ATOM     19  C26 ZIN A   1      18.747   0.800  15.700  0.00  0.00     0.067 A 
ATOM     20  C19 ZIN A   1      18.218   1.196  14.446  0.00  0.00     0.004 A 
ATOM     21  C25 ZIN A   1      19.076   1.784  16.647  0.00  0.00     0.035 A 
ATOM     22  C20 ZIN A   1      18.033   2.560  14.170  0.00  0.00     0.051 A 
ATOM     23  C21 ZIN A   1      18.362   3.489  15.115  0.00  0.00     0.069 A 
ATOM     24  C24 ZIN A   1      18.885   3.098  16.352  0.00  0.00     0.039 A 
BRANCH  23  25
ATOM     25  O22 ZIN A   1      18.182   4.809  14.850  0.00  0.00    -0.356 OA
ATOM     26  C23 ZIN A   1      16.867   5.223  14.473  0.00  0.00     0.210 C 
ENDBRANCH  23  25
ENDBRANCH   1  15
TORSDOF 5
ENDMDL
MODEL 6
REMARK VINA RESULT:      -7.5      7.034     11.032
REMARK  5 active torsions:
REMARK  status: ('A' for Active; 'I' for Inactive)
REMARK    1  A    between atoms: C2_2  and  C3_3 
REMARK    2  A    between atoms: C13_11  and  C15_12 
REMARK    3  A    between atoms: C15_12  and  O17_13 
REMARK    4  A    between atoms: C15_12  and  C18_14 
REMARK    5  A    between atoms: C21_17  and  O22_18 
ROOT
ATOM      1  C15 ZIN A   1      19.522   3.627  16.098  0.00  0.00     0.183 C 
ENDROOT
BRANCH   1   2
ATOM      2  C13 ZIN A   1      18.566   4.822  16.112  0.00  0.00     0.221 C 
ATOM      3  N6  ZIN A   1      17.359   4.461  15.365  0.00  0.00    -0.063 N 
ATOM      4  C5  ZIN A   1      17.694   4.101  13.986  0.00  0.00     0.244 C 
ATOM      5  H7  ZIN A   1      16.935   3.661  15.810  0.00  0.00     0.280 HD
ATOM      6  C8  ZIN A   1      16.399   5.567  15.391  0.00  0.00     0.236 C 
ATOM      7  C3  ZIN A   1      18.347   5.291  13.277  0.00  0.00     0.037 C 
ATOM      8  C10 ZIN A   1      18.429   6.469  14.256  0.00  0.00    -0.002 C 
ATOM      9  C9  ZIN A   1      17.008   6.806  14.729  0.00  0.00     0.033 C 
ATOM     10  C12 ZIN A   1      19.250   6.024  15.474  0.00  0.00     0.041 C 
BRANCH   7  11
ATOM     11  C2  ZIN A   1      19.733   4.910  12.827  0.00  0.00    -0.030 C 
ATOM     12  C1  ZIN A   1      19.893   4.009  11.889  0.00  0.00     0.007 C 
ENDBRANCH   7  11
ENDBRANCH   1   2
BRANCH   1  13
ATOM     13  O17 ZIN A   1      20.758   3.999  16.711  0.00  0.00    -0.389 OA
ATOM     14  H41 ZIN A   1      21.538   3.813  16.170  0.00  0.00     0.210 HD
ENDBRANCH   1  13
BRANCH   1  15
ATOM     15  C18 ZIN A   1      18.906   2.483  16.860  0.00  0.00    -0.014 A 
ATOM     16  C29 ZIN A   1      18.436   2.659  18.131  0.00  0.00     0.030 A 
ATOM     17  C28 ZIN A   1      17.866   1.588  18.816  0.00  0.00     0.118 A 
ATOM     18  N27 ZIN A   1      17.774   0.395  18.279  0.00  0.00    -0.260 NA
ATOM     19  C26 ZIN A   1      18.220   0.154  17.042  0.00  0.00     0.067 A 
ATOM     20  C19 ZIN A   1      18.806   1.201  16.287  0.00  0.00     0.004 A 
ATOM     21  C25 ZIN A   1      18.118  -1.127  16.472  0.00  0.00     0.035 A 
ATOM     22  C20 ZIN A   1      19.273   0.944  14.989  0.00  0.00     0.051 A 
ATOM     23  C21 ZIN A   1      19.159  -0.313  14.468  0.00  0.00     0.069 A 
ATOM     24  C24 ZIN A   1      18.580  -1.347  15.212  0.00  0.00     0.039 A 
BRANCH  23  25
ATOM     25  O22 ZIN A   1      19.611  -0.563  13.212  0.00  0.00    -0.356 OA
ATOM     26  C23 ZIN A   1      20.408   0.451  12.594  0.00  0.00     0.210 C 
ENDBRANCH  23  25
ENDBRANCH   1  15
TORSDOF 5
ENDMDL
MODEL 7
REMARK VINA RESULT:      -7.5      4.338      6.866
REMARK  5 active torsions:
REMARK  status: ('A' for Active; 'I' for Inactive)
REMARK    1  A    between atoms: C2_2  and  C3_3 
REMARK    2  A    between atoms: C13_11  and  C15_12 
REMARK    3  A    between atoms: C15_12  and  O17_13 
REMARK    4  A    between atoms: C15_12  and  C18_14 
REMARK    5  A    between atoms: C21_17  and  O22_18 
ROOT
ATOM      1  C15 ZIN A   1      20.063   0.454  11.924  0.00  0.00     0.183 C 
ENDROOT
BRANCH   1   2
ATOM      2  C13 ZIN A   1      19.417   0.314  10.543  0.00  0.00     0.221 C 
ATOM      3  N6  ZIN A   1      17.994   0.020  10.723  0.00  0.00    -0.063 N 
ATOM      4  C5  ZIN A   1      17.814  -1.214  11.490  0.00  0.00     0.244 C 
ATOM      5  H7  ZIN A   1      17.573   0.780  11.238  0.00  0.00     0.280 HD
ATOM      6  C8  ZIN A   1      17.330  -0.080   9.421  0.00  0.00     0.236 C 
ATOM      7  C3  ZIN A   1      18.446  -2.392  10.744  0.00  0.00     0.037 C 
ATOM      8  C10 ZIN A   1      19.056  -1.880   9.433  0.00  0.00    -0.002 C 
ATOM      9  C9  ZIN A   1      17.945  -1.221   8.605  0.00  0.00     0.033 C 
ATOM     10  C12 ZIN A   1      20.102  -0.810   9.777  0.00  0.00     0.041 C 
BRANCH   7  11
ATOM     11  C2  ZIN A   1      19.523  -3.010  11.597  0.00  0.00    -0.030 C 
ATOM     12  C1  ZIN A   1      19.986  -4.200  11.307  0.00  0.00     0.007 C 
ENDBRANCH   7  11
ENDBRANCH   1   2
BRANCH   1  13
ATOM     13  O17 ZIN A   1      21.484   0.384  11.794  0.00  0.00    -0.389 OA
ATOM     14  H41 ZIN A   1      21.966   0.869  12.478  0.00  0.00     0.210 HD
ENDBRANCH   1  13
BRANCH   1  15
ATOM     15  C18 ZIN A   1      19.677   1.780  12.526  0.00  0.00    -0.014 A 
ATOM     16  C29 ZIN A   1      19.676   2.919  11.772  0.00  0.00     0.030 A 
ATOM     17  C28 ZIN A   1      19.312   4.133  12.348  0.00  0.00     0.118 A 
ATOM     18  N27 ZIN A   1      18.974   4.225  13.612  0.00  0.00    -0.260 NA
ATOM     19  C26 ZIN A   1      18.960   3.149  14.407  0.00  0.00     0.067 A 
ATOM     20  C19 ZIN A   1      19.314   1.881  13.882  0.00  0.00     0.004 A 
ATOM     21  C25 ZIN A   1      18.597   3.254  15.760  0.00  0.00     0.035 A 
ATOM     22  C20 ZIN A   1      19.298   0.755  14.720  0.00  0.00     0.051 A 
ATOM     23  C21 ZIN A   1      18.942   0.894  16.031  0.00  0.00     0.069 A 
ATOM     24  C24 ZIN A   1      18.591   2.145  16.548  0.00  0.00     0.039 A 
BRANCH  23  25
ATOM     25  O22 ZIN A   1      18.926  -0.196  16.842  0.00  0.00    -0.356 OA
ATOM     26  C23 ZIN A   1      19.298   0.006  18.208  0.00  0.00     0.210 C 
ENDBRANCH  23  25
ENDBRANCH   1  15
TORSDOF 5
ENDMDL
MODEL 8
REMARK VINA RESULT:      -7.4      4.276      7.122
REMARK  5 active torsions:
REMARK  status: ('A' for Active; 'I' for Inactive)
REMARK    1  A    between atoms: C2_2  and  C3_3 
REMARK    2  A    between atoms: C13_11  and  C15_12 
REMARK    3  A    between atoms: C15_12  and  O17_13 
REMARK    4  A    between atoms: C15_12  and  C18_14 
REMARK    5  A    between atoms: C21_17  and  O22_18 
ROOT
ATOM      1  C15 ZIN A   1      18.106  -0.697  12.766  0.00  0.00     0.183 C 
ENDROOT
BRANCH   1   2
ATOM      2  C13 ZIN A   1      18.502  -2.136  12.428  0.00  0.00     0.221 C 
ATOM      3  N6  ZIN A   1      19.824  -2.120  11.801  0.00  0.00    -0.063 N 
ATOM      4  C5  ZIN A   1      19.809  -1.304  10.585  0.00  0.00     0.244 C 
ATOM      5  H7  ZIN A   1      20.481  -1.713  12.450  0.00  0.00     0.280 HD
ATOM      6  C8  ZIN A   1      20.258  -3.486  11.499  0.00  0.00     0.236 C 
ATOM      7  C3  ZIN A   1      18.817  -1.886   9.575  0.00  0.00     0.037 C 
ATOM      8  C10 ZIN A   1      18.170  -3.139  10.179  0.00  0.00    -0.002 C 
ATOM      9  C9  ZIN A   1      19.281  -4.142  10.519  0.00  0.00     0.033 C 
ATOM     10  C12 ZIN A   1      17.468  -2.735  11.483  0.00  0.00     0.041 C 
BRANCH   7  11
ATOM     11  C2  ZIN A   1      17.752  -0.866   9.268  0.00  0.00    -0.030 C 
ATOM     12  C1  ZIN A   1      18.056   0.408   9.234  0.00  0.00     0.007 C 
ENDBRANCH   7  11
ENDBRANCH   1   2
BRANCH   1  13
ATOM     13  O17 ZIN A   1      16.714  -0.511  12.500  0.00  0.00    -0.389 OA
ATOM     14  H41 ZIN A   1      16.532   0.008  11.704  0.00  0.00     0.210 HD
ENDBRANCH   1  13
BRANCH   1  15
ATOM     15  C18 ZIN A   1      18.380  -0.430  14.224  0.00  0.00    -0.014 A 
ATOM     16  C29 ZIN A   1      18.386  -1.449  15.134  0.00  0.00     0.030 A 
ATOM     17  C28 ZIN A   1      18.646  -1.181  16.476  0.00  0.00     0.118 A 
ATOM     18  N27 ZIN A   1      18.877   0.036  16.904  0.00  0.00    -0.260 NA
ATOM     19  C26 ZIN A   1      18.879   1.079  16.067  0.00  0.00     0.067 A 
ATOM     20  C19 ZIN A   1      18.627   0.875  14.687  0.00  0.00     0.004 A 
ATOM     21  C25 ZIN A   1      19.127   2.382  16.534  0.00  0.00     0.035 A 
ATOM     22  C20 ZIN A   1      18.630   1.972  13.812  0.00  0.00     0.051 A 
ATOM     23  C21 ZIN A   1      18.874   3.224  14.300  0.00  0.00     0.069 A 
ATOM     24  C24 ZIN A   1      19.123   3.425  15.661  0.00  0.00     0.039 A 
BRANCH  23  25
ATOM     25  O22 ZIN A   1      18.877   4.286  13.453  0.00  0.00    -0.356 OA
ATOM     26  C23 ZIN A   1      19.608   4.144  12.233  0.00  0.00     0.210 C 
ENDBRANCH  23  25
ENDBRANCH   1  15
TORSDOF 5
ENDMDL
MODEL 9
REMARK VINA RESULT:      -7.3      4.503      6.846
REMARK  5 active torsions:
REMARK  status: ('A' for Active; 'I' for Inactive)
REMARK    1  A    between atoms: C2_2  and  C3_3 
REMARK    2  A    between atoms: C13_11  and  C15_12 
REMARK    3  A    between atoms: C15_12  and  O17_13 
REMARK    4  A    between atoms: C15_12  and  C18_14 
REMARK    5  A    between atoms: C21_17  and  O22_18 
ROOT
ATOM      1  C15 ZIN A   1      19.561   1.591  12.129  0.00  0.00     0.183 C 
ENDROOT
BRANCH   1   2
ATOM      2  C13 ZIN A   1      19.117   0.406  11.268  0.00  0.00     0.221 C 
ATOM      3  N6  ZIN A   1      17.723   0.095  11.588  0.00  0.00    -0.063 N 
ATOM      4  C5  ZIN A   1      17.580  -0.235  13.008  0.00  0.00     0.244 C 
ATOM      5  H7  ZIN A   1      17.160   0.909  11.391  0.00  0.00     0.280 HD
ATOM      6  C8  ZIN A   1      17.246  -1.010  10.752  0.00  0.00     0.236 C 
ATOM      7  C3  ZIN A   1      18.426  -1.464  13.349  0.00  0.00     0.037 C 
ATOM      8  C10 ZIN A   1      19.141  -1.943  12.079  0.00  0.00    -0.002 C 
ATOM      9  C9  ZIN A   1      18.082  -2.266  11.018  0.00  0.00     0.033 C 
ATOM     10  C12 ZIN A   1      20.013  -0.792  11.556  0.00  0.00     0.041 C 
BRANCH   7  11
ATOM     11  C2  ZIN A   1      19.445  -1.099  14.397  0.00  0.00    -0.030 C 
ATOM     12  C1  ZIN A   1      19.141  -1.193  15.667  0.00  0.00     0.007 C 
ENDBRANCH   7  11
ENDBRANCH   1   2
BRANCH   1  13
ATOM     13  O17 ZIN A   1      20.956   1.827  11.931  0.00  0.00    -0.389 OA
ATOM     14  H41 ZIN A   1      21.172   2.210  11.070  0.00  0.00     0.210 HD
ENDBRANCH   1  13
BRANCH   1  15
ATOM     15  C18 ZIN A   1      18.781   2.818  11.734  0.00  0.00    -0.014 A 
ATOM     16  C29 ZIN A   1      18.558   3.114  10.419  0.00  0.00     0.030 A 
ATOM     17  C28 ZIN A   1      17.832   4.252  10.076  0.00  0.00     0.118 A 
ATOM     18  N27 ZIN A   1      17.356   5.067  10.985  0.00  0.00    -0.260 NA
ATOM     19  C26 ZIN A   1      17.544   4.840  12.290  0.00  0.00     0.067 A 
ATOM     20  C19 ZIN A   1      18.270   3.696  12.707  0.00  0.00     0.004 A 
ATOM     21  C25 ZIN A   1      17.031   5.719  13.259  0.00  0.00     0.035 A 
ATOM     22  C20 ZIN A   1      18.465   3.461  14.077  0.00  0.00     0.051 A 
ATOM     23  C21 ZIN A   1      17.954   4.336  14.992  0.00  0.00     0.069 A 
ATOM     24  C24 ZIN A   1      17.237   5.464  14.579  0.00  0.00     0.039 A 
BRANCH  23  25
ATOM     25  O22 ZIN A   1      18.143   4.109  16.318  0.00  0.00    -0.356 OA
ATOM     26  C23 ZIN A   1      19.256   3.291  16.685  0.00  0.00     0.210 C 
ENDBRANCH  23  25
ENDBRANCH   1  15
TORSDOF 5
ENDMDL
