MODEL 1
REMARK VINA RESULT:      -7.0      0.000      0.000
REMARK  18 active torsions:
REMARK  status: ('A' for Active; 'I' for Inactive)
REMARK    1  A    between atoms: C2_2  and  O4_4 
REMARK    2  A    between atoms: O4_4  and  C5_5 
REMARK    3  A    between atoms: C5_5  and  O7_7 
REMARK    4  A    between atoms: O7_7  and  C8_8 
REMARK    5  A    between atoms: C8_8  and  O9_9 
REMARK    6  A    between atoms: O9_9  and  P10_10 
REMARK    7  A    between atoms: P10_10  and  C12_12 
REMARK    8  A    between atoms: P10_10  and  O28_27 
REMARK    9  A    between atoms: C12_12  and  O13_13 
REMARK   10  A    between atoms: O13_13  and  C14_14 
REMARK   11  A    between atoms: C14_14  and  C17_16 
REMARK   12  A    between atoms: C17_16  and  N18_17 
REMARK   13  A    between atoms: C22_21  and  N23_22 
REMARK   14  A    between atoms: O28_27  and  C29_28 
REMARK   15  A    between atoms: C29_28  and  O30_29 
REMARK   16  A    between atoms: O30_29  and  C31_30 
REMARK   17  A    between atoms: C31_30  and  O33_32 
REMARK   18  A    between atoms: O33_32  and  C34_33 
ROOT
ATOM      1  P10 ZIN A   1      18.170  -1.329  11.015  0.00  0.00     0.356 P 
ATOM      2  O11 ZIN A   1      17.002  -1.857  11.754  0.00  0.00    -0.256 OA
ENDROOT
BRANCH   1   3
ATOM      3  O9  ZIN A   1      19.227  -0.706  12.056  0.00  0.00    -0.286 OA
BRANCH   3   4
ATOM      4  C8  ZIN A   1      19.270  -1.075  13.436  0.00  0.00     0.360 C 
BRANCH   4   5
ATOM      5  O7  ZIN A   1      19.560   0.098  14.242  0.00  0.00    -0.272 OA
BRANCH   5   6
ATOM      6  C5  ZIN A   1      18.534   0.636  14.927  0.00  0.00     0.408 C 
ATOM      7  O6  ZIN A   1      17.511   0.940  14.349  0.00  0.00    -0.229 OA
BRANCH   6   8
ATOM      8  O4  ZIN A   1      18.644   0.838  16.252  0.00  0.00    -0.293 OA
BRANCH   8   9
ATOM      9  C2  ZIN A   1      18.667  -0.342  17.099  0.00  0.00     0.126 C 
ATOM     10  C1  ZIN A   1      18.662   0.085  18.568  0.00  0.00     0.040 C 
ATOM     11  C3  ZIN A   1      17.434  -1.200  16.813  0.00  0.00     0.040 C 
ENDBRANCH   8   9
ENDBRANCH   6   8
ENDBRANCH   5   6
ENDBRANCH   4   5
ENDBRANCH   3   4
ENDBRANCH   1   3
BRANCH   1  12
ATOM     12  C12 ZIN A   1      17.623  -0.033   9.856  0.00  0.00     0.300 C 
BRANCH  12  13
ATOM     13  O13 ZIN A   1      17.671   1.239  10.507  0.00  0.00    -0.373 OA
BRANCH  13  14
ATOM     14  C14 ZIN A   1      18.303   2.263   9.735  0.00  0.00     0.136 C 
ATOM     15  C16 ZIN A   1      19.331   1.630   8.794  0.00  0.00     0.041 C 
BRANCH  14  16
ATOM     16  C17 ZIN A   1      19.008   3.246  10.672  0.00  0.00     0.163 C 
BRANCH  16  17
ATOM     17  N18 ZIN A   1      18.007   3.982  11.449  0.00  0.00    -0.322 N 
ATOM     18  C27 ZIN A   1      18.049   4.234  12.796  0.00  0.00     0.165 A 
ATOM     19  C21 ZIN A   1      16.887   4.969  13.090  0.00  0.00     0.149 A 
ATOM     20  N26 ZIN A   1      18.905   3.959  13.776  0.00  0.00    -0.222 NA
ATOM     21  N20 ZIN A   1      16.204   5.116  11.929  0.00  0.00    -0.236 NA
ATOM     22  C22 ZIN A   1      16.675   5.371  14.420  0.00  0.00     0.155 A 
ATOM     23  C19 ZIN A   1      16.859   4.537  10.965  0.00  0.00     0.212 A 
ATOM     24  N24 ZIN A   1      17.583   5.043  15.333  0.00  0.00    -0.222 NA
ATOM     25  C25 ZIN A   1      18.664   4.356  15.008  0.00  0.00     0.237 A 
BRANCH  22  26
ATOM     26  N23 ZIN A   1      15.546   6.090  14.770  0.00  0.00    -0.382 N 
ATOM     27  H54 ZIN A   1      14.688   5.642  14.841  0.00  0.00     0.157 HD
ATOM     28  H55 ZIN A   1      15.613   7.042  14.945  0.00  0.00     0.157 HD
ENDBRANCH  22  26
ENDBRANCH  16  17
ENDBRANCH  14  16
ENDBRANCH  13  14
ENDBRANCH  12  13
ENDBRANCH   1  12
BRANCH   1  29
ATOM     29  O28 ZIN A   1      18.869  -2.523  10.191  0.00  0.00    -0.286 OA
BRANCH  29  30
ATOM     30  C29 ZIN A   1      18.524  -2.846   8.842  0.00  0.00     0.360 C 
BRANCH  30  31
ATOM     31  O30 ZIN A   1      19.519  -2.292   7.942  0.00  0.00    -0.272 OA
BRANCH  31  32
ATOM     32  C31 ZIN A   1      19.413  -2.614   6.641  0.00  0.00     0.408 C 
ATOM     33  O32 ZIN A   1      20.100  -3.501   6.177  0.00  0.00    -0.229 OA
BRANCH  32  34
ATOM     34  O33 ZIN A   1      18.546  -1.954   5.853  0.00  0.00    -0.293 OA
BRANCH  34  35
ATOM     35  C34 ZIN A   1      18.549  -0.505   5.938  0.00  0.00     0.126 C 
ATOM     36  C35 ZIN A   1      19.178   0.080   4.672  0.00  0.00     0.040 C 
ATOM     37  C36 ZIN A   1      17.111   0.001   6.073  0.00  0.00     0.040 C 
ENDBRANCH  34  35
ENDBRANCH  32  34
ENDBRANCH  31  32
ENDBRANCH  30  31
ENDBRANCH  29  30
ENDBRANCH   1  29
TORSDOF 18
ENDMDL
MODEL 2
REMARK VINA RESULT:      -6.9      3.810      8.545
REMARK  18 active torsions:
REMARK  status: ('A' for Active; 'I' for Inactive)
REMARK    1  A    between atoms: C2_2  and  O4_4 
REMARK    2  A    between atoms: O4_4  and  C5_5 
REMARK    3  A    between atoms: C5_5  and  O7_7 
REMARK    4  A    between atoms: O7_7  and  C8_8 
REMARK    5  A    between atoms: C8_8  and  O9_9 
REMARK    6  A    between atoms: O9_9  and  P10_10 
REMARK    7  A    between atoms: P10_10  and  C12_12 
REMARK    8  A    between atoms: P10_10  and  O28_27 
REMARK    9  A    between atoms: C12_12  and  O13_13 
REMARK   10  A    between atoms: O13_13  and  C14_14 
REMARK   11  A    between atoms: C14_14  and  C17_16 
REMARK   12  A    between atoms: C17_16  and  N18_17 
REMARK   13  A    between atoms: C22_21  and  N23_22 
REMARK   14  A    between atoms: O28_27  and  C29_28 
REMARK   15  A    between atoms: C29_28  and  O30_29 
REMARK   16  A    between atoms: O30_29  and  C31_30 
REMARK   17  A    between atoms: C31_30  and  O33_32 
REMARK   18  A    between atoms: O33_32  and  C34_33 
ROOT
ATOM      1  P10 ZIN A   1      19.063  -0.735  13.982  0.00  0.00     0.356 P 
ATOM      2  O11 ZIN A   1      17.706  -0.154  14.083  0.00  0.00    -0.256 OA
ENDROOT
BRANCH   1   3
ATOM      3  O9  ZIN A   1      20.115   0.424  13.605  0.00  0.00    -0.286 OA
BRANCH   3   4
ATOM      4  C8  ZIN A   1      20.545   0.681  12.267  0.00  0.00     0.360 C 
BRANCH   4   5
ATOM      5  O7  ZIN A   1      19.563   1.513  11.594  0.00  0.00    -0.272 OA
BRANCH   5   6
ATOM      6  C5  ZIN A   1      19.581   2.828  11.877  0.00  0.00     0.408 C 
ATOM      7  O6  ZIN A   1      20.592   3.475  11.691  0.00  0.00    -0.229 OA
BRANCH   6   8
ATOM      8  O4  ZIN A   1      18.480   3.425  12.367  0.00  0.00    -0.293 OA
BRANCH   8   9
ATOM      9  C2  ZIN A   1      18.040   4.641  11.705  0.00  0.00     0.126 C 
ATOM     10  C1  ZIN A   1      17.694   4.332  10.248  0.00  0.00     0.040 C 
ATOM     11  C3  ZIN A   1      16.804   5.192  12.419  0.00  0.00     0.040 C 
ENDBRANCH   8   9
ENDBRANCH   6   8
ENDBRANCH   5   6
ENDBRANCH   4   5
ENDBRANCH   3   4
ENDBRANCH   1   3
BRANCH   1  12
ATOM     12  C12 ZIN A   1      19.081  -2.017  12.686  0.00  0.00     0.300 C 
BRANCH  12  13
ATOM     13  O13 ZIN A   1      17.760  -2.191  12.169  0.00  0.00    -0.373 OA
BRANCH  13  14
ATOM     14  C14 ZIN A   1      17.721  -2.649  10.816  0.00  0.00     0.136 C 
ATOM     15  C16 ZIN A   1      17.207  -4.090  10.781  0.00  0.00     0.041 C 
BRANCH  14  16
ATOM     16  C17 ZIN A   1      19.128  -2.595  10.218  0.00  0.00     0.163 C 
BRANCH  16  17
ATOM     17  N18 ZIN A   1      19.110  -1.776   9.004  0.00  0.00    -0.322 N 
ATOM     18  C27 ZIN A   1      19.236  -2.230   7.715  0.00  0.00     0.165 A 
ATOM     19  C21 ZIN A   1      19.156  -1.092   6.894  0.00  0.00     0.149 A 
ATOM     20  N26 ZIN A   1      19.385  -3.424   7.152  0.00  0.00    -0.222 NA
ATOM     21  N20 ZIN A   1      18.998  -0.021   7.709  0.00  0.00    -0.236 NA
ATOM     22  C22 ZIN A   1      19.252  -1.270   5.503  0.00  0.00     0.155 A 
ATOM     23  C19 ZIN A   1      18.971  -0.421   8.948  0.00  0.00     0.212 A 
ATOM     24  N24 ZIN A   1      19.407  -2.502   5.032  0.00  0.00    -0.222 NA
ATOM     25  C25 ZIN A   1      19.471  -3.543   5.843  0.00  0.00     0.237 A 
BRANCH  22  26
ATOM     26  N23 ZIN A   1      19.186  -0.186   4.645  0.00  0.00    -0.382 N 
ATOM     27  H54 ZIN A   1      19.976   0.355   4.487  0.00  0.00     0.157 HD
ATOM     28  H55 ZIN A   1      18.351   0.031   4.202  0.00  0.00     0.157 HD
ENDBRANCH  22  26
ENDBRANCH  16  17
ENDBRANCH  14  16
ENDBRANCH  13  14
ENDBRANCH  12  13
ENDBRANCH   1  12
BRANCH   1  29
ATOM     29  O28 ZIN A   1      19.473  -1.393  15.393  0.00  0.00    -0.286 OA
BRANCH  29  30
ATOM     30  C29 ZIN A   1      18.712  -1.207  16.589  0.00  0.00     0.360 C 
BRANCH  30  31
ATOM     31  O30 ZIN A   1      19.544  -0.577  17.598  0.00  0.00    -0.272 OA
BRANCH  31  32
ATOM     32  C31 ZIN A   1      19.003   0.446  18.284  0.00  0.00     0.408 C 
ATOM     33  O32 ZIN A   1      17.840   0.399  18.627  0.00  0.00    -0.229 OA
BRANCH  32  34
ATOM     34  O33 ZIN A   1      19.751   1.521  18.589  0.00  0.00    -0.293 OA
BRANCH  34  35
ATOM     35  C34 ZIN A   1      19.452   2.754  17.882  0.00  0.00     0.126 C 
ATOM     36  C35 ZIN A   1      19.035   2.430  16.446  0.00  0.00     0.040 C 
ATOM     37  C36 ZIN A   1      18.310   3.484  18.592  0.00  0.00     0.040 C 
ENDBRANCH  34  35
ENDBRANCH  32  34
ENDBRANCH  31  32
ENDBRANCH  30  31
ENDBRANCH  29  30
ENDBRANCH   1  29
TORSDOF 18
ENDMDL
MODEL 3
REMARK VINA RESULT:      -6.8      4.152      8.540
REMARK  18 active torsions:
REMARK  status: ('A' for Active; 'I' for Inactive)
REMARK    1  A    between atoms: C2_2  and  O4_4 
REMARK    2  A    between atoms: O4_4  and  C5_5 
REMARK    3  A    between atoms: C5_5  and  O7_7 
REMARK    4  A    between atoms: O7_7  and  C8_8 
REMARK    5  A    between atoms: C8_8  and  O9_9 
REMARK    6  A    between atoms: O9_9  and  P10_10 
REMARK    7  A    between atoms: P10_10  and  C12_12 
REMARK    8  A    between atoms: P10_10  and  O28_27 
REMARK    9  A    between atoms: C12_12  and  O13_13 
REMARK   10  A    between atoms: O13_13  and  C14_14 
REMARK   11  A    between atoms: C14_14  and  C17_16 
REMARK   12  A    between atoms: C17_16  and  N18_17 
REMARK   13  A    between atoms: C22_21  and  N23_22 
REMARK   14  A    between atoms: O28_27  and  C29_28 
REMARK   15  A    between atoms: C29_28  and  O30_29 
REMARK   16  A    between atoms: O30_29  and  C31_30 
REMARK   17  A    between atoms: C31_30  and  O33_32 
REMARK   18  A    between atoms: O33_32  and  C34_33 
ROOT
ATOM      1  P10 ZIN A   1      18.051   0.622  11.015  0.00  0.00     0.356 P 
ATOM      2  O11 ZIN A   1      16.726   0.529  11.668  0.00  0.00    -0.256 OA
ENDROOT
BRANCH   1   3
ATOM      3  O9  ZIN A   1      17.971   1.657   9.786  0.00  0.00    -0.286 OA
BRANCH   3   4
ATOM      4  C8  ZIN A   1      18.810   2.809   9.682  0.00  0.00     0.360 C 
BRANCH   4   5
ATOM      5  O7  ZIN A   1      17.993   3.980   9.414  0.00  0.00    -0.272 OA
BRANCH   5   6
ATOM      6  C5  ZIN A   1      17.568   4.684  10.479  0.00  0.00     0.408 C 
ATOM      7  O6  ZIN A   1      17.078   5.784  10.324  0.00  0.00    -0.229 OA
BRANCH   6   8
ATOM      8  O4  ZIN A   1      17.688   4.169  11.716  0.00  0.00    -0.293 OA
BRANCH   8   9
ATOM      9  C2  ZIN A   1      18.087   5.080  12.774  0.00  0.00     0.126 C 
ATOM     10  C1  ZIN A   1      17.152   4.910  13.973  0.00  0.00     0.040 C 
ATOM     11  C3  ZIN A   1      19.523   4.772  13.199  0.00  0.00     0.040 C 
ENDBRANCH   8   9
ENDBRANCH   6   8
ENDBRANCH   5   6
ENDBRANCH   4   5
ENDBRANCH   3   4
ENDBRANCH   1   3
BRANCH   1  12
ATOM     12  C12 ZIN A   1      18.540  -1.021  10.395  0.00  0.00     0.300 C 
BRANCH  12  13
ATOM     13  O13 ZIN A   1      17.527  -1.975  10.721  0.00  0.00    -0.373 OA
BRANCH  13  14
ATOM     14  C14 ZIN A   1      17.677  -3.232  10.058  0.00  0.00     0.136 C 
ATOM     15  C16 ZIN A   1      17.594  -4.363  11.085  0.00  0.00     0.041 C 
BRANCH  14  16
ATOM     16  C17 ZIN A   1      19.035  -3.280   9.355  0.00  0.00     0.163 C 
BRANCH  16  17
ATOM     17  N18 ZIN A   1      18.847  -3.680   7.958  0.00  0.00    -0.322 N 
ATOM     18  C27 ZIN A   1      19.021  -2.883   6.855  0.00  0.00     0.165 A 
ATOM     19  C21 ZIN A   1      18.734  -3.693   5.743  0.00  0.00     0.149 A 
ATOM     20  N26 ZIN A   1      19.391  -1.621   6.657  0.00  0.00    -0.222 NA
ATOM     21  N20 ZIN A   1      18.397  -4.917   6.217  0.00  0.00    -0.236 NA
ATOM     22  C22 ZIN A   1      18.839  -3.123   4.462  0.00  0.00     0.155 A 
ATOM     23  C19 ZIN A   1      18.462  -4.910   7.517  0.00  0.00     0.212 A 
ATOM     24  N24 ZIN A   1      19.209  -1.851   4.364  0.00  0.00    -0.222 NA
ATOM     25  C25 ZIN A   1      19.475  -1.130   5.439  0.00  0.00     0.237 A 
BRANCH  22  26
ATOM     26  N23 ZIN A   1      18.562  -3.870   3.331  0.00  0.00    -0.382 N 
ATOM     27  H54 ZIN A   1      17.766  -4.423   3.298  0.00  0.00     0.157 HD
ATOM     28  H55 ZIN A   1      19.165  -3.839   2.571  0.00  0.00     0.157 HD
ENDBRANCH  22  26
ENDBRANCH  16  17
ENDBRANCH  14  16
ENDBRANCH  13  14
ENDBRANCH  12  13
ENDBRANCH   1  12
BRANCH   1  29
ATOM     29  O28 ZIN A   1      19.140   1.139  12.082  0.00  0.00    -0.286 OA
BRANCH  29  30
ATOM     30  C29 ZIN A   1      18.920   1.114  13.494  0.00  0.00     0.360 C 
BRANCH  30  31
ATOM     31  O30 ZIN A   1      19.816   0.149  14.106  0.00  0.00    -0.272 OA
BRANCH  31  32
ATOM     32  C31 ZIN A   1      19.266  -0.988  14.567  0.00  0.00     0.408 C 
ATOM     33  O32 ZIN A   1      18.787  -1.789  13.790  0.00  0.00    -0.229 OA
BRANCH  32  34
ATOM     34  O33 ZIN A   1      19.246  -1.239  15.888  0.00  0.00    -0.293 OA
BRANCH  34  35
ATOM     35  C34 ZIN A   1      18.585  -0.262  16.735  0.00  0.00     0.126 C 
ATOM     36  C35 ZIN A   1      17.108  -0.632  16.884  0.00  0.00     0.040 C 
ATOM     37  C36 ZIN A   1      19.249  -0.250  18.113  0.00  0.00     0.040 C 
ENDBRANCH  34  35
ENDBRANCH  32  34
ENDBRANCH  31  32
ENDBRANCH  30  31
ENDBRANCH  29  30
ENDBRANCH   1  29
TORSDOF 18
ENDMDL
MODEL 4
REMARK VINA RESULT:      -6.7      2.217      4.371
REMARK  18 active torsions:
REMARK  status: ('A' for Active; 'I' for Inactive)
REMARK    1  A    between atoms: C2_2  and  O4_4 
REMARK    2  A    between atoms: O4_4  and  C5_5 
REMARK    3  A    between atoms: C5_5  and  O7_7 
REMARK    4  A    between atoms: O7_7  and  C8_8 
REMARK    5  A    between atoms: C8_8  and  O9_9 
REMARK    6  A    between atoms: O9_9  and  P10_10 
REMARK    7  A    between atoms: P10_10  and  C12_12 
REMARK    8  A    between atoms: P10_10  and  O28_27 
REMARK    9  A    between atoms: C12_12  and  O13_13 
REMARK   10  A    between atoms: O13_13  and  C14_14 
REMARK   11  A    between atoms: C14_14  and  C17_16 
REMARK   12  A    between atoms: C17_16  and  N18_17 
REMARK   13  A    between atoms: C22_21  and  N23_22 
REMARK   14  A    between atoms: O28_27  and  C29_28 
REMARK   15  A    between atoms: C29_28  and  O30_29 
REMARK   16  A    between atoms: O30_29  and  C31_30 
REMARK   17  A    between atoms: C31_30  and  O33_32 
REMARK   18  A    between atoms: O33_32  and  C34_33 
ROOT
ATOM      1  P10 ZIN A   1      18.283   0.186   8.941  0.00  0.00     0.356 P 
ATOM      2  O11 ZIN A   1      16.941   0.281   9.557  0.00  0.00    -0.256 OA
ENDROOT
BRANCH   1   3
ATOM      3  O9  ZIN A   1      19.015  -1.152   9.456  0.00  0.00    -0.286 OA
BRANCH   3   4
ATOM      4  C8  ZIN A   1      19.688  -1.236  10.713  0.00  0.00     0.360 C 
BRANCH   4   5
ATOM      5  O7  ZIN A   1      19.235  -2.418  11.427  0.00  0.00    -0.272 OA
BRANCH   5   6
ATOM      6  C5  ZIN A   1      17.914  -2.674  11.406  0.00  0.00     0.408 C 
ATOM      7  O6  ZIN A   1      17.145  -1.951  12.005  0.00  0.00    -0.229 OA
BRANCH   6   8
ATOM      8  O4  ZIN A   1      17.447  -3.733  10.721  0.00  0.00    -0.293 OA
BRANCH   8   9
ATOM      9  C2  ZIN A   1      18.222  -4.960  10.793  0.00  0.00     0.126 C 
ATOM     10  C1  ZIN A   1      17.279  -6.146  11.006  0.00  0.00     0.040 C 
ATOM     11  C3  ZIN A   1      18.998  -5.152   9.490  0.00  0.00     0.040 C 
ENDBRANCH   8   9
ENDBRANCH   6   8
ENDBRANCH   5   6
ENDBRANCH   4   5
ENDBRANCH   3   4
ENDBRANCH   1   3
BRANCH   1  12
ATOM     12  C12 ZIN A   1      19.274   1.641   9.411  0.00  0.00     0.300 C 
BRANCH  12  13
ATOM     13  O13 ZIN A   1      18.462   2.815   9.337  0.00  0.00    -0.373 OA
BRANCH  13  14
ATOM     14  C14 ZIN A   1      18.037   3.309  10.609  0.00  0.00     0.136 C 
ATOM     15  C16 ZIN A   1      17.301   4.637  10.419  0.00  0.00     0.041 C 
BRANCH  14  16
ATOM     16  C17 ZIN A   1      19.256   3.526  11.506  0.00  0.00     0.163 C 
BRANCH  16  17
ATOM     17  N18 ZIN A   1      18.872   3.333  12.907  0.00  0.00    -0.322 N 
ATOM     18  C27 ZIN A   1      18.936   2.159  13.612  0.00  0.00     0.165 A 
ATOM     19  C21 ZIN A   1      18.472   2.457  14.905  0.00  0.00     0.149 A 
ATOM     20  N26 ZIN A   1      19.332   0.919  13.338  0.00  0.00    -0.222 NA
ATOM     21  N20 ZIN A   1      18.145   3.772  14.918  0.00  0.00    -0.236 NA
ATOM     22  C22 ZIN A   1      18.434   1.420  15.852  0.00  0.00     0.155 A 
ATOM     23  C19 ZIN A   1      18.379   4.287  13.746  0.00  0.00     0.212 A 
ATOM     24  N24 ZIN A   1      18.844   0.211  15.483  0.00  0.00    -0.222 NA
ATOM     25  C25 ZIN A   1      19.279  -0.021  14.258  0.00  0.00     0.237 A 
BRANCH  22  26
ATOM     26  N23 ZIN A   1      17.981   1.652  17.138  0.00  0.00    -0.382 N 
ATOM     27  H54 ZIN A   1      18.259   1.071  17.864  0.00  0.00     0.157 HD
ATOM     28  H55 ZIN A   1      17.385   2.397  17.314  0.00  0.00     0.157 HD
ENDBRANCH  22  26
ENDBRANCH  16  17
ENDBRANCH  14  16
ENDBRANCH  13  14
ENDBRANCH  12  13
ENDBRANCH   1  12
BRANCH   1  29
ATOM     29  O28 ZIN A   1      18.135   0.133   7.338  0.00  0.00    -0.286 OA
BRANCH  29  30
ATOM     30  C29 ZIN A   1      18.795   1.051   6.464  0.00  0.00     0.360 C 
BRANCH  30  31
ATOM     31  O30 ZIN A   1      19.743   0.332   5.632  0.00  0.00    -0.272 OA
BRANCH  31  32
ATOM     32  C31 ZIN A   1      19.235  -0.454   4.667  0.00  0.00     0.408 C 
ATOM     33  O32 ZIN A   1      18.392  -0.019   3.909  0.00  0.00    -0.229 OA
BRANCH  32  34
ATOM     34  O33 ZIN A   1      19.659  -1.725   4.541  0.00  0.00    -0.293 OA
BRANCH  34  35
ATOM     35  C34 ZIN A   1      18.832  -2.758   5.139  0.00  0.00     0.126 C 
ATOM     36  C35 ZIN A   1      18.361  -3.727   4.053  0.00  0.00     0.040 C 
ATOM     37  C36 ZIN A   1      19.648  -3.521   6.185  0.00  0.00     0.040 C 
ENDBRANCH  34  35
ENDBRANCH  32  34
ENDBRANCH  31  32
ENDBRANCH  30  31
ENDBRANCH  29  30
ENDBRANCH   1  29
TORSDOF 18
ENDMDL
MODEL 5
REMARK VINA RESULT:      -6.7      3.990      8.136
REMARK  18 active torsions:
REMARK  status: ('A' for Active; 'I' for Inactive)
REMARK    1  A    between atoms: C2_2  and  O4_4 
REMARK    2  A    between atoms: O4_4  and  C5_5 
REMARK    3  A    between atoms: C5_5  and  O7_7 
REMARK    4  A    between atoms: O7_7  and  C8_8 
REMARK    5  A    between atoms: C8_8  and  O9_9 
REMARK    6  A    between atoms: O9_9  and  P10_10 
REMARK    7  A    between atoms: P10_10  and  C12_12 
REMARK    8  A    between atoms: P10_10  and  O28_27 
REMARK    9  A    between atoms: C12_12  and  O13_13 
REMARK   10  A    between atoms: O13_13  and  C14_14 
REMARK   11  A    between atoms: C14_14  and  C17_16 
REMARK   12  A    between atoms: C17_16  and  N18_17 
REMARK   13  A    between atoms: C22_21  and  N23_22 
REMARK   14  A    between atoms: O28_27  and  C29_28 
REMARK   15  A    between atoms: C29_28  and  O30_29 
REMARK   16  A    between atoms: O30_29  and  C31_30 
REMARK   17  A    between atoms: C31_30  and  O33_32 
REMARK   18  A    between atoms: O33_32  and  C34_33 
ROOT
ATOM      1  P10 ZIN A   1      17.441   0.144  12.431  0.00  0.00     0.356 P 
ATOM      2  O11 ZIN A   1      16.038   0.011  11.982  0.00  0.00    -0.256 OA
ENDROOT
BRANCH   1   3
ATOM      3  O9  ZIN A   1      17.637   1.563  13.164  0.00  0.00    -0.286 OA
BRANCH   3   4
ATOM      4  C8  ZIN A   1      18.784   2.392  12.964  0.00  0.00     0.360 C 
BRANCH   4   5
ATOM      5  O7  ZIN A   1      18.476   3.415  11.980  0.00  0.00    -0.272 OA
BRANCH   5   6
ATOM      6  C5  ZIN A   1      17.347   4.123  12.169  0.00  0.00     0.408 C 
ATOM      7  O6  ZIN A   1      16.565   4.275  11.253  0.00  0.00    -0.229 OA
BRANCH   6   8
ATOM      8  O4  ZIN A   1      17.086   4.662  13.373  0.00  0.00    -0.293 OA
BRANCH   8   9
ATOM      9  C2  ZIN A   1      17.732   5.925  13.684  0.00  0.00     0.126 C 
ATOM     10  C1  ZIN A   1      16.683   6.929  14.165  0.00  0.00     0.040 C 
ATOM     11  C3  ZIN A   1      18.774   5.709  14.783  0.00  0.00     0.040 C 
ENDBRANCH   8   9
ENDBRANCH   6   8
ENDBRANCH   5   6
ENDBRANCH   4   5
ENDBRANCH   3   4
ENDBRANCH   1   3
BRANCH   1  12
ATOM     12  C12 ZIN A   1      18.554   0.045  10.991  0.00  0.00     0.300 C 
BRANCH  12  13
ATOM     13  O13 ZIN A   1      17.961   0.725   9.883  0.00  0.00    -0.373 OA
BRANCH  13  14
ATOM     14  C14 ZIN A   1      18.711   0.627   8.671  0.00  0.00     0.136 C 
ATOM     15  C16 ZIN A   1      19.090   2.029   8.190  0.00  0.00     0.041 C 
BRANCH  14  16
ATOM     16  C17 ZIN A   1      17.865  -0.067   7.602  0.00  0.00     0.163 C 
BRANCH  16  17
ATOM     17  N18 ZIN A   1      18.564  -1.264   7.128  0.00  0.00    -0.322 N 
ATOM     18  C27 ZIN A   1      18.686  -2.453   7.801  0.00  0.00     0.165 A 
ATOM     19  C21 ZIN A   1      19.428  -3.301   6.960  0.00  0.00     0.149 A 
ATOM     20  N26 ZIN A   1      18.262  -2.916   8.973  0.00  0.00    -0.222 NA
ATOM     21  N20 ZIN A   1      19.723  -2.595   5.842  0.00  0.00    -0.236 NA
ATOM     22  C22 ZIN A   1      19.702  -4.605   7.407  0.00  0.00     0.155 A 
ATOM     23  C19 ZIN A   1      19.217  -1.400   5.939  0.00  0.00     0.212 A 
ATOM     24  N24 ZIN A   1      19.242  -4.975   8.598  0.00  0.00    -0.222 NA
ATOM     25  C25 ZIN A   1      18.543  -4.146   9.351  0.00  0.00     0.237 A 
BRANCH  22  26
ATOM     26  N23 ZIN A   1      20.433  -5.482   6.626  0.00  0.00    -0.382 N 
ATOM     27  H54 ZIN A   1      20.217  -5.590   5.686  0.00  0.00     0.157 HD
ATOM     28  H55 ZIN A   1      21.162  -5.987   7.018  0.00  0.00     0.157 HD
ENDBRANCH  22  26
ENDBRANCH  16  17
ENDBRANCH  14  16
ENDBRANCH  13  14
ENDBRANCH  12  13
ENDBRANCH   1  12
BRANCH   1  29
ATOM     29  O28 ZIN A   1      17.790  -1.044  13.461  0.00  0.00    -0.286 OA
BRANCH  29  30
ATOM     30  C29 ZIN A   1      19.023  -1.115  14.181  0.00  0.00     0.360 C 
BRANCH  30  31
ATOM     31  O30 ZIN A   1      18.757  -1.468  15.564  0.00  0.00    -0.272 OA
BRANCH  31  32
ATOM     32  C31 ZIN A   1      17.862  -0.713  16.226  0.00  0.00     0.408 C 
ATOM     33  O32 ZIN A   1      16.919  -1.238  16.781  0.00  0.00    -0.229 OA
BRANCH  32  34
ATOM     34  O33 ZIN A   1      18.012   0.623  16.272  0.00  0.00    -0.293 OA
BRANCH  34  35
ATOM     35  C34 ZIN A   1      19.175   1.132  16.975  0.00  0.00     0.126 C 
ATOM     36  C35 ZIN A   1      19.125   2.661  17.006  0.00  0.00     0.040 C 
ATOM     37  C36 ZIN A   1      19.182   0.594  18.408  0.00  0.00     0.040 C 
ENDBRANCH  34  35
ENDBRANCH  32  34
ENDBRANCH  31  32
ENDBRANCH  30  31
ENDBRANCH  29  30
ENDBRANCH   1  29
TORSDOF 18
ENDMDL
MODEL 6
REMARK VINA RESULT:      -6.7      2.432      6.515
REMARK  18 active torsions:
REMARK  status: ('A' for Active; 'I' for Inactive)
REMARK    1  A    between atoms: C2_2  and  O4_4 
REMARK    2  A    between atoms: O4_4  and  C5_5 
REMARK    3  A    between atoms: C5_5  and  O7_7 
REMARK    4  A    between atoms: O7_7  and  C8_8 
REMARK    5  A    between atoms: C8_8  and  O9_9 
REMARK    6  A    between atoms: O9_9  and  P10_10 
REMARK    7  A    between atoms: P10_10  and  C12_12 
REMARK    8  A    between atoms: P10_10  and  O28_27 
REMARK    9  A    between atoms: C12_12  and  O13_13 
REMARK   10  A    between atoms: O13_13  and  C14_14 
REMARK   11  A    between atoms: C14_14  and  C17_16 
REMARK   12  A    between atoms: C17_16  and  N18_17 
REMARK   13  A    between atoms: C22_21  and  N23_22 
REMARK   14  A    between atoms: O28_27  and  C29_28 
REMARK   15  A    between atoms: C29_28  and  O30_29 
REMARK   16  A    between atoms: O30_29  and  C31_30 
REMARK   17  A    between atoms: C31_30  and  O33_32 
REMARK   18  A    between atoms: O33_32  and  C34_33 
ROOT
ATOM      1  P10 ZIN A   1      18.597   0.415   9.650  0.00  0.00     0.356 P 
ATOM      2  O11 ZIN A   1      20.012  -0.019   9.625  0.00  0.00    -0.256 OA
ENDROOT
BRANCH   1   3
ATOM      3  O9  ZIN A   1      17.965   0.265   8.178  0.00  0.00    -0.286 OA
BRANCH   3   4
ATOM      4  C8  ZIN A   1      18.760   0.153   6.996  0.00  0.00     0.360 C 
BRANCH   4   5
ATOM      5  O7  ZIN A   1      18.397  -1.059   6.281  0.00  0.00    -0.272 OA
BRANCH   5   6
ATOM      6  C5  ZIN A   1      19.347  -1.622   5.513  0.00  0.00     0.408 C 
ATOM      7  O6  ZIN A   1      19.705  -1.075   4.491  0.00  0.00    -0.229 OA
BRANCH   6   8
ATOM      8  O4  ZIN A   1      19.899  -2.793   5.879  0.00  0.00    -0.293 OA
BRANCH   8   9
ATOM      9  C2  ZIN A   1      18.991  -3.855   6.274  0.00  0.00     0.126 C 
ATOM     10  C1  ZIN A   1      18.195  -4.325   5.056  0.00  0.00     0.040 C 
ATOM     11  C3  ZIN A   1      19.793  -5.027   6.843  0.00  0.00     0.040 C 
ENDBRANCH   8   9
ENDBRANCH   6   8
ENDBRANCH   5   6
ENDBRANCH   4   5
ENDBRANCH   3   4
ENDBRANCH   1   3
BRANCH   1  12
ATOM     12  C12 ZIN A   1      18.504   2.158  10.177  0.00  0.00     0.300 C 
BRANCH  12  13
ATOM     13  O13 ZIN A   1      17.348   2.347  10.995  0.00  0.00    -0.373 OA
BRANCH  13  14
ATOM     14  C14 ZIN A   1      17.621   2.964  12.255  0.00  0.00     0.136 C 
ATOM     15  C16 ZIN A   1      17.401   4.474  12.140  0.00  0.00     0.041 C 
BRANCH  14  16
ATOM     16  C17 ZIN A   1      19.073   2.690  12.653  0.00  0.00     0.163 C 
BRANCH  16  17
ATOM     17  N18 ZIN A   1      19.099   1.844  13.849  0.00  0.00    -0.322 N 
ATOM     18  C27 ZIN A   1      19.200   2.276  15.147  0.00  0.00     0.165 A 
ATOM     19  C21 ZIN A   1      19.180   1.117  15.943  0.00  0.00     0.149 A 
ATOM     20  N26 ZIN A   1      19.286   3.464  15.737  0.00  0.00    -0.222 NA
ATOM     21  N20 ZIN A   1      19.079   0.058  15.105  0.00  0.00    -0.236 NA
ATOM     22  C22 ZIN A   1      19.267   1.269  17.338  0.00  0.00     0.155 A 
ATOM     23  C19 ZIN A   1      19.032   0.483  13.875  0.00  0.00     0.212 A 
ATOM     24  N24 ZIN A   1      19.358   2.498  17.836  0.00  0.00    -0.222 NA
ATOM     25  C25 ZIN A   1      19.366   3.558  17.048  0.00  0.00     0.237 A 
BRANCH  22  26
ATOM     26  N23 ZIN A   1      19.259   0.166  18.171  0.00  0.00    -0.382 N 
ATOM     27  H54 ZIN A   1      19.512   0.259  19.103  0.00  0.00     0.157 HD
ATOM     28  H55 ZIN A   1      19.000  -0.702  17.824  0.00  0.00     0.157 HD
ENDBRANCH  22  26
ENDBRANCH  16  17
ENDBRANCH  14  16
ENDBRANCH  13  14
ENDBRANCH  12  13
ENDBRANCH   1  12
BRANCH   1  29
ATOM     29  O28 ZIN A   1      17.772  -0.503  10.684  0.00  0.00    -0.286 OA
BRANCH  29  30
ATOM     30  C29 ZIN A   1      17.774  -1.931  10.631  0.00  0.00     0.360 C 
BRANCH  30  31
ATOM     31  O30 ZIN A   1      18.907  -2.442  11.380  0.00  0.00    -0.272 OA
BRANCH  31  32
ATOM     32  C31 ZIN A   1      19.356  -3.666  11.051  0.00  0.00     0.408 C 
ATOM     33  O32 ZIN A   1      20.342  -4.118  11.596  0.00  0.00    -0.229 OA
BRANCH  32  34
ATOM     34  O33 ZIN A   1      18.713  -4.389  10.116  0.00  0.00    -0.293 OA
BRANCH  34  35
ATOM     35  C34 ZIN A   1      18.081  -5.620  10.554  0.00  0.00     0.126 C 
ATOM     36  C35 ZIN A   1      17.392  -5.389  11.901  0.00  0.00     0.040 C 
ATOM     37  C36 ZIN A   1      17.043  -6.057   9.518  0.00  0.00     0.040 C 
ENDBRANCH  34  35
ENDBRANCH  32  34
ENDBRANCH  31  32
ENDBRANCH  30  31
ENDBRANCH  29  30
ENDBRANCH   1  29
TORSDOF 18
ENDMDL
MODEL 7
REMARK VINA RESULT:      -6.7      2.148      4.408
REMARK  18 active torsions:
REMARK  status: ('A' for Active; 'I' for Inactive)
REMARK    1  A    between atoms: C2_2  and  O4_4 
REMARK    2  A    between atoms: O4_4  and  C5_5 
REMARK    3  A    between atoms: C5_5  and  O7_7 
REMARK    4  A    between atoms: O7_7  and  C8_8 
REMARK    5  A    between atoms: C8_8  and  O9_9 
REMARK    6  A    between atoms: O9_9  and  P10_10 
REMARK    7  A    between atoms: P10_10  and  C12_12 
REMARK    8  A    between atoms: P10_10  and  O28_27 
REMARK    9  A    between atoms: C12_12  and  O13_13 
REMARK   10  A    between atoms: O13_13  and  C14_14 
REMARK   11  A    between atoms: C14_14  and  C17_16 
REMARK   12  A    between atoms: C17_16  and  N18_17 
REMARK   13  A    between atoms: C22_21  and  N23_22 
REMARK   14  A    between atoms: O28_27  and  C29_28 
REMARK   15  A    between atoms: C29_28  and  O30_29 
REMARK   16  A    between atoms: O30_29  and  C31_30 
REMARK   17  A    between atoms: C31_30  and  O33_32 
REMARK   18  A    between atoms: O33_32  and  C34_33 
ROOT
ATOM      1  P10 ZIN A   1      17.689   0.085  10.974  0.00  0.00     0.356 P 
ATOM      2  O11 ZIN A   1      16.327   0.098  11.553  0.00  0.00    -0.256 OA
ENDROOT
BRANCH   1   3
ATOM      3  O9  ZIN A   1      18.684  -0.702  11.965  0.00  0.00    -0.286 OA
BRANCH   3   4
ATOM      4  C8  ZIN A   1      18.298  -1.872  12.688  0.00  0.00     0.360 C 
BRANCH   4   5
ATOM      5  O7  ZIN A   1      18.885  -3.044  12.062  0.00  0.00    -0.272 OA
BRANCH   5   6
ATOM      6  C5  ZIN A   1      18.042  -3.895  11.448  0.00  0.00     0.408 C 
ATOM      7  O6  ZIN A   1      16.848  -3.672  11.448  0.00  0.00    -0.229 OA
BRANCH   6   8
ATOM      8  O4  ZIN A   1      18.522  -4.992  10.837  0.00  0.00    -0.293 OA
BRANCH   8   9
ATOM      9  C2  ZIN A   1      18.857  -4.870   9.429  0.00  0.00     0.126 C 
ATOM     10  C1  ZIN A   1      20.061  -5.757   9.112  0.00  0.00     0.040 C 
ATOM     11  C3  ZIN A   1      17.662  -5.308   8.580  0.00  0.00     0.040 C 
ENDBRANCH   8   9
ENDBRANCH   6   8
ENDBRANCH   5   6
ENDBRANCH   4   5
ENDBRANCH   3   4
ENDBRANCH   1   3
BRANCH   1  12
ATOM     12  C12 ZIN A   1      18.276   1.797  10.758  0.00  0.00     0.300 C 
BRANCH  12  13
ATOM     13  O13 ZIN A   1      17.161   2.691  10.799  0.00  0.00    -0.373 OA
BRANCH  13  14
ATOM     14  C14 ZIN A   1      17.369   3.842  11.621  0.00  0.00     0.136 C 
ATOM     15  C16 ZIN A   1      16.982   5.101  10.842  0.00  0.00     0.041 C 
BRANCH  14  16
ATOM     16  C17 ZIN A   1      18.842   3.923  12.023  0.00  0.00     0.163 C 
BRANCH  16  17
ATOM     17  N18 ZIN A   1      18.943   4.089  13.475  0.00  0.00    -0.322 N 
ATOM     18  C27 ZIN A   1      18.942   3.084  14.409  0.00  0.00     0.165 A 
ATOM     19  C21 ZIN A   1      19.062   3.716  15.659  0.00  0.00     0.149 A 
ATOM     20  N26 ZIN A   1      18.875   1.757  14.360  0.00  0.00    -0.222 NA
ATOM     21  N20 ZIN A   1      19.120   5.050  15.428  0.00  0.00    -0.236 NA
ATOM     22  C22 ZIN A   1      19.092   2.910  16.810  0.00  0.00     0.155 A 
ATOM     23  C19 ZIN A   1      19.049   5.270  14.147  0.00  0.00     0.212 A 
ATOM     24  N24 ZIN A   1      19.012   1.593  16.662  0.00  0.00    -0.222 NA
ATOM     25  C25 ZIN A   1      18.907   1.043  15.466  0.00  0.00     0.237 A 
BRANCH  22  26
ATOM     26  N23 ZIN A   1      19.202   3.477  18.067  0.00  0.00    -0.382 N 
ATOM     27  H54 ZIN A   1      19.263   4.440  18.162  0.00  0.00     0.157 HD
ATOM     28  H55 ZIN A   1      19.218   2.910  18.854  0.00  0.00     0.157 HD
ENDBRANCH  22  26
ENDBRANCH  16  17
ENDBRANCH  14  16
ENDBRANCH  13  14
ENDBRANCH  12  13
ENDBRANCH   1  12
BRANCH   1  29
ATOM     29  O28 ZIN A   1      17.659  -0.656   9.545  0.00  0.00    -0.286 OA
BRANCH  29  30
ATOM     30  C29 ZIN A   1      18.809  -1.272   8.962  0.00  0.00     0.360 C 
BRANCH  30  31
ATOM     31  O30 ZIN A   1      19.432  -0.350   8.029  0.00  0.00    -0.272 OA
BRANCH  31  32
ATOM     32  C31 ZIN A   1      18.777  -0.108   6.880  0.00  0.00     0.408 C 
ATOM     33  O32 ZIN A   1      18.896   0.968   6.329  0.00  0.00    -0.229 OA
BRANCH  32  34
ATOM     34  O33 ZIN A   1      17.990  -1.056   6.341  0.00  0.00    -0.293 OA
BRANCH  34  35
ATOM     35  C34 ZIN A   1      18.517  -1.777   5.196  0.00  0.00     0.126 C 
ATOM     36  C35 ZIN A   1      19.158  -3.085   5.667  0.00  0.00     0.040 C 
ATOM     37  C36 ZIN A   1      17.378  -2.090   4.223  0.00  0.00     0.040 C 
ENDBRANCH  34  35
ENDBRANCH  32  34
ENDBRANCH  31  32
ENDBRANCH  30  31
ENDBRANCH  29  30
ENDBRANCH   1  29
TORSDOF 18
ENDMDL
MODEL 8
REMARK VINA RESULT:      -6.7      1.968      3.413
REMARK  18 active torsions:
REMARK  status: ('A' for Active; 'I' for Inactive)
REMARK    1  A    between atoms: C2_2  and  O4_4 
REMARK    2  A    between atoms: O4_4  and  C5_5 
REMARK    3  A    between atoms: C5_5  and  O7_7 
REMARK    4  A    between atoms: O7_7  and  C8_8 
REMARK    5  A    between atoms: C8_8  and  O9_9 
REMARK    6  A    between atoms: O9_9  and  P10_10 
REMARK    7  A    between atoms: P10_10  and  C12_12 
REMARK    8  A    between atoms: P10_10  and  O28_27 
REMARK    9  A    between atoms: C12_12  and  O13_13 
REMARK   10  A    between atoms: O13_13  and  C14_14 
REMARK   11  A    between atoms: C14_14  and  C17_16 
REMARK   12  A    between atoms: C17_16  and  N18_17 
REMARK   13  A    between atoms: C22_21  and  N23_22 
REMARK   14  A    between atoms: O28_27  and  C29_28 
REMARK   15  A    between atoms: C29_28  and  O30_29 
REMARK   16  A    between atoms: O30_29  and  C31_30 
REMARK   17  A    between atoms: C31_30  and  O33_32 
REMARK   18  A    between atoms: O33_32  and  C34_33 
ROOT
ATOM      1  P10 ZIN A   1      17.298   0.179  11.038  0.00  0.00     0.356 P 
ATOM      2  O11 ZIN A   1      15.872   0.120  11.429  0.00  0.00    -0.256 OA
ENDROOT
BRANCH   1   3
ATOM      3  O9  ZIN A   1      18.080  -1.077  11.671  0.00  0.00    -0.286 OA
BRANCH   3   4
ATOM      4  C8  ZIN A   1      17.882  -1.521  13.015  0.00  0.00     0.360 C 
BRANCH   4   5
ATOM      5  O7  ZIN A   1      19.172  -1.730  13.651  0.00  0.00    -0.272 OA
BRANCH   5   6
ATOM      6  C5  ZIN A   1      19.520  -0.866  14.621  0.00  0.00     0.408 C 
ATOM      7  O6  ZIN A   1      20.025   0.200  14.333  0.00  0.00    -0.229 OA
BRANCH   6   8
ATOM      8  O4  ZIN A   1      19.311  -1.185  15.911  0.00  0.00    -0.293 OA
BRANCH   8   9
ATOM      9  C2  ZIN A   1      18.592  -0.217  16.721  0.00  0.00     0.126 C 
ATOM     10  C1  ZIN A   1      17.129  -0.646  16.848  0.00  0.00     0.040 C 
ATOM     11  C3  ZIN A   1      19.225  -0.144  18.112  0.00  0.00     0.040 C 
ENDBRANCH   8   9
ENDBRANCH   6   8
ENDBRANCH   5   6
ENDBRANCH   4   5
ENDBRANCH   3   4
ENDBRANCH   1   3
BRANCH   1  12
ATOM     12  C12 ZIN A   1      18.035   1.728  11.655  0.00  0.00     0.300 C 
BRANCH  12  13
ATOM     13  O13 ZIN A   1      17.236   2.836  11.235  0.00  0.00    -0.373 OA
BRANCH  13  14
ATOM     14  C14 ZIN A   1      17.276   3.953  12.126  0.00  0.00     0.136 C 
ATOM     15  C16 ZIN A   1      16.960   5.234  11.351  0.00  0.00     0.041 C 
BRANCH  14  16
ATOM     16  C17 ZIN A   1      18.671   4.062  12.745  0.00  0.00     0.163 C 
BRANCH  16  17
ATOM     17  N18 ZIN A   1      18.550   4.194  14.199  0.00  0.00    -0.322 N 
ATOM     18  C27 ZIN A   1      18.410   5.366  14.899  0.00  0.00     0.165 A 
ATOM     19  C21 ZIN A   1      18.329   5.000  16.254  0.00  0.00     0.149 A 
ATOM     20  N26 ZIN A   1      18.326   6.651  14.570  0.00  0.00    -0.222 NA
ATOM     21  N20 ZIN A   1      18.431   3.650  16.310  0.00  0.00    -0.236 NA
ATOM     22  C22 ZIN A   1      18.175   6.020  17.208  0.00  0.00     0.155 A 
ATOM     23  C19 ZIN A   1      18.561   3.176  15.105  0.00  0.00     0.212 A 
ATOM     24  N24 ZIN A   1      18.108   7.278  16.785  0.00  0.00    -0.222 NA
ATOM     25  C25 ZIN A   1      18.182   7.573  15.499  0.00  0.00     0.237 A 
BRANCH  22  26
ATOM     26  N23 ZIN A   1      18.095   5.722  18.557  0.00  0.00    -0.382 N 
ATOM     27  H54 ZIN A   1      18.758   6.074  19.171  0.00  0.00     0.157 HD
ATOM     28  H55 ZIN A   1      17.377   5.160  18.887  0.00  0.00     0.157 HD
ENDBRANCH  22  26
ENDBRANCH  16  17
ENDBRANCH  14  16
ENDBRANCH  13  14
ENDBRANCH  12  13
ENDBRANCH   1  12
BRANCH   1  29
ATOM     29  O28 ZIN A   1      17.417   0.131   9.433  0.00  0.00    -0.286 OA
BRANCH  29  30
ATOM     30  C29 ZIN A   1      18.450  -0.582   8.749  0.00  0.00     0.360 C 
BRANCH  30  31
ATOM     31  O30 ZIN A   1      17.861  -1.634   7.942  0.00  0.00    -0.272 OA
BRANCH  31  32
ATOM     32  C31 ZIN A   1      18.070  -2.901   8.343  0.00  0.00     0.408 C 
ATOM     33  O32 ZIN A   1      18.619  -3.690   7.601  0.00  0.00    -0.229 OA
BRANCH  32  34
ATOM     34  O33 ZIN A   1      17.669  -3.295   9.565  0.00  0.00    -0.293 OA
BRANCH  34  35
ATOM     35  C34 ZIN A   1      18.327  -4.458  10.132  0.00  0.00     0.126 C 
ATOM     36  C35 ZIN A   1      19.643  -4.032  10.785  0.00  0.00     0.040 C 
ATOM     37  C36 ZIN A   1      17.418  -5.095  11.185  0.00  0.00     0.040 C 
ENDBRANCH  34  35
ENDBRANCH  32  34
ENDBRANCH  31  32
ENDBRANCH  30  31
ENDBRANCH  29  30
ENDBRANCH   1  29
TORSDOF 18
ENDMDL
MODEL 9
REMARK VINA RESULT:      -6.7      4.374      7.486
REMARK  18 active torsions:
REMARK  status: ('A' for Active; 'I' for Inactive)
REMARK    1  A    between atoms: C2_2  and  O4_4 
REMARK    2  A    between atoms: O4_4  and  C5_5 
REMARK    3  A    between atoms: C5_5  and  O7_7 
REMARK    4  A    between atoms: O7_7  and  C8_8 
REMARK    5  A    between atoms: C8_8  and  O9_9 
REMARK    6  A    between atoms: O9_9  and  P10_10 
REMARK    7  A    between atoms: P10_10  and  C12_12 
REMARK    8  A    between atoms: P10_10  and  O28_27 
REMARK    9  A    between atoms: C12_12  and  O13_13 
REMARK   10  A    between atoms: O13_13  and  C14_14 
REMARK   11  A    between atoms: C14_14  and  C17_16 
REMARK   12  A    between atoms: C17_16  and  N18_17 
REMARK   13  A    between atoms: C22_21  and  N23_22 
REMARK   14  A    between atoms: O28_27  and  C29_28 
REMARK   15  A    between atoms: C29_28  and  O30_29 
REMARK   16  A    between atoms: O30_29  and  C31_30 
REMARK   17  A    between atoms: C31_30  and  O33_32 
REMARK   18  A    between atoms: O33_32  and  C34_33 
ROOT
ATOM      1  P10 ZIN A   1      19.169  -0.523  13.463  0.00  0.00     0.356 P 
ATOM      2  O11 ZIN A   1      20.379   0.328  13.405  0.00  0.00    -0.256 OA
ENDROOT
BRANCH   1   3
ATOM      3  O9  ZIN A   1      19.113  -1.281  14.881  0.00  0.00    -0.286 OA
BRANCH   3   4
ATOM      4  C8  ZIN A   1      18.441  -0.748  16.023  0.00  0.00     0.360 C 
BRANCH   4   5
ATOM      5  O7  ZIN A   1      19.192   0.381  16.545  0.00  0.00    -0.272 OA
BRANCH   5   6
ATOM      6  C5  ZIN A   1      19.320   0.463  17.881  0.00  0.00     0.408 C 
ATOM      7  O6  ZIN A   1      18.946  -0.452  18.585  0.00  0.00    -0.229 OA
BRANCH   6   8
ATOM      8  O4  ZIN A   1      19.863   1.561  18.438  0.00  0.00    -0.293 OA
BRANCH   8   9
ATOM      9  C2  ZIN A   1      19.011   2.732  18.551  0.00  0.00     0.126 C 
ATOM     10  C1  ZIN A   1      19.139   3.581  17.285  0.00  0.00     0.040 C 
ATOM     11  C3  ZIN A   1      17.557   2.291  18.725  0.00  0.00     0.040 C 
ENDBRANCH   8   9
ENDBRANCH   6   8
ENDBRANCH   5   6
ENDBRANCH   4   5
ENDBRANCH   3   4
ENDBRANCH   1   3
BRANCH   1  12
ATOM     12  C12 ZIN A   1      19.225  -1.752  12.118  0.00  0.00     0.300 C 
BRANCH  12  13
ATOM     13  O13 ZIN A   1      18.506  -2.922  12.512  0.00  0.00    -0.373 OA
BRANCH  13  14
ATOM     14  C14 ZIN A   1      18.258  -3.839  11.444  0.00  0.00     0.136 C 
ATOM     15  C16 ZIN A   1      17.500  -5.055  11.983  0.00  0.00     0.041 C 
BRANCH  14  16
ATOM     16  C17 ZIN A   1      19.589  -4.294  10.842  0.00  0.00     0.163 C 
BRANCH  16  17
ATOM     17  N18 ZIN A   1      19.366  -4.776   9.477  0.00  0.00    -0.322 N 
ATOM     18  C27 ZIN A   1      19.111  -4.002   8.373  0.00  0.00     0.165 A 
ATOM     19  C21 ZIN A   1      18.974  -4.895   7.297  0.00  0.00     0.149 A 
ATOM     20  N26 ZIN A   1      18.998  -2.696   8.149  0.00  0.00    -0.222 NA
ATOM     21  N20 ZIN A   1      19.140  -6.145   7.791  0.00  0.00    -0.236 NA
ATOM     22  C22 ZIN A   1      18.708  -4.363   6.023  0.00  0.00     0.155 A 
ATOM     23  C19 ZIN A   1      19.370  -6.077   9.070  0.00  0.00     0.212 A 
ATOM     24  N24 ZIN A   1      18.605  -3.044   5.897  0.00  0.00    -0.222 NA
ATOM     25  C25 ZIN A   1      18.749  -2.243   6.938  0.00  0.00     0.237 A 
BRANCH  22  26
ATOM     26  N23 ZIN A   1      18.556  -5.193   4.927  0.00  0.00    -0.382 N 
ATOM     27  H54 ZIN A   1      19.334  -5.605   4.519  0.00  0.00     0.157 HD
ATOM     28  H55 ZIN A   1      17.672  -5.363   4.567  0.00  0.00     0.157 HD
ENDBRANCH  22  26
ENDBRANCH  16  17
ENDBRANCH  14  16
ENDBRANCH  13  14
ENDBRANCH  12  13
ENDBRANCH   1  12
BRANCH   1  29
ATOM     29  O28 ZIN A   1      17.858   0.397  13.295  0.00  0.00    -0.286 OA
BRANCH  29  30
ATOM     30  C29 ZIN A   1      17.880   1.819  13.437  0.00  0.00     0.360 C 
BRANCH  30  31
ATOM     31  O30 ZIN A   1      17.387   2.436  12.219  0.00  0.00    -0.272 OA
BRANCH  31  32
ATOM     32  C31 ZIN A   1      18.303   2.809  11.308  0.00  0.00     0.408 C 
ATOM     33  O32 ZIN A   1      18.581   3.982  11.172  0.00  0.00    -0.229 OA
BRANCH  32  34
ATOM     34  O33 ZIN A   1      18.911   1.881  10.546  0.00  0.00    -0.293 OA
BRANCH  34  35
ATOM     35  C34 ZIN A   1      18.266   1.532   9.293  0.00  0.00     0.126 C 
ATOM     36  C35 ZIN A   1      19.329   1.331   8.211  0.00  0.00     0.040 C 
ATOM     37  C36 ZIN A   1      17.471   0.237   9.473  0.00  0.00     0.040 C 
ENDBRANCH  34  35
ENDBRANCH  32  34
ENDBRANCH  31  32
ENDBRANCH  30  31
ENDBRANCH  29  30
ENDBRANCH   1  29
TORSDOF 18
ENDMDL
