MODEL 1
REMARK VINA RESULT:      -6.5      0.000      0.000
REMARK  2 active torsions:
REMARK  status: ('A' for Active; 'I' for Inactive)
REMARK    1  A    between atoms: C2_2  and  N3_3 
REMARK    2  A    between atoms: C7_7  and  C9_8 
ROOT
ATOM      1  N3  ZIN A   1      18.607   1.569  12.480  0.00  0.00    -0.268 N 
ATOM      2  C4  ZIN A   1      19.813   1.031  12.260  0.00  0.00     0.326 A 
ATOM      3  O5  ZIN A   1      20.422   0.377  13.084  0.00  0.00    -0.247 OA
ATOM      4  N6  ZIN A   1      20.275   1.294  11.025  0.00  0.00    -0.325 N 
ATOM      5  C7  ZIN A   1      19.245   2.106  10.354  0.00  0.00     0.212 A 
ATOM      6  C15 ZIN A   1      18.158   2.239  11.401  0.00  0.00     0.255 A 
ATOM      7  O16 ZIN A   1      17.104   2.829  11.292  0.00  0.00    -0.270 OA
ATOM      8  H22 ZIN A   1      21.122   1.007  10.649  0.00  0.00     0.165 HD
ENDROOT
BRANCH   5   9
ATOM      9  C9  ZIN A   1      18.721   1.393   9.133  0.00  0.00    -0.026 A 
ATOM     10  C14 ZIN A   1      17.750   0.418   9.267  0.00  0.00     0.010 A 
ATOM     11  C13 ZIN A   1      17.267  -0.233   8.146  0.00  0.00     0.001 A 
ATOM     12  C12 ZIN A   1      17.760   0.086   6.895  0.00  0.00     0.000 A 
ATOM     13  C11 ZIN A   1      18.734   1.058   6.763  0.00  0.00     0.001 A 
ATOM     14  C10 ZIN A   1      19.215   1.711   7.882  0.00  0.00     0.010 A 
ENDBRANCH   5   9
BRANCH   1  15
ATOM     15  C2  ZIN A   1      17.866   1.440  13.737  0.00  0.00     0.132 C 
ATOM     16  C1  ZIN A   1      18.239   2.596  14.669  0.00  0.00     0.027 C 
ENDBRANCH   1  15
TORSDOF 2
ENDMDL
MODEL 2
REMARK VINA RESULT:      -6.3      3.343      4.071
REMARK  2 active torsions:
REMARK  status: ('A' for Active; 'I' for Inactive)
REMARK    1  A    between atoms: C2_2  and  N3_3 
REMARK    2  A    between atoms: C7_7  and  C9_8 
ROOT
ATOM      1  N3  ZIN A   1      18.466  -3.014  11.576  0.00  0.00    -0.268 N 
ATOM      2  C4  ZIN A   1      19.788  -3.124  11.399  0.00  0.00     0.326 A 
ATOM      3  O5  ZIN A   1      20.381  -4.185  11.378  0.00  0.00    -0.247 OA
ATOM      4  N6  ZIN A   1      20.387  -1.930  11.244  0.00  0.00    -0.325 N 
ATOM      5  C7  ZIN A   1      19.325  -0.912  11.333  0.00  0.00     0.212 A 
ATOM      6  C15 ZIN A   1      18.067  -1.727  11.552  0.00  0.00     0.255 A 
ATOM      7  O16 ZIN A   1      16.937  -1.308  11.682  0.00  0.00    -0.270 OA
ATOM      8  H22 ZIN A   1      21.333  -1.770  11.103  0.00  0.00     0.165 HD
ENDROOT
BRANCH   5   9
ATOM      9  C9  ZIN A   1      19.233  -0.130  10.048  0.00  0.00    -0.026 A 
ATOM     10  C14 ZIN A   1      19.166  -0.795   8.838  0.00  0.00     0.010 A 
ATOM     11  C13 ZIN A   1      19.078  -0.077   7.659  0.00  0.00     0.001 A 
ATOM     12  C12 ZIN A   1      19.065   1.305   7.690  0.00  0.00     0.000 A 
ATOM     13  C11 ZIN A   1      19.138   1.969   8.901  0.00  0.00     0.001 A 
ATOM     14  C10 ZIN A   1      19.222   1.252  10.079  0.00  0.00     0.010 A 
ENDBRANCH   5   9
BRANCH   1  15
ATOM     15  C2  ZIN A   1      17.564  -4.152  11.769  0.00  0.00     0.132 C 
ATOM     16  C1  ZIN A   1      16.986  -4.579  10.418  0.00  0.00     0.027 C 
ENDBRANCH   1  15
TORSDOF 2
ENDMDL
MODEL 3
REMARK VINA RESULT:      -6.3      1.333      1.625
REMARK  2 active torsions:
REMARK  status: ('A' for Active; 'I' for Inactive)
REMARK    1  A    between atoms: C2_2  and  N3_3 
REMARK    2  A    between atoms: C7_7  and  C9_8 
ROOT
ATOM      1  N3  ZIN A   1      18.722   0.409  12.225  0.00  0.00    -0.268 N 
ATOM      2  C4  ZIN A   1      19.944   0.847  11.899  0.00  0.00     0.326 A 
ATOM      3  O5  ZIN A   1      20.954   0.548  12.507  0.00  0.00    -0.247 OA
ATOM      4  N6  ZIN A   1      19.931   1.655  10.824  0.00  0.00    -0.325 N 
ATOM      5  C7  ZIN A   1      18.526   1.759  10.394  0.00  0.00     0.212 A 
ATOM      6  C15 ZIN A   1      17.783   0.889  11.386  0.00  0.00     0.255 A 
ATOM      7  O16 ZIN A   1      16.591   0.671  11.422  0.00  0.00    -0.270 OA
ATOM      8  H22 ZIN A   1      20.696   2.086  10.413  0.00  0.00     0.165 HD
ENDROOT
BRANCH   5   9
ATOM      9  C9  ZIN A   1      18.360   1.227   8.993  0.00  0.00    -0.026 A 
ATOM     10  C14 ZIN A   1      17.471   0.197   8.747  0.00  0.00     0.010 A 
ATOM     11  C13 ZIN A   1      17.316  -0.290   7.462  0.00  0.00     0.001 A 
ATOM     12  C12 ZIN A   1      18.055   0.249   6.425  0.00  0.00     0.000 A 
ATOM     13  C11 ZIN A   1      18.947   1.276   6.674  0.00  0.00     0.001 A 
ATOM     14  C10 ZIN A   1      19.099   1.764   7.957  0.00  0.00     0.010 A 
ENDBRANCH   5   9
BRANCH   1  15
ATOM     15  C2  ZIN A   1      18.442  -0.485  13.352  0.00  0.00     0.132 C 
ATOM     16  C1  ZIN A   1      18.513  -1.938  12.879  0.00  0.00     0.027 C 
ENDBRANCH   1  15
TORSDOF 2
ENDMDL
MODEL 4
REMARK VINA RESULT:      -6.2      2.321      5.449
REMARK  2 active torsions:
REMARK  status: ('A' for Active; 'I' for Inactive)
REMARK    1  A    between atoms: C2_2  and  N3_3 
REMARK    2  A    between atoms: C7_7  and  C9_8 
ROOT
ATOM      1  N3  ZIN A   1      18.902   1.361  11.120  0.00  0.00    -0.268 N 
ATOM      2  C4  ZIN A   1      19.833   2.045  11.797  0.00  0.00     0.326 A 
ATOM      3  O5  ZIN A   1      20.145   3.193  11.543  0.00  0.00    -0.247 OA
ATOM      4  N6  ZIN A   1      20.382   1.323  12.789  0.00  0.00    -0.325 N 
ATOM      5  C7  ZIN A   1      19.731   0.001  12.757  0.00  0.00     0.212 A 
ATOM      6  C15 ZIN A   1      18.749   0.115  11.610  0.00  0.00     0.255 A 
ATOM      7  O16 ZIN A   1      17.985  -0.739  11.212  0.00  0.00    -0.270 OA
ATOM      8  H22 ZIN A   1      21.072   1.614  13.404  0.00  0.00     0.165 HD
ENDROOT
BRANCH   5   9
ATOM      9  C9  ZIN A   1      19.006  -0.263  14.052  0.00  0.00    -0.026 A 
ATOM     10  C14 ZIN A   1      19.344  -1.361  14.821  0.00  0.00     0.010 A 
ATOM     11  C13 ZIN A   1      18.681  -1.602  16.011  0.00  0.00     0.001 A 
ATOM     12  C12 ZIN A   1      17.676  -0.748  16.426  0.00  0.00     0.000 A 
ATOM     13  C11 ZIN A   1      17.336   0.347  15.654  0.00  0.00     0.001 A 
ATOM     14  C10 ZIN A   1      18.001   0.589  14.467  0.00  0.00     0.010 A 
ENDBRANCH   5   9
BRANCH   1  15
ATOM     15  C2  ZIN A   1      18.142   1.902   9.990  0.00  0.00     0.132 C 
ATOM     16  C1  ZIN A   1      18.927   1.680   8.696  0.00  0.00     0.027 C 
ENDBRANCH   1  15
TORSDOF 2
ENDMDL
MODEL 5
REMARK VINA RESULT:      -6.1      2.959      4.573
REMARK  2 active torsions:
REMARK  status: ('A' for Active; 'I' for Inactive)
REMARK    1  A    between atoms: C2_2  and  N3_3 
REMARK    2  A    between atoms: C7_7  and  C9_8 
ROOT
ATOM      1  N3  ZIN A   1      18.377   3.550  11.738  0.00  0.00    -0.268 N 
ATOM      2  C4  ZIN A   1      19.663   3.749  12.052  0.00  0.00     0.326 A 
ATOM      3  O5  ZIN A   1      20.127   4.835  12.344  0.00  0.00    -0.247 OA
ATOM      4  N6  ZIN A   1      20.384   2.615  12.009  0.00  0.00    -0.325 N 
ATOM      5  C7  ZIN A   1      19.456   1.540  11.618  0.00  0.00     0.212 A 
ATOM      6  C15 ZIN A   1      18.129   2.255  11.461  0.00  0.00     0.255 A 
ATOM      7  O16 ZIN A   1      17.066   1.764  11.147  0.00  0.00    -0.270 OA
ATOM      8  H22 ZIN A   1      21.331   2.523  12.198  0.00  0.00     0.165 HD
ENDROOT
BRANCH   5   9
ATOM      9  C9  ZIN A   1      19.370   0.495  12.701  0.00  0.00    -0.026 A 
ATOM     10  C14 ZIN A   1      19.320   0.878  14.028  0.00  0.00     0.010 A 
ATOM     11  C13 ZIN A   1      19.238  -0.081  15.021  0.00  0.00     0.001 A 
ATOM     12  C12 ZIN A   1      19.212  -1.422  14.686  0.00  0.00     0.000 A 
ATOM     13  C11 ZIN A   1      19.267  -1.804  13.359  0.00  0.00     0.001 A 
ATOM     14  C10 ZIN A   1      19.346  -0.845  12.367  0.00  0.00     0.010 A 
ENDBRANCH   5   9
BRANCH   1  15
ATOM     15  C2  ZIN A   1      17.364   4.608  11.705  0.00  0.00     0.132 C 
ATOM     16  C1  ZIN A   1      17.296   5.204  10.298  0.00  0.00     0.027 C 
ENDBRANCH   1  15
TORSDOF 2
ENDMDL
MODEL 6
REMARK VINA RESULT:      -6.0      2.670      5.783
REMARK  2 active torsions:
REMARK  status: ('A' for Active; 'I' for Inactive)
REMARK    1  A    between atoms: C2_2  and  N3_3 
REMARK    2  A    between atoms: C7_7  and  C9_8 
ROOT
ATOM      1  N3  ZIN A   1      18.565  -0.485  11.001  0.00  0.00    -0.268 N 
ATOM      2  C4  ZIN A   1      19.861  -0.765  11.186  0.00  0.00     0.326 A 
ATOM      3  O5  ZIN A   1      20.733  -0.485  10.387  0.00  0.00    -0.247 OA
ATOM      4  N6  ZIN A   1      20.090  -1.389  12.355  0.00  0.00    -0.325 N 
ATOM      5  C7  ZIN A   1      18.782  -1.538  13.017  0.00  0.00     0.212 A 
ATOM      6  C15 ZIN A   1      17.814  -0.900  12.041  0.00  0.00     0.255 A 
ATOM      7  O16 ZIN A   1      16.614  -0.789  12.168  0.00  0.00    -0.270 OA
ATOM      8  H22 ZIN A   1      20.949  -1.684  12.696  0.00  0.00     0.165 HD
ENDROOT
BRANCH   5   9
ATOM      9  C9  ZIN A   1      18.768  -0.803  14.333  0.00  0.00    -0.026 A 
ATOM     10  C14 ZIN A   1      19.080   0.543  14.377  0.00  0.00     0.010 A 
ATOM     11  C13 ZIN A   1      19.064   1.217  15.584  0.00  0.00     0.001 A 
ATOM     12  C12 ZIN A   1      18.743   0.543  16.748  0.00  0.00     0.000 A 
ATOM     13  C11 ZIN A   1      18.437  -0.804  16.704  0.00  0.00     0.001 A 
ATOM     14  C10 ZIN A   1      18.449  -1.477  15.497  0.00  0.00     0.010 A 
ENDBRANCH   5   9
BRANCH   1  15
ATOM     15  C2  ZIN A   1      18.030   0.191   9.817  0.00  0.00     0.132 C 
ATOM     16  C1  ZIN A   1      17.938   1.694  10.087  0.00  0.00     0.027 C 
ENDBRANCH   1  15
TORSDOF 2
ENDMDL
MODEL 7
REMARK VINA RESULT:      -6.0      1.832      2.577
REMARK  2 active torsions:
REMARK  status: ('A' for Active; 'I' for Inactive)
REMARK    1  A    between atoms: C2_2  and  N3_3 
REMARK    2  A    between atoms: C7_7  and  C9_8 
ROOT
ATOM      1  N3  ZIN A   1      17.872   0.307  13.297  0.00  0.00    -0.268 N 
ATOM      2  C4  ZIN A   1      18.299   1.575  13.320  0.00  0.00     0.326 A 
ATOM      3  O5  ZIN A   1      18.968   2.046  14.220  0.00  0.00    -0.247 OA
ATOM      4  N6  ZIN A   1      17.906   2.270  12.238  0.00  0.00    -0.325 N 
ATOM      5  C7  ZIN A   1      17.124   1.342  11.403  0.00  0.00     0.212 A 
ATOM      6  C15 ZIN A   1      17.155   0.045  12.186  0.00  0.00     0.255 A 
ATOM      7  O16 ZIN A   1      16.639  -1.008  11.879  0.00  0.00    -0.270 OA
ATOM      8  H22 ZIN A   1      18.099   3.201  12.046  0.00  0.00     0.165 HD
ENDROOT
BRANCH   5   9
ATOM      9  C9  ZIN A   1      17.776   1.164  10.056  0.00  0.00    -0.026 A 
ATOM     10  C14 ZIN A   1      18.786   2.021   9.659  0.00  0.00     0.010 A 
ATOM     11  C13 ZIN A   1      19.387   1.855   8.424  0.00  0.00     0.001 A 
ATOM     12  C12 ZIN A   1      18.973   0.837   7.585  0.00  0.00     0.000 A 
ATOM     13  C11 ZIN A   1      17.960  -0.016   7.982  0.00  0.00     0.001 A 
ATOM     14  C10 ZIN A   1      17.362   0.147   9.217  0.00  0.00     0.010 A 
ENDBRANCH   5   9
BRANCH   1  15
ATOM     15  C2  ZIN A   1      18.153  -0.676  14.346  0.00  0.00     0.132 C 
ATOM     16  C1  ZIN A   1      19.439  -1.432  14.004  0.00  0.00     0.027 C 
ENDBRANCH   1  15
TORSDOF 2
ENDMDL
MODEL 8
REMARK VINA RESULT:      -5.9      2.211      4.345
REMARK  2 active torsions:
REMARK  status: ('A' for Active; 'I' for Inactive)
REMARK    1  A    between atoms: C2_2  and  N3_3 
REMARK    2  A    between atoms: C7_7  and  C9_8 
ROOT
ATOM      1  N3  ZIN A   1      18.356  -0.270  10.273  0.00  0.00    -0.268 N 
ATOM      2  C4  ZIN A   1      19.622   0.160  10.337  0.00  0.00     0.326 A 
ATOM      3  O5  ZIN A   1      20.534  -0.327   9.697  0.00  0.00    -0.247 OA
ATOM      4  N6  ZIN A   1      19.773   1.192  11.186  0.00  0.00    -0.325 N 
ATOM      5  C7  ZIN A   1      18.440   1.471  11.750  0.00  0.00     0.212 A 
ATOM      6  C15 ZIN A   1      17.548   0.447  11.079  0.00  0.00     0.255 A 
ATOM      7  O16 ZIN A   1      16.355   0.299  11.238  0.00  0.00    -0.270 OA
ATOM      8  H22 ZIN A   1      20.597   1.660  11.390  0.00  0.00     0.165 HD
ENDROOT
BRANCH   5   9
ATOM      9  C9  ZIN A   1      17.999   2.869  11.399  0.00  0.00    -0.026 A 
ATOM     10  C14 ZIN A   1      18.256   3.378  10.139  0.00  0.00     0.010 A 
ATOM     11  C13 ZIN A   1      17.848   4.660   9.816  0.00  0.00     0.001 A 
ATOM     12  C12 ZIN A   1      17.191   5.433  10.754  0.00  0.00     0.000 A 
ATOM     13  C11 ZIN A   1      16.939   4.925  12.015  0.00  0.00     0.001 A 
ATOM     14  C10 ZIN A   1      17.343   3.643  12.337  0.00  0.00     0.010 A 
ENDBRANCH   5   9
BRANCH   1  15
ATOM     15  C2  ZIN A   1      17.905  -1.378   9.429  0.00  0.00     0.132 C 
ATOM     16  C1  ZIN A   1      17.643  -0.865   8.012  0.00  0.00     0.027 C 
ENDBRANCH   1  15
TORSDOF 2
ENDMDL
MODEL 9
REMARK VINA RESULT:      -5.9      2.875      6.480
REMARK  2 active torsions:
REMARK  status: ('A' for Active; 'I' for Inactive)
REMARK    1  A    between atoms: C2_2  and  N3_3 
REMARK    2  A    between atoms: C7_7  and  C9_8 
ROOT
ATOM      1  N3  ZIN A   1      19.033  -0.680  12.046  0.00  0.00    -0.268 N 
ATOM      2  C4  ZIN A   1      17.723  -0.835  12.272  0.00  0.00     0.326 A 
ATOM      3  O5  ZIN A   1      17.004  -1.557  11.609  0.00  0.00    -0.247 OA
ATOM      4  N6  ZIN A   1      17.291  -0.104  13.315  0.00  0.00    -0.325 N 
ATOM      5  C7  ZIN A   1      18.464   0.620  13.836  0.00  0.00     0.212 A 
ATOM      6  C15 ZIN A   1      19.591   0.172  12.929  0.00  0.00     0.255 A 
ATOM      7  O16 ZIN A   1      20.754   0.512  12.983  0.00  0.00    -0.270 OA
ATOM      8  H22 ZIN A   1      16.385  -0.061  13.657  0.00  0.00     0.165 HD
ENDROOT
BRANCH   5   9
ATOM      9  C9  ZIN A   1      18.741   0.222  15.263  0.00  0.00    -0.026 A 
ATOM     10  C14 ZIN A   1      18.852   1.192  16.241  0.00  0.00     0.010 A 
ATOM     11  C13 ZIN A   1      19.103   0.826  17.551  0.00  0.00     0.001 A 
ATOM     12  C12 ZIN A   1      19.251  -0.509  17.880  0.00  0.00     0.000 A 
ATOM     13  C11 ZIN A   1      19.144  -1.478  16.900  0.00  0.00     0.001 A 
ATOM     14  C10 ZIN A   1      18.890  -1.112  15.591  0.00  0.00     0.010 A 
ENDBRANCH   5   9
BRANCH   1  15
ATOM     15  C2  ZIN A   1      19.769  -1.355  10.975  0.00  0.00     0.132 C 
ATOM     16  C1  ZIN A   1      19.792  -0.464   9.731  0.00  0.00     0.027 C 
ENDBRANCH   1  15
TORSDOF 2
ENDMDL
