MODEL 1
REMARK VINA RESULT:      -4.8      0.000      0.000
REMARK  9 active torsions:
REMARK  status: ('A' for Active; 'I' for Inactive)
REMARK    1  A    between atoms: N1_1  and  C5_5 
REMARK    2  A    between atoms: C5_5  and  C6_6 
REMARK    3  A    between atoms: C6_6  and  C7_7 
REMARK    4  A    between atoms: C7_7  and  C8_8 
REMARK    5  A    between atoms: C8_8  and  O9_9 
REMARK    6  A    between atoms: C8_8  and  P10_10 
REMARK    7  A    between atoms: C8_8  and  P14_14 
REMARK    8  A    between atoms: P10_10  and  O13_13 
REMARK    9  A    between atoms: P14_14  and  O17_17 
ROOT
ATOM      1  C8  ZIN A   1      19.285  -0.869  12.655  0.00  0.00     0.268 C 
ENDROOT
BRANCH   1   2
ATOM      2  C7  ZIN A   1      17.962  -1.253  11.989  0.00  0.00     0.067 C 
BRANCH   2   3
ATOM      3  C6  ZIN A   1      17.912  -2.769  11.792  0.00  0.00     0.031 C 
BRANCH   3   4
ATOM      4  C5  ZIN A   1      18.071  -3.096  10.305  0.00  0.00     0.230 C 
BRANCH   4   5
ATOM      5  N1  ZIN A   1      19.494  -3.283   9.995  0.00  0.00    -0.079 N 
ATOM      6  H2  ZIN A   1      19.680  -4.264   9.845  0.00  0.00     0.274 HD
ATOM      7  H3  ZIN A   1      20.053  -2.950  10.766  0.00  0.00     0.274 HD
ATOM      8  H4  ZIN A   1      19.728  -2.766   9.161  0.00  0.00     0.274 HD
ENDBRANCH   4   5
ENDBRANCH   3   4
ENDBRANCH   2   3
ENDBRANCH   1   2
BRANCH   1   9
ATOM      9  O9  ZIN A   1      20.052  -2.049  12.906  0.00  0.00    -0.366 OA
ATOM     10  H24 ZIN A   1      20.951  -1.874  13.218  0.00  0.00     0.212 HD
ENDBRANCH   1   9
BRANCH   1  11
ATOM     11  P10 ZIN A   1      20.221   0.241  11.553  0.00  0.00     0.296 P 
ATOM     12  O11 ZIN A   1      20.403  -0.435  10.175  0.00  0.00    -0.644 OA
ATOM     13  O12 ZIN A   1      19.445   1.565  11.377  0.00  0.00    -0.644 OA
BRANCH  11  14
ATOM     14  O13 ZIN A   1      21.664   0.545  12.197  0.00  0.00    -0.320 OA
ATOM     15  H25 ZIN A   1      22.091   1.340  11.849  0.00  0.00     0.221 HD
ENDBRANCH  11  14
ENDBRANCH   1  11
BRANCH   1  16
ATOM     16  P14 ZIN A   1      18.947  -0.018  14.231  0.00  0.00     0.296 P 
ATOM     17  O15 ZIN A   1      17.460   0.397  14.285  0.00  0.00    -0.644 OA
ATOM     18  O16 ZIN A   1      19.259  -0.970  15.408  0.00  0.00    -0.644 OA
BRANCH  16  19
ATOM     19  O17 ZIN A   1      19.874   1.293  14.343  0.00  0.00    -0.320 OA
ATOM     20  H26 ZIN A   1      19.676   1.852  15.106  0.00  0.00     0.221 HD
ENDBRANCH  16  19
ENDBRANCH   1  16
TORSDOF 9
ENDMDL
MODEL 2
REMARK VINA RESULT:      -4.7      3.465      4.429
REMARK  9 active torsions:
REMARK  status: ('A' for Active; 'I' for Inactive)
REMARK    1  A    between atoms: N1_1  and  C5_5 
REMARK    2  A    between atoms: C5_5  and  C6_6 
REMARK    3  A    between atoms: C6_6  and  C7_7 
REMARK    4  A    between atoms: C7_7  and  C8_8 
REMARK    5  A    between atoms: C8_8  and  O9_9 
REMARK    6  A    between atoms: C8_8  and  P10_10 
REMARK    7  A    between atoms: C8_8  and  P14_14 
REMARK    8  A    between atoms: P10_10  and  O13_13 
REMARK    9  A    between atoms: P14_14  and  O17_17 
ROOT
ATOM      1  C8  ZIN A   1      19.133   1.312  11.002  0.00  0.00     0.268 C 
ENDROOT
BRANCH   1   2
ATOM      2  C7  ZIN A   1      19.594   2.764  10.861  0.00  0.00     0.067 C 
BRANCH   2   3
ATOM      3  C6  ZIN A   1      18.411   3.701  11.113  0.00  0.00     0.031 C 
BRANCH   3   4
ATOM      4  C5  ZIN A   1      18.690   4.552  12.355  0.00  0.00     0.230 C 
BRANCH   4   5
ATOM      5  N1  ZIN A   1      20.055   4.292  12.830  0.00  0.00    -0.079 N 
ATOM      6  H2  ZIN A   1      20.202   4.763  13.710  0.00  0.00     0.274 HD
ATOM      7  H3  ZIN A   1      20.719   4.634  12.151  0.00  0.00     0.274 HD
ATOM      8  H4  ZIN A   1      20.184   3.299  12.955  0.00  0.00     0.274 HD
ENDBRANCH   4   5
ENDBRANCH   3   4
ENDBRANCH   2   3
ENDBRANCH   1   2
BRANCH   1   9
ATOM      9  O9  ZIN A   1      17.731   1.282  11.275  0.00  0.00    -0.366 OA
ATOM     10  H24 ZIN A   1      17.287   0.481  10.962  0.00  0.00     0.212 HD
ENDBRANCH   1   9
BRANCH   1  11
ATOM     11  P10 ZIN A   1      19.470   0.415   9.452  0.00  0.00     0.296 P 
ATOM     12  O11 ZIN A   1      18.295  -0.540   9.144  0.00  0.00    -0.644 OA
ATOM     13  O12 ZIN A   1      19.629   1.426   8.295  0.00  0.00    -0.644 OA
BRANCH  11  14
ATOM     14  O13 ZIN A   1      20.827  -0.438   9.610  0.00  0.00    -0.320 OA
ATOM     15  H25 ZIN A   1      20.990  -0.753  10.510  0.00  0.00     0.221 HD
ENDBRANCH  11  14
ENDBRANCH   1  11
BRANCH   1  16
ATOM     16  P14 ZIN A   1      20.036   0.519  12.373  0.00  0.00     0.296 P 
ATOM     17  O15 ZIN A   1      19.643   1.191  13.707  0.00  0.00    -0.644 OA
ATOM     18  O16 ZIN A   1      19.674  -0.982  12.426  0.00  0.00    -0.644 OA
BRANCH  16  19
ATOM     19  O17 ZIN A   1      21.620   0.680  12.137  0.00  0.00    -0.320 OA
ATOM     20  H26 ZIN A   1      22.055  -0.123  11.820  0.00  0.00     0.221 HD
ENDBRANCH  16  19
ENDBRANCH   1  16
TORSDOF 9
ENDMDL
MODEL 3
REMARK VINA RESULT:      -4.7      3.266      5.078
REMARK  9 active torsions:
REMARK  status: ('A' for Active; 'I' for Inactive)
REMARK    1  A    between atoms: N1_1  and  C5_5 
REMARK    2  A    between atoms: C5_5  and  C6_6 
REMARK    3  A    between atoms: C6_6  and  C7_7 
REMARK    4  A    between atoms: C7_7  and  C8_8 
REMARK    5  A    between atoms: C8_8  and  O9_9 
REMARK    6  A    between atoms: C8_8  and  P10_10 
REMARK    7  A    between atoms: C8_8  and  P14_14 
REMARK    8  A    between atoms: P10_10  and  O13_13 
REMARK    9  A    between atoms: P14_14  and  O17_17 
ROOT
ATOM      1  C8  ZIN A   1      19.200   0.870  10.226  0.00  0.00     0.268 C 
ENDROOT
BRANCH   1   2
ATOM      2  C7  ZIN A   1      17.869   1.279  10.860  0.00  0.00     0.067 C 
BRANCH   2   3
ATOM      3  C6  ZIN A   1      17.833   2.798  11.036  0.00  0.00     0.031 C 
BRANCH   3   4
ATOM      4  C5  ZIN A   1      17.980   3.143  12.520  0.00  0.00     0.230 C 
BRANCH   4   5
ATOM      5  N1  ZIN A   1      19.400   3.338  12.839  0.00  0.00    -0.079 N 
ATOM      6  H2  ZIN A   1      19.592   2.974  13.760  0.00  0.00     0.274 HD
ATOM      7  H3  ZIN A   1      19.618   4.323  12.816  0.00  0.00     0.274 HD
ATOM      8  H4  ZIN A   1      19.967   2.852  12.160  0.00  0.00     0.274 HD
ENDBRANCH   4   5
ENDBRANCH   3   4
ENDBRANCH   2   3
ENDBRANCH   1   2
BRANCH   1   9
ATOM      9  O9  ZIN A   1      19.988   2.037   9.978  0.00  0.00    -0.366 OA
ATOM     10  H24 ZIN A   1      20.423   2.392  10.766  0.00  0.00     0.212 HD
ENDBRANCH   1   9
BRANCH   1  11
ATOM     11  P10 ZIN A   1      20.098  -0.239  11.361  0.00  0.00     0.296 P 
ATOM     12  O11 ZIN A   1      20.241   0.442  12.741  0.00  0.00    -0.644 OA
ATOM     13  O12 ZIN A   1      19.313  -1.560  11.517  0.00  0.00    -0.644 OA
BRANCH  11  14
ATOM     14  O13 ZIN A   1      21.560  -0.550  10.762  0.00  0.00    -0.320 OA
ATOM     15  H25 ZIN A   1      22.287  -0.231  11.315  0.00  0.00     0.221 HD
ENDBRANCH  11  14
ENDBRANCH   1  11
BRANCH   1  16
ATOM     16  P14 ZIN A   1      18.885   0.005   8.653  0.00  0.00     0.296 P 
ATOM     17  O15 ZIN A   1      17.400  -0.416   8.585  0.00  0.00    -0.644 OA
ATOM     18  O16 ZIN A   1      19.207   0.948   7.473  0.00  0.00    -0.644 OA
BRANCH  16  19
ATOM     19  O17 ZIN A   1      19.818  -1.304   8.563  0.00  0.00    -0.320 OA
ATOM     20  H26 ZIN A   1      20.093  -1.530   7.665  0.00  0.00     0.221 HD
ENDBRANCH  16  19
ENDBRANCH   1  16
TORSDOF 9
ENDMDL
MODEL 4
REMARK VINA RESULT:      -4.7      2.253      3.279
REMARK  9 active torsions:
REMARK  status: ('A' for Active; 'I' for Inactive)
REMARK    1  A    between atoms: N1_1  and  C5_5 
REMARK    2  A    between atoms: C5_5  and  C6_6 
REMARK    3  A    between atoms: C6_6  and  C7_7 
REMARK    4  A    between atoms: C7_7  and  C8_8 
REMARK    5  A    between atoms: C8_8  and  O9_9 
REMARK    6  A    between atoms: C8_8  and  P10_10 
REMARK    7  A    between atoms: C8_8  and  P14_14 
REMARK    8  A    between atoms: P10_10  and  O13_13 
REMARK    9  A    between atoms: P14_14  and  O17_17 
ROOT
ATOM      1  C8  ZIN A   1      19.156   0.828  10.435  0.00  0.00     0.268 C 
ENDROOT
BRANCH   1   2
ATOM      2  C7  ZIN A   1      17.888   0.101   9.983  0.00  0.00     0.067 C 
BRANCH   2   3
ATOM      3  C6  ZIN A   1      17.922  -0.087   8.465  0.00  0.00     0.031 C 
BRANCH   3   4
ATOM      4  C5  ZIN A   1      18.124  -1.569   8.140  0.00  0.00     0.230 C 
BRANCH   4   5
ATOM      5  N1  ZIN A   1      19.560  -1.871   8.105  0.00  0.00    -0.079 N 
ATOM      6  H2  ZIN A   1      19.705  -2.772   7.674  0.00  0.00     0.274 HD
ATOM      7  H3  ZIN A   1      19.925  -1.886   9.046  0.00  0.00     0.274 HD
ATOM      8  H4  ZIN A   1      20.040  -1.162   7.570  0.00  0.00     0.274 HD
ENDBRANCH   4   5
ENDBRANCH   3   4
ENDBRANCH   2   3
ENDBRANCH   1   2
BRANCH   1   9
ATOM      9  O9  ZIN A   1      19.986   1.088   9.301  0.00  0.00    -0.366 OA
ATOM     10  H24 ZIN A   1      20.570   0.355   9.066  0.00  0.00     0.212 HD
ENDBRANCH   1   9
BRANCH   1  11
ATOM     11  P10 ZIN A   1      18.702   2.404  11.231  0.00  0.00     0.296 P 
ATOM     12  O11 ZIN A   1      18.698   3.532  10.174  0.00  0.00    -0.644 OA
ATOM     13  O12 ZIN A   1      17.294   2.279  11.855  0.00  0.00    -0.644 OA
BRANCH  11  14
ATOM     14  O13 ZIN A   1      19.772   2.751  12.383  0.00  0.00    -0.320 OA
ATOM     15  H25 ZIN A   1      20.663   2.420  12.204  0.00  0.00     0.221 HD
ENDBRANCH  11  14
ENDBRANCH   1  11
BRANCH   1  16
ATOM     16  P14 ZIN A   1      20.062  -0.214  11.625  0.00  0.00     0.296 P 
ATOM     17  O15 ZIN A   1      19.336  -0.191  12.989  0.00  0.00    -0.644 OA
ATOM     18  O16 ZIN A   1      20.122  -1.665  11.097  0.00  0.00    -0.644 OA
BRANCH  16  19
ATOM     19  O17 ZIN A   1      21.558   0.352  11.804  0.00  0.00    -0.320 OA
ATOM     20  H26 ZIN A   1      21.975   0.631  10.978  0.00  0.00     0.221 HD
ENDBRANCH  16  19
ENDBRANCH   1  16
TORSDOF 9
ENDMDL
MODEL 5
REMARK VINA RESULT:      -4.7      1.380      3.347
REMARK  9 active torsions:
REMARK  status: ('A' for Active; 'I' for Inactive)
REMARK    1  A    between atoms: N1_1  and  C5_5 
REMARK    2  A    between atoms: C5_5  and  C6_6 
REMARK    3  A    between atoms: C6_6  and  C7_7 
REMARK    4  A    between atoms: C7_7  and  C8_8 
REMARK    5  A    between atoms: C8_8  and  O9_9 
REMARK    6  A    between atoms: C8_8  and  P10_10 
REMARK    7  A    between atoms: C8_8  and  P14_14 
REMARK    8  A    between atoms: P10_10  and  O13_13 
REMARK    9  A    between atoms: P14_14  and  O17_17 
ROOT
ATOM      1  C8  ZIN A   1      19.131  -1.307  11.999  0.00  0.00     0.268 C 
ENDROOT
BRANCH   1   2
ATOM      2  C7  ZIN A   1      19.576  -2.766  12.108  0.00  0.00     0.067 C 
BRANCH   2   3
ATOM      3  C6  ZIN A   1      18.396  -3.685  11.782  0.00  0.00     0.031 C 
BRANCH   3   4
ATOM      4  C5  ZIN A   1      18.693  -4.461  10.497  0.00  0.00     0.230 C 
BRANCH   4   5
ATOM      5  N1  ZIN A   1      20.089  -4.235  10.101  0.00  0.00    -0.079 N 
ATOM      6  H2  ZIN A   1      20.576  -5.118  10.063  0.00  0.00     0.274 HD
ATOM      7  H3  ZIN A   1      20.537  -3.632  10.775  0.00  0.00     0.274 HD
ATOM      8  H4  ZIN A   1      20.114  -3.798   9.191  0.00  0.00     0.274 HD
ENDBRANCH   4   5
ENDBRANCH   3   4
ENDBRANCH   2   3
ENDBRANCH   1   2
BRANCH   1   9
ATOM      9  O9  ZIN A   1      17.731  -1.255  11.719  0.00  0.00    -0.366 OA
ATOM     10  H24 ZIN A   1      17.176  -1.625  12.420  0.00  0.00     0.212 HD
ENDBRANCH   1   9
BRANCH   1  11
ATOM     11  P10 ZIN A   1      19.469  -0.450  13.572  0.00  0.00     0.296 P 
ATOM     12  O11 ZIN A   1      18.279   0.473  13.921  0.00  0.00    -0.644 OA
ATOM     13  O12 ZIN A   1      19.659  -1.492  14.695  0.00  0.00    -0.644 OA
BRANCH  11  14
ATOM     14  O13 ZIN A   1      20.807   0.434  13.424  0.00  0.00    -0.320 OA
ATOM     15  H25 ZIN A   1      21.606  -0.006  13.750  0.00  0.00     0.221 HD
ENDBRANCH  11  14
ENDBRANCH   1  11
BRANCH   1  16
ATOM     16  P14 ZIN A   1      20.050  -0.490  10.652  0.00  0.00     0.296 P 
ATOM     17  O15 ZIN A   1      19.681  -1.148   9.303  0.00  0.00    -0.644 OA
ATOM     18  O16 ZIN A   1      19.680   1.009  10.612  0.00  0.00    -0.644 OA
BRANCH  16  19
ATOM     19  O17 ZIN A   1      21.631  -0.646  10.910  0.00  0.00    -0.320 OA
ATOM     20  H26 ZIN A   1      21.911  -0.398  11.801  0.00  0.00     0.221 HD
ENDBRANCH  16  19
ENDBRANCH   1  16
TORSDOF 9
ENDMDL
MODEL 6
REMARK VINA RESULT:      -4.7      2.347      3.365
REMARK  9 active torsions:
REMARK  status: ('A' for Active; 'I' for Inactive)
REMARK    1  A    between atoms: N1_1  and  C5_5 
REMARK    2  A    between atoms: C5_5  and  C6_6 
REMARK    3  A    between atoms: C6_6  and  C7_7 
REMARK    4  A    between atoms: C7_7  and  C8_8 
REMARK    5  A    between atoms: C8_8  and  O9_9 
REMARK    6  A    between atoms: C8_8  and  P10_10 
REMARK    7  A    between atoms: C8_8  and  P14_14 
REMARK    8  A    between atoms: P10_10  and  O13_13 
REMARK    9  A    between atoms: P14_14  and  O17_17 
ROOT
ATOM      1  C8  ZIN A   1      19.473  -0.172  10.618  0.00  0.00     0.268 C 
ENDROOT
BRANCH   1   2
ATOM      2  C7  ZIN A   1      18.200   0.461  10.054  0.00  0.00     0.067 C 
BRANCH   2   3
ATOM      3  C6  ZIN A   1      18.367   0.690   8.550  0.00  0.00     0.031 C 
BRANCH   3   4
ATOM      4  C5  ZIN A   1      17.367  -0.184   7.788  0.00  0.00     0.230 C 
BRANCH   4   5
ATOM      5  N1  ZIN A   1      17.830  -1.577   7.795  0.00  0.00    -0.079 N 
ATOM      6  H2  ZIN A   1      17.834  -1.936   6.852  0.00  0.00     0.274 HD
ATOM      7  H3  ZIN A   1      17.210  -2.135   8.364  0.00  0.00     0.274 HD
ATOM      8  H4  ZIN A   1      18.764  -1.620   8.175  0.00  0.00     0.274 HD
ENDBRANCH   4   5
ENDBRANCH   3   4
ENDBRANCH   2   3
ENDBRANCH   1   2
BRANCH   1   9
ATOM      9  O9  ZIN A   1      20.444  -0.298   9.577  0.00  0.00    -0.366 OA
ATOM     10  H24 ZIN A   1      20.788   0.547   9.255  0.00  0.00     0.212 HD
ENDBRANCH   1   9
BRANCH   1  11
ATOM     11  P10 ZIN A   1      20.141   0.884  11.946  0.00  0.00     0.296 P 
ATOM     12  O11 ZIN A   1      19.975   2.370  11.554  0.00  0.00    -0.644 OA
ATOM     13  O12 ZIN A   1      19.373   0.609  13.257  0.00  0.00    -0.644 OA
BRANCH  11  14
ATOM     14  O13 ZIN A   1      21.703   0.556  12.158  0.00  0.00    -0.320 OA
ATOM     15  H25 ZIN A   1      22.167   1.199  12.712  0.00  0.00     0.221 HD
ENDBRANCH  11  14
ENDBRANCH   1  11
BRANCH   1  16
ATOM     16  P14 ZIN A   1      19.085  -1.821  11.290  0.00  0.00     0.296 P 
ATOM     17  O15 ZIN A   1      17.612  -1.855  11.756  0.00  0.00    -0.644 OA
ATOM     18  O16 ZIN A   1      19.304  -2.888  10.195  0.00  0.00    -0.644 OA
BRANCH  16  19
ATOM     19  O17 ZIN A   1      20.050  -2.132  12.541  0.00  0.00    -0.320 OA
ATOM     20  H26 ZIN A   1      20.501  -1.353  12.893  0.00  0.00     0.221 HD
ENDBRANCH  16  19
ENDBRANCH   1  16
TORSDOF 9
ENDMDL
MODEL 7
REMARK VINA RESULT:      -4.7      3.007      4.039
REMARK  9 active torsions:
REMARK  status: ('A' for Active; 'I' for Inactive)
REMARK    1  A    between atoms: N1_1  and  C5_5 
REMARK    2  A    between atoms: C5_5  and  C6_6 
REMARK    3  A    between atoms: C6_6  and  C7_7 
REMARK    4  A    between atoms: C7_7  and  C8_8 
REMARK    5  A    between atoms: C8_8  and  O9_9 
REMARK    6  A    between atoms: C8_8  and  P10_10 
REMARK    7  A    between atoms: C8_8  and  P14_14 
REMARK    8  A    between atoms: P10_10  and  O13_13 
REMARK    9  A    between atoms: P14_14  and  O17_17 
ROOT
ATOM      1  C8  ZIN A   1      19.419   1.021  11.396  0.00  0.00     0.268 C 
ENDROOT
BRANCH   1   2
ATOM      2  C7  ZIN A   1      18.659   0.602  12.655  0.00  0.00     0.067 C 
BRANCH   2   3
ATOM      3  C6  ZIN A   1      19.589   0.693  13.867  0.00  0.00     0.031 C 
BRANCH   3   4
ATOM      4  C5  ZIN A   1      19.385  -0.533  14.760  0.00  0.00     0.230 C 
BRANCH   4   5
ATOM      5  N1  ZIN A   1      19.993  -1.708  14.123  0.00  0.00    -0.079 N 
ATOM      6  H2  ZIN A   1      19.622  -1.817  13.191  0.00  0.00     0.274 HD
ATOM      7  H3  ZIN A   1      19.784  -2.532  14.667  0.00  0.00     0.274 HD
ATOM      8  H4  ZIN A   1      20.994  -1.584  14.074  0.00  0.00     0.274 HD
ENDBRANCH   4   5
ENDBRANCH   3   4
ENDBRANCH   2   3
ENDBRANCH   1   2
BRANCH   1   9
ATOM      9  O9  ZIN A   1      20.458   1.938  11.749  0.00  0.00    -0.366 OA
ATOM     10  H24 ZIN A   1      20.326   2.369  12.605  0.00  0.00     0.212 HD
ENDBRANCH   1   9
BRANCH   1  11
ATOM     11  P10 ZIN A   1      20.151  -0.452  10.609  0.00  0.00     0.296 P 
ATOM     12  O11 ZIN A   1      19.403  -1.717  11.090  0.00  0.00    -0.644 OA
ATOM     13  O12 ZIN A   1      20.025  -0.332   9.075  0.00  0.00    -0.644 OA
BRANCH  11  14
ATOM     14  O13 ZIN A   1      21.705  -0.560  11.015  0.00  0.00    -0.320 OA
ATOM     15  H25 ZIN A   1      21.906  -0.216  11.896  0.00  0.00     0.221 HD
ENDBRANCH  11  14
ENDBRANCH   1  11
BRANCH   1  16
ATOM     16  P14 ZIN A   1      18.270   1.825  10.231  0.00  0.00     0.296 P 
ATOM     17  O15 ZIN A   1      17.220   2.638  11.021  0.00  0.00    -0.644 OA
ATOM     18  O16 ZIN A   1      19.060   2.770   9.298  0.00  0.00    -0.644 OA
BRANCH  16  19
ATOM     19  O17 ZIN A   1      17.526   0.702   9.350  0.00  0.00    -0.320 OA
ATOM     20  H26 ZIN A   1      16.580   0.623   9.530  0.00  0.00     0.221 HD
ENDBRANCH  16  19
ENDBRANCH   1  16
TORSDOF 9
ENDMDL
MODEL 8
REMARK VINA RESULT:      -4.7      2.833      3.564
REMARK  9 active torsions:
REMARK  status: ('A' for Active; 'I' for Inactive)
REMARK    1  A    between atoms: N1_1  and  C5_5 
REMARK    2  A    between atoms: C5_5  and  C6_6 
REMARK    3  A    between atoms: C6_6  and  C7_7 
REMARK    4  A    between atoms: C7_7  and  C8_8 
REMARK    5  A    between atoms: C8_8  and  O9_9 
REMARK    6  A    between atoms: C8_8  and  P10_10 
REMARK    7  A    between atoms: C8_8  and  P14_14 
REMARK    8  A    between atoms: P10_10  and  O13_13 
REMARK    9  A    between atoms: P14_14  and  O17_17 
ROOT
ATOM      1  C8  ZIN A   1      19.514   0.103  12.565  0.00  0.00     0.268 C 
ENDROOT
BRANCH   1   2
ATOM      2  C7  ZIN A   1      18.373  -0.612  13.290  0.00  0.00     0.067 C 
BRANCH   2   3
ATOM      3  C6  ZIN A   1      18.781  -0.889  14.738  0.00  0.00     0.031 C 
BRANCH   3   4
ATOM      4  C5  ZIN A   1      17.721  -0.321  15.685  0.00  0.00     0.230 C 
BRANCH   4   5
ATOM      5  N1  ZIN A   1      17.401   1.057  15.291  0.00  0.00    -0.079 N 
ATOM      6  H2  ZIN A   1      17.853   1.702  15.922  0.00  0.00     0.274 HD
ATOM      7  H3  ZIN A   1      16.402   1.195  15.329  0.00  0.00     0.274 HD
ATOM      8  H4  ZIN A   1      17.728   1.223  14.351  0.00  0.00     0.274 HD
ENDBRANCH   4   5
ENDBRANCH   3   4
ENDBRANCH   2   3
ENDBRANCH   1   2
BRANCH   1   9
ATOM      9  O9  ZIN A   1      20.613   0.276  13.462  0.00  0.00    -0.366 OA
ATOM     10  H24 ZIN A   1      20.396   0.099  14.388  0.00  0.00     0.212 HD
ENDBRANCH   1   9
BRANCH   1  11
ATOM     11  P10 ZIN A   1      20.047  -0.896  11.136  0.00  0.00     0.296 P 
ATOM     12  O11 ZIN A   1      19.935  -2.397  11.487  0.00  0.00    -0.644 OA
ATOM     13  O12 ZIN A   1      19.143  -0.583   9.924  0.00  0.00    -0.644 OA
BRANCH  11  14
ATOM     14  O13 ZIN A   1      21.575  -0.542  10.774  0.00  0.00    -0.320 OA
ATOM     15  H25 ZIN A   1      21.690   0.326  10.364  0.00  0.00     0.221 HD
ENDBRANCH  11  14
ENDBRANCH   1  11
BRANCH   1  16
ATOM     16  P14 ZIN A   1      18.940   1.734  11.986  0.00  0.00     0.296 P 
ATOM     17  O15 ZIN A   1      17.451   1.643  11.585  0.00  0.00    -0.644 OA
ATOM     18  O16 ZIN A   1      19.106   2.770  13.120  0.00  0.00    -0.644 OA
BRANCH  16  19
ATOM     19  O17 ZIN A   1      19.812   2.189  10.713  0.00  0.00    -0.320 OA
ATOM     20  H26 ZIN A   1      20.056   1.463  10.123  0.00  0.00     0.221 HD
ENDBRANCH  16  19
ENDBRANCH   1  16
TORSDOF 9
ENDMDL
MODEL 9
REMARK VINA RESULT:      -4.6      2.623      3.622
REMARK  9 active torsions:
REMARK  status: ('A' for Active; 'I' for Inactive)
REMARK    1  A    between atoms: N1_1  and  C5_5 
REMARK    2  A    between atoms: C5_5  and  C6_6 
REMARK    3  A    between atoms: C6_6  and  C7_7 
REMARK    4  A    between atoms: C7_7  and  C8_8 
REMARK    5  A    between atoms: C8_8  and  O9_9 
REMARK    6  A    between atoms: C8_8  and  P10_10 
REMARK    7  A    between atoms: C8_8  and  P14_14 
REMARK    8  A    between atoms: P10_10  and  O13_13 
REMARK    9  A    between atoms: P14_14  and  O17_17 
ROOT
ATOM      1  C8  ZIN A   1      18.985   0.533  10.309  0.00  0.00     0.268 C 
ENDROOT
BRANCH   1   2
ATOM      2  C7  ZIN A   1      19.459   0.778   8.875  0.00  0.00     0.067 C 
BRANCH   2   3
ATOM      3  C6  ZIN A   1      18.304   0.520   7.905  0.00  0.00     0.031 C 
BRANCH   3   4
ATOM      4  C5  ZIN A   1      18.525  -0.818   7.194  0.00  0.00     0.230 C 
BRANCH   4   5
ATOM      5  N1  ZIN A   1      17.770  -1.870   7.886  0.00  0.00    -0.079 N 
ATOM      6  H2  ZIN A   1      16.814  -1.868   7.561  0.00  0.00     0.274 HD
ATOM      7  H3  ZIN A   1      17.786  -1.698   8.881  0.00  0.00     0.274 HD
ATOM      8  H4  ZIN A   1      18.189  -2.767   7.694  0.00  0.00     0.274 HD
ENDBRANCH   4   5
ENDBRANCH   3   4
ENDBRANCH   2   3
ENDBRANCH   1   2
BRANCH   1   9
ATOM      9  O9  ZIN A   1      17.600   0.183  10.299  0.00  0.00    -0.366 OA
ATOM     10  H24 ZIN A   1      17.289  -0.212  11.126  0.00  0.00     0.212 HD
ENDBRANCH   1   9
BRANCH   1  11
ATOM     11  P10 ZIN A   1      19.951  -0.827  11.044  0.00  0.00     0.296 P 
ATOM     12  O11 ZIN A   1      19.706  -0.866  12.570  0.00  0.00    -0.644 OA
ATOM     13  O12 ZIN A   1      19.511  -2.168  10.418  0.00  0.00    -0.644 OA
BRANCH  11  14
ATOM     14  O13 ZIN A   1      21.517  -0.588  10.758  0.00  0.00    -0.320 OA
ATOM     15  H25 ZIN A   1      21.888  -1.174  10.084  0.00  0.00     0.221 HD
ENDBRANCH  11  14
ENDBRANCH   1  11
BRANCH   1  16
ATOM     16  P14 ZIN A   1      19.221   2.049  11.294  0.00  0.00     0.296 P 
ATOM     17  O15 ZIN A   1      19.057   3.286  10.384  0.00  0.00    -0.644 OA
ATOM     18  O16 ZIN A   1      18.169   2.097  12.425  0.00  0.00    -0.644 OA
BRANCH  16  19
ATOM     19  O17 ZIN A   1      20.697   2.047  11.936  0.00  0.00    -0.320 OA
ATOM     20  H26 ZIN A   1      21.178   2.877  11.818  0.00  0.00     0.221 HD
ENDBRANCH  16  19
ENDBRANCH   1  16
TORSDOF 9
ENDMDL
