MODEL 1
REMARK VINA RESULT:      -7.0      0.000      0.000
REMARK  3 active torsions:
REMARK  status: ('A' for Active; 'I' for Inactive)
REMARK    1  A    between atoms: C2_2  and  C3_3 
REMARK    2  A    between atoms: C11_11  and  C13_12 
REMARK    3  A    between atoms: C13_12  and  N14_13 
ROOT
ATOM      1  C3  ZIN A   1      18.877  -1.464   6.423  0.00  0.00    -0.021 A 
ATOM      2  C4  ZIN A   1      18.459  -2.697   6.776  0.00  0.00     0.012 A 
ATOM      3  C5  ZIN A   1      18.480  -3.913   5.885  0.00  0.00     0.068 C 
ATOM      4  N6  ZIN A   1      18.014  -2.669   8.070  0.00  0.00    -0.362 N 
ATOM      5  C7  ZIN A   1      18.130  -1.438   8.578  0.00  0.00     0.024 A 
ATOM      6  C8  ZIN A   1      18.677  -0.626   7.592  0.00  0.00     0.041 A 
ATOM      7  C9  ZIN A   1      18.945   0.799   7.819  0.00  0.00     0.168 C 
ATOM      8  O10 ZIN A   1      19.231   1.559   6.917  0.00  0.00    -0.292 OA
ATOM      9  C11 ZIN A   1      18.838   1.252   9.267  0.00  0.00     0.089 C 
ATOM     10  C20 ZIN A   1      17.600   0.596   9.888  0.00  0.00     0.020 C 
ATOM     11  C21 ZIN A   1      17.768  -0.926   9.949  0.00  0.00     0.059 C 
ATOM     12  H30 ZIN A   1      17.664  -3.435   8.551  0.00  0.00     0.165 HD
ENDROOT
BRANCH   9  13
ATOM     13  C13 ZIN A   1      18.698   2.774   9.322  0.00  0.00     0.285 C 
BRANCH  13  14
ATOM     14  N14 ZIN A   1      18.276   3.178  10.670  0.00  0.00     0.093 N 
ATOM     15  C19 ZIN A   1      19.440   3.447  11.528  0.00  0.00     0.298 C 
ATOM     16  C18 ZIN A   1      18.957   3.806  12.936  0.00  0.00     0.198 C 
ATOM     17  O17 ZIN A   1      18.071   4.926  12.859  0.00  0.00    -0.388 OA
ATOM     18  C16 ZIN A   1      16.926   4.699  12.033  0.00  0.00     0.198 C 
ATOM     19  C15 ZIN A   1      17.389   4.349  10.616  0.00  0.00     0.298 C 
ENDBRANCH  13  14
ENDBRANCH   9  13
BRANCH   1  20
ATOM     20  C2  ZIN A   1      19.441  -1.043   5.090  0.00  0.00     0.037 C 
ATOM     21  C1  ZIN A   1      18.327  -0.440   4.232  0.00  0.00     0.010 C 
ENDBRANCH   1  20
TORSDOF 3
ENDMDL
MODEL 2
REMARK VINA RESULT:      -7.0      3.192      6.647
REMARK  3 active torsions:
REMARK  status: ('A' for Active; 'I' for Inactive)
REMARK    1  A    between atoms: C2_2  and  C3_3 
REMARK    2  A    between atoms: C11_11  and  C13_12 
REMARK    3  A    between atoms: C13_12  and  N14_13 
ROOT
ATOM      1  C3  ZIN A   1      18.707   1.873  10.061  0.00  0.00    -0.021 A 
ATOM      2  C4  ZIN A   1      18.028   2.884  10.641  0.00  0.00     0.012 A 
ATOM      3  C5  ZIN A   1      17.867   4.269  10.067  0.00  0.00     0.068 C 
ATOM      4  N6  ZIN A   1      17.508   2.453  11.832  0.00  0.00    -0.362 N 
ATOM      5  C7  ZIN A   1      17.833   1.175  12.049  0.00  0.00     0.024 A 
ATOM      6  C8  ZIN A   1      18.586   0.742  10.964  0.00  0.00     0.041 A 
ATOM      7  C9  ZIN A   1      19.105  -0.627  10.875  0.00  0.00     0.168 C 
ATOM      8  O10 ZIN A   1      19.922  -0.961  10.043  0.00  0.00    -0.292 OA
ATOM      9  C11 ZIN A   1      18.544  -1.597  11.904  0.00  0.00     0.089 C 
ATOM     10  C20 ZIN A   1      18.487  -0.885  13.259  0.00  0.00     0.020 C 
ATOM     11  C21 ZIN A   1      17.494   0.283  13.215  0.00  0.00     0.059 C 
ATOM     12  H30 ZIN A   1      16.978   3.000  12.433  0.00  0.00     0.165 HD
ENDROOT
BRANCH   9  13
ATOM     13  C13 ZIN A   1      19.451  -2.824  12.004  0.00  0.00     0.285 C 
BRANCH  13  14
ATOM     14  N14 ZIN A   1      18.753  -3.995  11.456  0.00  0.00     0.093 N 
ATOM     15  C19 ZIN A   1      17.311  -3.737  11.329  0.00  0.00     0.298 C 
ATOM     16  C18 ZIN A   1      16.615  -4.999  10.811  0.00  0.00     0.198 C 
ATOM     17  O17 ZIN A   1      17.206  -5.387   9.569  0.00  0.00    -0.388 OA
ATOM     18  C16 ZIN A   1      18.610  -5.647   9.655  0.00  0.00     0.198 C 
ATOM     19  C15 ZIN A   1      19.325  -4.392  10.161  0.00  0.00     0.298 C 
ENDBRANCH  13  14
ENDBRANCH   9  13
BRANCH   1  20
ATOM     20  C2  ZIN A   1      19.438   1.909   8.743  0.00  0.00     0.037 C 
ATOM     21  C1  ZIN A   1      18.614   1.174   7.683  0.00  0.00     0.010 C 
ENDBRANCH   1  20
TORSDOF 3
ENDMDL
MODEL 3
REMARK VINA RESULT:      -6.9      2.599      7.030
REMARK  3 active torsions:
REMARK  status: ('A' for Active; 'I' for Inactive)
REMARK    1  A    between atoms: C2_2  and  C3_3 
REMARK    2  A    between atoms: C11_11  and  C13_12 
REMARK    3  A    between atoms: C13_12  and  N14_13 
ROOT
ATOM      1  C3  ZIN A   1      18.496   0.691  13.474  0.00  0.00    -0.021 A 
ATOM      2  C4  ZIN A   1      18.964   1.769  14.135  0.00  0.00     0.012 A 
ATOM      3  C5  ZIN A   1      19.121   1.874  15.631  0.00  0.00     0.068 C 
ATOM      4  N6  ZIN A   1      19.275   2.752  13.234  0.00  0.00    -0.362 N 
ATOM      5  C7  ZIN A   1      19.018   2.341  11.988  0.00  0.00     0.024 A 
ATOM      6  C8  ZIN A   1      18.530   1.042  12.065  0.00  0.00     0.041 A 
ATOM      7  C9  ZIN A   1      18.150   0.282  10.869  0.00  0.00     0.168 C 
ATOM      8  O10 ZIN A   1      17.541  -0.766  10.929  0.00  0.00    -0.292 OA
ATOM      9  C11 ZIN A   1      18.577   0.905   9.548  0.00  0.00     0.089 C 
ATOM     10  C20 ZIN A   1      18.309   2.412   9.616  0.00  0.00     0.020 C 
ATOM     11  C21 ZIN A   1      19.193   3.070  10.681  0.00  0.00     0.059 C 
ATOM     12  H30 ZIN A   1      19.631   3.623  13.467  0.00  0.00     0.165 HD
ENDROOT
BRANCH   9  13
ATOM     13  C13 ZIN A   1      17.770   0.289   8.404  0.00  0.00     0.285 C 
BRANCH  13  14
ATOM     14  N14 ZIN A   1      18.684  -0.365   7.457  0.00  0.00     0.093 N 
ATOM     15  C19 ZIN A   1      18.524  -1.826   7.494  0.00  0.00     0.298 C 
ATOM     16  C18 ZIN A   1      19.534  -2.468   6.538  0.00  0.00     0.198 C 
ATOM     17  O17 ZIN A   1      19.345  -1.936   5.225  0.00  0.00    -0.388 OA
ATOM     18  C16 ZIN A   1      19.494  -0.516   5.152  0.00  0.00     0.198 C 
ATOM     19  C15 ZIN A   1      18.484   0.146   6.093  0.00  0.00     0.298 C 
ENDBRANCH  13  14
ENDBRANCH   9  13
BRANCH   1  20
ATOM     20  C2  ZIN A   1      18.036  -0.614  14.074  0.00  0.00     0.037 C 
ATOM     21  C1  ZIN A   1      19.202  -1.604  14.096  0.00  0.00     0.010 C 
ENDBRANCH   1  20
TORSDOF 3
ENDMDL
MODEL 4
REMARK VINA RESULT:      -6.9      3.490      4.644
REMARK  3 active torsions:
REMARK  status: ('A' for Active; 'I' for Inactive)
REMARK    1  A    between atoms: C2_2  and  C3_3 
REMARK    2  A    between atoms: C11_11  and  C13_12 
REMARK    3  A    between atoms: C13_12  and  N14_13 
ROOT
ATOM      1  C3  ZIN A   1      19.263  -0.073   8.358  0.00  0.00    -0.021 A 
ATOM      2  C4  ZIN A   1      19.016   0.932   7.494  0.00  0.00     0.012 A 
ATOM      3  C5  ZIN A   1      18.822   0.776   6.007  0.00  0.00     0.068 C 
ATOM      4  N6  ZIN A   1      18.970   2.117   8.179  0.00  0.00    -0.362 N 
ATOM      5  C7  ZIN A   1      19.183   1.910   9.482  0.00  0.00     0.024 A 
ATOM      6  C8  ZIN A   1      19.368   0.545   9.668  0.00  0.00     0.041 A 
ATOM      7  C9  ZIN A   1      19.622  -0.031  10.993  0.00  0.00     0.168 C 
ATOM      8  O10 ZIN A   1      19.981  -1.180  11.145  0.00  0.00    -0.292 OA
ATOM      9  C11 ZIN A   1      19.402   0.917  12.162  0.00  0.00     0.089 C 
ATOM     10  C20 ZIN A   1      19.993   2.282  11.794  0.00  0.00     0.020 C 
ATOM     11  C21 ZIN A   1      19.231   2.901  10.617  0.00  0.00     0.059 C 
ATOM     12  H30 ZIN A   1      18.806   2.983   7.776  0.00  0.00     0.165 HD
ENDROOT
BRANCH   9  13
ATOM     13  C13 ZIN A   1      20.101   0.371  13.408  0.00  0.00     0.285 C 
BRANCH  13  14
ATOM     14  N14 ZIN A   1      19.104   0.120  14.458  0.00  0.00     0.093 N 
ATOM     15  C19 ZIN A   1      19.272  -1.223  15.032  0.00  0.00     0.298 C 
ATOM     16  C18 ZIN A   1      18.180  -1.465  16.078  0.00  0.00     0.198 C 
ATOM     17  O17 ZIN A   1      18.243  -0.439  17.072  0.00  0.00    -0.388 OA
ATOM     18  C16 ZIN A   1      18.082   0.882  16.547  0.00  0.00     0.198 C 
ATOM     19  C15 ZIN A   1      19.174   1.147  15.507  0.00  0.00     0.298 C 
ENDBRANCH  13  14
ENDBRANCH   9  13
BRANCH   1  20
ATOM     20  C2  ZIN A   1      19.396  -1.539   8.033  0.00  0.00     0.037 C 
ATOM     21  C1  ZIN A   1      18.092  -2.259   8.382  0.00  0.00     0.010 C 
ENDBRANCH   1  20
TORSDOF 3
ENDMDL
MODEL 5
REMARK VINA RESULT:      -6.8      1.829      3.072
REMARK  3 active torsions:
REMARK  status: ('A' for Active; 'I' for Inactive)
REMARK    1  A    between atoms: C2_2  and  C3_3 
REMARK    2  A    between atoms: C11_11  and  C13_12 
REMARK    3  A    between atoms: C13_12  and  N14_13 
ROOT
ATOM      1  C3  ZIN A   1      18.285  -2.537   9.940  0.00  0.00    -0.021 A 
ATOM      2  C4  ZIN A   1      17.948  -3.247   8.844  0.00  0.00     0.012 A 
ATOM      3  C5  ZIN A   1      17.743  -4.740   8.801  0.00  0.00     0.068 C 
ATOM      4  N6  ZIN A   1      17.821  -2.398   7.777  0.00  0.00    -0.362 N 
ATOM      5  C7  ZIN A   1      18.070  -1.139   8.150  0.00  0.00     0.024 A 
ATOM      6  C8  ZIN A   1      18.363  -1.152   9.509  0.00  0.00     0.041 A 
ATOM      7  C9  ZIN A   1      18.681   0.075  10.247  0.00  0.00     0.168 C 
ATOM      8  O10 ZIN A   1      19.130   0.058  11.374  0.00  0.00    -0.292 OA
ATOM      9  C11 ZIN A   1      18.406   1.369   9.496  0.00  0.00     0.089 C 
ATOM     10  C20 ZIN A   1      18.884   1.198   8.050  0.00  0.00     0.020 C 
ATOM     11  C21 ZIN A   1      18.058   0.126   7.331  0.00  0.00     0.059 C 
ATOM     12  H30 ZIN A   1      17.584  -2.672   6.877  0.00  0.00     0.165 HD
ENDROOT
BRANCH   9  13
ATOM     13  C13 ZIN A   1      19.165   2.520  10.157  0.00  0.00     0.285 C 
BRANCH  13  14
ATOM     14  N14 ZIN A   1      18.258   3.256  11.048  0.00  0.00     0.093 N 
ATOM     15  C19 ZIN A   1      18.952   3.679  12.274  0.00  0.00     0.298 C 
ATOM     16  C18 ZIN A   1      17.957   4.389  13.197  0.00  0.00     0.198 C 
ATOM     17  O17 ZIN A   1      17.369   5.490  12.500  0.00  0.00    -0.388 OA
ATOM     18  C16 ZIN A   1      16.685   5.114  11.302  0.00  0.00     0.198 C 
ATOM     19  C15 ZIN A   1      17.666   4.412  10.359  0.00  0.00     0.298 C 
ENDBRANCH  13  14
ENDBRANCH   9  13
BRANCH   1  20
ATOM     20  C2  ZIN A   1      18.526  -3.071  11.329  0.00  0.00     0.037 C 
ATOM     21  C1  ZIN A   1      20.001  -3.448  11.482  0.00  0.00     0.010 C 
ENDBRANCH   1  20
TORSDOF 3
ENDMDL
MODEL 6
REMARK VINA RESULT:      -6.7      3.504      7.603
REMARK  3 active torsions:
REMARK  status: ('A' for Active; 'I' for Inactive)
REMARK    1  A    between atoms: C2_2  and  C3_3 
REMARK    2  A    between atoms: C11_11  and  C13_12 
REMARK    3  A    between atoms: C13_12  and  N14_13 
ROOT
ATOM      1  C3  ZIN A   1      18.810   2.700  12.903  0.00  0.00    -0.021 A 
ATOM      2  C4  ZIN A   1      18.376   3.379  13.985  0.00  0.00     0.012 A 
ATOM      3  C5  ZIN A   1      18.378   4.879  14.132  0.00  0.00     0.068 C 
ATOM      4  N6  ZIN A   1      17.935   2.490  14.929  0.00  0.00    -0.362 N 
ATOM      5  C7  ZIN A   1      18.070   1.235  14.488  0.00  0.00     0.024 A 
ATOM      6  C8  ZIN A   1      18.611   1.294  13.209  0.00  0.00     0.041 A 
ATOM      7  C9  ZIN A   1      18.886   0.085  12.426  0.00  0.00     0.168 C 
ATOM      8  O10 ZIN A   1      19.536   0.107  11.401  0.00  0.00    -0.292 OA
ATOM      9  C11 ZIN A   1      18.298  -1.198  12.993  0.00  0.00     0.089 C 
ATOM     10  C20 ZIN A   1      18.516  -1.201  14.509  0.00  0.00     0.020 C 
ATOM     11  C21 ZIN A   1      17.729  -0.065  15.171  0.00  0.00     0.059 C 
ATOM     12  H30 ZIN A   1      17.575   2.737  15.795  0.00  0.00     0.165 HD
ENDROOT
BRANCH   9  13
ATOM     13  C13 ZIN A   1      18.998  -2.406  12.368  0.00  0.00     0.285 C 
BRANCH  13  14
ATOM     14  N14 ZIN A   1      18.101  -3.043  11.395  0.00  0.00     0.093 N 
ATOM     15  C19 ZIN A   1      18.734  -3.126  10.070  0.00  0.00     0.298 C 
ATOM     16  C18 ZIN A   1      17.745  -3.740   9.075  0.00  0.00     0.198 C 
ATOM     17  O17 ZIN A   1      17.326  -5.020   9.556  0.00  0.00    -0.388 OA
ATOM     18  C16 ZIN A   1      16.705  -4.977  10.843  0.00  0.00     0.198 C 
ATOM     19  C15 ZIN A   1      17.683  -4.375  11.855  0.00  0.00     0.298 C 
ENDBRANCH  13  14
ENDBRANCH   9  13
BRANCH   1  20
ATOM     20  C2  ZIN A   1      19.378   3.281  11.634  0.00  0.00     0.037 C 
ATOM     21  C1  ZIN A   1      18.284   3.343  10.566  0.00  0.00     0.010 C 
ENDBRANCH   1  20
TORSDOF 3
ENDMDL
MODEL 7
REMARK VINA RESULT:      -6.6      2.716      7.194
REMARK  3 active torsions:
REMARK  status: ('A' for Active; 'I' for Inactive)
REMARK    1  A    between atoms: C2_2  and  C3_3 
REMARK    2  A    between atoms: C11_11  and  C13_12 
REMARK    3  A    between atoms: C13_12  and  N14_13 
ROOT
ATOM      1  C3  ZIN A   1      17.964   1.686  10.762  0.00  0.00    -0.021 A 
ATOM      2  C4  ZIN A   1      18.279   2.955  10.432  0.00  0.00     0.012 A 
ATOM      3  C5  ZIN A   1      18.132   4.153  11.336  0.00  0.00     0.068 C 
ATOM      4  N6  ZIN A   1      18.753   2.984   9.148  0.00  0.00    -0.362 N 
ATOM      5  C7  ZIN A   1      18.755   1.755   8.623  0.00  0.00     0.024 A 
ATOM      6  C8  ZIN A   1      18.276   0.882   9.592  0.00  0.00     0.041 A 
ATOM      7  C9  ZIN A   1      18.151  -0.559   9.348  0.00  0.00     0.168 C 
ATOM      8  O10 ZIN A   1      17.554  -1.298  10.102  0.00  0.00    -0.292 OA
ATOM      9  C11 ZIN A   1      18.826  -1.058   8.079  0.00  0.00     0.089 C 
ATOM     10  C20 ZIN A   1      18.534  -0.061   6.953  0.00  0.00     0.020 C 
ATOM     11  C21 ZIN A   1      19.180   1.297   7.252  0.00  0.00     0.059 C 
ATOM     12  H30 ZIN A   1      19.045   3.785   8.684  0.00  0.00     0.165 HD
ENDROOT
BRANCH   9  13
ATOM     13  C13 ZIN A   1      18.272  -2.434   7.706  0.00  0.00     0.285 C 
BRANCH  13  14
ATOM     14  N14 ZIN A   1      19.260  -3.467   8.044  0.00  0.00     0.093 N 
ATOM     15  C19 ZIN A   1      18.760  -4.346   9.111  0.00  0.00     0.298 C 
ATOM     16  C18 ZIN A   1      19.841  -5.369   9.471  0.00  0.00     0.198 C 
ATOM     17  O17 ZIN A   1      20.210  -6.098   8.298  0.00  0.00    -0.388 OA
ATOM     18  C16 ZIN A   1      20.702  -5.274   7.238  0.00  0.00     0.198 C 
ATOM     19  C15 ZIN A   1      19.630  -4.250   6.856  0.00  0.00     0.298 C 
ENDBRANCH  13  14
ENDBRANCH   9  13
BRANCH   1  20
ATOM     20  C2  ZIN A   1      17.408   1.200  12.075  0.00  0.00     0.037 C 
ATOM     21  C1  ZIN A   1      18.547   0.658  12.942  0.00  0.00     0.010 C 
ENDBRANCH   1  20
TORSDOF 3
ENDMDL
MODEL 8
REMARK VINA RESULT:      -6.6      3.885      5.554
REMARK  3 active torsions:
REMARK  status: ('A' for Active; 'I' for Inactive)
REMARK    1  A    between atoms: C2_2  and  C3_3 
REMARK    2  A    between atoms: C11_11  and  C13_12 
REMARK    3  A    between atoms: C13_12  and  N14_13 
ROOT
ATOM      1  C3  ZIN A   1      18.548   1.273  10.020  0.00  0.00    -0.021 A 
ATOM      2  C4  ZIN A   1      19.206   0.749   8.965  0.00  0.00     0.012 A 
ATOM      3  C5  ZIN A   1      19.270   1.359   7.588  0.00  0.00     0.068 C 
ATOM      4  N6  ZIN A   1      19.804  -0.423   9.343  0.00  0.00    -0.362 N 
ATOM      5  C7  ZIN A   1      19.553  -0.682  10.629  0.00  0.00     0.024 A 
ATOM      6  C8  ZIN A   1      18.769   0.355  11.123  0.00  0.00     0.041 A 
ATOM      7  C9  ZIN A   1      18.313   0.388  12.517  0.00  0.00     0.168 C 
ATOM      8  O10 ZIN A   1      17.473   1.172  12.908  0.00  0.00    -0.292 OA
ATOM      9  C11 ZIN A   1      18.971  -0.631  13.435  0.00  0.00     0.089 C 
ATOM     10  C20 ZIN A   1      19.059  -1.966  12.689  0.00  0.00     0.020 C 
ATOM     11  C21 ZIN A   1      19.991  -1.848  11.478  0.00  0.00     0.059 C 
ATOM     12  H30 ZIN A   1      20.336  -0.985   8.758  0.00  0.00     0.165 HD
ENDROOT
BRANCH   9  13
ATOM     13  C13 ZIN A   1      18.131  -0.802  14.701  0.00  0.00     0.285 C 
BRANCH  13  14
ATOM     14  N14 ZIN A   1      18.823  -0.175  15.836  0.00  0.00     0.093 N 
ATOM     15  C19 ZIN A   1      18.466   1.247  15.951  0.00  0.00     0.298 C 
ATOM     16  C18 ZIN A   1      19.252   1.872  17.107  0.00  0.00     0.198 C 
ATOM     17  O17 ZIN A   1      18.981   1.147  18.309  0.00  0.00    -0.388 OA
ATOM     18  C16 ZIN A   1      19.318  -0.241  18.233  0.00  0.00     0.198 C 
ATOM     19  C15 ZIN A   1      18.532  -0.888  17.089  0.00  0.00     0.298 C 
ENDBRANCH  13  14
ENDBRANCH   9  13
BRANCH   1  20
ATOM     20  C2  ZIN A   1      17.753   2.553  10.050  0.00  0.00     0.037 C 
ATOM     21  C1  ZIN A   1      18.574   3.649  10.733  0.00  0.00     0.010 C 
ENDBRANCH   1  20
TORSDOF 3
ENDMDL
MODEL 9
REMARK VINA RESULT:      -6.6      3.153      4.658
REMARK  3 active torsions:
REMARK  status: ('A' for Active; 'I' for Inactive)
REMARK    1  A    between atoms: C2_2  and  C3_3 
REMARK    2  A    between atoms: C11_11  and  C13_12 
REMARK    3  A    between atoms: C13_12  and  N14_13 
ROOT
ATOM      1  C3  ZIN A   1      18.792  -1.455  12.477  0.00  0.00    -0.021 A 
ATOM      2  C4  ZIN A   1      18.193  -2.364  11.681  0.00  0.00     0.012 A 
ATOM      3  C5  ZIN A   1      18.041  -3.831  11.993  0.00  0.00     0.068 C 
ATOM      4  N6  ZIN A   1      17.746  -1.745  10.544  0.00  0.00    -0.362 N 
ATOM      5  C7  ZIN A   1      18.041  -0.442  10.576  0.00  0.00     0.024 A 
ATOM      6  C8  ZIN A   1      18.696  -0.187  11.775  0.00  0.00     0.041 A 
ATOM      7  C9  ZIN A   1      19.159   1.157  12.138  0.00  0.00     0.168 C 
ATOM      8  O10 ZIN A   1      19.901   1.359  13.076  0.00  0.00    -0.292 OA
ATOM      9  C11 ZIN A   1      18.640   2.278  11.250  0.00  0.00     0.089 C 
ATOM     10  C20 ZIN A   1      18.708   1.812   9.793  0.00  0.00     0.020 C 
ATOM     11  C21 ZIN A   1      17.757   0.633   9.558  0.00  0.00     0.059 C 
ATOM     12  H30 ZIN A   1      17.281  -2.190   9.818  0.00  0.00     0.165 HD
ENDROOT
BRANCH   9  13
ATOM     13  C13 ZIN A   1      19.507   3.525  11.434  0.00  0.00     0.285 C 
BRANCH  13  14
ATOM     14  N14 ZIN A   1      18.723   4.573  12.099  0.00  0.00     0.093 N 
ATOM     15  C19 ZIN A   1      17.281   4.317  11.966  0.00  0.00     0.298 C 
ATOM     16  C18 ZIN A   1      16.503   5.462  12.621  0.00  0.00     0.198 C 
ATOM     17  O17 ZIN A   1      16.906   5.586  13.987  0.00  0.00    -0.388 OA
ATOM     18  C16 ZIN A   1      18.304   5.837  14.154  0.00  0.00     0.198 C 
ATOM     19  C15 ZIN A   1      19.101   4.696  13.515  0.00  0.00     0.298 C 
ENDBRANCH  13  14
ENDBRANCH   9  13
BRANCH   1  20
ATOM     20  C2  ZIN A   1      19.425  -1.703  13.822  0.00  0.00     0.037 C 
ATOM     21  C1  ZIN A   1      18.476  -1.234  14.927  0.00  0.00     0.010 C 
ENDBRANCH   1  20
TORSDOF 3
ENDMDL
