MODEL 1
REMARK VINA RESULT:      -4.2      0.000      0.000
REMARK  5 active torsions:
REMARK  status: ('A' for Active; 'I' for Inactive)
REMARK    1  A    between atoms: N1_1  and  C2_2 
REMARK    2  A    between atoms: C2_2  and  C3_3 
REMARK    3  A    between atoms: C3_3  and  C5_5 
REMARK    4  A    between atoms: C5_5  and  C6_6 
REMARK    5  A    between atoms: C6_6  and  C7_7 
ROOT
ATOM      1  C3  <0> d   1      19.602   2.015  11.450  0.00  0.00     0.155 C 
ATOM      2  O4  <0> d   1      20.293   2.976  11.688  0.00  0.00    -0.296 OA
ENDROOT
BRANCH   1   3
ATOM      3  C2  <0> d   1      20.061   0.638  11.857  0.00  0.00     0.344 C 
BRANCH   3   4
ATOM      4  N1  <0> d   1      21.506   0.662  12.122  0.00  0.00     0.085 N 
ATOM      5  H10 <0> d   1      21.815  -0.213  12.519  0.00  0.00     0.313 HD
ATOM      6  H11 <0> d   1      22.023   0.881  11.284  0.00  0.00     0.313 HD
ENDBRANCH   3   4
ENDBRANCH   1   3
BRANCH   1   7
ATOM      7  C5  <0> d   1      18.282   2.192  10.745  0.00  0.00     0.090 C 
BRANCH   7   8
ATOM      8  C6  <0> d   1      18.333   3.450   9.876  0.00  0.00     0.120 C 
BRANCH   8   9
ATOM      9  C7  <0> d   1      17.374   4.477  10.424  0.00  0.00     0.172 C 
ATOM     10  O8  <0> d   1      17.339   5.595   9.942  0.00  0.00    -0.648 OA
ATOM     11  O9  <0> d   1      16.636   4.187  11.350  0.00  0.00    -0.648 OA
ENDBRANCH   8   9
ENDBRANCH   7   8
ENDBRANCH   1   7
TORSDOF 5
ENDMDL
MODEL 2
REMARK VINA RESULT:      -4.1      5.204      5.714
REMARK  5 active torsions:
REMARK  status: ('A' for Active; 'I' for Inactive)
REMARK    1  A    between atoms: N1_1  and  C2_2 
REMARK    2  A    between atoms: C2_2  and  C3_3 
REMARK    3  A    between atoms: C3_3  and  C5_5 
REMARK    4  A    between atoms: C5_5  and  C6_6 
REMARK    5  A    between atoms: C6_6  and  C7_7 
ROOT
ATOM      1  C3  <0> d   1      18.978   1.016   8.335  0.00  0.00     0.155 C 
ATOM      2  O4  <0> d   1      19.227   2.191   8.210  0.00  0.00    -0.296 OA
ENDROOT
BRANCH   1   3
ATOM      3  C2  <0> d   1      19.496   0.258   9.530  0.00  0.00     0.344 C 
BRANCH   3   4
ATOM      4  N1  <0> d   1      19.990  -1.057   9.101  0.00  0.00     0.085 N 
ATOM      5  H10 <0> d   1      20.426  -1.000   8.193  0.00  0.00     0.313 HD
ATOM      6  H11 <0> d   1      20.623  -1.446   9.783  0.00  0.00     0.313 HD
ENDBRANCH   3   4
ENDBRANCH   1   3
BRANCH   1   7
ATOM      7  C5  <0> d   1      18.151   0.307   7.294  0.00  0.00     0.090 C 
BRANCH   7   8
ATOM      8  C6  <0> d   1      18.839   0.419   5.932  0.00  0.00     0.120 C 
BRANCH   8   9
ATOM      9  C7  <0> d   1      19.360  -0.934   5.520  0.00  0.00     0.172 C 
ATOM     10  O8  <0> d   1      19.831  -1.093   4.408  0.00  0.00    -0.648 OA
ATOM     11  O9  <0> d   1      19.309  -1.869   6.301  0.00  0.00    -0.648 OA
ENDBRANCH   8   9
ENDBRANCH   7   8
ENDBRANCH   1   7
TORSDOF 5
ENDMDL
MODEL 3
REMARK VINA RESULT:      -4.0      1.918      2.210
REMARK  5 active torsions:
REMARK  status: ('A' for Active; 'I' for Inactive)
REMARK    1  A    between atoms: N1_1  and  C2_2 
REMARK    2  A    between atoms: C2_2  and  C3_3 
REMARK    3  A    between atoms: C3_3  and  C5_5 
REMARK    4  A    between atoms: C5_5  and  C6_6 
REMARK    5  A    between atoms: C6_6  and  C7_7 
ROOT
ATOM      1  C3  <0> d   1      19.519   0.221   9.873  0.00  0.00     0.155 C 
ATOM      2  O4  <0> d   1      19.962  -0.278   8.866  0.00  0.00    -0.296 OA
ENDROOT
BRANCH   1   3
ATOM      3  C2  <0> d   1      20.193  -0.030  11.197  0.00  0.00     0.344 C 
BRANCH   3   4
ATOM      4  N1  <0> d   1      21.542  -0.566  10.967  0.00  0.00     0.085 N 
ATOM      5  H10 <0> d   1      21.698  -0.742   9.986  0.00  0.00     0.313 HD
ATOM      6  H11 <0> d   1      22.245   0.053  11.340  0.00  0.00     0.313 HD
ENDBRANCH   3   4
ENDBRANCH   1   3
BRANCH   1   7
ATOM      7  C5  <0> d   1      18.293   1.094   9.804  0.00  0.00     0.090 C 
BRANCH   7   8
ATOM      8  C6  <0> d   1      18.712   2.543   9.554  0.00  0.00     0.120 C 
BRANCH   8   9
ATOM      9  C7  <0> d   1      17.807   3.468  10.328  0.00  0.00     0.172 C 
ATOM     10  O8  <0> d   1      17.094   3.025  11.211  0.00  0.00    -0.648 OA
ATOM     11  O9  <0> d   1      17.789   4.659  10.068  0.00  0.00    -0.648 OA
ENDBRANCH   8   9
ENDBRANCH   7   8
ENDBRANCH   1   7
TORSDOF 5
ENDMDL
MODEL 4
REMARK VINA RESULT:      -4.0      5.903      6.857
REMARK  5 active torsions:
REMARK  status: ('A' for Active; 'I' for Inactive)
REMARK    1  A    between atoms: N1_1  and  C2_2 
REMARK    2  A    between atoms: C2_2  and  C3_3 
REMARK    3  A    between atoms: C3_3  and  C5_5 
REMARK    4  A    between atoms: C5_5  and  C6_6 
REMARK    5  A    between atoms: C6_6  and  C7_7 
ROOT
ATOM      1  C3  <0> d   1      19.148   1.014  17.500  0.00  0.00     0.155 C 
ATOM      2  O4  <0> d   1      19.902   0.924  18.439  0.00  0.00    -0.296 OA
ENDROOT
BRANCH   1   3
ATOM      3  C2  <0> d   1      19.222   2.211  16.587  0.00  0.00     0.344 C 
BRANCH   3   4
ATOM      4  N1  <0> d   1      17.976   2.316  15.815  0.00  0.00     0.085 N 
ATOM      5  H10 <0> d   1      17.294   1.648  16.139  0.00  0.00     0.313 HD
ATOM      6  H11 <0> d   1      17.608   3.254  15.849  0.00  0.00     0.313 HD
ENDBRANCH   3   4
ENDBRANCH   1   3
BRANCH   1   7
ATOM      7  C5  <0> d   1      18.133  -0.069  17.242  0.00  0.00     0.090 C 
BRANCH   7   8
ATOM      8  C6  <0> d   1      18.824  -1.270  16.593  0.00  0.00     0.120 C 
BRANCH   8   9
ATOM      9  C7  <0> d   1      18.786  -1.121  15.093  0.00  0.00     0.172 C 
ATOM     10  O8  <0> d   1      19.721  -1.515  14.418  0.00  0.00    -0.648 OA
ATOM     11  O9  <0> d   1      17.821  -0.605  14.557  0.00  0.00    -0.648 OA
ENDBRANCH   8   9
ENDBRANCH   7   8
ENDBRANCH   1   7
TORSDOF 5
ENDMDL
MODEL 5
REMARK VINA RESULT:      -4.0      6.118      6.455
REMARK  5 active torsions:
REMARK  status: ('A' for Active; 'I' for Inactive)
REMARK    1  A    between atoms: N1_1  and  C2_2 
REMARK    2  A    between atoms: C2_2  and  C3_3 
REMARK    3  A    between atoms: C3_3  and  C5_5 
REMARK    4  A    between atoms: C5_5  and  C6_6 
REMARK    5  A    between atoms: C6_6  and  C7_7 
ROOT
ATOM      1  C3  <0> d   1      18.973  -1.150   7.919  0.00  0.00     0.155 C 
ATOM      2  O4  <0> d   1      19.735  -0.641   8.705  0.00  0.00    -0.296 OA
ENDROOT
BRANCH   1   3
ATOM      3  C2  <0> d   1      18.882  -2.651   7.823  0.00  0.00     0.344 C 
BRANCH   3   4
ATOM      4  N1  <0> d   1      19.964  -3.154   6.967  0.00  0.00     0.085 N 
ATOM      5  H10 <0> d   1      19.716  -4.041   6.554  0.00  0.00     0.313 HD
ATOM      6  H11 <0> d   1      20.206  -2.480   6.257  0.00  0.00     0.313 HD
ENDBRANCH   3   4
ENDBRANCH   1   3
BRANCH   1   7
ATOM      7  C5  <0> d   1      18.115  -0.285   7.033  0.00  0.00     0.090 C 
BRANCH   7   8
ATOM      8  C6  <0> d   1      19.002   0.464   6.037  0.00  0.00     0.120 C 
BRANCH   8   9
ATOM      9  C7  <0> d   1      19.083  -0.317   4.750  0.00  0.00     0.172 C 
ATOM     10  O8  <0> d   1      18.250  -0.142   3.878  0.00  0.00    -0.648 OA
ATOM     11  O9  <0> d   1      19.982  -1.124   4.583  0.00  0.00    -0.648 OA
ENDBRANCH   8   9
ENDBRANCH   7   8
ENDBRANCH   1   7
TORSDOF 5
ENDMDL
MODEL 6
REMARK VINA RESULT:      -4.0      2.932      3.844
REMARK  5 active torsions:
REMARK  status: ('A' for Active; 'I' for Inactive)
REMARK    1  A    between atoms: N1_1  and  C2_2 
REMARK    2  A    between atoms: C2_2  and  C3_3 
REMARK    3  A    between atoms: C3_3  and  C5_5 
REMARK    4  A    between atoms: C5_5  and  C6_6 
REMARK    5  A    between atoms: C6_6  and  C7_7 
ROOT
ATOM      1  C3  <0> d   1      19.417   0.870  11.066  0.00  0.00     0.155 C 
ATOM      2  O4  <0> d   1      19.240   1.240   9.930  0.00  0.00    -0.296 OA
ENDROOT
BRANCH   1   3
ATOM      3  C2  <0> d   1      20.535  -0.091  11.380  0.00  0.00     0.344 C 
BRANCH   3   4
ATOM      4  N1  <0> d   1      21.568   0.600  12.164  0.00  0.00     0.085 N 
ATOM      5  H10 <0> d   1      22.482   0.219  11.971  0.00  0.00     0.313 HD
ATOM      6  H11 <0> d   1      21.547   1.593  11.993  0.00  0.00     0.313 HD
ENDBRANCH   3   4
ENDBRANCH   1   3
BRANCH   1   7
ATOM      7  C5  <0> d   1      18.520   1.369  12.169  0.00  0.00     0.090 C 
BRANCH   7   8
ATOM      8  C6  <0> d   1      17.896   0.177  12.897  0.00  0.00     0.120 C 
BRANCH   8   9
ATOM      9  C7  <0> d   1      16.894  -0.495  11.993  0.00  0.00     0.172 C 
ATOM     10  O8  <0> d   1      17.004  -1.682  11.737  0.00  0.00    -0.648 OA
ATOM     11  O9  <0> d   1      15.976   0.149  11.517  0.00  0.00    -0.648 OA
ENDBRANCH   8   9
ENDBRANCH   7   8
ENDBRANCH   1   7
TORSDOF 5
ENDMDL
MODEL 7
REMARK VINA RESULT:      -3.9      5.499      6.035
REMARK  5 active torsions:
REMARK  status: ('A' for Active; 'I' for Inactive)
REMARK    1  A    between atoms: N1_1  and  C2_2 
REMARK    2  A    between atoms: C2_2  and  C3_3 
REMARK    3  A    between atoms: C3_3  and  C5_5 
REMARK    4  A    between atoms: C5_5  and  C6_6 
REMARK    5  A    between atoms: C6_6  and  C7_7 
ROOT
ATOM      1  C3  <0> d   1      19.095  -1.034   5.482  0.00  0.00     0.155 C 
ATOM      2  O4  <0> d   1      19.982  -1.011   4.664  0.00  0.00    -0.296 OA
ENDROOT
BRANCH   1   3
ATOM      3  C2  <0> d   1      18.708  -2.334   6.139  0.00  0.00     0.344 C 
BRANCH   3   4
ATOM      4  N1  <0> d   1      19.813  -2.803   6.987  0.00  0.00     0.085 N 
ATOM      5  H10 <0> d   1      19.493  -3.496   7.646  0.00  0.00     0.313 HD
ATOM      6  H11 <0> d   1      20.572  -3.159   6.427  0.00  0.00     0.313 HD
ENDBRANCH   3   4
ENDBRANCH   1   3
BRANCH   1   7
ATOM      7  C5  <0> d   1      18.374   0.238   5.847  0.00  0.00     0.090 C 
BRANCH   7   8
ATOM      8  C6  <0> d   1      17.998   0.203   7.330  0.00  0.00     0.120 C 
BRANCH   8   9
ATOM      9  C7  <0> d   1      19.181   0.639   8.157  0.00  0.00     0.172 C 
ATOM     10  O8  <0> d   1      19.828  -0.186   8.777  0.00  0.00    -0.648 OA
ATOM     11  O9  <0> d   1      19.488   1.818   8.206  0.00  0.00    -0.648 OA
ENDBRANCH   8   9
ENDBRANCH   7   8
ENDBRANCH   1   7
TORSDOF 5
ENDMDL
MODEL 8
REMARK VINA RESULT:      -3.9      2.793      4.093
REMARK  5 active torsions:
REMARK  status: ('A' for Active; 'I' for Inactive)
REMARK    1  A    between atoms: N1_1  and  C2_2 
REMARK    2  A    between atoms: C2_2  and  C3_3 
REMARK    3  A    between atoms: C3_3  and  C5_5 
REMARK    4  A    between atoms: C5_5  and  C6_6 
REMARK    5  A    between atoms: C6_6  and  C7_7 
ROOT
ATOM      1  C3  <0> d   1      18.520   2.692  10.557  0.00  0.00     0.155 C 
ATOM      2  O4  <0> d   1      17.332   2.764  10.756  0.00  0.00    -0.296 OA
ENDROOT
BRANCH   1   3
ATOM      3  C2  <0> d   1      19.490   3.083  11.643  0.00  0.00     0.344 C 
BRANCH   3   4
ATOM      4  N1  <0> d   1      20.582   2.101  11.701  0.00  0.00     0.085 N 
ATOM      5  H10 <0> d   1      21.183   2.276  12.492  0.00  0.00     0.313 HD
ATOM      6  H11 <0> d   1      20.221   1.160  11.721  0.00  0.00     0.313 HD
ENDBRANCH   3   4
ENDBRANCH   1   3
BRANCH   1   7
ATOM      7  C5  <0> d   1      19.034   2.212   9.225  0.00  0.00     0.090 C 
BRANCH   7   8
ATOM      8  C6  <0> d   1      18.404   0.858   8.893  0.00  0.00     0.120 C 
BRANCH   8   9
ATOM      9  C7  <0> d   1      19.480  -0.196   8.839  0.00  0.00     0.172 C 
ATOM     10  O8  <0> d   1      20.347  -0.227   9.695  0.00  0.00    -0.648 OA
ATOM     11  O9  <0> d   1      19.483  -1.017   7.938  0.00  0.00    -0.648 OA
ENDBRANCH   8   9
ENDBRANCH   7   8
ENDBRANCH   1   7
TORSDOF 5
ENDMDL
MODEL 9
REMARK VINA RESULT:      -3.8      3.875      5.642
REMARK  5 active torsions:
REMARK  status: ('A' for Active; 'I' for Inactive)
REMARK    1  A    between atoms: N1_1  and  C2_2 
REMARK    2  A    between atoms: C2_2  and  C3_3 
REMARK    3  A    between atoms: C3_3  and  C5_5 
REMARK    4  A    between atoms: C5_5  and  C6_6 
REMARK    5  A    between atoms: C6_6  and  C7_7 
ROOT
ATOM      1  C3  <0> d   1      19.282   0.551  12.925  0.00  0.00     0.155 C 
ATOM      2  O4  <0> d   1      19.144   1.629  13.451  0.00  0.00    -0.296 OA
ENDROOT
BRANCH   1   3
ATOM      3  C2  <0> d   1      20.198   0.405  11.737  0.00  0.00     0.344 C 
BRANCH   3   4
ATOM      4  N1  <0> d   1      21.587   0.631  12.158  0.00  0.00     0.085 N 
ATOM      5  H10 <0> d   1      22.096   1.151  11.460  0.00  0.00     0.313 HD
ATOM      6  H11 <0> d   1      21.622   1.095  13.053  0.00  0.00     0.313 HD
ENDBRANCH   3   4
ENDBRANCH   1   3
BRANCH   1   7
ATOM      7  C5  <0> d   1      18.538  -0.647  13.455  0.00  0.00     0.090 C 
BRANCH   7   8
ATOM      8  C6  <0> d   1      19.401  -1.363  14.495  0.00  0.00     0.120 C 
BRANCH   8   9
ATOM      9  C7  <0> d   1      18.756  -1.242  15.853  0.00  0.00     0.172 C 
ATOM     10  O8  <0> d   1      19.351  -1.621  16.846  0.00  0.00    -0.648 OA
ATOM     11  O9  <0> d   1      17.638  -0.767  15.954  0.00  0.00    -0.648 OA
ENDBRANCH   8   9
ENDBRANCH   7   8
ENDBRANCH   1   7
TORSDOF 5
ENDMDL
