MODEL 1
REMARK VINA RESULT:      -4.1      0.000      0.000
REMARK  9 active torsions:
REMARK  status: ('A' for Active; 'I' for Inactive)
REMARK    1  A    between atoms: C5_4  and  O7_5 
REMARK    2  A    between atoms: O7_5  and  C8_6 
REMARK    3  A    between atoms: C33_27  and  O35_28 
REMARK    4  A    between atoms: C37_30  and  O38_31 
REMARK    5  A    between atoms: C40_33  and  O42_34 
REMARK    6  A    between atoms: C43_35  and  C45_36 
REMARK    7  A    between atoms: C52_42  and  O54_43 
REMARK    8  A    between atoms: C55_44  and  N57_45 
REMARK    9  A    between atoms: C61_49  and  O63_50 
ROOT
ATOM      1  C8  ZIN A   1      15.609  -7.014   7.125  0.00  0.00     0.150 C 
ATOM      2  C10 ZIN A   1      15.541  -6.139   8.345  0.00  0.00     0.005 C 
ATOM      3  C11 ZIN A   1      16.079  -6.485   9.520  0.00  0.00    -0.002 C 
ATOM      4  C12 ZIN A   1      15.971  -5.518  10.606  0.00  0.00    -0.000 C 
ATOM      5  C13 ZIN A   1      16.705  -5.549  11.729  0.00  0.00     0.000 C 
ATOM      6  C14 ZIN A   1      16.709  -4.410  12.564  0.00  0.00     0.000 C 
ATOM      7  C15 ZIN A   1      17.804  -3.644  12.622  0.00  0.00    -0.000 C 
ATOM      8  C16 ZIN A   1      17.814  -2.290  13.171  0.00  0.00    -0.004 C 
ATOM      9  C17 ZIN A   1      18.806  -1.486  12.762  0.00  0.00    -0.024 C 
ATOM     10  C18 ZIN A   1      18.889  -0.054  13.201  0.00  0.00     0.059 C 
ATOM     11  C19 ZIN A   1      19.601   0.763  12.119  0.00  0.00     0.131 C 
ATOM     12  C21 ZIN A   1      21.031   0.248  11.953  0.00  0.00     0.040 C 
ATOM     13  O22 ZIN A   1      18.896   0.640  10.857  0.00  0.00    -0.313 OA
ATOM     14  C23 ZIN A   1      19.531   1.082   9.749  0.00  0.00     0.283 C 
ATOM     15  O24 ZIN A   1      20.666   1.509   9.828  0.00  0.00    -0.260 OA
ATOM     16  C25 ZIN A   1      18.851   1.046   8.451  0.00  0.00     0.081 C 
ATOM     17  C26 ZIN A   1      19.469   1.470   7.349  0.00  0.00     0.013 C 
ATOM     18  C27 ZIN A   1      18.751   1.439   6.027  0.00  0.00     0.174 A 
ATOM     19  O29 ZIN A   1      19.503   1.753   4.850  0.00  0.00    -0.371 OA
ATOM     20  C30 ZIN A   1      19.167   0.375   5.007  0.00  0.00     0.157 A 
ATOM     21  C32 ZIN A   1      18.088  -0.217   4.096  0.00  0.00     0.067 C 
ATOM     22  C33 ZIN A   1      18.102  -1.744   4.205  0.00  0.00     0.125 C 
ATOM     23  C36 ZIN A   1      16.741  -2.318   3.813  0.00  0.00     0.100 C 
ATOM     24  C37 ZIN A   1      16.806  -3.850   3.790  0.00  0.00     0.166 C 
ATOM     25  C39 ZIN A   1      16.360  -4.353   2.416  0.00  0.00     0.101 C 
ATOM     26  C40 ZIN A   1      15.314  -5.458   2.590  0.00  0.00     0.140 C 
ATOM     27  C43 ZIN A   1      15.821  -6.484   3.601  0.00  0.00     0.144 C 
ATOM     28  C48 ZIN A   1      16.044  -5.805   4.957  0.00  0.00     0.144 C 
ATOM     29  C50 ZIN A   1      14.978  -6.282   5.941  0.00  0.00     0.069 C 
ATOM     30  O51 ZIN A   1      15.947  -4.387   4.795  0.00  0.00    -0.349 OA
ENDROOT
BRANCH   1  31
ATOM     31  O7  ZIN A   1      16.974  -7.314   6.828  0.00  0.00    -0.349 OA
BRANCH  31  32
ATOM     32  C5  ZIN A   1      17.425  -8.561   7.360  0.00  0.00     0.291 C 
ATOM     33  O4  ZIN A   1      16.321  -9.257   7.944  0.00  0.00    -0.351 OA
ATOM     34  C2  ZIN A   1      15.254  -9.524   7.034  0.00  0.00     0.151 C 
ATOM     35  C1  ZIN A   1      14.122 -10.243   7.772  0.00  0.00     0.042 C 
ATOM     36  C61 ZIN A   1      15.765 -10.413   5.896  0.00  0.00     0.179 C 
ATOM     37  C55 ZIN A   1      16.936  -9.712   5.200  0.00  0.00     0.247 C 
ATOM     38  C52 ZIN A   1      18.024  -9.410   6.235  0.00  0.00     0.206 C 
BRANCH  36  39
ATOM     39  O63 ZIN A   1      14.714 -10.635   4.954  0.00  0.00    -0.391 OA
ATOM     40  H94 ZIN A   1      13.861 -10.843   5.358  0.00  0.00     0.210 HD
ENDBRANCH  36  39
BRANCH  37  41
ATOM     41  N57 ZIN A   1      17.483 -10.587   4.155  0.00  0.00    -0.070 N 
ATOM     42  H58 ZIN A   1      18.443 -10.337   3.973  0.00  0.00     0.274 HD
ATOM     43  H59 ZIN A   1      17.437 -11.547   4.463  0.00  0.00     0.274 HD
ATOM     44  H60 ZIN A   1      16.942 -10.480   3.309  0.00  0.00     0.274 HD
ENDBRANCH  37  41
BRANCH  38  45
ATOM     45  O54 ZIN A   1      18.524 -10.635   6.776  0.00  0.00    -0.388 OA
ATOM     46  H93 ZIN A   1      19.025 -11.168   6.143  0.00  0.00     0.210 HD
ENDBRANCH  38  45
ENDBRANCH  31  32
ENDBRANCH   1  31
BRANCH  27  47
ATOM     47  C45 ZIN A   1      17.122  -7.068   3.113  0.00  0.00     0.182 C 
ATOM     48  O46 ZIN A   1      18.125  -6.981   3.801  0.00  0.00    -0.648 OA
ATOM     49  O47 ZIN A   1      17.171  -7.628   2.031  0.00  0.00    -0.648 OA
ENDBRANCH  27  47
BRANCH  26  50
ATOM     50  O42 ZIN A   1      14.092  -4.887   3.062  0.00  0.00    -0.394 OA
ATOM     51  H90 ZIN A   1      13.435  -5.539   3.341  0.00  0.00     0.210 HD
ENDBRANCH  26  50
BRANCH  24  52
ATOM     52  O38 ZIN A   1      18.150  -4.269   4.036  0.00  0.00    -0.365 OA
ATOM     53  H87 ZIN A   1      18.609  -4.602   3.253  0.00  0.00     0.213 HD
ENDBRANCH  24  52
BRANCH  22  54
ATOM     54  O35 ZIN A   1      19.103  -2.272   3.332  0.00  0.00    -0.395 OA
ATOM     55  H84 ZIN A   1      19.088  -1.892   2.443  0.00  0.00     0.210 HD
ENDBRANCH  22  54
TORSDOF 9
ENDMDL
MODEL 2
REMARK VINA RESULT:      -3.1      1.992      6.351
REMARK  9 active torsions:
REMARK  status: ('A' for Active; 'I' for Inactive)
REMARK    1  A    between atoms: C5_4  and  O7_5 
REMARK    2  A    between atoms: O7_5  and  C8_6 
REMARK    3  A    between atoms: C33_27  and  O35_28 
REMARK    4  A    between atoms: C37_30  and  O38_31 
REMARK    5  A    between atoms: C40_33  and  O42_34 
REMARK    6  A    between atoms: C43_35  and  C45_36 
REMARK    7  A    between atoms: C52_42  and  O54_43 
REMARK    8  A    between atoms: C55_44  and  N57_45 
REMARK    9  A    between atoms: C61_49  and  O63_50 
ROOT
ATOM      1  C8  ZIN A   1      17.407  -5.234   4.308  0.00  0.00     0.150 C 
ATOM      2  C10 ZIN A   1      18.219  -3.998   4.577  0.00  0.00     0.005 C 
ATOM      3  C11 ZIN A   1      17.954  -2.815   4.012  0.00  0.00    -0.002 C 
ATOM      4  C12 ZIN A   1      18.802  -1.693   4.399  0.00  0.00    -0.000 C 
ATOM      5  C13 ZIN A   1      18.498  -0.403   4.190  0.00  0.00     0.000 C 
ATOM      6  C14 ZIN A   1      19.256   0.585   4.858  0.00  0.00     0.000 C 
ATOM      7  C15 ZIN A   1      18.700   1.270   5.862  0.00  0.00    -0.000 C 
ATOM      8  C16 ZIN A   1      19.467   2.057   6.826  0.00  0.00    -0.004 C 
ATOM      9  C17 ZIN A   1      18.877   2.297   8.006  0.00  0.00    -0.024 C 
ATOM     10  C18 ZIN A   1      19.586   3.036   9.102  0.00  0.00     0.059 C 
ATOM     11  C19 ZIN A   1      19.041   2.570  10.455  0.00  0.00     0.131 C 
ATOM     12  C21 ZIN A   1      17.555   2.917  10.550  0.00  0.00     0.040 C 
ATOM     13  O22 ZIN A   1      19.208   1.135  10.593  0.00  0.00    -0.313 OA
ATOM     14  C23 ZIN A   1      18.551   0.531  11.606  0.00  0.00     0.283 C 
ATOM     15  O24 ZIN A   1      17.812   1.178  12.324  0.00  0.00    -0.260 OA
ATOM     16  C25 ZIN A   1      18.726  -0.905  11.841  0.00  0.00     0.081 C 
ATOM     17  C26 ZIN A   1      18.076  -1.515  12.832  0.00  0.00     0.013 C 
ATOM     18  C27 ZIN A   1      18.279  -2.988  13.067  0.00  0.00     0.174 A 
ATOM     19  O29 ZIN A   1      17.444  -3.632  14.035  0.00  0.00    -0.371 OA
ATOM     20  C30 ZIN A   1      17.148  -3.943  12.675  0.00  0.00     0.157 A 
ATOM     21  C32 ZIN A   1      17.520  -5.331  12.150  0.00  0.00     0.067 C 
ATOM     22  C33 ZIN A   1      16.847  -5.568  10.795  0.00  0.00     0.125 C 
ATOM     23  C36 ZIN A   1      17.617  -6.619   9.995  0.00  0.00     0.100 C 
ATOM     24  C37 ZIN A   1      16.860  -6.951   8.703  0.00  0.00     0.166 C 
ATOM     25  C39 ZIN A   1      16.605  -8.457   8.642  0.00  0.00     0.101 C 
ATOM     26  C40 ZIN A   1      17.035  -8.995   7.274  0.00  0.00     0.140 C 
ATOM     27  C43 ZIN A   1      16.438  -8.119   6.173  0.00  0.00     0.144 C 
ATOM     28  C48 ZIN A   1      16.955  -6.684   6.319  0.00  0.00     0.144 C 
ATOM     29  C50 ZIN A   1      17.924  -6.379   5.179  0.00  0.00     0.069 C 
ATOM     30  O51 ZIN A   1      17.634  -6.552   7.572  0.00  0.00    -0.349 OA
ENDROOT
BRANCH   1  31
ATOM     31  O7  ZIN A   1      16.036  -4.981   4.617  0.00  0.00    -0.349 OA
BRANCH  31  32
ATOM     32  C5  ZIN A   1      15.224  -4.699   3.476  0.00  0.00     0.291 C 
ATOM     33  O4  ZIN A   1      15.901  -5.131   2.292  0.00  0.00    -0.351 OA
ATOM     34  C2  ZIN A   1      16.216  -6.524   2.277  0.00  0.00     0.151 C 
ATOM     35  C1  ZIN A   1      16.959  -6.864   0.983  0.00  0.00     0.042 C 
ATOM     36  C61 ZIN A   1      14.923  -7.340   2.352  0.00  0.00     0.179 C 
ATOM     37  C55 ZIN A   1      14.156  -6.950   3.620  0.00  0.00     0.247 C 
ATOM     38  C52 ZIN A   1      13.891  -5.442   3.599  0.00  0.00     0.206 C 
BRANCH  36  39
ATOM     39  O63 ZIN A   1      15.239  -8.733   2.395  0.00  0.00    -0.391 OA
ATOM     40  H94 ZIN A   1      15.449  -9.115   1.532  0.00  0.00     0.210 HD
ENDBRANCH  36  39
BRANCH  37  41
ATOM     41  N57 ZIN A   1      12.879  -7.673   3.665  0.00  0.00    -0.070 N 
ATOM     42  H58 ZIN A   1      12.131  -7.053   3.391  0.00  0.00     0.274 HD
ATOM     43  H59 ZIN A   1      12.914  -8.458   3.032  0.00  0.00     0.274 HD
ATOM     44  H60 ZIN A   1      12.713  -8.006   4.603  0.00  0.00     0.274 HD
ENDBRANCH  37  41
BRANCH  38  45
ATOM     45  O54 ZIN A   1      13.058  -5.117   2.485  0.00  0.00    -0.388 OA
ATOM     46  H93 ZIN A   1      12.436  -4.396   2.655  0.00  0.00     0.210 HD
ENDBRANCH  38  45
ENDBRANCH  31  32
ENDBRANCH   1  31
BRANCH  27  47
ATOM     47  C45 ZIN A   1      14.935  -8.124   6.288  0.00  0.00     0.182 C 
ATOM     48  O46 ZIN A   1      14.336  -7.081   6.491  0.00  0.00    -0.648 OA
ATOM     49  O47 ZIN A   1      14.319  -9.170   6.179  0.00  0.00    -0.648 OA
ENDBRANCH  27  47
BRANCH  26  50
ATOM     50  O42 ZIN A   1      18.460  -8.973   7.179  0.00  0.00    -0.394 OA
ATOM     51  H90 ZIN A   1      18.895  -9.723   7.608  0.00  0.00     0.210 HD
ENDBRANCH  26  50
BRANCH  24  52
ATOM     52  O38 ZIN A   1      15.611  -6.257   8.697  0.00  0.00    -0.365 OA
ATOM     53  H87 ZIN A   1      15.445  -5.735   9.494  0.00  0.00     0.213 HD
ENDBRANCH  24  52
BRANCH  22  54
ATOM     54  O35 ZIN A   1      15.510  -6.026  11.005  0.00  0.00    -0.395 OA
ATOM     55  H84 ZIN A   1      15.446  -6.804  11.576  0.00  0.00     0.210 HD
ENDBRANCH  22  54
TORSDOF 9
ENDMDL
MODEL 3
REMARK VINA RESULT:      -2.5      5.207     10.273
REMARK  9 active torsions:
REMARK  status: ('A' for Active; 'I' for Inactive)
REMARK    1  A    between atoms: C5_4  and  O7_5 
REMARK    2  A    between atoms: O7_5  and  C8_6 
REMARK    3  A    between atoms: C33_27  and  O35_28 
REMARK    4  A    between atoms: C37_30  and  O38_31 
REMARK    5  A    between atoms: C40_33  and  O42_34 
REMARK    6  A    between atoms: C43_35  and  C45_36 
REMARK    7  A    between atoms: C52_42  and  O54_43 
REMARK    8  A    between atoms: C55_44  and  N57_45 
REMARK    9  A    between atoms: C61_49  and  O63_50 
ROOT
ATOM      1  C8  ZIN A   1      19.056   1.050   9.480  0.00  0.00     0.150 C 
ATOM      2  C10 ZIN A   1      19.104   2.392  10.155  0.00  0.00     0.005 C 
ATOM      3  C11 ZIN A   1      18.265   3.389   9.854  0.00  0.00    -0.002 C 
ATOM      4  C12 ZIN A   1      18.403   4.622  10.620  0.00  0.00    -0.000 C 
ATOM      5  C13 ZIN A   1      17.473   5.588  10.681  0.00  0.00     0.000 C 
ATOM      6  C14 ZIN A   1      17.603   6.588  11.671  0.00  0.00     0.000 C 
ATOM      7  C15 ZIN A   1      16.766   6.590  12.713  0.00  0.00    -0.000 C 
ATOM      8  C16 ZIN A   1      17.007   7.346  13.941  0.00  0.00    -0.004 C 
ATOM      9  C17 ZIN A   1      16.373   6.917  15.042  0.00  0.00    -0.024 C 
ATOM     10  C18 ZIN A   1      16.588   7.566  16.376  0.00  0.00     0.059 C 
ATOM     11  C19 ZIN A   1      16.359   6.532  17.482  0.00  0.00     0.131 C 
ATOM     12  C21 ZIN A   1      14.909   6.049  17.432  0.00  0.00     0.040 C 
ATOM     13  O22 ZIN A   1      17.248   5.400  17.298  0.00  0.00    -0.313 OA
ATOM     14  C23 ZIN A   1      16.996   4.291  18.027  0.00  0.00     0.283 C 
ATOM     15  O24 ZIN A   1      16.026   4.252  18.759  0.00  0.00    -0.260 OA
ATOM     16  C25 ZIN A   1      17.892   3.136  17.937  0.00  0.00     0.081 C 
ATOM     17  C26 ZIN A   1      17.650   2.032  18.645  0.00  0.00     0.013 C 
ATOM     18  C27 ZIN A   1      18.589   0.860  18.550  0.00  0.00     0.174 A 
ATOM     19  O29 ZIN A   1      18.207  -0.357  19.201  0.00  0.00    -0.371 OA
ATOM     20  C30 ZIN A   1      18.122  -0.377  17.776  0.00  0.00     0.157 A 
ATOM     21  C32 ZIN A   1      19.165  -1.182  16.999  0.00  0.00     0.067 C 
ATOM     22  C33 ZIN A   1      18.720  -1.331  15.541  0.00  0.00     0.125 C 
ATOM     23  C36 ZIN A   1      19.928  -1.583  14.639  0.00  0.00     0.100 C 
ATOM     24  C37 ZIN A   1      19.461  -1.868  13.207  0.00  0.00     0.166 C 
ATOM     25  C39 ZIN A   1      20.028  -3.213  12.751  0.00  0.00     0.101 C 
ATOM     26  C40 ZIN A   1      20.681  -3.055  11.375  0.00  0.00     0.140 C 
ATOM     27  C43 ZIN A   1      19.721  -2.324  10.437  0.00  0.00     0.144 C 
ATOM     28  C48 ZIN A   1      19.415  -0.930  10.997  0.00  0.00     0.144 C 
ATOM     29  C50 ZIN A   1      20.089   0.123  10.121  0.00  0.00     0.069 C 
ATOM     30  O51 ZIN A   1      19.920  -0.837  12.332  0.00  0.00    -0.349 OA
ENDROOT
BRANCH   1  31
ATOM     31  O7  ZIN A   1      17.751   0.487   9.631  0.00  0.00    -0.349 OA
BRANCH  31  32
ATOM     32  C5  ZIN A   1      16.948   0.556   8.451  0.00  0.00     0.291 C 
ATOM     33  O4  ZIN A   1      17.632   1.317   7.453  0.00  0.00    -0.351 OA
ATOM     34  C2  ZIN A   1      18.908   0.788   7.089  0.00  0.00     0.151 C 
ATOM     35  C1  ZIN A   1      19.556   1.695   6.041  0.00  0.00     0.042 C 
ATOM     36  C61 ZIN A   1      18.729  -0.617   6.506  0.00  0.00     0.179 C 
ATOM     37  C55 ZIN A   1      18.026  -1.503   7.540  0.00  0.00     0.247 C 
ATOM     38  C52 ZIN A   1      16.691  -0.859   7.924  0.00  0.00     0.206 C 
BRANCH  36  39
ATOM     39  O63 ZIN A   1      20.009  -1.172   6.194  0.00  0.00    -0.391 OA
ATOM     40  H94 ZIN A   1      20.083  -2.118   6.377  0.00  0.00     0.210 HD
ENDBRANCH  36  39
BRANCH  37  41
ATOM     41  N57 ZIN A   1      17.783  -2.832   6.965  0.00  0.00    -0.070 N 
ATOM     42  H58 ZIN A   1      18.386  -2.970   6.168  0.00  0.00     0.274 HD
ATOM     43  H59 ZIN A   1      17.975  -3.540   7.659  0.00  0.00     0.274 HD
ATOM     44  H60 ZIN A   1      16.819  -2.901   6.674  0.00  0.00     0.274 HD
ENDBRANCH  37  41
BRANCH  38  45
ATOM     45  O54 ZIN A   1      15.842  -0.794   6.776  0.00  0.00    -0.388 OA
ATOM     46  H93 ZIN A   1      16.227  -0.314   6.029  0.00  0.00     0.210 HD
ENDBRANCH  38  45
ENDBRANCH  31  32
ENDBRANCH   1  31
BRANCH  27  47
ATOM     47  C45 ZIN A   1      18.440  -3.109  10.320  0.00  0.00     0.182 C 
ATOM     48  O46 ZIN A   1      18.455  -4.235   9.851  0.00  0.00    -0.648 OA
ATOM     49  O47 ZIN A   1      17.388  -2.619  10.694  0.00  0.00    -0.648 OA
ENDBRANCH  27  47
BRANCH  26  50
ATOM     50  O42 ZIN A   1      21.887  -2.300  11.504  0.00  0.00    -0.394 OA
ATOM     51  H90 ZIN A   1      22.665  -2.731  11.123  0.00  0.00     0.210 HD
ENDBRANCH  26  50
BRANCH  24  52
ATOM     52  O38 ZIN A   1      18.033  -1.920  13.177  0.00  0.00    -0.365 OA
ATOM     53  H87 ZIN A   1      17.626  -1.255  12.607  0.00  0.00     0.213 HD
ENDBRANCH  24  52
BRANCH  22  54
ATOM     54  O35 ZIN A   1      17.816  -2.431  15.432  0.00  0.00    -0.395 OA
ATOM     55  H84 ZIN A   1      17.646  -2.712  14.522  0.00  0.00     0.210 HD
ENDBRANCH  22  54
TORSDOF 9
ENDMDL
MODEL 4
REMARK VINA RESULT:      -2.4      7.529     14.878
REMARK  9 active torsions:
REMARK  status: ('A' for Active; 'I' for Inactive)
REMARK    1  A    between atoms: C5_4  and  O7_5 
REMARK    2  A    between atoms: O7_5  and  C8_6 
REMARK    3  A    between atoms: C33_27  and  O35_28 
REMARK    4  A    between atoms: C37_30  and  O38_31 
REMARK    5  A    between atoms: C40_33  and  O42_34 
REMARK    6  A    between atoms: C43_35  and  C45_36 
REMARK    7  A    between atoms: C52_42  and  O54_43 
REMARK    8  A    between atoms: C55_44  and  N57_45 
REMARK    9  A    between atoms: C61_49  and  O63_50 
ROOT
ATOM      1  C8  ZIN A   1      16.555   6.954  14.975  0.00  0.00     0.150 C 
ATOM      2  C10 ZIN A   1      16.330   6.017  13.822  0.00  0.00     0.005 C 
ATOM      3  C11 ZIN A   1      16.880   6.201  12.616  0.00  0.00    -0.002 C 
ATOM      4  C12 ZIN A   1      16.607   5.188  11.603  0.00  0.00    -0.000 C 
ATOM      5  C13 ZIN A   1      17.308   5.037  10.470  0.00  0.00     0.000 C 
ATOM      6  C14 ZIN A   1      17.127   3.855   9.717  0.00  0.00     0.000 C 
ATOM      7  C15 ZIN A   1      18.100   2.937   9.696  0.00  0.00    -0.000 C 
ATOM      8  C16 ZIN A   1      17.902   1.561   9.244  0.00  0.00    -0.004 C 
ATOM      9  C17 ZIN A   1      18.780   0.652   9.694  0.00  0.00    -0.024 C 
ATOM     10  C18 ZIN A   1      18.646  -0.803   9.356  0.00  0.00     0.059 C 
ATOM     11  C19 ZIN A   1      19.263  -1.639  10.481  0.00  0.00     0.131 C 
ATOM     12  C21 ZIN A   1      20.756  -1.324  10.587  0.00  0.00     0.040 C 
ATOM     13  O22 ZIN A   1      18.617  -1.329  11.743  0.00  0.00    -0.313 OA
ATOM     14  C23 ZIN A   1      19.211  -1.782  12.869  0.00  0.00     0.283 C 
ATOM     15  O24 ZIN A   1      20.272  -2.373  12.801  0.00  0.00    -0.260 OA
ATOM     16  C25 ZIN A   1      18.579  -1.560  14.172  0.00  0.00     0.081 C 
ATOM     17  C26 ZIN A   1      19.159  -1.994  15.291  0.00  0.00     0.013 C 
ATOM     18  C27 ZIN A   1      18.488  -1.769  16.619  0.00  0.00     0.174 A 
ATOM     19  O29 ZIN A   1      19.219  -2.107  17.803  0.00  0.00    -0.371 OA
ATOM     20  C30 ZIN A   1      19.078  -0.709  17.554  0.00  0.00     0.157 A 
ATOM     21  C32 ZIN A   1      18.119   0.092  18.438  0.00  0.00     0.067 C 
ATOM     22  C33 ZIN A   1      18.348   1.591  18.220  0.00  0.00     0.125 C 
ATOM     23  C36 ZIN A   1      17.093   2.380  18.594  0.00  0.00     0.100 C 
ATOM     24  C37 ZIN A   1      17.377   3.884  18.506  0.00  0.00     0.166 C 
ATOM     25  C39 ZIN A   1      17.043   4.538  19.848  0.00  0.00     0.101 C 
ATOM     26  C40 ZIN A   1      16.161   5.768  19.614  0.00  0.00     0.140 C 
ATOM     27  C43 ZIN A   1      16.783   6.640  18.523  0.00  0.00     0.144 C 
ATOM     28  C48 ZIN A   1      16.870   5.845  17.216  0.00  0.00     0.144 C 
ATOM     29  C50 ZIN A   1      15.857   6.402  16.218  0.00  0.00     0.069 C 
ATOM     30  O51 ZIN A   1      16.576   4.470  17.479  0.00  0.00    -0.349 OA
ENDROOT
BRANCH   1  31
ATOM     31  O7  ZIN A   1      17.956   7.073  15.227  0.00  0.00    -0.349 OA
BRANCH  31  32
ATOM     32  C5  ZIN A   1      18.781   6.598  14.162  0.00  0.00     0.291 C 
ATOM     33  O4  ZIN A   1      20.155   6.825  14.487  0.00  0.00    -0.351 OA
ATOM     34  C2  ZIN A   1      20.581   6.189  15.693  0.00  0.00     0.151 C 
ATOM     35  C1  ZIN A   1      22.052   6.522  15.953  0.00  0.00     0.042 C 
ATOM     36  C61 ZIN A   1      20.419   4.673  15.555  0.00  0.00     0.179 C 
ATOM     37  C55 ZIN A   1      18.955   4.351  15.235  0.00  0.00     0.247 C 
ATOM     38  C52 ZIN A   1      18.547   5.099  13.962  0.00  0.00     0.206 C 
BRANCH  36  39
ATOM     39  O63 ZIN A   1      20.790   4.038  16.780  0.00  0.00    -0.391 OA
ATOM     40  H94 ZIN A   1      20.698   4.603  17.559  0.00  0.00     0.210 HD
ENDBRANCH  36  39
BRANCH  37  41
ATOM     41  N57 ZIN A   1      18.802   2.906  15.027  0.00  0.00    -0.070 N 
ATOM     42  H58 ZIN A   1      19.519   2.579  14.396  0.00  0.00     0.274 HD
ATOM     43  H59 ZIN A   1      18.889   2.428  15.911  0.00  0.00     0.274 HD
ATOM     44  H60 ZIN A   1      17.893   2.717  14.631  0.00  0.00     0.274 HD
ENDBRANCH  37  41
BRANCH  38  45
ATOM     45  O54 ZIN A   1      19.331   4.634  12.861  0.00  0.00    -0.388 OA
ATOM     46  H93 ZIN A   1      19.205   5.141  12.047  0.00  0.00     0.210 HD
ENDBRANCH  38  45
ENDBRANCH  31  32
ENDBRANCH   1  31
BRANCH  27  47
ATOM     47  C45 ZIN A   1      18.166   7.062  18.947  0.00  0.00     0.182 C 
ATOM     48  O46 ZIN A   1      18.327   7.650  20.003  0.00  0.00    -0.648 OA
ATOM     49  O47 ZIN A   1      19.124   6.817  18.233  0.00  0.00    -0.648 OA
ENDBRANCH  27  47
BRANCH  26  50
ATOM     50  O42 ZIN A   1      14.858   5.349  19.204  0.00  0.00    -0.394 OA
ATOM     51  H90 ZIN A   1      14.279   6.073  18.931  0.00  0.00     0.210 HD
ENDBRANCH  26  50
BRANCH  24  52
ATOM     52  O38 ZIN A   1      18.760   4.088  18.209  0.00  0.00    -0.365 OA
ATOM     53  H87 ZIN A   1      19.030   3.756  17.342  0.00  0.00     0.213 HD
ENDBRANCH  24  52
BRANCH  22  54
ATOM     54  O35 ZIN A   1      19.437   2.027  19.037  0.00  0.00    -0.395 OA
ATOM     55  H84 ZIN A   1      20.025   2.658  18.602  0.00  0.00     0.210 HD
ENDBRANCH  22  54
TORSDOF 9
ENDMDL
MODEL 5
REMARK VINA RESULT:      -1.6      3.564     10.277
REMARK  9 active torsions:
REMARK  status: ('A' for Active; 'I' for Inactive)
REMARK    1  A    between atoms: C5_4  and  O7_5 
REMARK    2  A    between atoms: O7_5  and  C8_6 
REMARK    3  A    between atoms: C33_27  and  O35_28 
REMARK    4  A    between atoms: C37_30  and  O38_31 
REMARK    5  A    between atoms: C40_33  and  O42_34 
REMARK    6  A    between atoms: C43_35  and  C45_36 
REMARK    7  A    between atoms: C52_42  and  O54_43 
REMARK    8  A    between atoms: C55_44  and  N57_45 
REMARK    9  A    between atoms: C61_49  and  O63_50 
ROOT
ATOM      1  C8  ZIN A   1      18.831  -0.397  13.587  0.00  0.00     0.150 C 
ATOM      2  C10 ZIN A   1      18.998  -1.778  13.020  0.00  0.00     0.005 C 
ATOM      3  C11 ZIN A   1      18.193  -2.798  13.337  0.00  0.00    -0.002 C 
ATOM      4  C12 ZIN A   1      18.451  -4.073  12.677  0.00  0.00    -0.000 C 
ATOM      5  C13 ZIN A   1      17.580  -5.092  12.625  0.00  0.00     0.000 C 
ATOM      6  C14 ZIN A   1      17.834  -6.151  11.725  0.00  0.00     0.000 C 
ATOM      7  C15 ZIN A   1      17.075  -6.276  10.631  0.00  0.00    -0.000 C 
ATOM      8  C16 ZIN A   1      17.443  -7.102   9.482  0.00  0.00    -0.004 C 
ATOM      9  C17 ZIN A   1      16.867  -6.790   8.312  0.00  0.00    -0.024 C 
ATOM     10  C18 ZIN A   1      17.212  -7.519   7.048  0.00  0.00     0.059 C 
ATOM     11  C19 ZIN A   1      17.008  -6.581   5.855  0.00  0.00     0.131 C 
ATOM     12  C21 ZIN A   1      15.534  -6.181   5.770  0.00  0.00     0.040 C 
ATOM     13  O22 ZIN A   1      17.820  -5.389   6.013  0.00  0.00    -0.313 OA
ATOM     14  C23 ZIN A   1      17.563  -4.352   5.187  0.00  0.00     0.283 C 
ATOM     15  O24 ZIN A   1      16.646  -4.421   4.391  0.00  0.00    -0.260 OA
ATOM     16  C25 ZIN A   1      18.387  -3.143   5.251  0.00  0.00     0.081 C 
ATOM     17  C26 ZIN A   1      18.139  -2.108   4.447  0.00  0.00     0.013 C 
ATOM     18  C27 ZIN A   1      19.005  -0.880   4.517  0.00  0.00     0.174 A 
ATOM     19  O29 ZIN A   1      18.606   0.264   3.753  0.00  0.00    -0.371 OA
ATOM     20  C30 ZIN A   1      18.419   0.380   5.163  0.00  0.00     0.157 A 
ATOM     21  C32 ZIN A   1      19.360   1.297   5.947  0.00  0.00     0.067 C 
ATOM     22  C33 ZIN A   1      18.804   1.523   7.356  0.00  0.00     0.125 C 
ATOM     23  C36 ZIN A   1      19.930   1.909   8.316  0.00  0.00     0.100 C 
ATOM     24  C37 ZIN A   1      19.347   2.268   9.688  0.00  0.00     0.166 C 
ATOM     25  C39 ZIN A   1      19.808   3.673  10.079  0.00  0.00     0.101 C 
ATOM     26  C40 ZIN A   1      20.368   3.650  11.504  0.00  0.00     0.140 C 
ATOM     27  C43 ZIN A   1      19.383   2.934  12.426  0.00  0.00     0.144 C 
ATOM     28  C48 ZIN A   1      19.192   1.488  11.954  0.00  0.00     0.144 C 
ATOM     29  C50 ZIN A   1      19.857   0.541  12.950  0.00  0.00     0.069 C 
ATOM     30  O51 ZIN A   1      19.796   1.330  10.666  0.00  0.00    -0.349 OA
ENDROOT
BRANCH   1  31
ATOM     31  O7  ZIN A   1      17.513   0.078  13.307  0.00  0.00    -0.349 OA
BRANCH  31  32
ATOM     32  C5  ZIN A   1      16.916   0.806  14.381  0.00  0.00     0.291 C 
ATOM     33  O4  ZIN A   1      16.476  -0.107  15.390  0.00  0.00    -0.351 OA
ATOM     34  C2  ZIN A   1      17.518  -0.921  15.932  0.00  0.00     0.151 C 
ATOM     35  C1  ZIN A   1      16.929  -1.874  16.975  0.00  0.00     0.042 C 
ATOM     36  C61 ZIN A   1      18.570  -0.028  16.594  0.00  0.00     0.179 C 
ATOM     37  C55 ZIN A   1      19.112   0.962  15.557  0.00  0.00     0.247 C 
ATOM     38  C52 ZIN A   1      17.944   1.769  14.981  0.00  0.00     0.206 C 
BRANCH  36  39
ATOM     39  O63 ZIN A   1      19.641  -0.836  17.087  0.00  0.00    -0.391 OA
ATOM     40  H94 ZIN A   1      19.586  -1.765  16.825  0.00  0.00     0.210 HD
ENDBRANCH  36  39
BRANCH  37  41
ATOM     41  N57 ZIN A   1      20.068   1.873  16.199  0.00  0.00    -0.070 N 
ATOM     42  H58 ZIN A   1      20.978   1.760  15.776  0.00  0.00     0.274 HD
ATOM     43  H59 ZIN A   1      19.758   2.825  16.080  0.00  0.00     0.274 HD
ATOM     44  H60 ZIN A   1      20.127   1.660  17.184  0.00  0.00     0.274 HD
ENDBRANCH  37  41
BRANCH  38  45
ATOM     45  O54 ZIN A   1      17.333   2.536  16.020  0.00  0.00    -0.388 OA
ATOM     46  H93 ZIN A   1      17.783   2.472  16.873  0.00  0.00     0.210 HD
ENDBRANCH  38  45
ENDBRANCH  31  32
ENDBRANCH   1  31
BRANCH  27  47
ATOM     47  C45 ZIN A   1      18.057   3.650  12.397  0.00  0.00     0.182 C 
ATOM     48  O46 ZIN A   1      17.977   4.801  12.790  0.00  0.00    -0.648 OA
ATOM     49  O47 ZIN A   1      17.064   3.077  11.982  0.00  0.00    -0.648 OA
ENDBRANCH  27  47
BRANCH  26  50
ATOM     50  O42 ZIN A   1      21.618   2.960  11.513  0.00  0.00    -0.394 OA
ATOM     51  H90 ZIN A   1      21.549   2.021  11.733  0.00  0.00     0.210 HD
ENDBRANCH  26  50
BRANCH  24  52
ATOM     52  O38 ZIN A   1      17.920   2.238   9.616  0.00  0.00    -0.365 OA
ATOM     53  H87 ZIN A   1      17.478   2.478  10.442  0.00  0.00     0.213 HD
ENDBRANCH  24  52
BRANCH  22  54
ATOM     54  O35 ZIN A   1      17.838   2.575   7.320  0.00  0.00    -0.395 OA
ATOM     55  H84 ZIN A   1      17.530   2.855   8.193  0.00  0.00     0.210 HD
ENDBRANCH  22  54
TORSDOF 9
ENDMDL
