MODEL 1
REMARK VINA RESULT:      -7.1      0.000      0.000
REMARK  6 active torsions:
REMARK  status: ('A' for Active; 'I' for Inactive)
REMARK    1  A    between atoms: N2_2  and  C4_4 
REMARK    2  A    between atoms: C4_4  and  C5_5 
REMARK    3  A    between atoms: C5_5  and  C6_6 
REMARK    4  A    between atoms: C6_6  and  O7_7 
REMARK    5  A    between atoms: C6_6  and  C8_8 
REMARK    6  A    between atoms: C6_6  and  C14_14 
ROOT
ATOM      1  C6  ZIN A   1      19.295   0.231   9.652  0.00  0.00     0.115 C 
ENDROOT
BRANCH   1   2
ATOM      2  C5  ZIN A   1      18.554  -0.848  10.443  0.00  0.00     0.078 C 
BRANCH   2   3
ATOM      3  C4  ZIN A   1      19.264  -2.192  10.261  0.00  0.00     0.275 C 
BRANCH   3   4
ATOM      4  N2  ZIN A   1      19.661  -2.716  11.574  0.00  0.00     0.080 N 
ATOM      5  C1  ZIN A   1      18.665  -2.380  12.601  0.00  0.00     0.309 C 
ATOM      6  C3  ZIN A   1      19.886  -4.168  11.515  0.00  0.00     0.309 C 
ENDBRANCH   3   4
ENDBRANCH   2   3
ENDBRANCH   1   2
BRANCH   1   7
ATOM      7  O7  ZIN A   1      20.687  -0.087   9.599  0.00  0.00    -0.380 OA
ATOM      8  H31 ZIN A   1      20.913  -0.934  10.008  0.00  0.00     0.211 HD
ENDBRANCH   1   7
BRANCH   1   9
ATOM      9  C8  ZIN A   1      18.742   0.296   8.251  0.00  0.00    -0.019 A 
ATOM     10  C13 ZIN A   1      19.481   0.883   7.242  0.00  0.00     0.010 A 
ATOM     11  C12 ZIN A   1      18.976   0.939   5.957  0.00  0.00     0.001 A 
ATOM     12  C11 ZIN A   1      17.727   0.413   5.683  0.00  0.00     0.000 A 
ATOM     13  C10 ZIN A   1      16.985  -0.170   6.693  0.00  0.00     0.001 A 
ATOM     14  C9  ZIN A   1      17.493  -0.228   7.977  0.00  0.00     0.010 A 
ENDBRANCH   1   9
BRANCH   1  15
ATOM     15  C14 ZIN A   1      19.109   1.566  10.326  0.00  0.00     0.002 A 
ATOM     16  C19 ZIN A   1      19.750   1.832  11.523  0.00  0.00     0.043 A 
ATOM     17  C18 ZIN A   1      19.584   3.061  12.137  0.00  0.00     0.024 A 
ATOM     18 Cl20 ZIN A   1      20.776   0.631  12.245  0.00  0.00    -0.084 Cl
ATOM     19  C17 ZIN A   1      18.768   4.016  11.562  0.00  0.00     0.002 A 
ATOM     20  C16 ZIN A   1      18.123   3.747  10.370  0.00  0.00     0.001 A 
ATOM     21  C15 ZIN A   1      18.293   2.523   9.752  0.00  0.00     0.012 A 
ENDBRANCH   1  15
TORSDOF 6
ENDMDL
MODEL 2
REMARK VINA RESULT:      -7.1      2.169      4.192
REMARK  6 active torsions:
REMARK  status: ('A' for Active; 'I' for Inactive)
REMARK    1  A    between atoms: N2_2  and  C4_4 
REMARK    2  A    between atoms: C4_4  and  C5_5 
REMARK    3  A    between atoms: C5_5  and  C6_6 
REMARK    4  A    between atoms: C6_6  and  O7_7 
REMARK    5  A    between atoms: C6_6  and  C8_8 
REMARK    6  A    between atoms: C6_6  and  C14_14 
ROOT
ATOM      1  C6  ZIN A   1      17.780  -0.100  11.072  0.00  0.00     0.115 C 
ENDROOT
BRANCH   1   2
ATOM      2  C5  ZIN A   1      18.508   0.813  12.059  0.00  0.00     0.078 C 
BRANCH   2   3
ATOM      3  C4  ZIN A   1      17.988   0.550  13.474  0.00  0.00     0.275 C 
BRANCH   3   4
ATOM      4  N2  ZIN A   1      19.125   0.327  14.378  0.00  0.00     0.080 N 
ATOM      5  C1  ZIN A   1      19.083   1.253  15.517  0.00  0.00     0.309 C 
ATOM      6  C3  ZIN A   1      19.166  -1.069  14.837  0.00  0.00     0.309 C 
ENDBRANCH   3   4
ENDBRANCH   2   3
ENDBRANCH   1   2
BRANCH   1   7
ATOM      7  O7  ZIN A   1      16.372  -0.028  11.303  0.00  0.00    -0.380 OA
ATOM      8  H31 ZIN A   1      15.936   0.707  10.852  0.00  0.00     0.211 HD
ENDBRANCH   1   7
BRANCH   1   9
ATOM      9  C8  ZIN A   1      18.080   0.342   9.662  0.00  0.00    -0.019 A 
ATOM     10  C13 ZIN A   1      18.842   1.473   9.439  0.00  0.00     0.010 A 
ATOM     11  C12 ZIN A   1      19.121   1.875   8.147  0.00  0.00     0.001 A 
ATOM     12  C11 ZIN A   1      18.632   1.150   7.077  0.00  0.00     0.000 A 
ATOM     13  C10 ZIN A   1      17.865   0.022   7.299  0.00  0.00     0.001 A 
ATOM     14  C9  ZIN A   1      17.590  -0.383   8.592  0.00  0.00     0.010 A 
ENDBRANCH   1   9
BRANCH   1  15
ATOM     15  C14 ZIN A   1      18.249  -1.521  11.262  0.00  0.00     0.002 A 
ATOM     16  C19 ZIN A   1      19.600  -1.815  11.220  0.00  0.00     0.043 A 
ATOM     17  C18 ZIN A   1      20.029  -3.117  11.401  0.00  0.00     0.024 A 
ATOM     18 Cl20 ZIN A   1      20.757  -0.548  10.954  0.00  0.00    -0.084 Cl
ATOM     19  C17 ZIN A   1      19.108  -4.126  11.613  0.00  0.00     0.002 A 
ATOM     20  C16 ZIN A   1      17.758  -3.831  11.649  0.00  0.00     0.001 A 
ATOM     21  C15 ZIN A   1      17.329  -2.530  11.473  0.00  0.00     0.012 A 
ENDBRANCH   1  15
TORSDOF 6
ENDMDL
MODEL 3
REMARK VINA RESULT:      -7.0      2.099      4.570
REMARK  6 active torsions:
REMARK  status: ('A' for Active; 'I' for Inactive)
REMARK    1  A    between atoms: N2_2  and  C4_4 
REMARK    2  A    between atoms: C4_4  and  C5_5 
REMARK    3  A    between atoms: C5_5  and  C6_6 
REMARK    4  A    between atoms: C6_6  and  O7_7 
REMARK    5  A    between atoms: C6_6  and  C8_8 
REMARK    6  A    between atoms: C6_6  and  C14_14 
ROOT
ATOM      1  C6  ZIN A   1      17.924   0.159  10.834  0.00  0.00     0.115 C 
ENDROOT
BRANCH   1   2
ATOM      2  C5  ZIN A   1      18.809   1.111  11.640  0.00  0.00     0.078 C 
BRANCH   2   3
ATOM      3  C4  ZIN A   1      17.930   1.998  12.525  0.00  0.00     0.275 C 
BRANCH   3   4
ATOM      4  N2  ZIN A   1      18.219   3.410  12.242  0.00  0.00     0.080 N 
ATOM      5  C1  ZIN A   1      19.635   3.601  11.901  0.00  0.00     0.309 C 
ATOM      6  C3  ZIN A   1      17.347   3.923  11.175  0.00  0.00     0.309 C 
ENDBRANCH   3   4
ENDBRANCH   2   3
ENDBRANCH   1   2
BRANCH   1   7
ATOM      7  O7  ZIN A   1      16.554   0.374  11.179  0.00  0.00    -0.380 OA
ATOM      8  H31 ZIN A   1      15.931  -0.164  10.672  0.00  0.00     0.211 HD
ENDBRANCH   1   7
BRANCH   1   9
ATOM      9  C8  ZIN A   1      18.117   0.418   9.362  0.00  0.00    -0.019 A 
ATOM     10  C13 ZIN A   1      18.962   1.428   8.942  0.00  0.00     0.010 A 
ATOM     11  C12 ZIN A   1      19.143   1.663   7.593  0.00  0.00     0.001 A 
ATOM     12  C11 ZIN A   1      18.472   0.892   6.662  0.00  0.00     0.000 A 
ATOM     13  C10 ZIN A   1      17.623  -0.115   7.081  0.00  0.00     0.001 A 
ATOM     14  C9  ZIN A   1      17.445  -0.352   8.431  0.00  0.00     0.010 A 
ENDBRANCH   1   9
BRANCH   1  15
ATOM     15  C14 ZIN A   1      18.303  -1.266  11.146  0.00  0.00     0.002 A 
ATOM     16  C19 ZIN A   1      19.634  -1.644  11.146  0.00  0.00     0.043 A 
ATOM     17  C18 ZIN A   1      19.981  -2.950  11.439  0.00  0.00     0.024 A 
ATOM     18 Cl20 ZIN A   1      20.869  -0.475  10.793  0.00  0.00    -0.084 Cl
ATOM     19  C17 ZIN A   1      18.998  -3.880  11.720  0.00  0.00     0.002 A 
ATOM     20  C16 ZIN A   1      17.669  -3.503  11.714  0.00  0.00     0.001 A 
ATOM     21  C15 ZIN A   1      17.321  -2.197  11.427  0.00  0.00     0.012 A 
ENDBRANCH   1  15
TORSDOF 6
ENDMDL
MODEL 4
REMARK VINA RESULT:      -7.0      2.004      4.428
REMARK  6 active torsions:
REMARK  status: ('A' for Active; 'I' for Inactive)
REMARK    1  A    between atoms: N2_2  and  C4_4 
REMARK    2  A    between atoms: C4_4  and  C5_5 
REMARK    3  A    between atoms: C5_5  and  C6_6 
REMARK    4  A    between atoms: C6_6  and  O7_7 
REMARK    5  A    between atoms: C6_6  and  C8_8 
REMARK    6  A    between atoms: C6_6  and  C14_14 
ROOT
ATOM      1  C6  ZIN A   1      19.997  -0.485  10.818  0.00  0.00     0.115 C 
ENDROOT
BRANCH   1   2
ATOM      2  C5  ZIN A   1      19.503   0.525  11.854  0.00  0.00     0.078 C 
BRANCH   2   3
ATOM      3  C4  ZIN A   1      20.275   0.333  13.162  0.00  0.00     0.275 C 
BRANCH   3   4
ATOM      4  N2  ZIN A   1      19.325   0.180  14.272  0.00  0.00     0.080 N 
ATOM      5  C1  ZIN A   1      17.990   0.663  13.895  0.00  0.00     0.309 C 
ATOM      6  C3  ZIN A   1      19.270  -1.216  14.729  0.00  0.00     0.309 C 
ENDBRANCH   3   4
ENDBRANCH   2   3
ENDBRANCH   1   2
BRANCH   1   7
ATOM      7  O7  ZIN A   1      21.421  -0.578  10.883  0.00  0.00    -0.380 OA
ATOM      8  H31 ZIN A   1      21.798  -1.252  10.301  0.00  0.00     0.211 HD
ENDBRANCH   1   7
BRANCH   1   9
ATOM      9  C8  ZIN A   1      19.392  -1.836  11.104  0.00  0.00    -0.019 A 
ATOM     10  C13 ZIN A   1      20.205  -2.945  11.232  0.00  0.00     0.010 A 
ATOM     11  C12 ZIN A   1      19.650  -4.183  11.499  0.00  0.00     0.001 A 
ATOM     12  C11 ZIN A   1      18.280  -4.312  11.630  0.00  0.00     0.000 A 
ATOM     13  C10 ZIN A   1      17.466  -3.203  11.498  0.00  0.00     0.001 A 
ATOM     14  C9  ZIN A   1      18.021  -1.965  11.234  0.00  0.00     0.010 A 
ENDBRANCH   1   9
BRANCH   1  15
ATOM     15  C14 ZIN A   1      19.585  -0.033   9.440  0.00  0.00     0.002 A 
ATOM     16  C19 ZIN A   1      19.368   1.309   9.187  0.00  0.00     0.043 A 
ATOM     17  C18 ZIN A   1      18.997   1.723   7.921  0.00  0.00     0.024 A 
ATOM     18 Cl20 ZIN A   1      19.577   2.476  10.456  0.00  0.00    -0.084 Cl
ATOM     19  C17 ZIN A   1      18.830   0.794   6.911  0.00  0.00     0.002 A 
ATOM     20  C16 ZIN A   1      19.041  -0.548   7.166  0.00  0.00     0.001 A 
ATOM     21  C15 ZIN A   1      19.418  -0.962   8.430  0.00  0.00     0.012 A 
ENDBRANCH   1  15
TORSDOF 6
ENDMDL
MODEL 5
REMARK VINA RESULT:      -6.9      1.927      2.616
REMARK  6 active torsions:
REMARK  status: ('A' for Active; 'I' for Inactive)
REMARK    1  A    between atoms: N2_2  and  C4_4 
REMARK    2  A    between atoms: C4_4  and  C5_5 
REMARK    3  A    between atoms: C5_5  and  C6_6 
REMARK    4  A    between atoms: C6_6  and  O7_7 
REMARK    5  A    between atoms: C6_6  and  C8_8 
REMARK    6  A    between atoms: C6_6  and  C14_14 
ROOT
ATOM      1  C6  ZIN A   1      18.978   1.995  11.522  0.00  0.00     0.115 C 
ENDROOT
BRANCH   1   2
ATOM      2  C5  ZIN A   1      18.634   0.912  12.545  0.00  0.00     0.078 C 
BRANCH   2   3
ATOM      3  C4  ZIN A   1      19.868   0.045  12.804  0.00  0.00     0.275 C 
BRANCH   3   4
ATOM      4  N2  ZIN A   1      19.457  -1.214  13.440  0.00  0.00     0.080 N 
ATOM      5  C1  ZIN A   1      19.133  -1.008  14.858  0.00  0.00     0.309 C 
ATOM      6  C3  ZIN A   1      18.324  -1.820  12.724  0.00  0.00     0.309 C 
ENDBRANCH   3   4
ENDBRANCH   2   3
ENDBRANCH   1   2
BRANCH   1   7
ATOM      7  O7  ZIN A   1      20.360   2.338  11.636  0.00  0.00    -0.380 OA
ATOM      8  H31 ZIN A   1      20.919   1.617  11.955  0.00  0.00     0.211 HD
ENDBRANCH   1   7
BRANCH   1   9
ATOM      9  C8  ZIN A   1      18.702   1.480  10.133  0.00  0.00    -0.019 A 
ATOM     10  C13 ZIN A   1      19.454   1.931   9.065  0.00  0.00     0.010 A 
ATOM     11  C12 ZIN A   1      19.204   1.456   7.792  0.00  0.00     0.001 A 
ATOM     12  C11 ZIN A   1      18.194   0.534   7.585  0.00  0.00     0.000 A 
ATOM     13  C10 ZIN A   1      17.437   0.087   8.652  0.00  0.00     0.001 A 
ATOM     14  C9  ZIN A   1      17.691   0.560   9.926  0.00  0.00     0.010 A 
ENDBRANCH   1   9
BRANCH   1  15
ATOM     15  C14 ZIN A   1      18.134   3.217  11.781  0.00  0.00     0.002 A 
ATOM     16  C19 ZIN A   1      18.039   3.735  13.060  0.00  0.00     0.043 A 
ATOM     17  C18 ZIN A   1      17.270   4.860  13.295  0.00  0.00     0.024 A 
ATOM     18 Cl20 ZIN A   1      18.899   2.982  14.368  0.00  0.00    -0.084 Cl
ATOM     19  C17 ZIN A   1      16.586   5.459  12.254  0.00  0.00     0.002 A 
ATOM     20  C16 ZIN A   1      16.676   4.938  10.977  0.00  0.00     0.001 A 
ATOM     21  C15 ZIN A   1      17.450   3.817  10.740  0.00  0.00     0.012 A 
ENDBRANCH   1  15
TORSDOF 6
ENDMDL
MODEL 6
REMARK VINA RESULT:      -6.9      2.789      4.756
REMARK  6 active torsions:
REMARK  status: ('A' for Active; 'I' for Inactive)
REMARK    1  A    between atoms: N2_2  and  C4_4 
REMARK    2  A    between atoms: C4_4  and  C5_5 
REMARK    3  A    between atoms: C5_5  and  C6_6 
REMARK    4  A    between atoms: C6_6  and  O7_7 
REMARK    5  A    between atoms: C6_6  and  C8_8 
REMARK    6  A    between atoms: C6_6  and  C14_14 
ROOT
ATOM      1  C6  ZIN A   1      19.015  -0.792  12.898  0.00  0.00     0.115 C 
ENDROOT
BRANCH   1   2
ATOM      2  C5  ZIN A   1      18.105  -0.692  14.123  0.00  0.00     0.078 C 
BRANCH   2   3
ATOM      3  C4  ZIN A   1      18.952  -0.783  15.395  0.00  0.00     0.275 C 
BRANCH   3   4
ATOM      4  N2  ZIN A   1      18.591   0.315  16.302  0.00  0.00     0.080 N 
ATOM      5  C1  ZIN A   1      19.103   0.070  17.657  0.00  0.00     0.309 C 
ATOM      6  C3  ZIN A   1      19.071   1.604  15.784  0.00  0.00     0.309 C 
ENDBRANCH   3   4
ENDBRANCH   2   3
ENDBRANCH   1   2
BRANCH   1   7
ATOM      7  O7  ZIN A   1      20.381  -0.710  13.309  0.00  0.00    -0.380 OA
ATOM      8  H31 ZIN A   1      20.945  -0.212  12.703  0.00  0.00     0.211 HD
ENDBRANCH   1   7
BRANCH   1   9
ATOM      9  C8  ZIN A   1      18.778  -2.108  12.202  0.00  0.00    -0.019 A 
ATOM     10  C13 ZIN A   1      17.544  -2.384  11.646  0.00  0.00     0.010 A 
ATOM     11  C12 ZIN A   1      17.328  -3.588  11.004  0.00  0.00     0.001 A 
ATOM     12  C11 ZIN A   1      18.345  -4.521  10.925  0.00  0.00     0.000 A 
ATOM     13  C10 ZIN A   1      19.579  -4.247  11.485  0.00  0.00     0.001 A 
ATOM     14  C9  ZIN A   1      19.795  -3.041  12.124  0.00  0.00     0.010 A 
ENDBRANCH   1   9
BRANCH   1  15
ATOM     15  C14 ZIN A   1      18.707   0.339  11.950  0.00  0.00     0.002 A 
ATOM     16  C19 ZIN A   1      19.502   0.545  10.836  0.00  0.00     0.043 A 
ATOM     17  C18 ZIN A   1      19.214   1.579   9.964  0.00  0.00     0.024 A 
ATOM     18 Cl20 ZIN A   1      20.851  -0.503  10.526  0.00  0.00    -0.084 Cl
ATOM     19  C17 ZIN A   1      18.140   2.413  10.211  0.00  0.00     0.002 A 
ATOM     20  C16 ZIN A   1      17.350   2.210  11.327  0.00  0.00     0.001 A 
ATOM     21  C15 ZIN A   1      17.633   1.174  12.196  0.00  0.00     0.012 A 
ENDBRANCH   1  15
TORSDOF 6
ENDMDL
MODEL 7
REMARK VINA RESULT:      -6.8      2.880      4.951
REMARK  6 active torsions:
REMARK  status: ('A' for Active; 'I' for Inactive)
REMARK    1  A    between atoms: N2_2  and  C4_4 
REMARK    2  A    between atoms: C4_4  and  C5_5 
REMARK    3  A    between atoms: C5_5  and  C6_6 
REMARK    4  A    between atoms: C6_6  and  O7_7 
REMARK    5  A    between atoms: C6_6  and  C8_8 
REMARK    6  A    between atoms: C6_6  and  C14_14 
ROOT
ATOM      1  C6  ZIN A   1      18.050  -0.480  12.225  0.00  0.00     0.115 C 
ENDROOT
BRANCH   1   2
ATOM      2  C5  ZIN A   1      19.063  -1.463  11.637  0.00  0.00     0.078 C 
BRANCH   2   3
ATOM      3  C4  ZIN A   1      18.358  -2.388  10.642  0.00  0.00     0.275 C 
BRANCH   3   4
ATOM      4  N2  ZIN A   1      18.728  -3.782  10.922  0.00  0.00     0.080 N 
ATOM      5  C1  ZIN A   1      20.076  -3.864  11.501  0.00  0.00     0.309 C 
ATOM      6  C3  ZIN A   1      17.739  -4.422  11.801  0.00  0.00     0.309 C 
ENDBRANCH   3   4
ENDBRANCH   2   3
ENDBRANCH   1   2
BRANCH   1   7
ATOM      7  O7  ZIN A   1      16.731  -0.864  11.835  0.00  0.00    -0.380 OA
ATOM      8  H31 ZIN A   1      16.660  -1.147  10.914  0.00  0.00     0.211 HD
ENDBRANCH   1   7
BRANCH   1   9
ATOM      9  C8  ZIN A   1      18.153  -0.492  13.729  0.00  0.00    -0.019 A 
ATOM     10  C13 ZIN A   1      18.857  -1.495  14.367  0.00  0.00     0.010 A 
ATOM     11  C12 ZIN A   1      18.955  -1.503  15.745  0.00  0.00     0.001 A 
ATOM     12  C11 ZIN A   1      18.342  -0.511  16.487  0.00  0.00     0.000 A 
ATOM     13  C10 ZIN A   1      17.633   0.490  15.850  0.00  0.00     0.001 A 
ATOM     14  C9  ZIN A   1      17.539   0.500  14.471  0.00  0.00     0.010 A 
ENDBRANCH   1   9
BRANCH   1  15
ATOM     15  C14 ZIN A   1      18.342   0.908  11.714  0.00  0.00     0.002 A 
ATOM     16  C19 ZIN A   1      19.608   1.446  11.857  0.00  0.00     0.043 A 
ATOM     17  C18 ZIN A   1      19.876   2.717  11.381  0.00  0.00     0.024 A 
ATOM     18 Cl20 ZIN A   1      20.864   0.522  12.620  0.00  0.00    -0.084 Cl
ATOM     19  C17 ZIN A   1      18.876   3.453  10.774  0.00  0.00     0.002 A 
ATOM     20  C16 ZIN A   1      17.610   2.916  10.637  0.00  0.00     0.001 A 
ATOM     21  C15 ZIN A   1      17.343   1.644  11.107  0.00  0.00     0.012 A 
ENDBRANCH   1  15
TORSDOF 6
ENDMDL
MODEL 8
REMARK VINA RESULT:      -6.8      2.901      6.685
REMARK  6 active torsions:
REMARK  status: ('A' for Active; 'I' for Inactive)
REMARK    1  A    between atoms: N2_2  and  C4_4 
REMARK    2  A    between atoms: C4_4  and  C5_5 
REMARK    3  A    between atoms: C5_5  and  C6_6 
REMARK    4  A    between atoms: C6_6  and  O7_7 
REMARK    5  A    between atoms: C6_6  and  C8_8 
REMARK    6  A    between atoms: C6_6  and  C14_14 
ROOT
ATOM      1  C6  ZIN A   1      19.286  -0.334  13.086  0.00  0.00     0.115 C 
ENDROOT
BRANCH   1   2
ATOM      2  C5  ZIN A   1      18.646   0.868  12.391  0.00  0.00     0.078 C 
BRANCH   2   3
ATOM      3  C4  ZIN A   1      19.735   1.707  11.719  0.00  0.00     0.275 C 
BRANCH   3   4
ATOM      4  N2  ZIN A   1      19.311   2.058  10.357  0.00  0.00     0.080 N 
ATOM      5  C1  ZIN A   1      19.323   0.879   9.480  0.00  0.00     0.309 C 
ATOM      6  C3  ZIN A   1      17.986   2.694  10.365  0.00  0.00     0.309 C 
ENDBRANCH   3   4
ENDBRANCH   2   3
ENDBRANCH   1   2
BRANCH   1   7
ATOM      7  O7  ZIN A   1      20.701  -0.150  13.151  0.00  0.00    -0.380 OA
ATOM      8  H31 ZIN A   1      21.170  -0.862  13.608  0.00  0.00     0.211 HD
ENDBRANCH   1   7
BRANCH   1   9
ATOM      9  C8  ZIN A   1      18.731  -0.462  14.482  0.00  0.00    -0.019 A 
ATOM     10  C13 ZIN A   1      19.242  -1.413  15.345  0.00  0.00     0.010 A 
ATOM     11  C12 ZIN A   1      18.736  -1.527  16.626  0.00  0.00     0.001 A 
ATOM     12  C11 ZIN A   1      17.714  -0.695  17.042  0.00  0.00     0.000 A 
ATOM     13  C10 ZIN A   1      17.199   0.253  16.177  0.00  0.00     0.001 A 
ATOM     14  C9  ZIN A   1      17.708   0.370  14.897  0.00  0.00     0.010 A 
ENDBRANCH   1   9
BRANCH   1  15
ATOM     15  C14 ZIN A   1      18.977  -1.588  12.307  0.00  0.00     0.002 A 
ATOM     16  C19 ZIN A   1      17.761  -1.719  11.661  0.00  0.00     0.043 A 
ATOM     17  C18 ZIN A   1      17.482  -2.867  10.941  0.00  0.00     0.024 A 
ATOM     18 Cl20 ZIN A   1      16.592  -0.437  11.740  0.00  0.00    -0.084 Cl
ATOM     19  C17 ZIN A   1      18.412  -3.887  10.878  0.00  0.00     0.002 A 
ATOM     20  C16 ZIN A   1      19.624  -3.757  11.530  0.00  0.00     0.001 A 
ATOM     21  C15 ZIN A   1      19.907  -2.608  12.244  0.00  0.00     0.012 A 
ENDBRANCH   1  15
TORSDOF 6
ENDMDL
MODEL 9
REMARK VINA RESULT:      -6.6      2.074      5.146
REMARK  6 active torsions:
REMARK  status: ('A' for Active; 'I' for Inactive)
REMARK    1  A    between atoms: N2_2  and  C4_4 
REMARK    2  A    between atoms: C4_4  and  C5_5 
REMARK    3  A    between atoms: C5_5  and  C6_6 
REMARK    4  A    between atoms: C6_6  and  O7_7 
REMARK    5  A    between atoms: C6_6  and  C8_8 
REMARK    6  A    between atoms: C6_6  and  C14_14 
ROOT
ATOM      1  C6  ZIN A   1      19.004   0.724   9.615  0.00  0.00     0.115 C 
ENDROOT
BRANCH   1   2
ATOM      2  C5  ZIN A   1      18.140   0.791   8.355  0.00  0.00     0.078 C 
BRANCH   2   3
ATOM      3  C4  ZIN A   1      19.002   1.230   7.169  0.00  0.00     0.275 C 
BRANCH   3   4
ATOM      4  N2  ZIN A   1      18.400   0.744   5.920  0.00  0.00     0.080 N 
ATOM      5  C1  ZIN A   1      19.370  -0.029   5.133  0.00  0.00     0.309 C 
ATOM      6  C3  ZIN A   1      17.193  -0.050   6.192  0.00  0.00     0.309 C 
ENDBRANCH   3   4
ENDBRANCH   2   3
ENDBRANCH   1   2
BRANCH   1   7
ATOM      7  O7  ZIN A   1      20.370   0.524   9.248  0.00  0.00    -0.380 OA
ATOM      8  H31 ZIN A   1      20.924   0.180   9.962  0.00  0.00     0.211 HD
ENDBRANCH   1   7
BRANCH   1   9
ATOM      9  C8  ZIN A   1      18.874   2.015  10.383  0.00  0.00    -0.019 A 
ATOM     10  C13 ZIN A   1      19.911   2.449  11.186  0.00  0.00     0.010 A 
ATOM     11  C12 ZIN A   1      19.794   3.634  11.887  0.00  0.00     0.001 A 
ATOM     12  C11 ZIN A   1      18.635   4.382  11.789  0.00  0.00     0.000 A 
ATOM     13  C10 ZIN A   1      17.596   3.946  10.989  0.00  0.00     0.001 A 
ATOM     14  C9  ZIN A   1      17.715   2.762  10.286  0.00  0.00     0.010 A 
ENDBRANCH   1   9
BRANCH   1  15
ATOM     15  C14 ZIN A   1      18.543  -0.422  10.480  0.00  0.00     0.002 A 
ATOM     16  C19 ZIN A   1      18.613  -1.719  10.005  0.00  0.00     0.043 A 
ATOM     17  C18 ZIN A   1      18.196  -2.770  10.802  0.00  0.00     0.024 A 
ATOM     18 Cl20 ZIN A   1      19.239  -2.030   8.415  0.00  0.00    -0.084 Cl
ATOM     19  C17 ZIN A   1      17.699  -2.522  12.068  0.00  0.00     0.002 A 
ATOM     20  C16 ZIN A   1      17.624  -1.225  12.539  0.00  0.00     0.001 A 
ATOM     21  C15 ZIN A   1      18.045  -0.175  11.746  0.00  0.00     0.012 A 
ENDBRANCH   1  15
TORSDOF 6
ENDMDL
