MODEL 1
REMARK VINA RESULT:      -8.0      0.000      0.000
REMARK  6 active torsions:
REMARK  status: ('A' for Active; 'I' for Inactive)
REMARK    1  A    between atoms: C5_5  and  C6_6 
REMARK    2  A    between atoms: C6_6  and  O7_7 
REMARK    3  A    between atoms: O7_7  and  C8_8 
REMARK    4  A    between atoms: C8_8  and  C10_9 
REMARK    5  A    between atoms: C8_8  and  C16_15 
REMARK    6  A    between atoms: C10_9  and  N11_10 
ROOT
ATOM      1  C8  ZIN A   1      18.791   2.112  11.207  0.00  0.00     0.174 C 
ENDROOT
BRANCH   1   2
ATOM      2  O7  ZIN A   1      20.134   1.850  11.619  0.00  0.00    -0.375 OA
BRANCH   2   3
ATOM      3  C6  ZIN A   1      20.378   0.487  11.973  0.00  0.00     0.209 C 
BRANCH   3   4
ATOM      4  C5  ZIN A   1      19.664   0.167  13.261  0.00  0.00    -0.013 A 
ATOM      5  C4  ZIN A   1      19.552   1.129  14.247  0.00  0.00     0.012 A 
ATOM      6  C3  ZIN A   1      18.898   0.835  15.429  0.00  0.00     0.024 A 
ATOM      7  C2  ZIN A   1      18.355  -0.422  15.625  0.00  0.00     0.035 A 
ATOM      8 Cl1  ZIN A   1      17.532  -0.790  17.109  0.00  0.00    -0.084 Cl
ATOM      9  C26 ZIN A   1      18.471  -1.387  14.641  0.00  0.00     0.048 A 
ATOM     10  C24 ZIN A   1      19.121  -1.091  13.456  0.00  0.00     0.044 A 
ATOM     11 Cl25 ZIN A   1      19.261  -2.299  12.218  0.00  0.00    -0.084 Cl
ENDBRANCH   3   4
ENDBRANCH   2   3
ENDBRANCH   1   2
BRANCH   1  12
ATOM     12  C10 ZIN A   1      18.568   3.624  11.131  0.00  0.00     0.166 C 
BRANCH  12  13
ATOM     13  N11 ZIN A   1      18.604   4.192  12.481  0.00  0.00    -0.347 N 
ATOM     14  C15 ZIN A   1      17.625   4.114  13.409  0.00  0.00     0.209 A 
ATOM     15  N14 ZIN A   1      18.020   4.736  14.486  0.00  0.00    -0.255 NA
ATOM     16  C13 ZIN A   1      19.248   5.236  14.283  0.00  0.00     0.135 A 
ATOM     17  C12 ZIN A   1      19.631   4.907  13.035  0.00  0.00     0.111 A 
ENDBRANCH  12  13
ENDBRANCH   1  12
BRANCH   1  18
ATOM     18  C16 ZIN A   1      18.553   1.501   9.850  0.00  0.00    -0.006 A 
ATOM     19  C22 ZIN A   1      17.606   0.504   9.698  0.00  0.00     0.044 A 
ATOM     20  C21 ZIN A   1      17.384  -0.054   8.452  0.00  0.00     0.048 A 
ATOM     21 Cl23 ZIN A   1      16.687  -0.038  11.067  0.00  0.00    -0.084 Cl
ATOM     22  C19 ZIN A   1      18.118   0.377   7.361  0.00  0.00     0.035 A 
ATOM     23  C18 ZIN A   1      19.069   1.370   7.515  0.00  0.00     0.024 A 
ATOM     24 Cl20 ZIN A   1      17.844  -0.327   5.798  0.00  0.00    -0.084 Cl
ATOM     25  C17 ZIN A   1      19.286   1.931   8.761  0.00  0.00     0.013 A 
ENDBRANCH   1  18
TORSDOF 6
ENDMDL
MODEL 2
REMARK VINA RESULT:      -7.8      3.059      5.027
REMARK  6 active torsions:
REMARK  status: ('A' for Active; 'I' for Inactive)
REMARK    1  A    between atoms: C5_5  and  C6_6 
REMARK    2  A    between atoms: C6_6  and  O7_7 
REMARK    3  A    between atoms: O7_7  and  C8_8 
REMARK    4  A    between atoms: C8_8  and  C10_9 
REMARK    5  A    between atoms: C8_8  and  C16_15 
REMARK    6  A    between atoms: C10_9  and  N11_10 
ROOT
ATOM      1  C8  ZIN A   1      19.707  -0.427  10.819  0.00  0.00     0.174 C 
ENDROOT
BRANCH   1   2
ATOM      2  O7  ZIN A   1      20.712  -0.104  11.782  0.00  0.00    -0.375 OA
BRANCH   2   3
ATOM      3  C6  ZIN A   1      20.351   0.960  12.665  0.00  0.00     0.209 C 
BRANCH   3   4
ATOM      4  C5  ZIN A   1      19.460   0.424  13.757  0.00  0.00    -0.013 A 
ATOM      5  C4  ZIN A   1      19.757  -0.782  14.362  0.00  0.00     0.012 A 
ATOM      6  C3  ZIN A   1      18.939  -1.274  15.362  0.00  0.00     0.024 A 
ATOM      7  C2  ZIN A   1      17.823  -0.557  15.758  0.00  0.00     0.035 A 
ATOM      8 Cl1  ZIN A   1      16.797  -1.175  17.015  0.00  0.00    -0.084 Cl
ATOM      9  C26 ZIN A   1      17.522   0.647  15.148  0.00  0.00     0.048 A 
ATOM     10  C24 ZIN A   1      18.344   1.141  14.151  0.00  0.00     0.044 A 
ATOM     11 Cl25 ZIN A   1      17.971   2.656  13.391  0.00  0.00    -0.084 Cl
ENDBRANCH   3   4
ENDBRANCH   2   3
ENDBRANCH   1   2
BRANCH   1  12
ATOM     12  C10 ZIN A   1      20.322  -0.417   9.418  0.00  0.00     0.166 C 
BRANCH  12  13
ATOM     13  N11 ZIN A   1      19.254  -0.450   8.415  0.00  0.00    -0.347 N 
ATOM     14  C15 ZIN A   1      18.249   0.444   8.285  0.00  0.00     0.209 A 
ATOM     15  N14 ZIN A   1      17.498   0.085   7.281  0.00  0.00    -0.255 NA
ATOM     16  C13 ZIN A   1      17.985  -1.043   6.744  0.00  0.00     0.135 A 
ATOM     17  C12 ZIN A   1      19.084  -1.394   7.440  0.00  0.00     0.111 A 
ENDBRANCH  12  13
ENDBRANCH   1  12
BRANCH   1  18
ATOM     18  C16 ZIN A   1      19.151  -1.797  11.113  0.00  0.00    -0.006 A 
ATOM     19  C22 ZIN A   1      17.806  -1.949  11.403  0.00  0.00     0.044 A 
ATOM     20  C21 ZIN A   1      17.295  -3.207  11.668  0.00  0.00     0.048 A 
ATOM     21 Cl23 ZIN A   1      16.759  -0.565  11.420  0.00  0.00    -0.084 Cl
ATOM     22  C19 ZIN A   1      18.130  -4.309  11.655  0.00  0.00     0.035 A 
ATOM     23  C18 ZIN A   1      19.476  -4.155  11.371  0.00  0.00     0.024 A 
ATOM     24 Cl20 ZIN A   1      17.491  -5.887  11.994  0.00  0.00    -0.084 Cl
ATOM     25  C17 ZIN A   1      19.985  -2.898  11.101  0.00  0.00     0.013 A 
ENDBRANCH   1  18
TORSDOF 6
ENDMDL
MODEL 3
REMARK VINA RESULT:      -7.8      1.300      2.336
REMARK  6 active torsions:
REMARK  status: ('A' for Active; 'I' for Inactive)
REMARK    1  A    between atoms: C5_5  and  C6_6 
REMARK    2  A    between atoms: C6_6  and  O7_7 
REMARK    3  A    between atoms: O7_7  and  C8_8 
REMARK    4  A    between atoms: C8_8  and  C10_9 
REMARK    5  A    between atoms: C8_8  and  C16_15 
REMARK    6  A    between atoms: C10_9  and  N11_10 
ROOT
ATOM      1  C8  ZIN A   1      18.696   2.061  10.795  0.00  0.00     0.174 C 
ENDROOT
BRANCH   1   2
ATOM      2  O7  ZIN A   1      19.983   1.677  11.284  0.00  0.00    -0.375 OA
BRANCH   2   3
ATOM      3  C6  ZIN A   1      19.948   0.985  12.534  0.00  0.00     0.209 C 
BRANCH   3   4
ATOM      4  C5  ZIN A   1      19.615  -0.466  12.295  0.00  0.00    -0.013 A 
ATOM      5  C4  ZIN A   1      20.223  -1.154  11.262  0.00  0.00     0.012 A 
ATOM      6  C3  ZIN A   1      19.918  -2.483  11.042  0.00  0.00     0.024 A 
ATOM      7  C2  ZIN A   1      19.003  -3.127  11.857  0.00  0.00     0.035 A 
ATOM      8 Cl1  ZIN A   1      18.620  -4.798  11.581  0.00  0.00    -0.084 Cl
ATOM      9  C26 ZIN A   1      18.390  -2.438  12.887  0.00  0.00     0.048 A 
ATOM     10  C24 ZIN A   1      18.700  -1.108  13.110  0.00  0.00     0.044 A 
ATOM     11 Cl25 ZIN A   1      17.936  -0.245  14.407  0.00  0.00    -0.084 Cl
ENDBRANCH   3   4
ENDBRANCH   2   3
ENDBRANCH   1   2
BRANCH   1  12
ATOM     12  C10 ZIN A   1      18.636   3.583  10.662  0.00  0.00     0.166 C 
BRANCH  12  13
ATOM     13  N11 ZIN A   1      18.571   4.189  11.995  0.00  0.00    -0.347 N 
ATOM     14  C15 ZIN A   1      17.471   4.297  12.773  0.00  0.00     0.209 A 
ATOM     15  N14 ZIN A   1      17.804   4.890  13.887  0.00  0.00    -0.255 NA
ATOM     16  C13 ZIN A   1      19.111   5.186  13.857  0.00  0.00     0.135 A 
ATOM     17  C12 ZIN A   1      19.610   4.756  12.681  0.00  0.00     0.111 A 
ENDBRANCH  12  13
ENDBRANCH   1  12
BRANCH   1  18
ATOM     18  C16 ZIN A   1      18.461   1.429   9.447  0.00  0.00    -0.006 A 
ATOM     19  C22 ZIN A   1      17.502   0.443   9.303  0.00  0.00     0.044 A 
ATOM     20  C21 ZIN A   1      17.283  -0.133   8.065  0.00  0.00     0.048 A 
ATOM     21 Cl23 ZIN A   1      16.563  -0.062  10.673  0.00  0.00    -0.084 Cl
ATOM     22  C19 ZIN A   1      18.032   0.270   6.974  0.00  0.00     0.035 A 
ATOM     23  C18 ZIN A   1      18.996   1.251   7.119  0.00  0.00     0.024 A 
ATOM     24 Cl20 ZIN A   1      17.762  -0.457   5.420  0.00  0.00    -0.084 Cl
ATOM     25  C17 ZIN A   1      19.210   1.830   8.357  0.00  0.00     0.013 A 
ENDBRANCH   1  18
TORSDOF 6
ENDMDL
MODEL 4
REMARK VINA RESULT:      -7.7      3.366      6.891
REMARK  6 active torsions:
REMARK  status: ('A' for Active; 'I' for Inactive)
REMARK    1  A    between atoms: C5_5  and  C6_6 
REMARK    2  A    between atoms: C6_6  and  O7_7 
REMARK    3  A    between atoms: O7_7  and  C8_8 
REMARK    4  A    between atoms: C8_8  and  C10_9 
REMARK    5  A    between atoms: C8_8  and  C16_15 
REMARK    6  A    between atoms: C10_9  and  N11_10 
ROOT
ATOM      1  C8  ZIN A   1      19.161  -1.584  11.945  0.00  0.00     0.174 C 
ENDROOT
BRANCH   1   2
ATOM      2  O7  ZIN A   1      20.339  -0.880  11.545  0.00  0.00    -0.375 OA
BRANCH   2   3
ATOM      3  C6  ZIN A   1      20.233  -0.249  10.267  0.00  0.00     0.209 C 
BRANCH   3   4
ATOM      4  C5  ZIN A   1      19.592   1.106  10.428  0.00  0.00    -0.013 A 
ATOM      5  C4  ZIN A   1      19.894   1.888  11.527  0.00  0.00     0.012 A 
ATOM      6  C3  ZIN A   1      19.306   3.130  11.675  0.00  0.00     0.024 A 
ATOM      7  C2  ZIN A   1      18.414   3.591  10.722  0.00  0.00     0.035 A 
ATOM      8 Cl1  ZIN A   1      17.677   5.151  10.909  0.00  0.00    -0.084 Cl
ATOM      9  C26 ZIN A   1      18.107   2.806   9.625  0.00  0.00     0.048 A 
ATOM     10  C24 ZIN A   1      18.700   1.566   9.475  0.00  0.00     0.044 A 
ATOM     11 Cl25 ZIN A   1      18.320   0.584   8.095  0.00  0.00    -0.084 Cl
ENDBRANCH   3   4
ENDBRANCH   2   3
ENDBRANCH   1   2
BRANCH   1  12
ATOM     12  C10 ZIN A   1      19.440  -3.088  11.938  0.00  0.00     0.166 C 
BRANCH  12  13
ATOM     13  N11 ZIN A   1      18.356  -3.784  11.239  0.00  0.00    -0.347 N 
ATOM     14  C15 ZIN A   1      18.052  -3.679   9.927  0.00  0.00     0.209 A 
ATOM     15  N14 ZIN A   1      17.029  -4.447   9.672  0.00  0.00    -0.255 NA
ATOM     16  C13 ZIN A   1      16.642  -5.057  10.802  0.00  0.00     0.135 A 
ATOM     17  C12 ZIN A   1      17.460  -4.655  11.794  0.00  0.00     0.111 A 
ENDBRANCH  12  13
ENDBRANCH   1  12
BRANCH   1  18
ATOM     18  C16 ZIN A   1      18.764  -1.153  13.333  0.00  0.00    -0.006 A 
ATOM     19  C22 ZIN A   1      17.660  -0.341  13.516  0.00  0.00     0.044 A 
ATOM     20  C21 ZIN A   1      17.294   0.051  14.792  0.00  0.00     0.048 A 
ATOM     21 Cl23 ZIN A   1      16.726   0.177  12.148  0.00  0.00    -0.084 Cl
ATOM     22  C19 ZIN A   1      18.038  -0.362  15.882  0.00  0.00     0.035 A 
ATOM     23  C18 ZIN A   1      19.146  -1.170  15.698  0.00  0.00     0.024 A 
ATOM     24 Cl20 ZIN A   1      17.583   0.134  17.482  0.00  0.00    -0.084 Cl
ATOM     25  C17 ZIN A   1      19.509  -1.565  14.423  0.00  0.00     0.013 A 
ENDBRANCH   1  18
TORSDOF 6
ENDMDL
MODEL 5
REMARK VINA RESULT:      -7.7      1.411      2.088
REMARK  6 active torsions:
REMARK  status: ('A' for Active; 'I' for Inactive)
REMARK    1  A    between atoms: C5_5  and  C6_6 
REMARK    2  A    between atoms: C6_6  and  O7_7 
REMARK    3  A    between atoms: O7_7  and  C8_8 
REMARK    4  A    between atoms: C8_8  and  C10_9 
REMARK    5  A    between atoms: C8_8  and  C16_15 
REMARK    6  A    between atoms: C10_9  and  N11_10 
ROOT
ATOM      1  C8  ZIN A   1      19.031   1.483  10.995  0.00  0.00     0.174 C 
ENDROOT
BRANCH   1   2
ATOM      2  O7  ZIN A   1      20.115   0.690  11.482  0.00  0.00    -0.375 OA
BRANCH   2   3
ATOM      3  C6  ZIN A   1      20.561   1.055  12.789  0.00  0.00     0.209 C 
BRANCH   3   4
ATOM      4  C5  ZIN A   1      19.647   0.444  13.820  0.00  0.00    -0.013 A 
ATOM      5  C4  ZIN A   1      19.420  -0.920  13.822  0.00  0.00     0.012 A 
ATOM      6  C3  ZIN A   1      18.581  -1.480  14.766  0.00  0.00     0.024 A 
ATOM      7  C2  ZIN A   1      17.967  -0.675  15.710  0.00  0.00     0.035 A 
ATOM      8 Cl1  ZIN A   1      16.914  -1.380  16.897  0.00  0.00    -0.084 Cl
ATOM      9  C26 ZIN A   1      18.189   0.690  15.705  0.00  0.00     0.048 A 
ATOM     10  C24 ZIN A   1      19.033   1.249  14.763  0.00  0.00     0.044 A 
ATOM     11 Cl25 ZIN A   1      19.317   2.962  14.761  0.00  0.00    -0.084 Cl
ENDBRANCH   3   4
ENDBRANCH   2   3
ENDBRANCH   1   2
BRANCH   1  12
ATOM     12  C10 ZIN A   1      19.457   2.951  10.943  0.00  0.00     0.166 C 
BRANCH  12  13
ATOM     13  N11 ZIN A   1      18.276   3.809  11.074  0.00  0.00    -0.347 N 
ATOM     14  C15 ZIN A   1      17.441   3.866  12.134  0.00  0.00     0.209 A 
ATOM     15  N14 ZIN A   1      16.509   4.744  11.886  0.00  0.00    -0.255 NA
ATOM     16  C13 ZIN A   1      16.709   5.268  10.667  0.00  0.00     0.135 A 
ATOM     17  C12 ZIN A   1      17.809   4.695  10.142  0.00  0.00     0.111 A 
ENDBRANCH  12  13
ENDBRANCH   1  12
BRANCH   1  18
ATOM     18  C16 ZIN A   1      18.652   1.022   9.611  0.00  0.00    -0.006 A 
ATOM     19  C22 ZIN A   1      17.701   0.030   9.449  0.00  0.00     0.044 A 
ATOM     20  C21 ZIN A   1      17.351  -0.390   8.178  0.00  0.00     0.048 A 
ATOM     21 Cl23 ZIN A   1      16.940  -0.679  10.838  0.00  0.00    -0.084 Cl
ATOM     22  C19 ZIN A   1      17.959   0.174   7.071  0.00  0.00     0.035 A 
ATOM     23  C18 ZIN A   1      18.913   1.162   7.234  0.00  0.00     0.024 A 
ATOM     24 Cl20 ZIN A   1      17.523  -0.356   5.477  0.00  0.00    -0.084 Cl
ATOM     25  C17 ZIN A   1      19.259   1.585   8.504  0.00  0.00     0.013 A 
ENDBRANCH   1  18
TORSDOF 6
ENDMDL
MODEL 6
REMARK VINA RESULT:      -7.6      2.692      5.659
REMARK  6 active torsions:
REMARK  status: ('A' for Active; 'I' for Inactive)
REMARK    1  A    between atoms: C5_5  and  C6_6 
REMARK    2  A    between atoms: C6_6  and  O7_7 
REMARK    3  A    between atoms: O7_7  and  C8_8 
REMARK    4  A    between atoms: C8_8  and  C10_9 
REMARK    5  A    between atoms: C8_8  and  C16_15 
REMARK    6  A    between atoms: C10_9  and  N11_10 
ROOT
ATOM      1  C8  ZIN A   1      18.290  -0.667  12.789  0.00  0.00     0.174 C 
ENDROOT
BRANCH   1   2
ATOM      2  O7  ZIN A   1      17.107  -0.086  12.233  0.00  0.00    -0.375 OA
BRANCH   2   3
ATOM      3  C6  ZIN A   1      17.299   1.227  11.702  0.00  0.00     0.209 C 
BRANCH   3   4
ATOM      4  C5  ZIN A   1      17.761   1.126  10.271  0.00  0.00    -0.013 A 
ATOM      5  C4  ZIN A   1      17.239   0.149   9.443  0.00  0.00     0.012 A 
ATOM      6  C3  ZIN A   1      17.664   0.056   8.131  0.00  0.00     0.024 A 
ATOM      7  C2  ZIN A   1      18.611   0.941   7.646  0.00  0.00     0.035 A 
ATOM      8 Cl1  ZIN A   1      19.142   0.824   5.997  0.00  0.00    -0.084 Cl
ATOM      9  C26 ZIN A   1      19.137   1.915   8.475  0.00  0.00     0.048 A 
ATOM     10  C24 ZIN A   1      18.708   2.010   9.787  0.00  0.00     0.044 A 
ATOM     11 Cl25 ZIN A   1      19.363   3.237  10.826  0.00  0.00    -0.084 Cl
ENDBRANCH   3   4
ENDBRANCH   2   3
ENDBRANCH   1   2
BRANCH   1  12
ATOM     12  C10 ZIN A   1      18.043  -1.018  14.257  0.00  0.00     0.166 C 
BRANCH  12  13
ATOM     13  N11 ZIN A   1      18.479   0.094  15.106  0.00  0.00    -0.347 N 
ATOM     14  C15 ZIN A   1      19.210   1.161  14.716  0.00  0.00     0.209 A 
ATOM     15  N14 ZIN A   1      19.399   1.938  15.747  0.00  0.00    -0.255 NA
ATOM     16  C13 ZIN A   1      18.808   1.397  16.822  0.00  0.00     0.135 A 
ATOM     17  C12 ZIN A   1      18.226   0.243  16.443  0.00  0.00     0.111 A 
ENDBRANCH  12  13
ENDBRANCH   1  12
BRANCH   1  18
ATOM     18  C16 ZIN A   1      18.642  -1.918  12.026  0.00  0.00    -0.006 A 
ATOM     19  C22 ZIN A   1      19.773  -1.947  11.230  0.00  0.00     0.044 A 
ATOM     20  C21 ZIN A   1      20.099  -3.097  10.534  0.00  0.00     0.048 A 
ATOM     21 Cl23 ZIN A   1      20.792  -0.546  11.117  0.00  0.00    -0.084 Cl
ATOM     22  C19 ZIN A   1      19.287  -4.213  10.624  0.00  0.00     0.035 A 
ATOM     23  C18 ZIN A   1      18.152  -4.181  11.415  0.00  0.00     0.024 A 
ATOM     24 Cl20 ZIN A   1      19.691  -5.654   9.745  0.00  0.00    -0.084 Cl
ATOM     25  C17 ZIN A   1      17.830  -3.033  12.115  0.00  0.00     0.013 A 
ENDBRANCH   1  18
TORSDOF 6
ENDMDL
MODEL 7
REMARK VINA RESULT:      -7.5      3.471      7.492
REMARK  6 active torsions:
REMARK  status: ('A' for Active; 'I' for Inactive)
REMARK    1  A    between atoms: C5_5  and  C6_6 
REMARK    2  A    between atoms: C6_6  and  O7_7 
REMARK    3  A    between atoms: O7_7  and  C8_8 
REMARK    4  A    between atoms: C8_8  and  C10_9 
REMARK    5  A    between atoms: C8_8  and  C16_15 
REMARK    6  A    between atoms: C10_9  and  N11_10 
ROOT
ATOM      1  C8  ZIN A   1      18.657  -1.892  11.856  0.00  0.00     0.174 C 
ENDROOT
BRANCH   1   2
ATOM      2  O7  ZIN A   1      20.009  -1.723  11.425  0.00  0.00    -0.375 OA
BRANCH   2   3
ATOM      3  C6  ZIN A   1      20.311  -0.406  10.961  0.00  0.00     0.209 C 
BRANCH   3   4
ATOM      4  C5  ZIN A   1      19.733  -0.215   9.582  0.00  0.00    -0.013 A 
ATOM      5  C4  ZIN A   1      19.693  -1.276   8.697  0.00  0.00     0.012 A 
ATOM      6  C3  ZIN A   1      19.165  -1.101   7.432  0.00  0.00     0.024 A 
ATOM      7  C2  ZIN A   1      18.676   0.136   7.051  0.00  0.00     0.035 A 
ATOM      8 Cl1  ZIN A   1      18.012   0.355   5.462  0.00  0.00    -0.084 Cl
ATOM      9  C26 ZIN A   1      18.722   1.200   7.934  0.00  0.00     0.048 A 
ATOM     10  C24 ZIN A   1      19.246   1.022   9.202  0.00  0.00     0.044 A 
ATOM     11 Cl25 ZIN A   1      19.297   2.355  10.313  0.00  0.00    -0.084 Cl
ENDBRANCH   3   4
ENDBRANCH   2   3
ENDBRANCH   1   2
BRANCH   1  12
ATOM     12  C10 ZIN A   1      18.345  -3.385  11.981  0.00  0.00     0.166 C 
BRANCH  12  13
ATOM     13  N11 ZIN A   1      18.388  -4.007  10.655  0.00  0.00    -0.347 N 
ATOM     14  C15 ZIN A   1      17.431  -3.932   9.705  0.00  0.00     0.209 A 
ATOM     15  N14 ZIN A   1      17.825  -4.609   8.661  0.00  0.00    -0.255 NA
ATOM     16  C13 ZIN A   1      19.031  -5.141   8.908  0.00  0.00     0.135 A 
ATOM     17  C12 ZIN A   1      19.401  -4.776  10.151  0.00  0.00     0.111 A 
ENDBRANCH  12  13
ENDBRANCH   1  12
BRANCH   1  18
ATOM     18  C16 ZIN A   1      18.468  -1.226  13.195  0.00  0.00    -0.006 A 
ATOM     19  C22 ZIN A   1      17.611  -0.147  13.315  0.00  0.00     0.044 A 
ATOM     20  C21 ZIN A   1      17.435   0.461  14.545  0.00  0.00     0.048 A 
ATOM     21 Cl23 ZIN A   1      16.748   0.436  11.927  0.00  0.00    -0.084 Cl
ATOM     22  C19 ZIN A   1      18.124  -0.003  15.651  0.00  0.00     0.035 A 
ATOM     23  C18 ZIN A   1      18.986  -1.079  15.529  0.00  0.00     0.024 A 
ATOM     24 Cl20 ZIN A   1      17.908   0.764  17.194  0.00  0.00    -0.084 Cl
ATOM     25  C17 ZIN A   1      19.157  -1.689  14.300  0.00  0.00     0.013 A 
ENDBRANCH   1  18
TORSDOF 6
ENDMDL
MODEL 8
REMARK VINA RESULT:      -7.4      1.357      5.581
REMARK  6 active torsions:
REMARK  status: ('A' for Active; 'I' for Inactive)
REMARK    1  A    between atoms: C5_5  and  C6_6 
REMARK    2  A    between atoms: C6_6  and  O7_7 
REMARK    3  A    between atoms: O7_7  and  C8_8 
REMARK    4  A    between atoms: C8_8  and  C10_9 
REMARK    5  A    between atoms: C8_8  and  C16_15 
REMARK    6  A    between atoms: C10_9  and  N11_10 
ROOT
ATOM      1  C8  ZIN A   1      19.322   3.061  12.729  0.00  0.00     0.174 C 
ENDROOT
BRANCH   1   2
ATOM      2  O7  ZIN A   1      19.411   2.686  11.353  0.00  0.00    -0.375 OA
BRANCH   2   3
ATOM      3  C6  ZIN A   1      18.153   2.660  10.675  0.00  0.00     0.209 C 
BRANCH   3   4
ATOM      4  C5  ZIN A   1      18.211   1.664   9.546  0.00  0.00    -0.013 A 
ATOM      5  C4  ZIN A   1      18.903   1.970   8.389  0.00  0.00     0.012 A 
ATOM      6  C3  ZIN A   1      18.955   1.057   7.353  0.00  0.00     0.024 A 
ATOM      7  C2  ZIN A   1      18.315  -0.163   7.473  0.00  0.00     0.035 A 
ATOM      8 Cl1  ZIN A   1      18.382  -1.310   6.171  0.00  0.00    -0.084 Cl
ATOM      9  C26 ZIN A   1      17.617  -0.468   8.628  0.00  0.00     0.048 A 
ATOM     10  C24 ZIN A   1      17.569   0.445   9.667  0.00  0.00     0.044 A 
ATOM     11 Cl25 ZIN A   1      16.699   0.060  11.119  0.00  0.00    -0.084 Cl
ENDBRANCH   3   4
ENDBRANCH   2   3
ENDBRANCH   1   2
BRANCH   1  12
ATOM     12  C10 ZIN A   1      18.210   4.097  12.904  0.00  0.00     0.166 C 
BRANCH  12  13
ATOM     13  N11 ZIN A   1      18.689   5.189  13.755  0.00  0.00    -0.347 N 
ATOM     14  C15 ZIN A   1      19.973   5.580  13.911  0.00  0.00     0.209 A 
ATOM     15  N14 ZIN A   1      20.007   6.583  14.744  0.00  0.00    -0.255 NA
ATOM     16  C13 ZIN A   1      18.760   6.861  15.152  0.00  0.00     0.135 A 
ATOM     17  C12 ZIN A   1      17.921   6.000  14.545  0.00  0.00     0.111 A 
ENDBRANCH  12  13
ENDBRANCH   1  12
BRANCH   1  18
ATOM     18  C16 ZIN A   1      19.010   1.844  13.563  0.00  0.00    -0.006 A 
ATOM     19  C22 ZIN A   1      19.756   0.689  13.405  0.00  0.00     0.044 A 
ATOM     20  C21 ZIN A   1      19.472  -0.426  14.173  0.00  0.00     0.048 A 
ATOM     21 Cl23 ZIN A   1      21.054   0.643  12.254  0.00  0.00    -0.084 Cl
ATOM     22  C19 ZIN A   1      18.437  -0.388  15.090  0.00  0.00     0.035 A 
ATOM     23  C18 ZIN A   1      17.688   0.765  15.243  0.00  0.00     0.024 A 
ATOM     24 Cl20 ZIN A   1      18.077  -1.789  16.050  0.00  0.00    -0.084 Cl
ATOM     25  C17 ZIN A   1      17.976   1.881  14.478  0.00  0.00     0.013 A 
ENDBRANCH   1  18
TORSDOF 6
ENDMDL
MODEL 9
REMARK VINA RESULT:      -7.3      2.888      6.019
REMARK  6 active torsions:
REMARK  status: ('A' for Active; 'I' for Inactive)
REMARK    1  A    between atoms: C5_5  and  C6_6 
REMARK    2  A    between atoms: C6_6  and  O7_7 
REMARK    3  A    between atoms: O7_7  and  C8_8 
REMARK    4  A    between atoms: C8_8  and  C10_9 
REMARK    5  A    between atoms: C8_8  and  C16_15 
REMARK    6  A    between atoms: C10_9  and  N11_10 
ROOT
ATOM      1  C8  ZIN A   1      17.661   0.899  11.069  0.00  0.00     0.174 C 
ENDROOT
BRANCH   1   2
ATOM      2  O7  ZIN A   1      17.002   2.145  11.305  0.00  0.00    -0.375 OA
BRANCH   2   3
ATOM      3  C6  ZIN A   1      17.737   3.285  10.855  0.00  0.00     0.209 C 
BRANCH   3   4
ATOM      4  C5  ZIN A   1      17.929   4.243  12.003  0.00  0.00    -0.013 A 
ATOM      5  C4  ZIN A   1      16.842   4.913  12.533  0.00  0.00     0.012 A 
ATOM      6  C3  ZIN A   1      17.018   5.793  13.584  0.00  0.00     0.024 A 
ATOM      7  C2  ZIN A   1      18.282   6.002  14.107  0.00  0.00     0.035 A 
ATOM      8 Cl1  ZIN A   1      18.501   7.107  15.429  0.00  0.00    -0.084 Cl
ATOM      9  C26 ZIN A   1      19.370   5.337  13.573  0.00  0.00     0.048 A 
ATOM     10  C24 ZIN A   1      19.193   4.453  12.524  0.00  0.00     0.044 A 
ATOM     11 Cl25 ZIN A   1      20.558   3.612  11.859  0.00  0.00    -0.084 Cl
ENDBRANCH   3   4
ENDBRANCH   2   3
ENDBRANCH   1   2
BRANCH   1  12
ATOM     12  C10 ZIN A   1      18.913   1.137  10.223  0.00  0.00     0.166 C 
BRANCH  12  13
ATOM     13  N11 ZIN A   1      18.618   0.839   8.819  0.00  0.00    -0.347 N 
ATOM     14  C15 ZIN A   1      17.674  -0.012   8.362  0.00  0.00     0.209 A 
ATOM     15  N14 ZIN A   1      17.707  -0.013   7.058  0.00  0.00    -0.255 NA
ATOM     16  C13 ZIN A   1      18.670   0.822   6.640  0.00  0.00     0.135 A 
ATOM     17  C12 ZIN A   1      19.252   1.365   7.726  0.00  0.00     0.111 A 
ENDBRANCH  12  13
ENDBRANCH   1  12
BRANCH   1  18
ATOM     18  C16 ZIN A   1      18.056   0.282  12.387  0.00  0.00    -0.006 A 
ATOM     19  C22 ZIN A   1      18.103  -1.094  12.520  0.00  0.00     0.044 A 
ATOM     20  C21 ZIN A   1      18.469  -1.660  13.728  0.00  0.00     0.048 A 
ATOM     21 Cl23 ZIN A   1      17.713  -2.111  11.168  0.00  0.00    -0.084 Cl
ATOM     22  C19 ZIN A   1      18.779  -0.849  14.805  0.00  0.00     0.035 A 
ATOM     23  C18 ZIN A   1      18.727   0.527  14.673  0.00  0.00     0.024 A 
ATOM     24 Cl20 ZIN A   1      19.234  -1.558  16.323  0.00  0.00    -0.084 Cl
ATOM     25  C17 ZIN A   1      18.365   1.092  13.463  0.00  0.00     0.013 A 
ENDBRANCH   1  18
TORSDOF 6
ENDMDL
