MODEL 1
REMARK VINA RESULT:      -7.1      0.000      0.000
REMARK  9 active torsions:
REMARK  status: ('A' for Active; 'I' for Inactive)
REMARK    1  A    between atoms: C5_4  and  O7_5 
REMARK    2  A    between atoms: O7_5  and  C8_6 
REMARK    3  A    between atoms: C33_27  and  O35_28 
REMARK    4  A    between atoms: C37_30  and  O38_31 
REMARK    5  A    between atoms: C40_33  and  O42_34 
REMARK    6  A    between atoms: C43_35  and  C45_36 
REMARK    7  A    between atoms: C52_42  and  O54_43 
REMARK    8  A    between atoms: C55_44  and  N57_45 
REMARK    9  A    between atoms: C61_49  and  O63_50 
ROOT
ATOM      1  C8  ZIN A   1      15.858   7.128  15.878  0.00  0.00     0.150 C 
ATOM      2  C10 ZIN A   1      15.706   6.281  14.646  0.00  0.00     0.005 C 
ATOM      3  C11 ZIN A   1      16.206   6.633  13.456  0.00  0.00    -0.002 C 
ATOM      4  C12 ZIN A   1      16.017   5.693  12.356  0.00  0.00    -0.000 C 
ATOM      5  C13 ZIN A   1      16.704   5.722  11.204  0.00  0.00     0.000 C 
ATOM      6  C14 ZIN A   1      16.630   4.601  10.346  0.00  0.00     0.000 C 
ATOM      7  C15 ZIN A   1      17.692   3.798  10.227  0.00  0.00    -0.000 C 
ATOM      8  C16 ZIN A   1      17.630   2.456   9.652  0.00  0.00    -0.004 C 
ATOM      9  C17 ZIN A   1      18.608   1.608  10.003  0.00  0.00    -0.024 C 
ATOM     10  C18 ZIN A   1      18.619   0.184   9.532  0.00  0.00     0.059 C 
ATOM     11  C19 ZIN A   1      19.345  -0.681  10.566  0.00  0.00     0.131 C 
ATOM     12  C21 ZIN A   1      20.799  -0.220  10.682  0.00  0.00     0.040 C 
ATOM     13  O22 ZIN A   1      18.700  -0.559  11.860  0.00  0.00    -0.313 OA
ATOM     14  C23 ZIN A   1      19.364  -1.047  12.930  0.00  0.00     0.283 C 
ATOM     15  O24 ZIN A   1      20.478  -1.513  12.794  0.00  0.00    -0.260 OA
ATOM     16  C25 ZIN A   1      18.742  -1.013  14.257  0.00  0.00     0.081 C 
ATOM     17  C26 ZIN A   1      19.390  -1.483  15.323  0.00  0.00     0.013 C 
ATOM     18  C27 ZIN A   1      18.730  -1.454  16.675  0.00  0.00     0.174 A 
ATOM     19  O29 ZIN A   1      19.518  -1.819  17.812  0.00  0.00    -0.371 OA
ATOM     20  C30 ZIN A   1      19.226  -0.427  17.697  0.00  0.00     0.157 A 
ATOM     21  C32 ZIN A   1      18.211   0.184  18.663  0.00  0.00     0.067 C 
ATOM     22  C33 ZIN A   1      18.276   1.711  18.585  0.00  0.00     0.125 C 
ATOM     23  C36 ZIN A   1      16.955   2.327  19.046  0.00  0.00     0.100 C 
ATOM     24  C37 ZIN A   1      17.077   3.853  19.096  0.00  0.00     0.166 C 
ATOM     25  C39 ZIN A   1      16.709   4.342  20.498  0.00  0.00     0.101 C 
ATOM     26  C40 ZIN A   1      15.697   5.488  20.391  0.00  0.00     0.140 C 
ATOM     27  C43 ZIN A   1      16.199   6.518  19.379  0.00  0.00     0.144 C 
ATOM     28  C48 ZIN A   1      16.340   5.858  18.002  0.00  0.00     0.144 C 
ATOM     29  C50 ZIN A   1      15.250   6.395  17.074  0.00  0.00     0.069 C 
ATOM     30  O51 ZIN A   1      16.197   4.442  18.139  0.00  0.00    -0.349 OA
ENDROOT
BRANCH   1  31
ATOM     31  O7  ZIN A   1      17.244   7.372  16.122  0.00  0.00    -0.349 OA
BRANCH  31  32
ATOM     32  C5  ZIN A   1      18.124   6.530  15.372  0.00  0.00     0.291 C 
ATOM     33  O4  ZIN A   1      17.685   5.173  15.473  0.00  0.00    -0.351 OA
ATOM     34  C2  ZIN A   1      18.484   4.247  14.735  0.00  0.00     0.151 C 
ATOM     35  C1  ZIN A   1      17.907   2.838  14.892  0.00  0.00     0.042 C 
ATOM     36  C61 ZIN A   1      19.919   4.273  15.268  0.00  0.00     0.179 C 
ATOM     37  C55 ZIN A   1      20.468   5.699  15.162  0.00  0.00     0.247 C 
ATOM     38  C52 ZIN A   1      19.543   6.648  15.931  0.00  0.00     0.206 C 
BRANCH  36  39
ATOM     39  O63 ZIN A   1      20.733   3.389  14.495  0.00  0.00    -0.391 OA
ATOM     40  H94 ZIN A   1      21.554   3.789  14.175  0.00  0.00     0.210 HD
ENDBRANCH  36  39
BRANCH  37  41
ATOM     41  N57 ZIN A   1      21.817   5.752  15.740  0.00  0.00    -0.070 N 
ATOM     42  H58 ZIN A   1      21.753   5.754  16.747  0.00  0.00     0.274 HD
ATOM     43  H59 ZIN A   1      22.343   4.945  15.440  0.00  0.00     0.274 HD
ATOM     44  H60 ZIN A   1      22.284   6.592  15.431  0.00  0.00     0.274 HD
ENDBRANCH  37  41
BRANCH  38  45
ATOM     45  O54 ZIN A   1      19.543   6.298  17.317  0.00  0.00    -0.388 OA
ATOM     46  H93 ZIN A   1      18.802   5.734  17.579  0.00  0.00     0.210 HD
ENDBRANCH  38  45
ENDBRANCH  31  32
ENDBRANCH   1  31
BRANCH  27  47
ATOM     47  C45 ZIN A   1      17.540   7.044  19.822  0.00  0.00     0.182 C 
ATOM     48  O46 ZIN A   1      18.163   7.805  19.101  0.00  0.00    -0.648 OA
ATOM     49  O47 ZIN A   1      18.000   6.710  20.900  0.00  0.00    -0.648 OA
ENDBRANCH  27  47
BRANCH  26  50
ATOM     50  O42 ZIN A   1      14.437   4.973  19.961  0.00  0.00    -0.394 OA
ATOM     51  H90 ZIN A   1      13.820   5.650  19.647  0.00  0.00     0.210 HD
ENDBRANCH  26  50
BRANCH  24  52
ATOM     52  O38 ZIN A   1      18.424   4.229  18.801  0.00  0.00    -0.365 OA
ATOM     53  H87 ZIN A   1      18.792   3.793  18.021  0.00  0.00     0.213 HD
ENDBRANCH  24  52
BRANCH  22  54
ATOM     54  O35 ZIN A   1      19.332   2.184  19.425  0.00  0.00    -0.395 OA
ATOM     55  H84 ZIN A   1      19.128   3.009  19.886  0.00  0.00     0.210 HD
ENDBRANCH  22  54
TORSDOF 9
ENDMDL
MODEL 2
REMARK VINA RESULT:      -4.6      6.686     13.946
REMARK  9 active torsions:
REMARK  status: ('A' for Active; 'I' for Inactive)
REMARK    1  A    between atoms: C5_4  and  O7_5 
REMARK    2  A    between atoms: O7_5  and  C8_6 
REMARK    3  A    between atoms: C33_27  and  O35_28 
REMARK    4  A    between atoms: C37_30  and  O38_31 
REMARK    5  A    between atoms: C40_33  and  O42_34 
REMARK    6  A    between atoms: C43_35  and  C45_36 
REMARK    7  A    between atoms: C52_42  and  O54_43 
REMARK    8  A    between atoms: C55_44  and  N57_45 
REMARK    9  A    between atoms: C61_49  and  O63_50 
ROOT
ATOM      1  C8  ZIN A   1      15.944  -7.030   7.387  0.00  0.00     0.150 C 
ATOM      2  C10 ZIN A   1      15.803  -6.139   8.589  0.00  0.00     0.005 C 
ATOM      3  C11 ZIN A   1      16.339  -6.432   9.779  0.00  0.00    -0.002 C 
ATOM      4  C12 ZIN A   1      16.154  -5.454  10.846  0.00  0.00    -0.000 C 
ATOM      5  C13 ZIN A   1      16.870  -5.423  11.980  0.00  0.00     0.000 C 
ATOM      6  C14 ZIN A   1      16.790  -4.270  12.795  0.00  0.00     0.000 C 
ATOM      7  C15 ZIN A   1      17.836  -3.440  12.856  0.00  0.00    -0.000 C 
ATOM      8  C16 ZIN A   1      17.756  -2.078  13.381  0.00  0.00    -0.004 C 
ATOM      9  C17 ZIN A   1      18.706  -1.223  12.973  0.00  0.00    -0.024 C 
ATOM     10  C18 ZIN A   1      18.696   0.219  13.387  0.00  0.00     0.059 C 
ATOM     11  C19 ZIN A   1      19.376   1.058  12.303  0.00  0.00     0.131 C 
ATOM     12  C21 ZIN A   1      20.838   0.625  12.169  0.00  0.00     0.040 C 
ATOM     13  O22 ZIN A   1      18.703   0.870  11.031  0.00  0.00    -0.313 OA
ATOM     14  C23 ZIN A   1      19.330   1.330   9.926  0.00  0.00     0.283 C 
ATOM     15  O24 ZIN A   1      20.436   1.826  10.017  0.00  0.00    -0.260 OA
ATOM     16  C25 ZIN A   1      18.678   1.231   8.618  0.00  0.00     0.081 C 
ATOM     17  C26 ZIN A   1      19.288   1.673   7.519  0.00  0.00     0.013 C 
ATOM     18  C27 ZIN A   1      18.597   1.576   6.186  0.00  0.00     0.174 A 
ATOM     19  O29 ZIN A   1      19.349   1.912   5.016  0.00  0.00    -0.371 OA
ATOM     20  C30 ZIN A   1      19.093   0.520   5.192  0.00  0.00     0.157 A 
ATOM     21  C32 ZIN A   1      18.068  -0.151   4.276  0.00  0.00     0.067 C 
ATOM     22  C33 ZIN A   1      18.171  -1.672   4.412  0.00  0.00     0.125 C 
ATOM     23  C36 ZIN A   1      16.853  -2.334   4.008  0.00  0.00     0.100 C 
ATOM     24  C37 ZIN A   1      17.010  -3.859   4.015  0.00  0.00     0.166 C 
ATOM     25  C39 ZIN A   1      16.620  -4.411   2.643  0.00  0.00     0.101 C 
ATOM     26  C40 ZIN A   1      15.638  -5.574   2.819  0.00  0.00     0.140 C 
ATOM     27  C43 ZIN A   1      16.188  -6.551   3.857  0.00  0.00     0.144 C 
ATOM     28  C48 ZIN A   1      16.346  -5.835   5.204  0.00  0.00     0.144 C 
ATOM     29  C50 ZIN A   1      15.292  -6.358   6.179  0.00  0.00     0.069 C 
ATOM     30  O51 ZIN A   1      16.167  -4.428   5.015  0.00  0.00    -0.349 OA
ENDROOT
BRANCH   1  31
ATOM     31  O7  ZIN A   1      17.330  -7.252   7.118  0.00  0.00    -0.349 OA
BRANCH  31  32
ATOM     32  C5  ZIN A   1      18.202  -6.304   7.737  0.00  0.00     0.291 C 
ATOM     33  O4  ZIN A   1      17.730  -4.981   7.475  0.00  0.00    -0.351 OA
ATOM     34  C2  ZIN A   1      18.519  -3.951   8.073  0.00  0.00     0.151 C 
ATOM     35  C1  ZIN A   1      17.906  -2.587   7.751  0.00  0.00     0.042 C 
ATOM     36  C61 ZIN A   1      19.944  -4.014   7.518  0.00  0.00     0.179 C 
ATOM     37  C55 ZIN A   1      20.529  -5.402   7.792  0.00  0.00     0.247 C 
ATOM     38  C52 ZIN A   1      19.614  -6.461   7.168  0.00  0.00     0.206 C 
BRANCH  36  39
ATOM     39  O63 ZIN A   1      20.751  -3.022   8.157  0.00  0.00    -0.391 OA
ATOM     40  H94 ZIN A   1      21.385  -3.380   8.794  0.00  0.00     0.210 HD
ENDBRANCH  36  39
BRANCH  37  41
ATOM     41  N57 ZIN A   1      21.869  -5.499   7.198  0.00  0.00    -0.070 N 
ATOM     42  H58 ZIN A   1      22.128  -6.470   7.106  0.00  0.00     0.274 HD
ATOM     43  H59 ZIN A   1      21.865  -5.066   6.286  0.00  0.00     0.274 HD
ATOM     44  H60 ZIN A   1      22.536  -5.027   7.791  0.00  0.00     0.274 HD
ENDBRANCH  37  41
BRANCH  38  45
ATOM     45  O54 ZIN A   1      19.581  -6.289   5.750  0.00  0.00    -0.388 OA
ATOM     46  H93 ZIN A   1      20.252  -5.680   5.412  0.00  0.00     0.210 HD
ENDBRANCH  38  45
ENDBRANCH  31  32
ENDBRANCH   1  31
BRANCH  27  47
ATOM     47  C45 ZIN A   1      17.529  -7.065   3.403  0.00  0.00     0.182 C 
ATOM     48  O46 ZIN A   1      18.143  -7.859   4.094  0.00  0.00    -0.648 OA
ATOM     49  O47 ZIN A   1      17.999  -6.687   2.343  0.00  0.00    -0.648 OA
ENDBRANCH  27  47
BRANCH  26  50
ATOM     50  O42 ZIN A   1      14.376  -5.070   3.260  0.00  0.00    -0.394 OA
ATOM     51  H90 ZIN A   1      14.108  -4.247   2.826  0.00  0.00     0.210 HD
ENDBRANCH  26  50
BRANCH  24  52
ATOM     52  O38 ZIN A   1      18.372  -4.193   4.290  0.00  0.00    -0.365 OA
ATOM     53  H87 ZIN A   1      18.667  -5.015   3.875  0.00  0.00     0.213 HD
ENDBRANCH  24  52
BRANCH  22  54
ATOM     54  O35 ZIN A   1      19.217  -2.154   3.565  0.00  0.00    -0.395 OA
ATOM     55  H84 ZIN A   1      19.285  -1.688   2.721  0.00  0.00     0.210 HD
ENDBRANCH  22  54
TORSDOF 9
ENDMDL
MODEL 3
REMARK VINA RESULT:      -4.6      3.108      9.303
REMARK  9 active torsions:
REMARK  status: ('A' for Active; 'I' for Inactive)
REMARK    1  A    between atoms: C5_4  and  O7_5 
REMARK    2  A    between atoms: O7_5  and  C8_6 
REMARK    3  A    between atoms: C33_27  and  O35_28 
REMARK    4  A    between atoms: C37_30  and  O38_31 
REMARK    5  A    between atoms: C40_33  and  O42_34 
REMARK    6  A    between atoms: C43_35  and  C45_36 
REMARK    7  A    between atoms: C52_42  and  O54_43 
REMARK    8  A    between atoms: C55_44  and  N57_45 
REMARK    9  A    between atoms: C61_49  and  O63_50 
ROOT
ATOM      1  C8  ZIN A   1      19.085   0.670   9.464  0.00  0.00     0.150 C 
ATOM      2  C10 ZIN A   1      19.135   2.050  10.057  0.00  0.00     0.005 C 
ATOM      3  C11 ZIN A   1      18.296   3.027   9.697  0.00  0.00    -0.002 C 
ATOM      4  C12 ZIN A   1      18.435   4.305  10.387  0.00  0.00    -0.000 C 
ATOM      5  C13 ZIN A   1      17.506   5.272  10.390  0.00  0.00     0.000 C 
ATOM      6  C14 ZIN A   1      17.637   6.331  11.318  0.00  0.00     0.000 C 
ATOM      7  C15 ZIN A   1      16.801   6.396  12.359  0.00  0.00    -0.000 C 
ATOM      8  C16 ZIN A   1      17.042   7.224  13.538  0.00  0.00    -0.004 C 
ATOM      9  C17 ZIN A   1      16.408   6.862  14.664  0.00  0.00    -0.024 C 
ATOM     10  C18 ZIN A   1      16.624   7.591  15.957  0.00  0.00     0.059 C 
ATOM     11  C19 ZIN A   1      16.395   6.626  17.122  0.00  0.00     0.131 C 
ATOM     12  C21 ZIN A   1      14.943   6.141  17.101  0.00  0.00     0.040 C 
ATOM     13  O22 ZIN A   1      17.282   5.483  17.006  0.00  0.00    -0.313 OA
ATOM     14  C23 ZIN A   1      17.029   4.421  17.801  0.00  0.00     0.283 C 
ATOM     15  O24 ZIN A   1      16.060   4.427  18.533  0.00  0.00    -0.260 OA
ATOM     16  C25 ZIN A   1      17.924   3.261  17.781  0.00  0.00     0.081 C 
ATOM     17  C26 ZIN A   1      17.682   2.202  18.553  0.00  0.00     0.013 C 
ATOM     18  C27 ZIN A   1      18.620   1.026  18.530  0.00  0.00     0.174 A 
ATOM     19  O29 ZIN A   1      18.237  -0.149  19.251  0.00  0.00    -0.371 OA
ATOM     20  C30 ZIN A   1      18.152  -0.255  17.831  0.00  0.00     0.157 A 
ATOM     21  C32 ZIN A   1      19.194  -1.105  17.102  0.00  0.00     0.067 C 
ATOM     22  C33 ZIN A   1      18.748  -1.342  15.657  0.00  0.00     0.125 C 
ATOM     23  C36 ZIN A   1      19.956  -1.649  14.770  0.00  0.00     0.100 C 
ATOM     24  C37 ZIN A   1      19.488  -2.019  13.359  0.00  0.00     0.166 C 
ATOM     25  C39 ZIN A   1      20.054  -3.390  12.985  0.00  0.00     0.101 C 
ATOM     26  C40 ZIN A   1      20.707  -3.315  11.601  0.00  0.00     0.140 C 
ATOM     27  C43 ZIN A   1      19.747  -2.642  10.621  0.00  0.00     0.144 C 
ATOM     28  C48 ZIN A   1      19.443  -1.216  11.097  0.00  0.00     0.144 C 
ATOM     29  C50 ZIN A   1      20.118  -0.218  10.158  0.00  0.00     0.069 C 
ATOM     30  O51 ZIN A   1      19.948  -1.043  12.424  0.00  0.00    -0.349 OA
ENDROOT
BRANCH   1  31
ATOM     31  O7  ZIN A   1      17.780   0.118   9.648  0.00  0.00    -0.349 OA
BRANCH  31  32
ATOM     32  C5  ZIN A   1      17.258  -0.542   8.492  0.00  0.00     0.291 C 
ATOM     33  O4  ZIN A   1      18.046  -1.700   8.208  0.00  0.00    -0.351 OA
ATOM     34  C2  ZIN A   1      17.592  -2.451   7.081  0.00  0.00     0.151 C 
ATOM     35  C1  ZIN A   1      18.488  -3.676   6.890  0.00  0.00     0.042 C 
ATOM     36  C61 ZIN A   1      17.653  -1.574   5.827  0.00  0.00     0.179 C 
ATOM     37  C55 ZIN A   1      16.802  -0.320   6.048  0.00  0.00     0.247 C 
ATOM     38  C52 ZIN A   1      17.307   0.412   7.296  0.00  0.00     0.206 C 
BRANCH  36  39
ATOM     39  O63 ZIN A   1      17.146  -2.304   4.707  0.00  0.00    -0.391 OA
ATOM     40  H94 ZIN A   1      16.385  -1.888   4.279  0.00  0.00     0.210 HD
ENDBRANCH  36  39
BRANCH  37  41
ATOM     41  N57 ZIN A   1      16.914   0.564   4.881  0.00  0.00    -0.070 N 
ATOM     42  H58 ZIN A   1      16.191   0.336   4.215  0.00  0.00     0.274 HD
ATOM     43  H59 ZIN A   1      16.808   1.524   5.175  0.00  0.00     0.274 HD
ATOM     44  H60 ZIN A   1      17.818   0.442   4.450  0.00  0.00     0.274 HD
ENDBRANCH  37  41
BRANCH  38  45
ATOM     45  O54 ZIN A   1      18.651   0.847   7.084  0.00  0.00    -0.388 OA
ATOM     46  H93 ZIN A   1      19.255   0.141   6.813  0.00  0.00     0.210 HD
ENDBRANCH  38  45
ENDBRANCH  31  32
ENDBRANCH   1  31
BRANCH  27  47
ATOM     47  C45 ZIN A   1      18.466  -3.431  10.552  0.00  0.00     0.182 C 
ATOM     48  O46 ZIN A   1      18.487  -4.598  10.198  0.00  0.00    -0.648 OA
ATOM     49  O47 ZIN A   1      17.408  -2.904  10.850  0.00  0.00    -0.648 OA
ENDBRANCH  27  47
BRANCH  26  50
ATOM     50  O42 ZIN A   1      21.914  -2.555  11.684  0.00  0.00    -0.394 OA
ATOM     51  H90 ZIN A   1      22.054  -2.132  12.544  0.00  0.00     0.210 HD
ENDBRANCH  26  50
BRANCH  24  52
ATOM     52  O38 ZIN A   1      18.061  -2.072  13.332  0.00  0.00    -0.365 OA
ATOM     53  H87 ZIN A   1      17.703  -2.770  12.767  0.00  0.00     0.213 HD
ENDBRANCH  24  52
BRANCH  22  54
ATOM     54  O35 ZIN A   1      17.843  -2.447  15.615  0.00  0.00    -0.395 OA
ATOM     55  H84 ZIN A   1      17.032  -2.310  16.124  0.00  0.00     0.210 HD
ENDBRANCH  22  54
TORSDOF 9
ENDMDL
MODEL 4
REMARK VINA RESULT:      -4.4      8.285     14.390
REMARK  9 active torsions:
REMARK  status: ('A' for Active; 'I' for Inactive)
REMARK    1  A    between atoms: C5_4  and  O7_5 
REMARK    2  A    between atoms: O7_5  and  C8_6 
REMARK    3  A    between atoms: C33_27  and  O35_28 
REMARK    4  A    between atoms: C37_30  and  O38_31 
REMARK    5  A    between atoms: C40_33  and  O42_34 
REMARK    6  A    between atoms: C43_35  and  C45_36 
REMARK    7  A    between atoms: C52_42  and  O54_43 
REMARK    8  A    between atoms: C55_44  and  N57_45 
REMARK    9  A    between atoms: C61_49  and  O63_50 
ROOT
ATOM      1  C8  ZIN A   1      16.875  -5.479   4.058  0.00  0.00     0.150 C 
ATOM      2  C10 ZIN A   1      17.717  -4.248   4.245  0.00  0.00     0.005 C 
ATOM      3  C11 ZIN A   1      17.405  -3.065   3.705  0.00  0.00    -0.002 C 
ATOM      4  C12 ZIN A   1      18.294  -1.947   4.004  0.00  0.00    -0.000 C 
ATOM      5  C13 ZIN A   1      17.980  -0.656   3.824  0.00  0.00     0.000 C 
ATOM      6  C14 ZIN A   1      18.807   0.329   4.412  0.00  0.00     0.000 C 
ATOM      7  C15 ZIN A   1      18.355   1.019   5.464  0.00  0.00    -0.000 C 
ATOM      8  C16 ZIN A   1      19.217   1.802   6.346  0.00  0.00    -0.004 C 
ATOM      9  C17 ZIN A   1      18.747   2.048   7.579  0.00  0.00    -0.024 C 
ATOM     10  C18 ZIN A   1      19.564   2.784   8.599  0.00  0.00     0.059 C 
ATOM     11  C19 ZIN A   1      19.152   2.324   9.999  0.00  0.00     0.131 C 
ATOM     12  C21 ZIN A   1      17.682   2.680  10.238  0.00  0.00     0.040 C 
ATOM     13  O22 ZIN A   1      19.321   0.888  10.123  0.00  0.00    -0.313 OA
ATOM     14  C23 ZIN A   1      18.762   0.290  11.197  0.00  0.00     0.283 C 
ATOM     15  O24 ZIN A   1      18.102   0.943  11.981  0.00  0.00    -0.260 OA
ATOM     16  C25 ZIN A   1      18.950  -1.146  11.417  0.00  0.00     0.081 C 
ATOM     17  C26 ZIN A   1      18.396  -1.752  12.468  0.00  0.00     0.013 C 
ATOM     18  C27 ZIN A   1      18.612  -3.224  12.686  0.00  0.00     0.174 A 
ATOM     19  O29 ZIN A   1      17.871  -3.861  13.731  0.00  0.00    -0.371 OA
ATOM     20  C30 ZIN A   1      17.441  -4.173  12.407  0.00  0.00     0.157 A 
ATOM     21  C32 ZIN A   1      17.751  -5.564  11.851  0.00  0.00     0.067 C 
ATOM     22  C33 ZIN A   1      16.947  -5.799  10.570  0.00  0.00     0.125 C 
ATOM     23  C36 ZIN A   1      17.629  -6.856   9.700  0.00  0.00     0.100 C 
ATOM     24  C37 ZIN A   1      16.748  -7.184   8.490  0.00  0.00     0.166 C 
ATOM     25  C39 ZIN A   1      16.478  -8.690   8.458  0.00  0.00     0.101 C 
ATOM     26  C40 ZIN A   1      16.769  -9.232   7.054  0.00  0.00     0.140 C 
ATOM     27  C43 ZIN A   1      16.073  -8.355   6.015  0.00  0.00     0.144 C 
ATOM     28  C48 ZIN A   1      16.612  -6.923   6.108  0.00  0.00     0.144 C 
ATOM     29  C50 ZIN A   1      17.467  -6.626   4.876  0.00  0.00     0.069 C 
ATOM     30  O51 ZIN A   1      17.410  -6.793   7.288  0.00  0.00    -0.349 OA
ENDROOT
BRANCH   1  31
ATOM     31  O7  ZIN A   1      15.542  -5.216   4.499  0.00  0.00    -0.349 OA
BRANCH  31  32
ATOM     32  C5  ZIN A   1      14.554  -6.061   3.903  0.00  0.00     0.291 C 
ATOM     33  O4  ZIN A   1      15.198  -7.146   3.232  0.00  0.00    -0.351 OA
ATOM     34  C2  ZIN A   1      14.297  -8.070   2.620  0.00  0.00     0.151 C 
ATOM     35  C1  ZIN A   1      15.093  -9.198   1.961  0.00  0.00     0.042 C 
ATOM     36  C61 ZIN A   1      13.466  -7.344   1.559  0.00  0.00     0.179 C 
ATOM     37  C55 ZIN A   1      12.719  -6.179   2.215  0.00  0.00     0.247 C 
ATOM     38  C52 ZIN A   1      13.735  -5.254   2.893  0.00  0.00     0.206 C 
BRANCH  36  39
ATOM     39  O63 ZIN A   1      12.524  -8.252   0.984  0.00  0.00    -0.391 OA
ATOM     40  H94 ZIN A   1      12.699  -9.182   1.188  0.00  0.00     0.210 HD
ENDBRANCH  36  39
BRANCH  37  41
ATOM     41  N57 ZIN A   1      11.978  -5.429   1.192  0.00  0.00    -0.070 N 
ATOM     42  H58 ZIN A   1      11.053  -5.216   1.535  0.00  0.00     0.274 HD
ATOM     43  H59 ZIN A   1      12.465  -4.571   0.986  0.00  0.00     0.274 HD
ATOM     44  H60 ZIN A   1      11.906  -5.985   0.353  0.00  0.00     0.274 HD
ENDBRANCH  37  41
BRANCH  38  45
ATOM     45  O54 ZIN A   1      14.606  -4.695   1.908  0.00  0.00    -0.388 OA
ATOM     46  H93 ZIN A   1      15.366  -4.224   2.276  0.00  0.00     0.210 HD
ENDBRANCH  38  45
ENDBRANCH  31  32
ENDBRANCH   1  31
BRANCH  27  47
ATOM     47  C45 ZIN A   1      14.588  -8.350   6.276  0.00  0.00     0.182 C 
ATOM     48  O46 ZIN A   1      13.968  -9.399   6.287  0.00  0.00    -0.648 OA
ATOM     49  O47 ZIN A   1      14.009  -7.296   6.476  0.00  0.00    -0.648 OA
ENDBRANCH  27  47
BRANCH  26  50
ATOM     50  O42 ZIN A   1      18.178  -9.221   6.821  0.00  0.00    -0.394 OA
ATOM     51  H90 ZIN A   1      18.509 -10.011   6.370  0.00  0.00     0.210 HD
ENDBRANCH  26  50
BRANCH  24  52
ATOM     52  O38 ZIN A   1      15.508  -6.483   8.603  0.00  0.00    -0.365 OA
ATOM     53  H87 ZIN A   1      15.511  -5.784   9.272  0.00  0.00     0.213 HD
ENDBRANCH  24  52
BRANCH  22  54
ATOM     54  O35 ZIN A   1      15.634  -6.248  10.911  0.00  0.00    -0.395 OA
ATOM     55  H84 ZIN A   1      15.393  -7.096  10.512  0.00  0.00     0.210 HD
ENDBRANCH  22  54
TORSDOF 9
ENDMDL
