MODEL 1
REMARK VINA RESULT:      -5.1      0.000      0.000
REMARK  4 active torsions:
REMARK  status: ('A' for Active; 'I' for Inactive)
REMARK    1  A    between atoms: N2_2  and  N4_4 
REMARK    2  A    between atoms: N4_4  and  N5_5 
REMARK    3  A    between atoms: N5_5  and  C6_6 
REMARK    4  A    between atoms: C7_7  and  C8_8 
REMARK       I    between atoms: C8_8  and  N9_9 
ROOT
ATOM      1  C6  <0> d   1      17.864   1.262  10.091  0.00  0.00     0.206 A 
ATOM      2  C7  <0> d   1      19.066   1.965  10.096  0.00  0.00     0.151 A 
ATOM      3  N11 <0> d   1      19.655   1.719   8.869  0.00  0.00    -0.343 N 
ATOM      4  C12 <0> d   1      18.828   0.908   8.183  0.00  0.00     0.210 A 
ATOM      5  N13 <0> d   1      17.776   0.636   8.906  0.00  0.00    -0.221 NA
ATOM      6  H22 <0> d   1      20.506   2.066   8.560  0.00  0.00     0.167 HD
ENDROOT
BRANCH   1   7
ATOM      7  N5  <0> d   1      16.948   1.214  11.104  0.00  0.00    -0.110 NA
BRANCH   7   8
ATOM      8  N4  <0> d   1      16.444   0.082  11.464  0.00  0.00    -0.070 NA
BRANCH   8   9
ATOM      9  N2  <0> d   1      17.240  -0.861  12.126  0.00  0.00    -0.296 N 
ATOM     10  C1  <0> d   1      17.488  -2.169  11.515  0.00  0.00     0.174 C 
ATOM     11  C3  <0> d   1      17.825  -0.540  13.431  0.00  0.00     0.174 C 
ENDBRANCH   8   9
ENDBRANCH   7   8
ENDBRANCH   1   7
BRANCH   2  12
ATOM     12  C8  <0> d   1      19.597   2.793  11.179  0.00  0.00     0.270 C 
ATOM     13  N9  <0> d   1      20.657   2.366  11.894  0.00  0.00    -0.365 N 
ATOM     14  H20 <0> d   1      21.066   1.510  11.693  0.00  0.00     0.159 HD
ATOM     15  H21 <0> d   1      21.009   2.915  12.613  0.00  0.00     0.159 HD
ATOM     16  O10 <0> d   1      19.083   3.867  11.432  0.00  0.00    -0.266 OA
ENDBRANCH   2  12
TORSDOF 4
ENDMDL
MODEL 2
REMARK VINA RESULT:      -5.0      2.083      2.433
REMARK  4 active torsions:
REMARK  status: ('A' for Active; 'I' for Inactive)
REMARK    1  A    between atoms: N2_2  and  N4_4 
REMARK    2  A    between atoms: N4_4  and  N5_5 
REMARK    3  A    between atoms: N5_5  and  C6_6 
REMARK    4  A    between atoms: C7_7  and  C8_8 
REMARK       I    between atoms: C8_8  and  N9_9 
ROOT
ATOM      1  C6  <0> d   1      17.835   0.999  10.459  0.00  0.00     0.206 A 
ATOM      2  C7  <0> d   1      19.186   0.986  10.122  0.00  0.00     0.151 A 
ATOM      3  N11 <0> d   1      19.602   2.304  10.168  0.00  0.00    -0.343 N 
ATOM      4  C12 <0> d   1      18.537   3.049  10.519  0.00  0.00     0.210 A 
ATOM      5  N13 <0> d   1      17.495   2.279  10.686  0.00  0.00    -0.221 NA
ATOM      6  H22 <0> d   1      20.495   2.632   9.982  0.00  0.00     0.167 HD
ENDROOT
BRANCH   1   7
ATOM      7  N5  <0> d   1      17.008  -0.086  10.541  0.00  0.00    -0.110 NA
BRANCH   7   8
ATOM      8  N4  <0> d   1      16.845  -0.689  11.670  0.00  0.00    -0.070 NA
BRANCH   8   9
ATOM      9  N2  <0> d   1      17.628  -1.806  11.987  0.00  0.00    -0.296 N 
ATOM     10  C1  <0> d   1      17.494  -3.040  11.209  0.00  0.00     0.174 C 
ATOM     11  C3  <0> d   1      18.582  -1.741  13.098  0.00  0.00     0.174 C 
ENDBRANCH   8   9
ENDBRANCH   7   8
ENDBRANCH   1   7
BRANCH   2  12
ATOM     12  C8  <0> d   1      19.997  -0.183   9.784  0.00  0.00     0.270 C 
ATOM     13  N9  <0> d   1      21.112  -0.456  10.491  0.00  0.00    -0.365 N 
ATOM     14  H20 <0> d   1      21.377   0.123  11.222  0.00  0.00     0.159 HD
ATOM     15  H21 <0> d   1      21.650  -1.231  10.266  0.00  0.00     0.159 HD
ATOM     16  O10 <0> d   1      19.665  -0.909   8.865  0.00  0.00    -0.266 OA
ENDBRANCH   2  12
TORSDOF 4
ENDMDL
MODEL 3
REMARK VINA RESULT:      -5.0      2.189      3.021
REMARK  4 active torsions:
REMARK  status: ('A' for Active; 'I' for Inactive)
REMARK    1  A    between atoms: N2_2  and  N4_4 
REMARK    2  A    between atoms: N4_4  and  N5_5 
REMARK    3  A    between atoms: N5_5  and  C6_6 
REMARK    4  A    between atoms: C7_7  and  C8_8 
REMARK       I    between atoms: C8_8  and  N9_9 
ROOT
ATOM      1  C6  <0> d   1      18.345   1.115  10.347  0.00  0.00     0.206 A 
ATOM      2  C7  <0> d   1      19.597   0.555  10.588  0.00  0.00     0.151 A 
ATOM      3  N11 <0> d   1      20.154   0.321   9.343  0.00  0.00    -0.343 N 
ATOM      4  C12 <0> d   1      19.261   0.730   8.422  0.00  0.00     0.210 A 
ATOM      5  N13 <0> d   1      18.194   1.192   9.014  0.00  0.00    -0.221 NA
ATOM      6  H22 <0> d   1      21.025  -0.065   9.166  0.00  0.00     0.167 HD
ENDROOT
BRANCH   1   7
ATOM      7  N5  <0> d   1      17.437   1.507  11.290  0.00  0.00    -0.110 NA
BRANCH   7   8
ATOM      8  N4  <0> d   1      17.372   2.746  11.647  0.00  0.00    -0.070 NA
BRANCH   8   9
ATOM      9  N2  <0> d   1      18.242   3.238  12.628  0.00  0.00    -0.296 N 
ATOM     10  C1  <0> d   1      19.286   4.201  12.266  0.00  0.00     0.174 C 
ATOM     11  C3  <0> d   1      18.109   2.791  14.017  0.00  0.00     0.174 C 
ENDBRANCH   8   9
ENDBRANCH   7   8
ENDBRANCH   1   7
BRANCH   2  12
ATOM     12  C8  <0> d   1      20.198   0.270  11.890  0.00  0.00     0.270 C 
ATOM     13  N9  <0> d   1      21.463   0.658  12.147  0.00  0.00    -0.365 N 
ATOM     14  H20 <0> d   1      21.975   1.124  11.468  0.00  0.00     0.159 HD
ATOM     15  H21 <0> d   1      21.862   0.468  13.011  0.00  0.00     0.159 HD
ATOM     16  O10 <0> d   1      19.556  -0.317  12.741  0.00  0.00    -0.266 OA
ENDBRANCH   2  12
TORSDOF 4
ENDMDL
MODEL 4
REMARK VINA RESULT:      -5.0      2.835      4.724
REMARK  4 active torsions:
REMARK  status: ('A' for Active; 'I' for Inactive)
REMARK    1  A    between atoms: N2_2  and  N4_4 
REMARK    2  A    between atoms: N4_4  and  N5_5 
REMARK    3  A    between atoms: N5_5  and  C6_6 
REMARK    4  A    between atoms: C7_7  and  C8_8 
REMARK       I    between atoms: C8_8  and  N9_9 
ROOT
ATOM      1  C6  <0> d   1      17.904  -1.034  12.969  0.00  0.00     0.206 A 
ATOM      2  C7  <0> d   1      19.110  -1.728  12.940  0.00  0.00     0.151 A 
ATOM      3  N11 <0> d   1      19.797  -1.345  14.077  0.00  0.00    -0.343 N 
ATOM      4  C12 <0> d   1      19.020  -0.466  14.738  0.00  0.00     0.210 A 
ATOM      5  N13 <0> d   1      17.907  -0.280  14.081  0.00  0.00    -0.221 NA
ATOM      6  H22 <0> d   1      20.676  -1.651  14.350  0.00  0.00     0.167 HD
ENDROOT
BRANCH   1   7
ATOM      7  N5  <0> d   1      16.905  -1.103  12.039  0.00  0.00    -0.110 NA
BRANCH   7   8
ATOM      8  N4  <0> d   1      16.454  -0.023  11.495  0.00  0.00    -0.070 NA
BRANCH   8   9
ATOM      9  N2  <0> d   1      17.200   0.626  10.502  0.00  0.00    -0.296 N 
ATOM     10  C1  <0> d   1      17.471  -0.050   9.231  0.00  0.00     0.174 C 
ATOM     11  C3  <0> d   1      17.708   1.980  10.734  0.00  0.00     0.174 C 
ENDBRANCH   8   9
ENDBRANCH   7   8
ENDBRANCH   1   7
BRANCH   2  12
ATOM     12  C8  <0> d   1      19.560  -2.669  11.914  0.00  0.00     0.270 C 
ATOM     13  N9  <0> d   1      20.566  -2.329  11.084  0.00  0.00    -0.365 N 
ATOM     14  H20 <0> d   1      20.991  -1.461  11.165  0.00  0.00     0.159 HD
ATOM     15  H21 <0> d   1      20.864  -2.954  10.403  0.00  0.00     0.159 HD
ATOM     16  O10 <0> d   1      19.026  -3.758  11.812  0.00  0.00    -0.266 OA
ENDBRANCH   2  12
TORSDOF 4
ENDMDL
MODEL 5
REMARK VINA RESULT:      -4.9      1.878      3.819
REMARK  4 active torsions:
REMARK  status: ('A' for Active; 'I' for Inactive)
REMARK    1  A    between atoms: N2_2  and  N4_4 
REMARK    2  A    between atoms: N4_4  and  N5_5 
REMARK    3  A    between atoms: N5_5  and  C6_6 
REMARK    4  A    between atoms: C7_7  and  C8_8 
REMARK       I    between atoms: C8_8  and  N9_9 
ROOT
ATOM      1  C6  <0> d   1      17.676  -0.008  12.043  0.00  0.00     0.206 A 
ATOM      2  C7  <0> d   1      18.924  -0.478  12.444  0.00  0.00     0.151 A 
ATOM      3  N11 <0> d   1      18.909  -1.842  12.212  0.00  0.00    -0.343 N 
ATOM      4  C12 <0> d   1      17.703  -2.147  11.697  0.00  0.00     0.210 A 
ATOM      5  N13 <0> d   1      16.976  -1.067  11.603  0.00  0.00    -0.221 NA
ATOM      6  H22 <0> d   1      19.632  -2.463  12.387  0.00  0.00     0.167 HD
ENDROOT
BRANCH   1   7
ATOM      7  N5  <0> d   1      17.243   1.287  12.092  0.00  0.00    -0.110 NA
BRANCH   7   8
ATOM      8  N4  <0> d   1      17.266   2.016  11.028  0.00  0.00    -0.070 NA
BRANCH   8   9
ATOM      9  N2  <0> d   1      18.469   2.592  10.599  0.00  0.00    -0.296 N 
ATOM     10  C1  <0> d   1      19.141   3.592  11.433  0.00  0.00     0.174 C 
ATOM     11  C3  <0> d   1      19.056   2.194   9.316  0.00  0.00     0.174 C 
ENDBRANCH   8   9
ENDBRANCH   7   8
ENDBRANCH   1   7
BRANCH   2  12
ATOM     12  C8  <0> d   1      20.025   0.309  12.999  0.00  0.00     0.270 C 
ATOM     13  N9  <0> d   1      21.106   0.583  12.242  0.00  0.00    -0.365 N 
ATOM     14  H20 <0> d   1      21.155   0.257  11.329  0.00  0.00     0.159 HD
ATOM     15  H21 <0> d   1      21.836   1.105  12.610  0.00  0.00     0.159 HD
ATOM     16  O10 <0> d   1      19.963   0.717  14.144  0.00  0.00    -0.266 OA
ENDBRANCH   2  12
TORSDOF 4
ENDMDL
MODEL 6
REMARK VINA RESULT:      -4.9      2.372      2.737
REMARK  4 active torsions:
REMARK  status: ('A' for Active; 'I' for Inactive)
REMARK    1  A    between atoms: N2_2  and  N4_4 
REMARK    2  A    between atoms: N4_4  and  N5_5 
REMARK    3  A    between atoms: N5_5  and  C6_6 
REMARK    4  A    between atoms: C7_7  and  C8_8 
REMARK       I    between atoms: C8_8  and  N9_9 
ROOT
ATOM      1  C6  <0> d   1      18.090   1.244  11.663  0.00  0.00     0.206 A 
ATOM      2  C7  <0> d   1      19.372   1.153  11.128  0.00  0.00     0.151 A 
ATOM      3  N11 <0> d   1      19.459   2.153  10.177  0.00  0.00    -0.343 N 
ATOM      4  C12 <0> d   1      18.277   2.797  10.163  0.00  0.00     0.210 A 
ATOM      5  N13 <0> d   1      17.469   2.257  11.036  0.00  0.00    -0.221 NA
ATOM      6  H22 <0> d   1      20.229   2.355   9.622  0.00  0.00     0.167 HD
ENDROOT
BRANCH   1   7
ATOM      7  N5  <0> d   1      17.560   0.449  12.640  0.00  0.00    -0.110 NA
BRANCH   7   8
ATOM      8  N4  <0> d   1      17.662   0.795  13.879  0.00  0.00    -0.070 NA
BRANCH   8   9
ATOM      9  N2  <0> d   1      17.981  -0.163  14.850  0.00  0.00    -0.296 N 
ATOM     10  C1  <0> d   1      18.929  -1.236  14.537  0.00  0.00     0.174 C 
ATOM     11  C3  <0> d   1      17.367  -0.094  16.178  0.00  0.00     0.174 C 
ENDBRANCH   8   9
ENDBRANCH   7   8
ENDBRANCH   1   7
BRANCH   2  12
ATOM     12  C8  <0> d   1      20.413   0.194  11.496  0.00  0.00     0.270 C 
ATOM     13  N9  <0> d   1      21.507   0.610  12.164  0.00  0.00    -0.365 N 
ATOM     14  H20 <0> d   1      21.605   1.546  12.400  0.00  0.00     0.159 HD
ATOM     15  H21 <0> d   1      22.198  -0.026  12.407  0.00  0.00     0.159 HD
ATOM     16  O10 <0> d   1      20.290  -0.980  11.199  0.00  0.00    -0.266 OA
ENDBRANCH   2  12
TORSDOF 4
ENDMDL
MODEL 7
REMARK VINA RESULT:      -4.9      2.193      4.211
REMARK  4 active torsions:
REMARK  status: ('A' for Active; 'I' for Inactive)
REMARK    1  A    between atoms: N2_2  and  N4_4 
REMARK    2  A    between atoms: N4_4  and  N5_5 
REMARK    3  A    between atoms: N5_5  and  C6_6 
REMARK    4  A    between atoms: C7_7  and  C8_8 
REMARK       I    between atoms: C8_8  and  N9_9 
ROOT
ATOM      1  C6  <0> d   1      18.392   0.339  13.382  0.00  0.00     0.206 A 
ATOM      2  C7  <0> d   1      19.653  -0.135  13.028  0.00  0.00     0.151 A 
ATOM      3  N11 <0> d   1      19.924  -1.177  13.896  0.00  0.00    -0.343 N 
ATOM      4  C12 <0> d   1      18.864  -1.302  14.716  0.00  0.00     0.210 A 
ATOM      5  N13 <0> d   1      17.964  -0.405  14.415  0.00  0.00    -0.221 NA
ATOM      6  H22 <0> d   1      20.729  -1.719  13.912  0.00  0.00     0.167 HD
ENDROOT
BRANCH   1   7
ATOM      7  N5  <0> d   1      17.719   1.370  12.791  0.00  0.00    -0.110 NA
BRANCH   7   8
ATOM      8  N4  <0> d   1      17.089   1.178  11.681  0.00  0.00    -0.070 NA
BRANCH   8   9
ATOM      9  N2  <0> d   1      17.591   1.715  10.488  0.00  0.00    -0.296 N 
ATOM     10  C1  <0> d   1      17.859   3.152  10.388  0.00  0.00     0.174 C 
ATOM     11  C3  <0> d   1      17.848   0.841   9.341  0.00  0.00     0.174 C 
ENDBRANCH   8   9
ENDBRANCH   7   8
ENDBRANCH   1   7
BRANCH   2  12
ATOM     12  C8  <0> d   1      20.516   0.369  11.960  0.00  0.00     0.270 C 
ATOM     13  N9  <0> d   1      20.857   1.673  11.929  0.00  0.00    -0.365 N 
ATOM     14  H20 <0> d   1      20.530   2.277  12.614  0.00  0.00     0.159 HD
ATOM     15  H21 <0> d   1      21.430   2.007  11.220  0.00  0.00     0.159 HD
ATOM     16  O10 <0> d   1      20.926  -0.390  11.101  0.00  0.00    -0.266 OA
ENDBRANCH   2  12
TORSDOF 4
ENDMDL
MODEL 8
REMARK VINA RESULT:      -4.8      2.053      2.854
REMARK  4 active torsions:
REMARK  status: ('A' for Active; 'I' for Inactive)
REMARK    1  A    between atoms: N2_2  and  N4_4 
REMARK    2  A    between atoms: N4_4  and  N5_5 
REMARK    3  A    between atoms: N5_5  and  C6_6 
REMARK    4  A    between atoms: C7_7  and  C8_8 
REMARK       I    between atoms: C8_8  and  N9_9 
ROOT
ATOM      1  C6  <0> d   1      19.177   1.893  10.595  0.00  0.00     0.206 A 
ATOM      2  C7  <0> d   1      19.907   1.790  11.777  0.00  0.00     0.151 A 
ATOM      3  N11 <0> d   1      19.829   3.032  12.381  0.00  0.00    -0.343 N 
ATOM      4  C12 <0> d   1      19.085   3.820  11.583  0.00  0.00     0.210 A 
ATOM      5  N13 <0> d   1      18.706   3.149  10.529  0.00  0.00    -0.221 NA
ATOM      6  H22 <0> d   1      20.235   3.288  13.224  0.00  0.00     0.167 HD
ENDROOT
BRANCH   1   7
ATOM      7  N5  <0> d   1      18.982   0.903   9.674  0.00  0.00    -0.110 NA
BRANCH   7   8
ATOM      8  N4  <0> d   1      17.949   0.135   9.762  0.00  0.00    -0.070 NA
BRANCH   8   9
ATOM      9  N2  <0> d   1      18.046  -1.095  10.427  0.00  0.00    -0.296 N 
ATOM     10  C1  <0> d   1      18.792  -2.200   9.820  0.00  0.00     0.174 C 
ATOM     11  C3  <0> d   1      17.401  -1.275  11.731  0.00  0.00     0.174 C 
ENDBRANCH   8   9
ENDBRANCH   7   8
ENDBRANCH   1   7
BRANCH   2  12
ATOM     12  C8  <0> d   1      20.613   0.610  12.276  0.00  0.00     0.270 C 
ATOM     13  N9  <0> d   1      21.416  -0.093  11.452  0.00  0.00    -0.365 N 
ATOM     14  H20 <0> d   1      21.524   0.183  10.528  0.00  0.00     0.159 HD
ATOM     15  H21 <0> d   1      21.884  -0.875  11.783  0.00  0.00     0.159 HD
ATOM     16  O10 <0> d   1      20.476   0.264  13.435  0.00  0.00    -0.266 OA
ENDBRANCH   2  12
TORSDOF 4
ENDMDL
MODEL 9
REMARK VINA RESULT:      -4.8      5.094      6.575
REMARK  4 active torsions:
REMARK  status: ('A' for Active; 'I' for Inactive)
REMARK    1  A    between atoms: N2_2  and  N4_4 
REMARK    2  A    between atoms: N4_4  and  N5_5 
REMARK    3  A    between atoms: N5_5  and  C6_6 
REMARK    4  A    between atoms: C7_7  and  C8_8 
REMARK       I    between atoms: C8_8  and  N9_9 
ROOT
ATOM      1  C6  <0> d   1      18.981   3.693  16.296  0.00  0.00     0.206 A 
ATOM      2  C7  <0> d   1      18.335   3.057  15.239  0.00  0.00     0.151 A 
ATOM      3  N11 <0> d   1      17.508   4.008  14.671  0.00  0.00    -0.343 N 
ATOM      4  C12 <0> d   1      17.668   5.147  15.370  0.00  0.00     0.210 A 
ATOM      5  N13 <0> d   1      18.533   4.959  16.330  0.00  0.00    -0.221 NA
ATOM      6  H22 <0> d   1      16.920   3.880  13.911  0.00  0.00     0.167 HD
ENDROOT
BRANCH   1   7
ATOM      7  N5  <0> d   1      19.895   3.133  17.143  0.00  0.00    -0.110 NA
BRANCH   7   8
ATOM      8  N4  <0> d   1      19.526   2.714  18.306  0.00  0.00    -0.070 NA
BRANCH   8   9
ATOM      9  N2  <0> d   1      18.779   1.533  18.420  0.00  0.00    -0.296 N 
ATOM     10  C1  <0> d   1      17.367   1.594  18.806  0.00  0.00     0.174 C 
ATOM     11  C3  <0> d   1      19.411   0.238  18.153  0.00  0.00     0.174 C 
ENDBRANCH   8   9
ENDBRANCH   7   8
ENDBRANCH   1   7
BRANCH   2  12
ATOM     12  C8  <0> d   1      18.498   1.666  14.817  0.00  0.00     0.270 C 
ATOM     13  N9  <0> d   1      19.716   1.205  14.468  0.00  0.00    -0.365 N 
ATOM     14  H20 <0> d   1      20.484   1.797  14.495  0.00  0.00     0.159 HD
ATOM     15  H21 <0> d   1      19.823   0.283  14.188  0.00  0.00     0.159 HD
ATOM     16  O10 <0> d   1      17.533   0.924  14.783  0.00  0.00    -0.266 OA
ENDBRANCH   2  12
TORSDOF 4
ENDMDL
