MODEL 1
REMARK VINA RESULT:      -6.6      0.000      0.000
REMARK  1 active torsions:
REMARK  status: ('A' for Active; 'I' for Inactive)
REMARK       I    between atoms: N1_1  and  C2_2 
REMARK       I    between atoms: C2_2  and  N6_6 
REMARK       I    between atoms: N6_6  and  C7_7 
REMARK    1  A    between atoms: C9_9  and  C10_10 
ROOT
ATOM      1  N1  ZIN A   1      19.503  -0.543  12.075  0.00  0.00    -0.235 N 
ATOM      2  C2  ZIN A   1      20.557   0.125  11.612  0.00  0.00     0.671 C 
ATOM      3  N3  ZIN A   1      21.579  -0.534  11.069  0.00  0.00    -0.235 N 
ATOM      4  H4  ZIN A   1      21.556  -1.502  11.012  0.00  0.00     0.174 HD
ATOM      5  H5  ZIN A   1      22.347  -0.047  10.732  0.00  0.00     0.174 HD
ATOM      6  N6  ZIN A   1      20.590   1.494  11.692  0.00  0.00    -0.168 N 
ATOM      7  C7  ZIN A   1      19.472   2.191  12.126  0.00  0.00     0.194 C 
ATOM      8  O8  ZIN A   1      18.316   1.530  12.374  0.00  0.00    -0.172 OA
ATOM      9  C9  ZIN A   1      19.536   3.523  12.301  0.00  0.00     0.074 C 
ATOM     10  H18 ZIN A   1      19.244  -1.384  11.667  0.00  0.00     0.174 HD
ATOM     11  H19 ZIN A   1      18.996  -0.191  12.823  0.00  0.00     0.174 HD
ATOM     12  H20 ZIN A   1      21.396   1.975  11.445  0.00  0.00     0.186 HD
ENDROOT
BRANCH   9  13
ATOM     13  C10 ZIN A   1      18.348   4.263  12.762  0.00  0.00     0.011 A 
ATOM     14  C16 ZIN A   1      17.439   4.781  11.835  0.00  0.00     0.046 A 
ATOM     15  C15 ZIN A   1      16.325   5.468  12.276  0.00  0.00     0.025 A 
ATOM     16 Cl17 ZIN A   1      17.703   4.551  10.135  0.00  0.00    -0.083 Cl
ATOM     17  C14 ZIN A   1      16.114   5.654  13.630  0.00  0.00     0.003 A 
ATOM     18  C13 ZIN A   1      17.011   5.148  14.554  0.00  0.00     0.025 A 
ATOM     19  C11 ZIN A   1      18.127   4.454  14.130  0.00  0.00     0.046 A 
ATOM     20 Cl12 ZIN A   1      19.252   3.822  15.291  0.00  0.00    -0.083 Cl
ENDBRANCH   9  13
TORSDOF 1
ENDMDL
MODEL 2
REMARK VINA RESULT:      -6.5      0.159      2.347
REMARK  1 active torsions:
REMARK  status: ('A' for Active; 'I' for Inactive)
REMARK       I    between atoms: N1_1  and  C2_2 
REMARK       I    between atoms: C2_2  and  N6_6 
REMARK       I    between atoms: N6_6  and  C7_7 
REMARK    1  A    between atoms: C9_9  and  C10_10 
ROOT
ATOM      1  N1  ZIN A   1      19.443  -0.527  12.147  0.00  0.00    -0.235 N 
ATOM      2  C2  ZIN A   1      20.490   0.146  11.675  0.00  0.00     0.671 C 
ATOM      3  N3  ZIN A   1      21.501  -0.507  11.105  0.00  0.00    -0.235 N 
ATOM      4  H4  ZIN A   1      21.475  -1.474  11.035  0.00  0.00     0.174 HD
ATOM      5  H5  ZIN A   1      22.263  -0.016  10.761  0.00  0.00     0.174 HD
ATOM      6  N6  ZIN A   1      20.527   1.514  11.774  0.00  0.00    -0.168 N 
ATOM      7  C7  ZIN A   1      19.418   2.206  12.238  0.00  0.00     0.194 C 
ATOM      8  O8  ZIN A   1      18.265   1.543  12.497  0.00  0.00    -0.172 OA
ATOM      9  C9  ZIN A   1      19.487   3.536  12.430  0.00  0.00     0.074 C 
ATOM     10  H18 ZIN A   1      19.175  -1.362  11.732  0.00  0.00     0.174 HD
ATOM     11  H19 ZIN A   1      18.949  -0.185  12.909  0.00  0.00     0.174 HD
ATOM     12  H20 ZIN A   1      21.328   1.997  11.519  0.00  0.00     0.186 HD
ENDROOT
BRANCH   9  13
ATOM     13  C10 ZIN A   1      18.309   4.270  12.923  0.00  0.00     0.011 A 
ATOM     14  C16 ZIN A   1      18.108   4.437  14.296  0.00  0.00     0.046 A 
ATOM     15  C15 ZIN A   1      17.005   5.132  14.750  0.00  0.00     0.025 A 
ATOM     16 Cl17 ZIN A   1      19.251   3.784  15.428  0.00  0.00    -0.083 Cl
ATOM     17  C14 ZIN A   1      16.093   5.653  13.850  0.00  0.00     0.003 A 
ATOM     18  C13 ZIN A   1      16.281   5.488  12.489  0.00  0.00     0.025 A 
ATOM     19  C11 ZIN A   1      17.382   4.800  12.019  0.00  0.00     0.046 A 
ATOM     20 Cl12 ZIN A   1      17.615   4.593  10.312  0.00  0.00    -0.083 Cl
ENDBRANCH   9  13
TORSDOF 1
ENDMDL
MODEL 3
REMARK VINA RESULT:      -6.5      3.128      4.375
REMARK  1 active torsions:
REMARK  status: ('A' for Active; 'I' for Inactive)
REMARK       I    between atoms: N1_1  and  C2_2 
REMARK       I    between atoms: C2_2  and  N6_6 
REMARK       I    between atoms: N6_6  and  C7_7 
REMARK    1  A    between atoms: C9_9  and  C10_10 
ROOT
ATOM      1  N1  ZIN A   1      21.493  -0.415  11.103  0.00  0.00    -0.235 N 
ATOM      2  C2  ZIN A   1      20.245  -0.725  10.758  0.00  0.00     0.671 C 
ATOM      3  N3  ZIN A   1      20.005  -1.333   9.598  0.00  0.00    -0.235 N 
ATOM      4  H4  ZIN A   1      20.741  -1.550   9.003  0.00  0.00     0.174 HD
ATOM      5  H5  ZIN A   1      19.097  -1.559   9.346  0.00  0.00     0.174 HD
ATOM      6  N6  ZIN A   1      19.206  -0.419  11.598  0.00  0.00    -0.168 N 
ATOM      7  C7  ZIN A   1      19.463   0.086  12.864  0.00  0.00     0.194 C 
ATOM      8  O8  ZIN A   1      20.739   0.181  13.310  0.00  0.00    -0.172 OA
ATOM      9  C9  ZIN A   1      18.445   0.481  13.651  0.00  0.00     0.074 C 
ATOM     10  H18 ZIN A   1      22.232  -0.965  10.798  0.00  0.00     0.174 HD
ATOM     11  H19 ZIN A   1      21.665   0.363  11.656  0.00  0.00     0.174 HD
ATOM     12  H20 ZIN A   1      18.290  -0.554  11.307  0.00  0.00     0.186 HD
ENDROOT
BRANCH   9  13
ATOM     13  C10 ZIN A   1      18.718   1.017  14.996  0.00  0.00     0.011 A 
ATOM     14  C16 ZIN A   1      18.762   0.159  16.098  0.00  0.00     0.046 A 
ATOM     15  C15 ZIN A   1      19.025   0.668  17.355  0.00  0.00     0.025 A 
ATOM     16 Cl17 ZIN A   1      18.500  -1.545  15.887  0.00  0.00    -0.083 Cl
ATOM     17  C14 ZIN A   1      19.234   2.025  17.525  0.00  0.00     0.003 A 
ATOM     18  C13 ZIN A   1      19.187   2.882  16.439  0.00  0.00     0.025 A 
ATOM     19  C11 ZIN A   1      18.931   2.387  15.176  0.00  0.00     0.046 A 
ATOM     20 Cl12 ZIN A   1      18.871   3.464  13.816  0.00  0.00    -0.083 Cl
ENDBRANCH   9  13
TORSDOF 1
ENDMDL
MODEL 4
REMARK VINA RESULT:      -6.5      3.129      4.074
REMARK  1 active torsions:
REMARK  status: ('A' for Active; 'I' for Inactive)
REMARK       I    between atoms: N1_1  and  C2_2 
REMARK       I    between atoms: C2_2  and  N6_6 
REMARK       I    between atoms: N6_6  and  C7_7 
REMARK    1  A    between atoms: C9_9  and  C10_10 
ROOT
ATOM      1  N1  ZIN A   1      21.488  -0.419  11.100  0.00  0.00    -0.235 N 
ATOM      2  C2  ZIN A   1      20.239  -0.722  10.753  0.00  0.00     0.671 C 
ATOM      3  N3  ZIN A   1      19.997  -1.327   9.591  0.00  0.00    -0.235 N 
ATOM      4  H4  ZIN A   1      20.732  -1.546   8.997  0.00  0.00     0.174 HD
ATOM      5  H5  ZIN A   1      19.088  -1.547   9.339  0.00  0.00     0.174 HD
ATOM      6  N6  ZIN A   1      19.200  -0.412  11.593  0.00  0.00    -0.168 N 
ATOM      7  C7  ZIN A   1      19.459   0.088  12.861  0.00  0.00     0.194 C 
ATOM      8  O8  ZIN A   1      20.735   0.176  13.307  0.00  0.00    -0.172 OA
ATOM      9  C9  ZIN A   1      18.443   0.486  13.647  0.00  0.00     0.074 C 
ATOM     10  H18 ZIN A   1      22.224  -0.972  10.794  0.00  0.00     0.174 HD
ATOM     11  H19 ZIN A   1      21.663   0.356  11.655  0.00  0.00     0.174 HD
ATOM     12  H20 ZIN A   1      18.285  -0.543  11.301  0.00  0.00     0.186 HD
ENDROOT
BRANCH   9  13
ATOM     13  C10 ZIN A   1      18.718   1.018  14.993  0.00  0.00     0.011 A 
ATOM     14  C16 ZIN A   1      18.936   2.386  15.178  0.00  0.00     0.046 A 
ATOM     15  C15 ZIN A   1      19.187   2.877  16.444  0.00  0.00     0.025 A 
ATOM     16 Cl17 ZIN A   1      18.877   3.467  13.821  0.00  0.00    -0.083 Cl
ATOM     17  C14 ZIN A   1      19.234   2.017  17.526  0.00  0.00     0.003 A 
ATOM     18  C13 ZIN A   1      19.025   0.660  17.351  0.00  0.00     0.025 A 
ATOM     19  C11 ZIN A   1      18.767   0.155  16.093  0.00  0.00     0.046 A 
ATOM     20 Cl12 ZIN A   1      18.506  -1.548  15.876  0.00  0.00    -0.083 Cl
ENDBRANCH   9  13
TORSDOF 1
ENDMDL
MODEL 5
REMARK VINA RESULT:      -6.4      4.583      7.130
REMARK  1 active torsions:
REMARK  status: ('A' for Active; 'I' for Inactive)
REMARK       I    between atoms: N1_1  and  C2_2 
REMARK       I    between atoms: C2_2  and  N6_6 
REMARK       I    between atoms: N6_6  and  C7_7 
REMARK    1  A    between atoms: C9_9  and  C10_10 
ROOT
ATOM      1  N1  ZIN A   1      21.477   0.213  11.827  0.00  0.00    -0.235 N 
ATOM      2  C2  ZIN A   1      20.245   0.589  12.164  0.00  0.00     0.671 C 
ATOM      3  N3  ZIN A   1      20.021   1.157  13.347  0.00  0.00    -0.235 N 
ATOM      4  H4  ZIN A   1      20.756   1.296  13.965  0.00  0.00     0.174 HD
ATOM      5  H5  ZIN A   1      19.124   1.431  13.592  0.00  0.00     0.174 HD
ATOM      6  N6  ZIN A   1      19.206   0.392  11.291  0.00  0.00    -0.168 N 
ATOM      7  C7  ZIN A   1      19.457  -0.069  10.007  0.00  0.00     0.194 C 
ATOM      8  O8  ZIN A   1      20.733  -0.228   9.581  0.00  0.00    -0.172 OA
ATOM      9  C9  ZIN A   1      18.432  -0.357   9.184  0.00  0.00     0.074 C 
ATOM     10  H18 ZIN A   1      22.244   0.697  12.171  0.00  0.00     0.174 HD
ATOM     11  H19 ZIN A   1      21.609  -0.548  11.240  0.00  0.00     0.174 HD
ATOM     12  H20 ZIN A   1      18.296   0.575  11.571  0.00  0.00     0.186 HD
ENDROOT
BRANCH   9  13
ATOM     13  C10 ZIN A   1      18.698  -0.846   7.820  0.00  0.00     0.011 A 
ATOM     14  C16 ZIN A   1      18.728  -2.219   7.559  0.00  0.00     0.046 A 
ATOM     15  C15 ZIN A   1      18.973  -2.670   6.277  0.00  0.00     0.025 A 
ATOM     16 Cl17 ZIN A   1      18.446  -3.355   8.842  0.00  0.00    -0.083 Cl
ATOM     17  C14 ZIN A   1      19.199  -1.767   5.254  0.00  0.00     0.003 A 
ATOM     18  C13 ZIN A   1      19.176  -0.406   5.505  0.00  0.00     0.025 A 
ATOM     19  C11 ZIN A   1      18.928   0.060   6.780  0.00  0.00     0.046 A 
ATOM     20 Cl12 ZIN A   1      18.902   1.768   7.092  0.00  0.00    -0.083 Cl
ENDBRANCH   9  13
TORSDOF 1
ENDMDL
MODEL 6
REMARK VINA RESULT:      -6.4      4.558      6.939
REMARK  1 active torsions:
REMARK  status: ('A' for Active; 'I' for Inactive)
REMARK       I    between atoms: N1_1  and  C2_2 
REMARK       I    between atoms: C2_2  and  N6_6 
REMARK       I    between atoms: N6_6  and  C7_7 
REMARK    1  A    between atoms: C9_9  and  C10_10 
ROOT
ATOM      1  N1  ZIN A   1      21.495   0.234  11.852  0.00  0.00    -0.235 N 
ATOM      2  C2  ZIN A   1      20.254   0.549  12.216  0.00  0.00     0.671 C 
ATOM      3  N3  ZIN A   1      20.025   1.075  13.418  0.00  0.00    -0.235 N 
ATOM      4  H4  ZIN A   1      20.762   1.227  14.029  0.00  0.00     0.174 HD
ATOM      5  H5  ZIN A   1      19.121   1.305  13.683  0.00  0.00     0.174 HD
ATOM      6  N6  ZIN A   1      19.211   0.334  11.352  0.00  0.00    -0.168 N 
ATOM      7  C7  ZIN A   1      19.461  -0.080  10.052  0.00  0.00     0.194 C 
ATOM      8  O8  ZIN A   1      20.736  -0.175   9.605  0.00  0.00    -0.172 OA
ATOM      9  C9  ZIN A   1      18.437  -0.388   9.235  0.00  0.00     0.074 C 
ATOM     10  H18 ZIN A   1      22.246   0.740  12.200  0.00  0.00     0.174 HD
ATOM     11  H19 ZIN A   1      21.649  -0.505  11.242  0.00  0.00     0.174 HD
ATOM     12  H20 ZIN A   1      18.298   0.472  11.650  0.00  0.00     0.186 HD
ENDROOT
BRANCH   9  13
ATOM     13  C10 ZIN A   1      18.703  -0.828   7.855  0.00  0.00     0.011 A 
ATOM     14  C16 ZIN A   1      18.905   0.114   6.843  0.00  0.00     0.046 A 
ATOM     15  C15 ZIN A   1      19.160  -0.306   5.553  0.00  0.00     0.025 A 
ATOM     16 Cl17 ZIN A   1      18.848   1.811   7.210  0.00  0.00    -0.083 Cl
ATOM     17  C14 ZIN A   1      19.204  -1.657   5.258  0.00  0.00     0.003 A 
ATOM     18  C13 ZIN A   1      19.001  -2.597   6.253  0.00  0.00     0.025 A 
ATOM     19  C11 ZIN A   1      18.750  -2.193   7.549  0.00  0.00     0.046 A 
ATOM     20 Cl12 ZIN A   1      18.494  -3.373   8.795  0.00  0.00    -0.083 Cl
ENDBRANCH   9  13
TORSDOF 1
ENDMDL
MODEL 7
REMARK VINA RESULT:      -6.3      1.997      3.522
REMARK  1 active torsions:
REMARK  status: ('A' for Active; 'I' for Inactive)
REMARK       I    between atoms: N1_1  and  C2_2 
REMARK       I    between atoms: C2_2  and  N6_6 
REMARK       I    between atoms: N6_6  and  C7_7 
REMARK    1  A    between atoms: C9_9  and  C10_10 
ROOT
ATOM      1  N1  ZIN A   1      18.616  -2.694  11.808  0.00  0.00    -0.235 N 
ATOM      2  C2  ZIN A   1      19.910  -2.492  11.570  0.00  0.00     0.671 C 
ATOM      3  N3  ZIN A   1      20.740  -3.529  11.475  0.00  0.00    -0.235 N 
ATOM      4  H4  ZIN A   1      20.402  -4.433  11.581  0.00  0.00     0.174 HD
ATOM      5  H5  ZIN A   1      21.683  -3.383  11.301  0.00  0.00     0.174 HD
ATOM      6  N6  ZIN A   1      20.389  -1.216  11.420  0.00  0.00    -0.168 N 
ATOM      7  C7  ZIN A   1      19.508  -0.145  11.379  0.00  0.00     0.194 C 
ATOM      8  O8  ZIN A   1      18.171  -0.367  11.383  0.00  0.00    -0.172 OA
ATOM      9  C9  ZIN A   1      19.981   1.113  11.333  0.00  0.00     0.074 C 
ATOM     10  H18 ZIN A   1      18.185  -3.504  11.493  0.00  0.00     0.174 HD
ATOM     11  H19 ZIN A   1      18.104  -2.033  12.301  0.00  0.00     0.174 HD
ATOM     12  H20 ZIN A   1      21.343  -1.062  11.344  0.00  0.00     0.186 HD
ENDROOT
BRANCH   9  13
ATOM     13  C10 ZIN A   1      19.045   2.250  11.289  0.00  0.00     0.011 A 
ATOM     14  C16 ZIN A   1      18.549   2.799  12.475  0.00  0.00     0.046 A 
ATOM     15  C15 ZIN A   1      17.677   3.869  12.425  0.00  0.00     0.025 A 
ATOM     16 Cl17 ZIN A   1      19.039   2.146  14.007  0.00  0.00    -0.083 Cl
ATOM     17  C14 ZIN A   1      17.285   4.390  11.205  0.00  0.00     0.003 A 
ATOM     18  C13 ZIN A   1      17.767   3.849  10.026  0.00  0.00     0.025 A 
ATOM     19  C11 ZIN A   1      18.644   2.783  10.059  0.00  0.00     0.046 A 
ATOM     20 Cl12 ZIN A   1      19.246   2.105   8.579  0.00  0.00    -0.083 Cl
ENDBRANCH   9  13
TORSDOF 1
ENDMDL
MODEL 8
REMARK VINA RESULT:      -6.2      2.104      2.882
REMARK  1 active torsions:
REMARK  status: ('A' for Active; 'I' for Inactive)
REMARK       I    between atoms: N1_1  and  C2_2 
REMARK       I    between atoms: C2_2  and  N6_6 
REMARK       I    between atoms: N6_6  and  C7_7 
REMARK    1  A    between atoms: C9_9  and  C10_10 
ROOT
ATOM      1  N1  ZIN A   1      18.607  -2.879  11.524  0.00  0.00    -0.235 N 
ATOM      2  C2  ZIN A   1      19.925  -2.690  11.503  0.00  0.00     0.671 C 
ATOM      3  N3  ZIN A   1      20.748  -3.736  11.483  0.00  0.00    -0.235 N 
ATOM      4  H4  ZIN A   1      20.388  -4.637  11.484  0.00  0.00     0.174 HD
ATOM      5  H5  ZIN A   1      21.708  -3.599  11.467  0.00  0.00     0.174 HD
ATOM      6  N6  ZIN A   1      20.434  -1.417  11.501  0.00  0.00    -0.168 N 
ATOM      7  C7  ZIN A   1      19.582  -0.329  11.381  0.00  0.00     0.194 C 
ATOM      8  O8  ZIN A   1      18.260  -0.524  11.164  0.00  0.00    -0.172 OA
ATOM      9  C9  ZIN A   1      20.070   0.921  11.480  0.00  0.00     0.074 C 
ATOM     10  H18 ZIN A   1      18.222  -3.662  11.101  0.00  0.00     0.174 HD
ATOM     11  H19 ZIN A   1      18.031  -2.235  11.967  0.00  0.00     0.174 HD
ATOM     12  H20 ZIN A   1      21.391  -1.277  11.584  0.00  0.00     0.186 HD
ENDROOT
BRANCH   9  13
ATOM     13  C10 ZIN A   1      19.165   2.077  11.352  0.00  0.00     0.011 A 
ATOM     14  C16 ZIN A   1      18.873   2.605  10.092  0.00  0.00     0.046 A 
ATOM     15  C15 ZIN A   1      18.019   3.685   9.980  0.00  0.00     0.025 A 
ATOM     16 Cl17 ZIN A   1      19.572   1.898   8.668  0.00  0.00    -0.083 Cl
ATOM     17  C14 ZIN A   1      17.462   4.250  11.113  0.00  0.00     0.003 A 
ATOM     18  C13 ZIN A   1      17.749   3.736  12.365  0.00  0.00     0.025 A 
ATOM     19  C11 ZIN A   1      18.597   2.654  12.493  0.00  0.00     0.046 A 
ATOM     20 Cl12 ZIN A   1      18.957   2.012  14.065  0.00  0.00    -0.083 Cl
ENDBRANCH   9  13
TORSDOF 1
ENDMDL
MODEL 9
REMARK VINA RESULT:      -6.2      4.470      5.964
REMARK  1 active torsions:
REMARK  status: ('A' for Active; 'I' for Inactive)
REMARK       I    between atoms: N1_1  and  C2_2 
REMARK       I    between atoms: C2_2  and  N6_6 
REMARK       I    between atoms: N6_6  and  C7_7 
REMARK    1  A    between atoms: C9_9  and  C10_10 
ROOT
ATOM      1  N1  ZIN A   1      19.707  -4.224   8.889  0.00  0.00    -0.235 N 
ATOM      2  C2  ZIN A   1      18.491  -4.306   8.354  0.00  0.00     0.671 C 
ATOM      3  N3  ZIN A   1      17.999  -5.490   7.995  0.00  0.00    -0.235 N 
ATOM      4  H4  ZIN A   1      18.528  -6.293   8.121  0.00  0.00     0.174 HD
ATOM      5  H5  ZIN A   1      17.114  -5.550   7.605  0.00  0.00     0.174 HD
ATOM      6  N6  ZIN A   1      17.743  -3.171   8.175  0.00  0.00    -0.168 N 
ATOM      7  C7  ZIN A   1      18.193  -1.958   8.675  0.00  0.00     0.194 C 
ATOM      8  O8  ZIN A   1      19.318  -1.910   9.428  0.00  0.00    -0.172 OA
ATOM      9  C9  ZIN A   1      17.511  -0.828   8.413  0.00  0.00     0.074 C 
ATOM     10  H18 ZIN A   1      20.058  -4.960   9.414  0.00  0.00     0.174 HD
ATOM     11  H19 ZIN A   1      20.246  -3.428   8.751  0.00  0.00     0.174 HD
ATOM     12  H20 ZIN A   1      16.900  -3.216   7.698  0.00  0.00     0.186 HD
ENDROOT
BRANCH   9  13
ATOM     13  C10 ZIN A   1      17.988   0.461   8.945  0.00  0.00     0.011 A 
ATOM     14  C16 ZIN A   1      17.628   0.867  10.233  0.00  0.00     0.046 A 
ATOM     15  C15 ZIN A   1      18.085   2.073  10.726  0.00  0.00     0.025 A 
ATOM     16 Cl17 ZIN A   1      16.620  -0.149  11.216  0.00  0.00    -0.083 Cl
ATOM     17  C14 ZIN A   1      18.888   2.884   9.945  0.00  0.00     0.003 A 
ATOM     18  C13 ZIN A   1      19.245   2.492   8.666  0.00  0.00     0.025 A 
ATOM     19  C11 ZIN A   1      18.801   1.287   8.161  0.00  0.00     0.046 A 
ATOM     20 Cl12 ZIN A   1      19.249   0.798   6.557  0.00  0.00    -0.083 Cl
ENDBRANCH   9  13
TORSDOF 1
ENDMDL
