MODEL 1
REMARK VINA RESULT:      -6.9      0.000      0.000
REMARK  7 active torsions:
REMARK  status: ('A' for Active; 'I' for Inactive)
REMARK    1  A    between atoms: C2_2  and  N4_4 
REMARK    2  A    between atoms: C13_11  and  O15_12 
REMARK    3  A    between atoms: O15_12  and  C16_13 
REMARK    4  A    between atoms: C16_13  and  C18_15 
REMARK    5  A    between atoms: C18_15  and  C20_16 
REMARK    6  A    between atoms: C18_15  and  C22_18 
REMARK    7  A    between atoms: C20_16  and  O21_17 
ROOT
ATOM      1  O15 ZIN A   1      19.255  -0.100  10.563  0.00  0.00    -0.315 OA
ENDROOT
BRANCH   1   2
ATOM      2  C13 ZIN A   1      20.007  -0.434   9.367  0.00  0.00     0.136 C 
ATOM      3  C12 ZIN A   1      19.954   0.742   8.387  0.00  0.00     0.066 C 
ATOM      4  C10 ZIN A   1      18.507   0.920   7.903  0.00  0.00     0.193 C 
ATOM      5  N4  ZIN A   1      18.130  -0.299   7.138  0.00  0.00    -0.059 N 
ATOM      6  C9  ZIN A   1      17.585   0.890   9.143  0.00  0.00     0.036 C 
ATOM      7  C5  ZIN A   1      16.867  -0.088   6.419  0.00  0.00     0.274 C 
ATOM      8  C6  ZIN A   1      17.969  -1.333   8.194  0.00  0.00     0.193 C 
ATOM      9  C28 ZIN A   1      19.377  -1.703   8.687  0.00  0.00     0.066 C 
ATOM     10  C8  ZIN A   1      17.230  -0.599   9.336  0.00  0.00     0.036 C 
BRANCH   5  11
ATOM     11  C2  ZIN A   1      19.199  -0.674   6.204  0.00  0.00     0.183 C 
ATOM     12  C1  ZIN A   1      18.891  -2.046   5.600  0.00  0.00     0.040 C 
ATOM     13  C3  ZIN A   1      19.289   0.367   5.086  0.00  0.00     0.040 C 
ENDBRANCH   5  11
ENDBRANCH   1   2
BRANCH   1  14
ATOM     14  C16 ZIN A   1      19.888  -0.235  11.740  0.00  0.00     0.270 C 
ATOM     15  O17 ZIN A   1      20.910   0.375  11.950  0.00  0.00    -0.264 OA
BRANCH  14  16
ATOM     16  C18 ZIN A   1      19.326  -1.149  12.796  0.00  0.00     0.142 C 
BRANCH  16  17
ATOM     17  C20 ZIN A   1      18.048  -0.536  13.374  0.00  0.00     0.183 C 
BRANCH  17  18
ATOM     18  O21 ZIN A   1      17.942   0.826  12.955  0.00  0.00    -0.400 OA
ATOM     19  H47 ZIN A   1      17.655   0.934  12.038  0.00  0.00     0.209 HD
ENDBRANCH  17  18
ENDBRANCH  16  17
BRANCH  16  20
ATOM     20  C22 ZIN A   1      19.006  -2.490  12.184  0.00  0.00    -0.043 A 
ATOM     21  C27 ZIN A   1      17.691  -2.877  12.015  0.00  0.00     0.008 A 
ATOM     22  C26 ZIN A   1      17.398  -4.105  11.450  0.00  0.00     0.001 A 
ATOM     23  C25 ZIN A   1      18.422  -4.948  11.063  0.00  0.00     0.000 A 
ATOM     24  C24 ZIN A   1      19.739  -4.563  11.237  0.00  0.00     0.001 A 
ATOM     25  C23 ZIN A   1      20.031  -3.334  11.798  0.00  0.00     0.008 A 
ENDBRANCH  16  20
ENDBRANCH  14  16
ENDBRANCH   1  14
TORSDOF 7
ENDMDL
MODEL 2
REMARK VINA RESULT:      -6.7      2.983      6.967
REMARK  7 active torsions:
REMARK  status: ('A' for Active; 'I' for Inactive)
REMARK    1  A    between atoms: C2_2  and  N4_4 
REMARK    2  A    between atoms: C13_11  and  O15_12 
REMARK    3  A    between atoms: O15_12  and  C16_13 
REMARK    4  A    between atoms: C16_13  and  C18_15 
REMARK    5  A    between atoms: C18_15  and  C20_16 
REMARK    6  A    between atoms: C18_15  and  C22_18 
REMARK    7  A    between atoms: C20_16  and  O21_17 
ROOT
ATOM      1  O15 ZIN A   1      19.208  -0.043  12.554  0.00  0.00    -0.315 OA
ENDROOT
BRANCH   1   2
ATOM      2  C13 ZIN A   1      19.935   0.359  13.745  0.00  0.00     0.136 C 
ATOM      3  C12 ZIN A   1      19.994  -0.816  14.726  0.00  0.00     0.066 C 
ATOM      4  C10 ZIN A   1      18.572  -1.123  15.220  0.00  0.00     0.193 C 
ATOM      5  N4  ZIN A   1      18.092   0.058  15.987  0.00  0.00    -0.059 N 
ATOM      6  C9  ZIN A   1      17.643  -1.177  13.986  0.00  0.00     0.036 C 
ATOM      7  C5  ZIN A   1      16.858  -0.265  16.714  0.00  0.00     0.274 C 
ATOM      8  C6  ZIN A   1      17.832   1.072  14.932  0.00  0.00     0.193 C 
ATOM      9  C28 ZIN A   1      19.198   1.567  14.429  0.00  0.00     0.066 C 
ATOM     10  C8  ZIN A   1      17.155   0.274  13.795  0.00  0.00     0.036 C 
BRANCH   5  11
ATOM     11  C2  ZIN A   1      19.130   0.529  16.914  0.00  0.00     0.183 C 
ATOM     12  C1  ZIN A   1      18.714   1.879  17.502  0.00  0.00     0.040 C 
ATOM     13  C3  ZIN A   1      19.305  -0.487  18.044  0.00  0.00     0.040 C 
ENDBRANCH   5  11
ENDBRANCH   1   2
BRANCH   1  14
ATOM     14  C16 ZIN A   1      19.617   0.477  11.385  0.00  0.00     0.270 C 
ATOM     15  O17 ZIN A   1      20.645   0.092  10.881  0.00  0.00    -0.264 OA
BRANCH  14  16
ATOM     16  C18 ZIN A   1      18.795   1.540  10.705  0.00  0.00     0.142 C 
BRANCH  16  17
ATOM     17  C20 ZIN A   1      19.563   2.864  10.716  0.00  0.00     0.183 C 
BRANCH  17  18
ATOM     18  O21 ZIN A   1      20.705   2.745  11.567  0.00  0.00    -0.400 OA
ATOM     19  H47 ZIN A   1      20.847   1.853  11.911  0.00  0.00     0.209 HD
ENDBRANCH  17  18
ENDBRANCH  16  17
BRANCH  16  20
ATOM     20  C22 ZIN A   1      18.522   1.129   9.280  0.00  0.00    -0.043 A 
ATOM     21  C27 ZIN A   1      19.204   1.736   8.243  0.00  0.00     0.008 A 
ATOM     22  C26 ZIN A   1      18.956   1.358   6.937  0.00  0.00     0.001 A 
ATOM     23  C25 ZIN A   1      18.019   0.378   6.668  0.00  0.00     0.000 A 
ATOM     24  C24 ZIN A   1      17.332  -0.226   7.705  0.00  0.00     0.001 A 
ATOM     25  C23 ZIN A   1      17.583   0.150   9.012  0.00  0.00     0.008 A 
ENDBRANCH  16  20
ENDBRANCH  14  16
ENDBRANCH   1  14
TORSDOF 7
ENDMDL
MODEL 3
REMARK VINA RESULT:      -6.7      2.451      4.204
REMARK  7 active torsions:
REMARK  status: ('A' for Active; 'I' for Inactive)
REMARK    1  A    between atoms: C2_2  and  N4_4 
REMARK    2  A    between atoms: C13_11  and  O15_12 
REMARK    3  A    between atoms: O15_12  and  C16_13 
REMARK    4  A    between atoms: C16_13  and  C18_15 
REMARK    5  A    between atoms: C18_15  and  C20_16 
REMARK    6  A    between atoms: C18_15  and  C22_18 
REMARK    7  A    between atoms: C20_16  and  O21_17 
ROOT
ATOM      1  O15 ZIN A   1      19.434  -0.865  12.164  0.00  0.00    -0.315 OA
ENDROOT
BRANCH   1   2
ATOM      2  C13 ZIN A   1      20.071  -1.559  11.059  0.00  0.00     0.136 C 
ATOM      3  C12 ZIN A   1      19.187  -1.450   9.813  0.00  0.00     0.066 C 
ATOM      4  C10 ZIN A   1      17.882  -2.223  10.060  0.00  0.00     0.193 C 
ATOM      5  N4  ZIN A   1      18.228  -3.660  10.222  0.00  0.00    -0.059 N 
ATOM      6  C9  ZIN A   1      17.339  -1.804  11.445  0.00  0.00     0.036 C 
ATOM      7  C5  ZIN A   1      17.016  -4.490  10.190  0.00  0.00     0.274 C 
ATOM      8  C6  ZIN A   1      18.867  -3.713  11.563  0.00  0.00     0.193 C 
ATOM      9  C28 ZIN A   1      20.259  -3.075  11.429  0.00  0.00     0.066 C 
ATOM     10  C8  ZIN A   1      17.991  -2.788  12.438  0.00  0.00     0.036 C 
BRANCH   5  11
ATOM     11  C2  ZIN A   1      19.173  -4.085   9.180  0.00  0.00     0.183 C 
ATOM     12  C1  ZIN A   1      19.551  -5.551   9.403  0.00  0.00     0.040 C 
ATOM     13  C3  ZIN A   1      18.520  -3.931   7.805  0.00  0.00     0.040 C 
ENDBRANCH   5  11
ENDBRANCH   1   2
BRANCH   1  14
ATOM     14  C16 ZIN A   1      20.044   0.239  12.624  0.00  0.00     0.270 C 
ATOM     15  O17 ZIN A   1      21.147   0.529  12.226  0.00  0.00    -0.264 OA
BRANCH  14  16
ATOM     16  C18 ZIN A   1      19.354   1.114  13.637  0.00  0.00     0.142 C 
BRANCH  16  17
ATOM     17  C20 ZIN A   1      18.223   1.889  12.956  0.00  0.00     0.183 C 
BRANCH  17  18
ATOM     18  O21 ZIN A   1      18.365   1.789  11.537  0.00  0.00    -0.400 OA
ATOM     19  H47 ZIN A   1      19.070   1.192  11.254  0.00  0.00     0.209 HD
ENDBRANCH  17  18
ENDBRANCH  16  17
BRANCH  16  20
ATOM     20  C22 ZIN A   1      18.783   0.256  14.737  0.00  0.00    -0.043 A 
ATOM     21  C27 ZIN A   1      19.495  -0.832  15.205  0.00  0.00     0.008 A 
ATOM     22  C26 ZIN A   1      18.972  -1.617  16.216  0.00  0.00     0.001 A 
ATOM     23  C25 ZIN A   1      17.734  -1.319  16.752  0.00  0.00     0.000 A 
ATOM     24  C24 ZIN A   1      17.019  -0.233  16.281  0.00  0.00     0.001 A 
ATOM     25  C23 ZIN A   1      17.543   0.554  15.273  0.00  0.00     0.008 A 
ENDBRANCH  16  20
ENDBRANCH  14  16
ENDBRANCH   1  14
TORSDOF 7
ENDMDL
MODEL 4
REMARK VINA RESULT:      -6.6      2.691      6.679
REMARK  7 active torsions:
REMARK  status: ('A' for Active; 'I' for Inactive)
REMARK    1  A    between atoms: C2_2  and  N4_4 
REMARK    2  A    between atoms: C13_11  and  O15_12 
REMARK    3  A    between atoms: O15_12  and  C16_13 
REMARK    4  A    between atoms: C16_13  and  C18_15 
REMARK    5  A    between atoms: C18_15  and  C20_16 
REMARK    6  A    between atoms: C18_15  and  C22_18 
REMARK    7  A    between atoms: C20_16  and  O21_17 
ROOT
ATOM      1  O15 ZIN A   1      18.815   0.385  11.601  0.00  0.00    -0.315 OA
ENDROOT
BRANCH   1   2
ATOM      2  C13 ZIN A   1      18.238  -0.616  12.480  0.00  0.00     0.136 C 
ATOM      3  C12 ZIN A   1      17.121   0.020  13.313  0.00  0.00     0.066 C 
ATOM      4  C10 ZIN A   1      17.739   1.063  14.258  0.00  0.00     0.193 C 
ATOM      5  N4  ZIN A   1      18.632   0.344  15.207  0.00  0.00    -0.059 N 
ATOM      6  C9  ZIN A   1      18.699   1.945  13.428  0.00  0.00     0.036 C 
ATOM      7  C5  ZIN A   1      19.042   1.231  16.303  0.00  0.00     0.274 C 
ATOM      8  C6  ZIN A   1      19.799  -0.030  14.366  0.00  0.00     0.193 C 
ATOM      9  C28 ZIN A   1      19.348  -1.173  13.443  0.00  0.00     0.066 C 
ATOM     10  C8  ZIN A   1      20.060   1.222  13.499  0.00  0.00     0.036 C 
BRANCH   5  11
ATOM     11  C2  ZIN A   1      17.967  -0.855  15.734  0.00  0.00     0.183 C 
ATOM     12  C1  ZIN A   1      18.985  -1.712  16.489  0.00  0.00     0.040 C 
ATOM     13  C3  ZIN A   1      16.845  -0.440  16.687  0.00  0.00     0.040 C 
ENDBRANCH   5  11
ENDBRANCH   1   2
BRANCH   1  14
ATOM     14  C16 ZIN A   1      18.702   0.173  10.279  0.00  0.00     0.270 C 
ATOM     15  O17 ZIN A   1      19.176  -0.821   9.784  0.00  0.00    -0.264 OA
BRANCH  14  16
ATOM     16  C18 ZIN A   1      17.986   1.178   9.415  0.00  0.00     0.142 C 
BRANCH  16  17
ATOM     17  C20 ZIN A   1      18.625   2.556   9.598  0.00  0.00     0.183 C 
BRANCH  17  18
ATOM     18  O21 ZIN A   1      19.922   2.407  10.180  0.00  0.00    -0.400 OA
ATOM     19  H47 ZIN A   1      19.907   2.152  11.112  0.00  0.00     0.209 HD
ENDBRANCH  17  18
ENDBRANCH  16  17
BRANCH  16  20
ATOM     20  C22 ZIN A   1      18.091   0.763   7.970  0.00  0.00    -0.043 A 
ATOM     21  C27 ZIN A   1      19.093   1.284   7.173  0.00  0.00     0.008 A 
ATOM     22  C26 ZIN A   1      19.191   0.901   5.848  0.00  0.00     0.001 A 
ATOM     23  C25 ZIN A   1      18.282   0.006   5.318  0.00  0.00     0.000 A 
ATOM     24  C24 ZIN A   1      17.276  -0.511   6.114  0.00  0.00     0.001 A 
ATOM     25  C23 ZIN A   1      17.181  -0.132   7.440  0.00  0.00     0.008 A 
ENDBRANCH  16  20
ENDBRANCH  14  16
ENDBRANCH   1  14
TORSDOF 7
ENDMDL
MODEL 5
REMARK VINA RESULT:      -6.6      2.403      4.585
REMARK  7 active torsions:
REMARK  status: ('A' for Active; 'I' for Inactive)
REMARK    1  A    between atoms: C2_2  and  N4_4 
REMARK    2  A    between atoms: C13_11  and  O15_12 
REMARK    3  A    between atoms: O15_12  and  C16_13 
REMARK    4  A    between atoms: C16_13  and  C18_15 
REMARK    5  A    between atoms: C18_15  and  C20_16 
REMARK    6  A    between atoms: C18_15  and  C22_18 
REMARK    7  A    between atoms: C20_16  and  O21_17 
ROOT
ATOM      1  O15 ZIN A   1      18.666  -1.847   8.809  0.00  0.00    -0.315 OA
ENDROOT
BRANCH   1   2
ATOM      2  C13 ZIN A   1      19.003  -0.452   8.586  0.00  0.00     0.136 C 
ATOM      3  C12 ZIN A   1      20.122  -0.039   9.546  0.00  0.00     0.066 C 
ATOM      4  C10 ZIN A   1      19.585  -0.086  10.985  0.00  0.00     0.193 C 
ATOM      5  N4  ZIN A   1      18.512   0.937  11.104  0.00  0.00    -0.059 N 
ATOM      6  C9  ZIN A   1      18.849  -1.432  11.171  0.00  0.00     0.036 C 
ATOM      7  C5  ZIN A   1      18.142   1.137  12.511  0.00  0.00     0.274 C 
ATOM      8  C6  ZIN A   1      17.383   0.343  10.342  0.00  0.00     0.193 C 
ATOM      9  C28 ZIN A   1      17.738   0.443   8.850  0.00  0.00     0.066 C 
ATOM     10  C8  ZIN A   1      17.394  -1.148  10.746  0.00  0.00     0.036 C 
BRANCH   5  11
ATOM     11  C2  ZIN A   1      18.937   2.205  10.497  0.00  0.00     0.183 C 
ATOM     12  C1  ZIN A   1      17.738   3.150  10.396  0.00  0.00     0.040 C 
ATOM     13  C3  ZIN A   1      20.021   2.849  11.364  0.00  0.00     0.040 C 
ENDBRANCH   5  11
ENDBRANCH   1   2
BRANCH   1  14
ATOM     14  C16 ZIN A   1      18.452  -2.604   7.721  0.00  0.00     0.270 C 
ATOM     15  O17 ZIN A   1      18.265  -2.081   6.649  0.00  0.00    -0.264 OA
BRANCH  14  16
ATOM     16  C18 ZIN A   1      18.444  -4.106   7.840  0.00  0.00     0.142 C 
BRANCH  16  17
ATOM     17  C20 ZIN A   1      19.807  -4.659   7.419  0.00  0.00     0.183 C 
BRANCH  17  18
ATOM     18  O21 ZIN A   1      20.579  -3.616   6.818  0.00  0.00    -0.400 OA
ATOM     19  H47 ZIN A   1      21.057  -3.066   7.453  0.00  0.00     0.209 HD
ENDBRANCH  17  18
ENDBRANCH  16  17
BRANCH  16  20
ATOM     20  C22 ZIN A   1      18.163  -4.496   9.269  0.00  0.00    -0.043 A 
ATOM     21  C27 ZIN A   1      19.210  -4.741  10.137  0.00  0.00     0.008 A 
ATOM     22  C26 ZIN A   1      18.953  -5.096  11.448  0.00  0.00     0.001 A 
ATOM     23  C25 ZIN A   1      17.649  -5.215  11.888  0.00  0.00     0.000 A 
ATOM     24  C24 ZIN A   1      16.600  -4.975  11.018  0.00  0.00     0.001 A 
ATOM     25  C23 ZIN A   1      16.858  -4.616   9.708  0.00  0.00     0.008 A 
ENDBRANCH  16  20
ENDBRANCH  14  16
ENDBRANCH   1  14
TORSDOF 7
ENDMDL
MODEL 6
REMARK VINA RESULT:      -6.4      1.709      3.464
REMARK  7 active torsions:
REMARK  status: ('A' for Active; 'I' for Inactive)
REMARK    1  A    between atoms: C2_2  and  N4_4 
REMARK    2  A    between atoms: C13_11  and  O15_12 
REMARK    3  A    between atoms: O15_12  and  C16_13 
REMARK    4  A    between atoms: C16_13  and  C18_15 
REMARK    5  A    between atoms: C18_15  and  C20_16 
REMARK    6  A    between atoms: C18_15  and  C22_18 
REMARK    7  A    between atoms: C20_16  and  O21_17 
ROOT
ATOM      1  O15 ZIN A   1      18.844  -0.756  10.970  0.00  0.00    -0.315 OA
ENDROOT
BRANCH   1   2
ATOM      2  C13 ZIN A   1      18.010  -1.378   9.957  0.00  0.00     0.136 C 
ATOM      3  C12 ZIN A   1      18.898  -1.976   8.862  0.00  0.00     0.066 C 
ATOM      4  C10 ZIN A   1      19.619  -0.834   8.129  0.00  0.00     0.193 C 
ATOM      5  N4  ZIN A   1      18.587  -0.009   7.446  0.00  0.00    -0.059 N 
ATOM      6  C9  ZIN A   1      20.217   0.111   9.195  0.00  0.00     0.036 C 
ATOM      7  C5  ZIN A   1      19.214   0.933   6.510  0.00  0.00     0.274 C 
ATOM      8  C6  ZIN A   1      17.931   0.718   8.565  0.00  0.00     0.193 C 
ATOM      9  C28 ZIN A   1      17.061  -0.299   9.321  0.00  0.00     0.066 C 
ATOM     10  C8  ZIN A   1      19.101   1.136   9.484  0.00  0.00     0.036 C 
BRANCH   5  11
ATOM     11  C2  ZIN A   1      17.619  -0.865   6.747  0.00  0.00     0.183 C 
ATOM     12  C1  ZIN A   1      16.601   0.009   6.013  0.00  0.00     0.040 C 
ATOM     13  C3  ZIN A   1      18.355  -1.748   5.737  0.00  0.00     0.040 C 
ENDBRANCH   5  11
ENDBRANCH   1   2
BRANCH   1  14
ATOM     14  C16 ZIN A   1      18.891  -1.353  12.172  0.00  0.00     0.270 C 
ATOM     15  O17 ZIN A   1      18.240  -2.350  12.377  0.00  0.00    -0.264 OA
BRANCH  14  16
ATOM     16  C18 ZIN A   1      19.754  -0.778  13.264  0.00  0.00     0.142 C 
BRANCH  16  17
ATOM     17  C20 ZIN A   1      20.239   0.614  12.852  0.00  0.00     0.183 C 
BRANCH  17  18
ATOM     18  O21 ZIN A   1      21.546   0.513  12.281  0.00  0.00    -0.400 OA
ATOM     19  H47 ZIN A   1      21.929   1.362  12.024  0.00  0.00     0.209 HD
ENDBRANCH  17  18
ENDBRANCH  16  17
BRANCH  16  20
ATOM     20  C22 ZIN A   1      18.952  -0.673  14.536  0.00  0.00    -0.043 A 
ATOM     21  C27 ZIN A   1      17.977   0.298  14.661  0.00  0.00     0.008 A 
ATOM     22  C26 ZIN A   1      17.240   0.392  15.827  0.00  0.00     0.001 A 
ATOM     23  C25 ZIN A   1      17.484  -0.480  16.870  0.00  0.00     0.000 A 
ATOM     24  C24 ZIN A   1      18.463  -1.449  16.748  0.00  0.00     0.001 A 
ATOM     25  C23 ZIN A   1      19.198  -1.545  15.581  0.00  0.00     0.008 A 
ENDBRANCH  16  20
ENDBRANCH  14  16
ENDBRANCH   1  14
TORSDOF 7
ENDMDL
MODEL 7
REMARK VINA RESULT:      -6.4      3.063      5.838
REMARK  7 active torsions:
REMARK  status: ('A' for Active; 'I' for Inactive)
REMARK    1  A    between atoms: C2_2  and  N4_4 
REMARK    2  A    between atoms: C13_11  and  O15_12 
REMARK    3  A    between atoms: O15_12  and  C16_13 
REMARK    4  A    between atoms: C16_13  and  C18_15 
REMARK    5  A    between atoms: C18_15  and  C20_16 
REMARK    6  A    between atoms: C18_15  and  C22_18 
REMARK    7  A    between atoms: C20_16  and  O21_17 
ROOT
ATOM      1  O15 ZIN A   1      19.511   0.871  10.752  0.00  0.00    -0.315 OA
ENDROOT
BRANCH   1   2
ATOM      2  C13 ZIN A   1      19.997   1.497  11.969  0.00  0.00     0.136 C 
ATOM      3  C12 ZIN A   1      18.906   1.438  13.043  0.00  0.00     0.066 C 
ATOM      4  C10 ZIN A   1      17.723   2.312  12.598  0.00  0.00     0.193 C 
ATOM      5  N4  ZIN A   1      18.196   3.721  12.538  0.00  0.00    -0.059 N 
ATOM      6  C9  ZIN A   1      17.398   1.957  11.129  0.00  0.00     0.036 C 
ATOM      7  C5  ZIN A   1      17.061   4.640  12.385  0.00  0.00     0.274 C 
ATOM      8  C6  ZIN A   1      19.059   3.744  11.328  0.00  0.00     0.193 C 
ATOM      9  C28 ZIN A   1      20.356   2.999  11.680  0.00  0.00     0.066 C 
ATOM     10  C8  ZIN A   1      18.281   2.903  10.290  0.00  0.00     0.036 C 
BRANCH   5  11
ATOM     11  C2  ZIN A   1      18.975   4.056  13.737  0.00  0.00     0.183 C 
ATOM     12  C1  ZIN A   1      19.613   5.436  13.561  0.00  0.00     0.040 C 
ATOM     13  C3  ZIN A   1      18.053   4.073  14.957  0.00  0.00     0.040 C 
ENDBRANCH   5  11
ENDBRANCH   1   2
BRANCH   1  14
ATOM     14  C16 ZIN A   1      20.052  -0.311  10.417  0.00  0.00     0.270 C 
ATOM     15  O17 ZIN A   1      21.154  -0.606  10.815  0.00  0.00    -0.264 OA
BRANCH  14  16
ATOM     16  C18 ZIN A   1      19.286  -1.269   9.542  0.00  0.00     0.142 C 
BRANCH  16  17
ATOM     17  C20 ZIN A   1      18.116  -1.858  10.334  0.00  0.00     0.183 C 
BRANCH  17  18
ATOM     18  O21 ZIN A   1      18.406  -1.795  11.732  0.00  0.00    -0.400 OA
ATOM     19  H47 ZIN A   1      19.279  -2.137  11.968  0.00  0.00     0.209 HD
ENDBRANCH  17  18
ENDBRANCH  16  17
BRANCH  16  20
ATOM     20  C22 ZIN A   1      18.757  -0.535   8.336  0.00  0.00    -0.043 A 
ATOM     21  C27 ZIN A   1      17.497  -0.824   7.849  0.00  0.00     0.008 A 
ATOM     22  C26 ZIN A   1      17.011  -0.149   6.744  0.00  0.00     0.001 A 
ATOM     23  C25 ZIN A   1      17.789   0.808   6.123  0.00  0.00     0.000 A 
ATOM     24  C24 ZIN A   1      19.053   1.094   6.607  0.00  0.00     0.001 A 
ATOM     25  C23 ZIN A   1      19.537   0.422   7.714  0.00  0.00     0.008 A 
ENDBRANCH  16  20
ENDBRANCH  14  16
ENDBRANCH   1  14
TORSDOF 7
ENDMDL
MODEL 8
REMARK VINA RESULT:      -6.4      3.186      6.902
REMARK  7 active torsions:
REMARK  status: ('A' for Active; 'I' for Inactive)
REMARK    1  A    between atoms: C2_2  and  N4_4 
REMARK    2  A    between atoms: C13_11  and  O15_12 
REMARK    3  A    between atoms: O15_12  and  C16_13 
REMARK    4  A    between atoms: C16_13  and  C18_15 
REMARK    5  A    between atoms: C18_15  and  C20_16 
REMARK    6  A    between atoms: C18_15  and  C22_18 
REMARK    7  A    between atoms: C20_16  and  O21_17 
ROOT
ATOM      1  O15 ZIN A   1      18.918   2.229  12.728  0.00  0.00    -0.315 OA
ENDROOT
BRANCH   1   2
ATOM      2  C13 ZIN A   1      18.210   2.304  13.993  0.00  0.00     0.136 C 
ATOM      3  C12 ZIN A   1      19.200   2.095  15.143  0.00  0.00     0.066 C 
ATOM      4  C10 ZIN A   1      19.738   0.657  15.080  0.00  0.00     0.193 C 
ATOM      5  N4  ZIN A   1      18.596  -0.267  15.317  0.00  0.00    -0.059 N 
ATOM      6  C9  ZIN A   1      20.160   0.373  13.621  0.00  0.00     0.036 C 
ATOM      7  C5  ZIN A   1      19.077  -1.636  15.540  0.00  0.00     0.274 C 
ATOM      8  C6  ZIN A   1      17.816  -0.182  14.055  0.00  0.00     0.193 C 
ATOM      9  C28 ZIN A   1      17.110   1.183  14.047  0.00  0.00     0.066 C 
ATOM     10  C8  ZIN A   1      18.889  -0.181  12.943  0.00  0.00     0.036 C 
BRANCH   5  11
ATOM     11  C2  ZIN A   1      17.790   0.190  16.457  0.00  0.00     0.183 C 
ATOM     12  C1  ZIN A   1      16.743  -0.872  16.798  0.00  0.00     0.040 C 
ATOM     13  C3  ZIN A   1      18.698   0.417  17.667  0.00  0.00     0.040 C 
ENDBRANCH   5  11
ENDBRANCH   1   2
BRANCH   1  14
ATOM     14  C16 ZIN A   1      18.778   3.268  11.888  0.00  0.00     0.270 C 
ATOM     15  O17 ZIN A   1      19.484   4.240  12.007  0.00  0.00    -0.264 OA
BRANCH  14  16
ATOM     16  C18 ZIN A   1      17.739   3.220  10.799  0.00  0.00     0.142 C 
BRANCH  16  17
ATOM     17  C20 ZIN A   1      17.718   4.557  10.053  0.00  0.00     0.183 C 
BRANCH  17  18
ATOM     18  O21 ZIN A   1      16.962   5.509  10.804  0.00  0.00    -0.400 OA
ATOM     19  H47 ZIN A   1      16.055   5.231  10.990  0.00  0.00     0.209 HD
ENDBRANCH  17  18
ENDBRANCH  16  17
BRANCH  16  20
ATOM     20  C22 ZIN A   1      18.074   2.112   9.833  0.00  0.00    -0.043 A 
ATOM     21  C27 ZIN A   1      19.061   2.296   8.884  0.00  0.00     0.008 A 
ATOM     22  C26 ZIN A   1      19.370   1.279   8.000  0.00  0.00     0.001 A 
ATOM     23  C25 ZIN A   1      18.685   0.081   8.060  0.00  0.00     0.000 A 
ATOM     24  C24 ZIN A   1      17.693  -0.103   9.006  0.00  0.00     0.001 A 
ATOM     25  C23 ZIN A   1      17.387   0.913   9.892  0.00  0.00     0.008 A 
ENDBRANCH  16  20
ENDBRANCH  14  16
ENDBRANCH   1  14
TORSDOF 7
ENDMDL
MODEL 9
REMARK VINA RESULT:      -6.3      2.535      4.767
REMARK  7 active torsions:
REMARK  status: ('A' for Active; 'I' for Inactive)
REMARK    1  A    between atoms: C2_2  and  N4_4 
REMARK    2  A    between atoms: C13_11  and  O15_12 
REMARK    3  A    between atoms: O15_12  and  C16_13 
REMARK    4  A    between atoms: C16_13  and  C18_15 
REMARK    5  A    between atoms: C18_15  and  C20_16 
REMARK    6  A    between atoms: C18_15  and  C22_18 
REMARK    7  A    between atoms: C20_16  and  O21_17 
ROOT
ATOM      1  O15 ZIN A   1      18.571  -0.185  11.600  0.00  0.00    -0.315 OA
ENDROOT
BRANCH   1   2
ATOM      2  C13 ZIN A   1      17.465  -1.083  11.320  0.00  0.00     0.136 C 
ATOM      3  C12 ZIN A   1      17.575  -2.322  12.214  0.00  0.00     0.066 C 
ATOM      4  C10 ZIN A   1      18.831  -3.112  11.815  0.00  0.00     0.193 C 
ATOM      5  N4  ZIN A   1      18.639  -3.598  10.422  0.00  0.00    -0.059 N 
ATOM      6  C9  ZIN A   1      20.006  -2.113  11.710  0.00  0.00     0.036 C 
ATOM      7  C5  ZIN A   1      19.671  -4.582  10.072  0.00  0.00     0.274 C 
ATOM      8  C6  ZIN A   1      18.786  -2.367   9.603  0.00  0.00     0.193 C 
ATOM      9  C28 ZIN A   1      17.516  -1.527   9.813  0.00  0.00     0.066 C 
ATOM     10  C8  ZIN A   1      19.975  -1.620  10.249  0.00  0.00     0.036 C 
BRANCH   5  11
ATOM     11  C2  ZIN A   1      17.298  -4.175  10.256  0.00  0.00     0.183 C 
ATOM     12  C1  ZIN A   1      17.157  -4.737   8.840  0.00  0.00     0.040 C 
ATOM     13  C3  ZIN A   1      17.096  -5.299  11.274  0.00  0.00     0.040 C 
ENDBRANCH   5  11
ENDBRANCH   1   2
BRANCH   1  14
ATOM     14  C16 ZIN A   1      18.288   0.938  12.279  0.00  0.00     0.270 C 
ATOM     15  O17 ZIN A   1      17.425   1.683  11.880  0.00  0.00    -0.264 OA
BRANCH  14  16
ATOM     16  C18 ZIN A   1      19.048   1.270  13.536  0.00  0.00     0.142 C 
BRANCH  16  17
ATOM     17  C20 ZIN A   1      18.793   2.730  13.917  0.00  0.00     0.183 C 
BRANCH  17  18
ATOM     18  O21 ZIN A   1      19.618   3.581  13.119  0.00  0.00    -0.400 OA
ATOM     19  H47 ZIN A   1      20.064   3.127  12.392  0.00  0.00     0.209 HD
ENDBRANCH  17  18
ENDBRANCH  16  17
BRANCH  16  20
ATOM     20  C22 ZIN A   1      18.586   0.371  14.655  0.00  0.00    -0.043 A 
ATOM     21  C27 ZIN A   1      19.310  -0.761  14.976  0.00  0.00     0.008 A 
ATOM     22  C26 ZIN A   1      18.887  -1.584  16.004  0.00  0.00     0.001 A 
ATOM     23  C25 ZIN A   1      17.736  -1.278  16.704  0.00  0.00     0.000 A 
ATOM     24  C24 ZIN A   1      17.009  -0.147  16.380  0.00  0.00     0.001 A 
ATOM     25  C23 ZIN A   1      17.433   0.677  15.355  0.00  0.00     0.008 A 
ENDBRANCH  16  20
ENDBRANCH  14  16
ENDBRANCH   1  14
TORSDOF 7
ENDMDL
