MODEL 1
REMARK VINA RESULT:      -7.9      0.000      0.000
REMARK  5 active torsions:
REMARK  status: ('A' for Active; 'I' for Inactive)
REMARK    1  A    between atoms: N1_1  and  C2_2 
REMARK    2  A    between atoms: C2_2  and  C4_3 
REMARK    3  A    between atoms: C2_2  and  C22_19 
REMARK       I    between atoms: C4_3  and  N6_5 
REMARK    4  A    between atoms: N6_5  and  C7_6 
REMARK    5  A    between atoms: C12_10  and  C13_11 
ROOT
ATOM      1  C4  ZIN A   1      18.418   0.163  12.363  0.00  0.00     0.256 C 
ATOM      2  O5  ZIN A   1      17.253   0.306  12.665  0.00  0.00    -0.271 OA
ATOM      3  N6  ZIN A   1      18.746  -0.513  11.245  0.00  0.00    -0.343 N 
ATOM      4  H30 ZIN A   1      19.679  -0.627  11.003  0.00  0.00     0.163 HD
ENDROOT
BRANCH   3   5
ATOM      5  C7  ZIN A   1      17.695  -1.076  10.394  0.00  0.00     0.210 C 
ATOM      6  C20 ZIN A   1      17.455  -0.286   9.112  0.00  0.00     0.187 C 
ATOM      7  N11 ZIN A   1      18.168  -1.413   8.425  0.00  0.00    -0.292 N 
ATOM      8  S19 ZIN A   1      18.523   1.175   8.884  0.00  0.00    -0.135 SA
ATOM      9  C9  ZIN A   1      18.173  -2.213   9.506  0.00  0.00     0.251 C 
ATOM     10  C12 ZIN A   1      18.724  -1.385   7.133  0.00  0.00     0.134 C 
ATOM     11  O10 ZIN A   1      18.451  -3.378   9.695  0.00  0.00    -0.271 OA
ATOM     12  C16 ZIN A   1      18.997  -0.220   6.555  0.00  0.00     0.055 C 
ATOM     13 Cl17 ZIN A   1      19.741  -0.307   4.989  0.00  0.00    -0.086 Cl
ATOM     14  C18 ZIN A   1      18.743   1.156   7.079  0.00  0.00     0.130 C 
BRANCH  10  15
ATOM     15  C13 ZIN A   1      19.004  -2.641   6.425  0.00  0.00     0.228 C 
ATOM     16  O14 ZIN A   1      18.150  -3.141   5.704  0.00  0.00    -0.643 OA
ATOM     17  O15 ZIN A   1      20.091  -3.188   6.556  0.00  0.00    -0.643 OA
ENDBRANCH  10  15
ENDBRANCH   3   5
BRANCH   1  18
ATOM     18  C2  ZIN A   1      19.500   0.743  13.238  0.00  0.00     0.342 C 
BRANCH  18  19
ATOM     19  N1  ZIN A   1      20.812   0.286  12.762  0.00  0.00     0.096 N 
ATOM     20  H28 ZIN A   1      21.055   0.730  11.890  0.00  0.00     0.314 HD
ATOM     21  H29 ZIN A   1      21.524   0.443  13.459  0.00  0.00     0.314 HD
ENDBRANCH  18  19
BRANCH  18  22
ATOM     22  C22 ZIN A   1      19.294   0.289  14.660  0.00  0.00    -0.016 A 
ATOM     23  C27 ZIN A   1      19.128   1.221  15.667  0.00  0.00     0.010 A 
ATOM     24  C26 ZIN A   1      18.935   0.804  16.971  0.00  0.00     0.001 A 
ATOM     25  C25 ZIN A   1      18.917  -0.546  17.268  0.00  0.00     0.000 A 
ATOM     26  C24 ZIN A   1      19.088  -1.479  16.262  0.00  0.00     0.001 A 
ATOM     27  C23 ZIN A   1      19.277  -1.061  14.958  0.00  0.00     0.010 A 
ENDBRANCH  18  22
ENDBRANCH   1  18
TORSDOF 5
ENDMDL
MODEL 2
REMARK VINA RESULT:      -7.8      3.760      8.251
REMARK  5 active torsions:
REMARK  status: ('A' for Active; 'I' for Inactive)
REMARK    1  A    between atoms: N1_1  and  C2_2 
REMARK    2  A    between atoms: C2_2  and  C4_3 
REMARK    3  A    between atoms: C2_2  and  C22_19 
REMARK       I    between atoms: C4_3  and  N6_5 
REMARK    4  A    between atoms: N6_5  and  C7_6 
REMARK    5  A    between atoms: C12_10  and  C13_11 
ROOT
ATOM      1  C4  ZIN A   1      18.459  -0.106  10.867  0.00  0.00     0.256 C 
ATOM      2  O5  ZIN A   1      17.290  -0.273  10.590  0.00  0.00    -0.271 OA
ATOM      3  N6  ZIN A   1      18.797   0.642  11.936  0.00  0.00    -0.343 N 
ATOM      4  H30 ZIN A   1      19.733   0.775  12.158  0.00  0.00     0.163 HD
ENDROOT
BRANCH   3   5
ATOM      5  C7  ZIN A   1      17.754   1.252  12.763  0.00  0.00     0.210 C 
ATOM      6  C20 ZIN A   1      17.447   0.472  14.038  0.00  0.00     0.187 C 
ATOM      7  N11 ZIN A   1      18.196   1.564  14.744  0.00  0.00    -0.292 N 
ATOM      8  S19 ZIN A   1      18.441  -1.037  14.288  0.00  0.00    -0.135 SA
ATOM      9  C9  ZIN A   1      18.264   2.364  13.665  0.00  0.00     0.251 C 
ATOM     10  C12 ZIN A   1      18.720   1.508  16.048  0.00  0.00     0.134 C 
ATOM     11  O10 ZIN A   1      18.600   3.516  13.485  0.00  0.00    -0.271 OA
ATOM     12  C16 ZIN A   1      18.925   0.331  16.630  0.00  0.00     0.055 C 
ATOM     13 Cl17 ZIN A   1      19.636   0.382  18.213  0.00  0.00    -0.086 Cl
ATOM     14  C18 ZIN A   1      18.620  -1.030  16.097  0.00  0.00     0.130 C 
BRANCH  10  15
ATOM     15  C13 ZIN A   1      19.042   2.750  16.765  0.00  0.00     0.228 C 
ATOM     16  O14 ZIN A   1      18.209   3.266  17.498  0.00  0.00    -0.643 OA
ATOM     17  O15 ZIN A   1      20.143   3.266  16.630  0.00  0.00    -0.643 OA
ENDBRANCH  10  15
ENDBRANCH   3   5
BRANCH   1  18
ATOM     18  C2  ZIN A   1      19.532  -0.735  10.017  0.00  0.00     0.342 C 
BRANCH  18  19
ATOM     19  N1  ZIN A   1      20.851  -0.275  10.473  0.00  0.00     0.096 N 
ATOM     20  H28 ZIN A   1      20.987   0.701  10.259  0.00  0.00     0.314 HD
ATOM     21  H29 ZIN A   1      20.972  -0.449  11.459  0.00  0.00     0.314 HD
ENDBRANCH  18  19
BRANCH  18  22
ATOM     22  C22 ZIN A   1      19.332  -0.335   8.577  0.00  0.00    -0.016 A 
ATOM     23  C27 ZIN A   1      19.244   1.001   8.236  0.00  0.00     0.010 A 
ATOM     24  C26 ZIN A   1      19.064   1.367   6.914  0.00  0.00     0.001 A 
ATOM     25  C25 ZIN A   1      18.965   0.395   5.936  0.00  0.00     0.000 A 
ATOM     26  C24 ZIN A   1      19.048  -0.942   6.278  0.00  0.00     0.001 A 
ATOM     27  C23 ZIN A   1      19.231  -1.307   7.599  0.00  0.00     0.010 A 
ENDBRANCH  18  22
ENDBRANCH   1  18
TORSDOF 5
ENDMDL
MODEL 3
REMARK VINA RESULT:      -7.4      2.957      7.602
REMARK  5 active torsions:
REMARK  status: ('A' for Active; 'I' for Inactive)
REMARK    1  A    between atoms: N1_1  and  C2_2 
REMARK    2  A    between atoms: C2_2  and  C4_3 
REMARK    3  A    between atoms: C2_2  and  C22_19 
REMARK       I    between atoms: C4_3  and  N6_5 
REMARK    4  A    between atoms: N6_5  and  C7_6 
REMARK    5  A    between atoms: C12_10  and  C13_11 
ROOT
ATOM      1  C4  ZIN A   1      18.855  -1.671   9.729  0.00  0.00     0.256 C 
ATOM      2  O5  ZIN A   1      19.546  -2.636   9.976  0.00  0.00    -0.271 OA
ATOM      3  N6  ZIN A   1      19.003  -0.536  10.441  0.00  0.00    -0.343 N 
ATOM      4  H30 ZIN A   1      18.450   0.236  10.243  0.00  0.00     0.163 HD
ENDROOT
BRANCH   3   5
ATOM      5  C7  ZIN A   1      19.998  -0.469  11.514  0.00  0.00     0.210 C 
ATOM      6  C20 ZIN A   1      20.305   0.952  11.977  0.00  0.00     0.187 C 
ATOM      7  N11 ZIN A   1      19.493   0.604  13.190  0.00  0.00    -0.292 N 
ATOM      8  S19 ZIN A   1      19.370   2.269  11.129  0.00  0.00    -0.135 SA
ATOM      9  C9  ZIN A   1      19.418  -0.706  12.899  0.00  0.00     0.251 C 
ATOM     10  C12 ZIN A   1      18.938   1.511  14.112  0.00  0.00     0.134 C 
ATOM     11  O10 ZIN A   1      19.038  -1.688  13.502  0.00  0.00    -0.271 OA
ATOM     12  C16 ZIN A   1      18.769   2.784  13.769  0.00  0.00     0.055 C 
ATOM     13 Cl17 ZIN A   1      18.016   3.796  14.961  0.00  0.00    -0.086 Cl
ATOM     14  C18 ZIN A   1      19.145   3.455  12.488  0.00  0.00     0.130 C 
BRANCH  10  15
ATOM     15  C13 ZIN A   1      18.546   1.052  15.451  0.00  0.00     0.228 C 
ATOM     16  O14 ZIN A   1      19.309   1.200  16.396  0.00  0.00    -0.643 OA
ATOM     17  O15 ZIN A   1      17.456   0.521  15.621  0.00  0.00    -0.643 OA
ENDBRANCH  10  15
ENDBRANCH   3   5
BRANCH   1  18
ATOM     18  C2  ZIN A   1      17.833  -1.740   8.625  0.00  0.00     0.342 C 
BRANCH  18  19
ATOM     19  N1  ZIN A   1      17.580  -3.145   8.278  0.00  0.00     0.096 N 
ATOM     20  H28 ZIN A   1      16.784  -3.228   7.663  0.00  0.00     0.314 HD
ATOM     21  H29 ZIN A   1      18.398  -3.569   7.870  0.00  0.00     0.314 HD
ENDBRANCH  18  19
BRANCH  18  22
ATOM     22  C22 ZIN A   1      18.351  -1.009   7.413  0.00  0.00    -0.016 A 
ATOM     23  C27 ZIN A   1      18.238   0.367   7.334  0.00  0.00     0.010 A 
ATOM     24  C26 ZIN A   1      18.717   1.037   6.224  0.00  0.00     0.001 A 
ATOM     25  C25 ZIN A   1      19.303   0.331   5.189  0.00  0.00     0.000 A 
ATOM     26  C24 ZIN A   1      19.411  -1.045   5.266  0.00  0.00     0.001 A 
ATOM     27  C23 ZIN A   1      18.935  -1.714   6.378  0.00  0.00     0.010 A 
ENDBRANCH  18  22
ENDBRANCH   1  18
TORSDOF 5
ENDMDL
MODEL 4
REMARK VINA RESULT:      -7.3      2.474      3.275
REMARK  5 active torsions:
REMARK  status: ('A' for Active; 'I' for Inactive)
REMARK    1  A    between atoms: N1_1  and  C2_2 
REMARK    2  A    between atoms: C2_2  and  C4_3 
REMARK    3  A    between atoms: C2_2  and  C22_19 
REMARK       I    between atoms: C4_3  and  N6_5 
REMARK    4  A    between atoms: N6_5  and  C7_6 
REMARK    5  A    between atoms: C12_10  and  C13_11 
ROOT
ATOM      1  C4  ZIN A   1      18.819   1.709  13.279  0.00  0.00     0.256 C 
ATOM      2  O5  ZIN A   1      19.460   2.698  12.991  0.00  0.00    -0.271 OA
ATOM      3  N6  ZIN A   1      19.019   0.558  12.606  0.00  0.00    -0.343 N 
ATOM      4  H30 ZIN A   1      18.506  -0.233  12.837  0.00  0.00     0.163 HD
ENDROOT
BRANCH   3   5
ATOM      5  C7  ZIN A   1      20.010   0.501  11.529  0.00  0.00     0.210 C 
ATOM      6  C20 ZIN A   1      20.323  -0.916  11.059  0.00  0.00     0.187 C 
ATOM      7  N11 ZIN A   1      19.503  -0.569   9.852  0.00  0.00    -0.292 N 
ATOM      8  S19 ZIN A   1      19.400  -2.242  11.907  0.00  0.00    -0.135 SA
ATOM      9  C9  ZIN A   1      19.422   0.740  10.148  0.00  0.00     0.251 C 
ATOM     10  C12 ZIN A   1      18.950  -1.476   8.929  0.00  0.00     0.134 C 
ATOM     11  O10 ZIN A   1      19.033   1.721   9.550  0.00  0.00    -0.271 OA
ATOM     12  C16 ZIN A   1      18.790  -2.751   9.268  0.00  0.00     0.055 C 
ATOM     13 Cl17 ZIN A   1      18.039  -3.764   8.075  0.00  0.00    -0.086 Cl
ATOM     14  C18 ZIN A   1      19.177  -3.425  10.545  0.00  0.00     0.130 C 
BRANCH  10  15
ATOM     15  C13 ZIN A   1      18.549  -1.014   7.593  0.00  0.00     0.228 C 
ATOM     16  O14 ZIN A   1      19.330  -1.102   6.656  0.00  0.00    -0.643 OA
ATOM     17  O15 ZIN A   1      17.433  -0.542   7.419  0.00  0.00    -0.643 OA
ENDBRANCH  10  15
ENDBRANCH   3   5
BRANCH   1  18
ATOM     18  C2  ZIN A   1      17.802   1.768  14.388  0.00  0.00     0.342 C 
BRANCH  18  19
ATOM     19  N1  ZIN A   1      17.627   3.161  14.819  0.00  0.00     0.096 N 
ATOM     20  H28 ZIN A   1      18.514   3.582  15.051  0.00  0.00     0.314 HD
ATOM     21  H29 ZIN A   1      17.145   3.699  14.115  0.00  0.00     0.314 HD
ENDBRANCH  18  19
BRANCH  18  22
ATOM     22  C22 ZIN A   1      18.278   0.938  15.552  0.00  0.00    -0.016 A 
ATOM     23  C27 ZIN A   1      18.096  -0.432  15.545  0.00  0.00     0.010 A 
ATOM     24  C26 ZIN A   1      18.537  -1.194  16.612  0.00  0.00     0.001 A 
ATOM     25  C25 ZIN A   1      19.153  -0.583  17.689  0.00  0.00     0.000 A 
ATOM     26  C24 ZIN A   1      19.331   0.788  17.697  0.00  0.00     0.001 A 
ATOM     27  C23 ZIN A   1      18.893   1.548  16.629  0.00  0.00     0.010 A 
ENDBRANCH  18  22
ENDBRANCH   1  18
TORSDOF 5
ENDMDL
MODEL 5
REMARK VINA RESULT:      -7.3      4.530      8.086
REMARK  5 active torsions:
REMARK  status: ('A' for Active; 'I' for Inactive)
REMARK    1  A    between atoms: N1_1  and  C2_2 
REMARK    2  A    between atoms: C2_2  and  C4_3 
REMARK    3  A    between atoms: C2_2  and  C22_19 
REMARK       I    between atoms: C4_3  and  N6_5 
REMARK    4  A    between atoms: N6_5  and  C7_6 
REMARK    5  A    between atoms: C12_10  and  C13_11 
ROOT
ATOM      1  C4  ZIN A   1      18.637  -1.746  12.214  0.00  0.00     0.256 C 
ATOM      2  O5  ZIN A   1      17.548  -1.787  11.681  0.00  0.00    -0.271 OA
ATOM      3  N6  ZIN A   1      18.942  -0.729  13.044  0.00  0.00    -0.343 N 
ATOM      4  H30 ZIN A   1      19.813  -0.696  13.470  0.00  0.00     0.163 HD
ENDROOT
BRANCH   3   5
ATOM      5  C7  ZIN A   1      17.960   0.327  13.302  0.00  0.00     0.210 C 
ATOM      6  C20 ZIN A   1      17.429   0.334  14.732  0.00  0.00     0.187 C 
ATOM      7  N11 ZIN A   1      18.299   1.541  14.922  0.00  0.00    -0.292 N 
ATOM      8  S19 ZIN A   1      18.128  -0.944  15.830  0.00  0.00    -0.135 SA
ATOM      9  C9  ZIN A   1      18.584   1.676  13.615  0.00  0.00     0.251 C 
ATOM     10  C12 ZIN A   1      18.706   2.092  16.151  0.00  0.00     0.134 C 
ATOM     11  O10 ZIN A   1      19.125   2.535  12.951  0.00  0.00    -0.271 OA
ATOM     12  C16 ZIN A   1      18.661   1.353  17.255  0.00  0.00     0.055 C 
ATOM     13 Cl17 ZIN A   1      19.249   2.114  18.700  0.00  0.00    -0.086 Cl
ATOM     14  C18 ZIN A   1      18.168  -0.048  17.412  0.00  0.00     0.130 C 
BRANCH  10  15
ATOM     15  C13 ZIN A   1      19.181   3.481  16.214  0.00  0.00     0.228 C 
ATOM     16  O14 ZIN A   1      20.374   3.713  16.359  0.00  0.00    -0.643 OA
ATOM     17  O15 ZIN A   1      18.384   4.404  16.122  0.00  0.00    -0.643 OA
ENDBRANCH  10  15
ENDBRANCH   3   5
BRANCH   1  18
ATOM     18  C2  ZIN A   1      19.647  -2.832  11.950  0.00  0.00     0.342 C 
BRANCH  18  19
ATOM     19  N1  ZIN A   1      20.728  -2.301  11.109  0.00  0.00     0.096 N 
ATOM     20  H28 ZIN A   1      21.023  -1.392  11.431  0.00  0.00     0.314 HD
ATOM     21  H29 ZIN A   1      21.506  -2.942  11.073  0.00  0.00     0.314 HD
ENDBRANCH  18  19
BRANCH  18  22
ATOM     22  C22 ZIN A   1      18.977  -3.980  11.240  0.00  0.00    -0.016 A 
ATOM     23  C27 ZIN A   1      17.994  -4.711  11.882  0.00  0.00     0.010 A 
ATOM     24  C26 ZIN A   1      17.376  -5.761  11.228  0.00  0.00     0.001 A 
ATOM     25  C25 ZIN A   1      17.747  -6.086   9.937  0.00  0.00     0.000 A 
ATOM     26  C24 ZIN A   1      18.733  -5.359   9.297  0.00  0.00     0.001 A 
ATOM     27  C23 ZIN A   1      19.348  -4.306   9.949  0.00  0.00     0.010 A 
ENDBRANCH  18  22
ENDBRANCH   1  18
TORSDOF 5
ENDMDL
MODEL 6
REMARK VINA RESULT:      -7.3      2.872      3.940
REMARK  5 active torsions:
REMARK  status: ('A' for Active; 'I' for Inactive)
REMARK    1  A    between atoms: N1_1  and  C2_2 
REMARK    2  A    between atoms: C2_2  and  C4_3 
REMARK    3  A    between atoms: C2_2  and  C22_19 
REMARK       I    between atoms: C4_3  and  N6_5 
REMARK    4  A    between atoms: N6_5  and  C7_6 
REMARK    5  A    between atoms: C12_10  and  C13_11 
ROOT
ATOM      1  C4  ZIN A   1      19.046  -0.460  12.360  0.00  0.00     0.256 C 
ATOM      2  O5  ZIN A   1      18.086  -0.596  13.089  0.00  0.00    -0.271 OA
ATOM      3  N6  ZIN A   1      19.365  -1.429  11.479  0.00  0.00    -0.343 N 
ATOM      4  H30 ZIN A   1      20.133  -1.320  10.895  0.00  0.00     0.163 HD
ENDROOT
BRANCH   3   5
ATOM      5  C7  ZIN A   1      18.552  -2.645  11.401  0.00  0.00     0.210 C 
ATOM      6  C20 ZIN A   1      17.821  -2.810  10.072  0.00  0.00     0.187 C 
ATOM      7  N11 ZIN A   1      18.848  -3.863   9.775  0.00  0.00    -0.292 N 
ATOM      8  S19 ZIN A   1      18.115  -1.488   8.850  0.00  0.00    -0.135 SA
ATOM      9  C9  ZIN A   1      19.345  -3.885  11.024  0.00  0.00     0.251 C 
ATOM     10  C12 ZIN A   1      19.155  -4.397   8.510  0.00  0.00     0.134 C 
ATOM     11  O10 ZIN A   1      20.120  -4.608  11.614  0.00  0.00    -0.271 OA
ATOM     12  C16 ZIN A   1      18.818  -3.730   7.410  0.00  0.00     0.055 C 
ATOM     13 Cl17 ZIN A   1      19.304  -4.452   5.908  0.00  0.00    -0.086 Cl
ATOM     14  C18 ZIN A   1      18.072  -2.441   7.302  0.00  0.00     0.130 C 
BRANCH  10  15
ATOM     15  C13 ZIN A   1      19.848  -5.688   8.404  0.00  0.00     0.228 C 
ATOM     16  O14 ZIN A   1      19.213  -6.731   8.487  0.00  0.00    -0.643 OA
ATOM     17  O15 ZIN A   1      21.059  -5.720   8.233  0.00  0.00    -0.643 OA
ENDBRANCH  10  15
ENDBRANCH   3   5
BRANCH   1  18
ATOM     18  C2  ZIN A   1      19.882   0.791  12.439  0.00  0.00     0.342 C 
BRANCH  18  19
ATOM     19  N1  ZIN A   1      20.117   1.134  13.848  0.00  0.00     0.096 N 
ATOM     20  H28 ZIN A   1      20.918   0.640  14.211  0.00  0.00     0.314 HD
ATOM     21  H29 ZIN A   1      20.224   2.130  13.964  0.00  0.00     0.314 HD
ENDBRANCH  18  19
BRANCH  18  22
ATOM     22  C22 ZIN A   1      19.156   1.925  11.761  0.00  0.00    -0.016 A 
ATOM     23  C27 ZIN A   1      18.420   2.822  12.512  0.00  0.00     0.010 A 
ATOM     24  C26 ZIN A   1      17.758   3.865  11.889  0.00  0.00     0.001 A 
ATOM     25  C25 ZIN A   1      17.826   4.004  10.515  0.00  0.00     0.000 A 
ATOM     26  C24 ZIN A   1      18.557   3.103   9.764  0.00  0.00     0.001 A 
ATOM     27  C23 ZIN A   1      19.222   2.064  10.387  0.00  0.00     0.010 A 
ENDBRANCH  18  22
ENDBRANCH   1  18
TORSDOF 5
ENDMDL
MODEL 7
REMARK VINA RESULT:      -7.2      3.738      4.799
REMARK  5 active torsions:
REMARK  status: ('A' for Active; 'I' for Inactive)
REMARK    1  A    between atoms: N1_1  and  C2_2 
REMARK    2  A    between atoms: C2_2  and  C4_3 
REMARK    3  A    between atoms: C2_2  and  C22_19 
REMARK       I    between atoms: C4_3  and  N6_5 
REMARK    4  A    between atoms: N6_5  and  C7_6 
REMARK    5  A    between atoms: C12_10  and  C13_11 
ROOT
ATOM      1  C4  ZIN A   1      20.045  -2.767  10.891  0.00  0.00     0.256 C 
ATOM      2  O5  ZIN A   1      20.351  -3.273  11.950  0.00  0.00    -0.271 OA
ATOM      3  N6  ZIN A   1      19.701  -3.547   9.847  0.00  0.00    -0.343 N 
ATOM      4  H30 ZIN A   1      19.456  -3.142   9.000  0.00  0.00     0.163 HD
ENDROOT
BRANCH   3   5
ATOM      5  C7  ZIN A   1      19.696  -5.005   9.991  0.00  0.00     0.210 C 
ATOM      6  C20 ZIN A   1      18.297  -5.608  10.067  0.00  0.00     0.187 C 
ATOM      7  N11 ZIN A   1      18.549  -6.070   8.662  0.00  0.00    -0.292 N 
ATOM      8  S19 ZIN A   1      16.924  -4.414   9.947  0.00  0.00    -0.135 SA
ATOM      9  C9  ZIN A   1      19.854  -5.747   8.674  0.00  0.00     0.251 C 
ATOM     10  C12 ZIN A   1      17.579  -6.499   7.738  0.00  0.00     0.134 C 
ATOM     11  O10 ZIN A   1      20.787  -5.963   7.929  0.00  0.00    -0.271 OA
ATOM     12  C16 ZIN A   1      16.304  -6.169   7.914  0.00  0.00     0.055 C 
ATOM     13 Cl17 ZIN A   1      15.207  -6.698   6.677  0.00  0.00    -0.086 Cl
ATOM     14  C18 ZIN A   1      15.694  -5.401   9.041  0.00  0.00     0.130 C 
BRANCH  10  15
ATOM     15  C13 ZIN A   1      17.975  -7.311   6.579  0.00  0.00     0.228 C 
ATOM     16  O14 ZIN A   1      17.885  -8.531   6.628  0.00  0.00    -0.643 OA
ATOM     17  O15 ZIN A   1      18.396  -6.768   5.567  0.00  0.00    -0.643 OA
ENDBRANCH  10  15
ENDBRANCH   3   5
BRANCH   1  18
ATOM     18  C2  ZIN A   1      20.049  -1.268  10.744  0.00  0.00     0.342 C 
BRANCH  18  19
ATOM     19  N1  ZIN A   1      21.408  -0.757  10.969  0.00  0.00     0.096 N 
ATOM     20  H28 ZIN A   1      21.636  -0.032  10.305  0.00  0.00     0.314 HD
ATOM     21  H29 ZIN A   1      21.518  -0.428  11.916  0.00  0.00     0.314 HD
ENDBRANCH  18  19
BRANCH  18  22
ATOM     22  C22 ZIN A   1      19.110  -0.661  11.754  0.00  0.00    -0.016 A 
ATOM     23  C27 ZIN A   1      17.748  -0.656  11.518  0.00  0.00     0.010 A 
ATOM     24  C26 ZIN A   1      16.887  -0.103  12.448  0.00  0.00     0.001 A 
ATOM     25  C25 ZIN A   1      17.389   0.453  13.609  0.00  0.00     0.000 A 
ATOM     26  C24 ZIN A   1      18.751   0.453  13.843  0.00  0.00     0.001 A 
ATOM     27  C23 ZIN A   1      19.611  -0.104  12.916  0.00  0.00     0.010 A 
ENDBRANCH  18  22
ENDBRANCH   1  18
TORSDOF 5
ENDMDL
MODEL 8
REMARK VINA RESULT:      -7.2      2.568      3.634
REMARK  5 active torsions:
REMARK  status: ('A' for Active; 'I' for Inactive)
REMARK    1  A    between atoms: N1_1  and  C2_2 
REMARK    2  A    between atoms: C2_2  and  C4_3 
REMARK    3  A    between atoms: C2_2  and  C22_19 
REMARK       I    between atoms: C4_3  and  N6_5 
REMARK    4  A    between atoms: N6_5  and  C7_6 
REMARK    5  A    between atoms: C12_10  and  C13_11 
ROOT
ATOM      1  C4  ZIN A   1      18.478   0.460  11.481  0.00  0.00     0.256 C 
ATOM      2  O5  ZIN A   1      17.416   0.271  12.036  0.00  0.00    -0.271 OA
ATOM      3  N6  ZIN A   1      18.891  -0.381  10.512  0.00  0.00    -0.343 N 
ATOM      4  H30 ZIN A   1      19.741  -0.229  10.069  0.00  0.00     0.163 HD
ENDROOT
BRANCH   3   5
ATOM      5  C7  ZIN A   1      18.058  -1.523  10.128  0.00  0.00     0.210 C 
ATOM      6  C20 ZIN A   1      17.404  -1.371   8.759  0.00  0.00     0.187 C 
ATOM      7  N11 ZIN A   1      18.423  -2.370   8.294  0.00  0.00    -0.292 N 
ATOM      8  S19 ZIN A   1      17.798   0.173   7.872  0.00  0.00    -0.135 SA
ATOM      9  C9  ZIN A   1      18.845  -2.678   9.533  0.00  0.00     0.251 C 
ATOM     10  C12 ZIN A   1      18.792  -2.627   6.961  0.00  0.00     0.134 C 
ATOM     11  O10 ZIN A   1      19.569  -3.538   9.991  0.00  0.00    -0.271 OA
ATOM     12  C16 ZIN A   1      18.536  -1.727   6.017  0.00  0.00     0.055 C 
ATOM     13 Cl17 ZIN A   1      19.094  -2.123   4.422  0.00  0.00    -0.086 Cl
ATOM     14  C18 ZIN A   1      17.826  -0.420   6.153  0.00  0.00     0.130 C 
BRANCH  10  15
ATOM     15  C13 ZIN A   1      19.462  -3.887   6.613  0.00  0.00     0.228 C 
ATOM     16  O14 ZIN A   1      20.683  -3.961   6.649  0.00  0.00    -0.643 OA
ATOM     17  O15 ZIN A   1      18.799  -4.863   6.288  0.00  0.00    -0.643 OA
ENDBRANCH  10  15
ENDBRANCH   3   5
BRANCH   1  18
ATOM     18  C2  ZIN A   1      19.335   1.635  11.876  0.00  0.00     0.342 C 
BRANCH  18  19
ATOM     19  N1  ZIN A   1      19.654   1.550  13.307  0.00  0.00     0.096 N 
ATOM     20  H28 ZIN A   1      19.048   0.892  13.774  0.00  0.00     0.314 HD
ATOM     21  H29 ZIN A   1      20.623   1.311  13.448  0.00  0.00     0.314 HD
ENDBRANCH  18  19
BRANCH  18  22
ATOM     22  C22 ZIN A   1      18.588   2.916  11.602  0.00  0.00    -0.016 A 
ATOM     23  C27 ZIN A   1      18.413   3.350  10.302  0.00  0.00     0.010 A 
ATOM     24  C26 ZIN A   1      17.724   4.522  10.051  0.00  0.00     0.001 A 
ATOM     25  C25 ZIN A   1      17.218   5.264  11.102  0.00  0.00     0.000 A 
ATOM     26  C24 ZIN A   1      17.398   4.833  12.403  0.00  0.00     0.001 A 
ATOM     27  C23 ZIN A   1      18.083   3.658  12.653  0.00  0.00     0.010 A 
ENDBRANCH  18  22
ENDBRANCH   1  18
TORSDOF 5
ENDMDL
MODEL 9
REMARK VINA RESULT:      -7.1      3.711      6.751
REMARK  5 active torsions:
REMARK  status: ('A' for Active; 'I' for Inactive)
REMARK    1  A    between atoms: N1_1  and  C2_2 
REMARK    2  A    between atoms: C2_2  and  C4_3 
REMARK    3  A    between atoms: C2_2  and  C22_19 
REMARK       I    between atoms: C4_3  and  N6_5 
REMARK    4  A    between atoms: N6_5  and  C7_6 
REMARK    5  A    between atoms: C12_10  and  C13_11 
ROOT
ATOM      1  C4  ZIN A   1      18.121  -3.103  11.411  0.00  0.00     0.256 C 
ATOM      2  O5  ZIN A   1      16.997  -3.545  11.304  0.00  0.00    -0.271 OA
ATOM      3  N6  ZIN A   1      18.308  -1.817  11.770  0.00  0.00    -0.343 N 
ATOM      4  H30 ZIN A   1      19.207  -1.463  11.856  0.00  0.00     0.163 HD
ENDROOT
BRANCH   3   5
ATOM      5  C7  ZIN A   1      17.153  -0.954  12.030  0.00  0.00     0.210 C 
ATOM      6  C20 ZIN A   1      17.410   0.110  13.092  0.00  0.00     0.187 C 
ATOM      7  N11 ZIN A   1      17.465   1.073  11.943  0.00  0.00    -0.292 N 
ATOM      8  S19 ZIN A   1      19.089   0.111  13.806  0.00  0.00    -0.135 SA
ATOM      9  C9  ZIN A   1      17.011   0.189  11.039  0.00  0.00     0.251 C 
ATOM     10  C12 ZIN A   1      18.009   2.371  11.967  0.00  0.00     0.134 C 
ATOM     11  O10 ZIN A   1      16.637   0.272   9.887  0.00  0.00    -0.271 OA
ATOM     12  C16 ZIN A   1      18.869   2.712  12.921  0.00  0.00     0.055 C 
ATOM     13 Cl17 ZIN A   1      19.526   4.315  12.812  0.00  0.00    -0.086 Cl
ATOM     14  C18 ZIN A   1      19.343   1.891  14.076  0.00  0.00     0.130 C 
BRANCH  10  15
ATOM     15  C13 ZIN A   1      17.628   3.347  10.937  0.00  0.00     0.228 C 
ATOM     16  O14 ZIN A   1      18.275   3.427   9.901  0.00  0.00    -0.643 OA
ATOM     17  O15 ZIN A   1      16.665   4.080  11.116  0.00  0.00    -0.643 OA
ENDBRANCH  10  15
ENDBRANCH   3   5
BRANCH   1  18
ATOM     18  C2  ZIN A   1      19.308  -3.991  11.145  0.00  0.00     0.342 C 
BRANCH  18  19
ATOM     19  N1  ZIN A   1      20.542  -3.198  11.228  0.00  0.00     0.096 N 
ATOM     20  H28 ZIN A   1      20.618  -2.565  10.446  0.00  0.00     0.314 HD
ATOM     21  H29 ZIN A   1      20.592  -2.699  12.103  0.00  0.00     0.314 HD
ENDBRANCH  18  19
BRANCH  18  22
ATOM     22  C22 ZIN A   1      19.189  -4.591   9.767  0.00  0.00    -0.016 A 
ATOM     23  C27 ZIN A   1      19.473  -3.824   8.652  0.00  0.00     0.010 A 
ATOM     24  C26 ZIN A   1      19.368  -4.377   7.389  0.00  0.00     0.001 A 
ATOM     25  C25 ZIN A   1      18.970  -5.693   7.241  0.00  0.00     0.000 A 
ATOM     26  C24 ZIN A   1      18.681  -6.457   8.356  0.00  0.00     0.001 A 
ATOM     27  C23 ZIN A   1      18.791  -5.906   9.619  0.00  0.00     0.010 A 
ENDBRANCH  18  22
ENDBRANCH   1  18
TORSDOF 5
ENDMDL
