MODEL 1
REMARK VINA RESULT:      -6.5      0.000      0.000
REMARK  4 active torsions:
REMARK  status: ('A' for Active; 'I' for Inactive)
REMARK    1  A    between atoms: O2_2  and  C3_3 
REMARK    2  A    between atoms: C3_3  and  C5_5 
REMARK    3  A    between atoms: C5_5  and  C7_6 
REMARK    4  A    between atoms: C5_5  and  C13_12 
ROOT
ATOM      1  C5  ZIN A   1      18.150   0.420  12.255  0.00  0.00     0.149 C 
ENDROOT
BRANCH   1   2
ATOM      2  C3  ZIN A   1      16.968  -0.445  11.904  0.00  0.00     0.269 C 
ATOM      3  O4  ZIN A   1      15.875   0.053  11.764  0.00  0.00    -0.264 OA
BRANCH   2   4
ATOM      4  O2  ZIN A   1      17.127  -1.768  11.748  0.00  0.00    -0.326 OA
ATOM      5  C1  ZIN A   1      18.471  -2.241  11.466  0.00  0.00     0.213 C 
ENDBRANCH   2   4
ENDBRANCH   1   2
BRANCH   1   6
ATOM      6  C7  ZIN A   1      18.168   1.634  11.362  0.00  0.00    -0.043 A 
ATOM      7  C12 ZIN A   1      17.586   2.814  11.787  0.00  0.00     0.008 A 
ATOM      8  C11 ZIN A   1      17.607   3.929  10.969  0.00  0.00     0.001 A 
ATOM      9  C10 ZIN A   1      18.200   3.861   9.723  0.00  0.00     0.000 A 
ATOM     10  C9  ZIN A   1      18.777   2.679   9.295  0.00  0.00     0.001 A 
ATOM     11  C8  ZIN A   1      18.760   1.566  10.115  0.00  0.00     0.008 A 
ENDBRANCH   1   6
BRANCH   1  12
ATOM     12  C13 ZIN A   1      18.043   0.864  13.716  0.00  0.00     0.203 C 
ATOM     13  N19 ZIN A   1      19.303   1.490  14.131  0.00  0.00    -0.070 N 
ATOM     14  C18 ZIN A   1      19.183   1.987  15.507  0.00  0.00     0.232 C 
ATOM     15  H20 ZIN A   1      20.048   0.809  14.084  0.00  0.00     0.277 HD
ATOM     16  H21 ZIN A   1      19.513   2.259  13.513  0.00  0.00     0.277 HD
ATOM     17  C17 ZIN A   1      18.943   0.813  16.458  0.00  0.00     0.027 C 
ATOM     18  C16 ZIN A   1      17.651   0.095  16.057  0.00  0.00     0.004 C 
ATOM     19  C15 ZIN A   1      17.758  -0.354  14.598  0.00  0.00     0.034 C 
ENDBRANCH   1  12
TORSDOF 4
ENDMDL
MODEL 2
REMARK VINA RESULT:      -6.4      2.976      4.133
REMARK  4 active torsions:
REMARK  status: ('A' for Active; 'I' for Inactive)
REMARK    1  A    between atoms: O2_2  and  C3_3 
REMARK    2  A    between atoms: C3_3  and  C5_5 
REMARK    3  A    between atoms: C5_5  and  C7_6 
REMARK    4  A    between atoms: C5_5  and  C13_12 
ROOT
ATOM      1  C5  ZIN A   1      17.480   0.743  10.609  0.00  0.00     0.149 C 
ENDROOT
BRANCH   1   2
ATOM      2  C3  ZIN A   1      17.820   2.086  11.201  0.00  0.00     0.269 C 
ATOM      3  O4  ZIN A   1      17.089   3.031  11.016  0.00  0.00    -0.264 OA
BRANCH   2   4
ATOM      4  O2  ZIN A   1      18.936   2.234  11.932  0.00  0.00    -0.326 OA
ATOM      5  C1  ZIN A   1      19.672   3.476  11.768  0.00  0.00     0.213 C 
ENDBRANCH   2   4
ENDBRANCH   1   2
BRANCH   1   6
ATOM      6  C7  ZIN A   1      17.845   0.730   9.148  0.00  0.00    -0.043 A 
ATOM      7  C12 ZIN A   1      18.824   1.583   8.672  0.00  0.00     0.008 A 
ATOM      8  C11 ZIN A   1      19.162   1.568   7.331  0.00  0.00     0.001 A 
ATOM      9  C10 ZIN A   1      18.516   0.707   6.465  0.00  0.00     0.000 A 
ATOM     10  C9  ZIN A   1      17.533  -0.142   6.939  0.00  0.00     0.001 A 
ATOM     11  C8  ZIN A   1      17.198  -0.130   8.281  0.00  0.00     0.008 A 
ENDBRANCH   1   6
BRANCH   1  12
ATOM     12  C13 ZIN A   1      18.264  -0.350  11.340  0.00  0.00     0.203 C 
ATOM     13  N19 ZIN A   1      19.497  -0.644  10.601  0.00  0.00    -0.070 N 
ATOM     14  C18 ZIN A   1      20.292  -1.637  11.334  0.00  0.00     0.232 C 
ATOM     15  H20 ZIN A   1      19.264  -1.009   9.689  0.00  0.00     0.277 HD
ATOM     16  H21 ZIN A   1      20.033   0.203  10.496  0.00  0.00     0.277 HD
ATOM     17  C17 ZIN A   1      19.513  -2.951  11.427  0.00  0.00     0.027 C 
ATOM     18  C16 ZIN A   1      18.194  -2.705  12.165  0.00  0.00     0.004 C 
ATOM     19  C15 ZIN A   1      17.407  -1.614  11.433  0.00  0.00     0.034 C 
ENDBRANCH   1  12
TORSDOF 4
ENDMDL
MODEL 3
REMARK VINA RESULT:      -6.4      2.977      4.164
REMARK  4 active torsions:
REMARK  status: ('A' for Active; 'I' for Inactive)
REMARK    1  A    between atoms: O2_2  and  C3_3 
REMARK    2  A    between atoms: C3_3  and  C5_5 
REMARK    3  A    between atoms: C5_5  and  C7_6 
REMARK    4  A    between atoms: C5_5  and  C13_12 
ROOT
ATOM      1  C5  ZIN A   1      17.486   0.753  10.606  0.00  0.00     0.149 C 
ENDROOT
BRANCH   1   2
ATOM      2  C3  ZIN A   1      17.830   2.097  11.194  0.00  0.00     0.269 C 
ATOM      3  O4  ZIN A   1      17.085   3.035  11.034  0.00  0.00    -0.264 OA
BRANCH   2   4
ATOM      4  O2  ZIN A   1      18.964   2.252  11.895  0.00  0.00    -0.326 OA
ATOM      5  C1  ZIN A   1      19.627   3.541  11.799  0.00  0.00     0.213 C 
ENDBRANCH   2   4
ENDBRANCH   1   2
BRANCH   1   6
ATOM      6  C7  ZIN A   1      17.849   0.737   9.144  0.00  0.00    -0.043 A 
ATOM      7  C12 ZIN A   1      17.202  -0.127   8.280  0.00  0.00     0.008 A 
ATOM      8  C11 ZIN A   1      17.532  -0.138   6.937  0.00  0.00     0.001 A 
ATOM      9  C10 ZIN A   1      18.514   0.708   6.459  0.00  0.00     0.000 A 
ATOM     10  C9  ZIN A   1      19.165   1.569   7.324  0.00  0.00     0.001 A 
ATOM     11  C8  ZIN A   1      18.832   1.584   8.666  0.00  0.00     0.008 A 
ENDBRANCH   1   6
BRANCH   1  12
ATOM     12  C13 ZIN A   1      18.270  -0.340  11.337  0.00  0.00     0.203 C 
ATOM     13  N19 ZIN A   1      19.499  -0.641  10.594  0.00  0.00    -0.070 N 
ATOM     14  C18 ZIN A   1      20.294  -1.633  11.327  0.00  0.00     0.232 C 
ATOM     15  H20 ZIN A   1      19.261  -1.008   9.684  0.00  0.00     0.277 HD
ATOM     16  H21 ZIN A   1      20.037   0.205  10.483  0.00  0.00     0.277 HD
ATOM     17  C17 ZIN A   1      19.511  -2.944  11.428  0.00  0.00     0.027 C 
ATOM     18  C16 ZIN A   1      18.196  -2.691  12.171  0.00  0.00     0.004 C 
ATOM     19  C15 ZIN A   1      17.409  -1.601  11.439  0.00  0.00     0.034 C 
ENDBRANCH   1  12
TORSDOF 4
ENDMDL
MODEL 4
REMARK VINA RESULT:      -6.3      2.420      3.576
REMARK  4 active torsions:
REMARK  status: ('A' for Active; 'I' for Inactive)
REMARK    1  A    between atoms: O2_2  and  C3_3 
REMARK    2  A    between atoms: C3_3  and  C5_5 
REMARK    3  A    between atoms: C5_5  and  C7_6 
REMARK    4  A    between atoms: C5_5  and  C13_12 
ROOT
ATOM      1  C5  ZIN A   1      17.377   1.906  11.370  0.00  0.00     0.149 C 
ENDROOT
BRANCH   1   2
ATOM      2  C3  ZIN A   1      17.587   3.393  11.486  0.00  0.00     0.269 C 
ATOM      3  O4  ZIN A   1      16.729   4.156  11.108  0.00  0.00    -0.264 OA
BRANCH   2   4
ATOM      4  O2  ZIN A   1      18.727   3.871  12.009  0.00  0.00    -0.326 OA
ATOM      5  C1  ZIN A   1      18.605   4.783  13.133  0.00  0.00     0.213 C 
ENDBRANCH   2   4
ENDBRANCH   1   2
BRANCH   1   6
ATOM      6  C7  ZIN A   1      17.866   1.433  10.026  0.00  0.00    -0.043 A 
ATOM      7  C12 ZIN A   1      18.800   2.176   9.329  0.00  0.00     0.008 A 
ATOM      8  C11 ZIN A   1      19.252   1.739   8.097  0.00  0.00     0.001 A 
ATOM      9  C10 ZIN A   1      18.764   0.564   7.559  0.00  0.00     0.000 A 
ATOM     10  C9  ZIN A   1      17.825  -0.177   8.254  0.00  0.00     0.001 A 
ATOM     11  C8  ZIN A   1      17.377   0.258   9.487  0.00  0.00     0.008 A 
ENDBRANCH   1   6
BRANCH   1  12
ATOM     12  C13 ZIN A   1      18.158   1.192  12.477  0.00  0.00     0.203 C 
ATOM     13  N19 ZIN A   1      19.501   0.856  11.989  0.00  0.00    -0.070 N 
ATOM     14  C18 ZIN A   1      20.282   0.239  13.068  0.00  0.00     0.232 C 
ATOM     15  H20 ZIN A   1      19.426   0.210  11.217  0.00  0.00     0.277 HD
ATOM     16  H21 ZIN A   1      19.962   1.697  11.678  0.00  0.00     0.277 HD
ATOM     17  C17 ZIN A   1      19.627  -1.078  13.488  0.00  0.00     0.027 C 
ATOM     18  C16 ZIN A   1      18.204  -0.799  13.981  0.00  0.00     0.004 C 
ATOM     19  C15 ZIN A   1      17.420  -0.089  12.874  0.00  0.00     0.034 C 
ENDBRANCH   1  12
TORSDOF 4
ENDMDL
MODEL 5
REMARK VINA RESULT:      -6.2      2.033      3.491
REMARK  4 active torsions:
REMARK  status: ('A' for Active; 'I' for Inactive)
REMARK    1  A    between atoms: O2_2  and  C3_3 
REMARK    2  A    between atoms: C3_3  and  C5_5 
REMARK    3  A    between atoms: C5_5  and  C7_6 
REMARK    4  A    between atoms: C5_5  and  C13_12 
ROOT
ATOM      1  C5  ZIN A   1      18.313   0.360  10.790  0.00  0.00     0.149 C 
ENDROOT
BRANCH   1   2
ATOM      2  C3  ZIN A   1      17.060  -0.292  11.312  0.00  0.00     0.269 C 
ATOM      3  O4  ZIN A   1      16.005   0.295  11.258  0.00  0.00    -0.264 OA
BRANCH   2   4
ATOM      4  O2  ZIN A   1      17.115  -1.526  11.838  0.00  0.00    -0.326 OA
ATOM      5  C1  ZIN A   1      18.399  -1.966  12.354  0.00  0.00     0.213 C 
ENDBRANCH   2   4
ENDBRANCH   1   2
BRANCH   1   6
ATOM      6  C7  ZIN A   1      18.253   0.433   9.287  0.00  0.00    -0.043 A 
ATOM      7  C12 ZIN A   1      17.278  -0.264   8.599  0.00  0.00     0.008 A 
ATOM      8  C11 ZIN A   1      17.220  -0.193   7.219  0.00  0.00     0.001 A 
ATOM      9  C10 ZIN A   1      18.142   0.568   6.527  0.00  0.00     0.000 A 
ATOM     10  C9  ZIN A   1      19.122   1.262   7.214  0.00  0.00     0.001 A 
ATOM     11  C8  ZIN A   1      19.176   1.194   8.594  0.00  0.00     0.008 A 
ENDBRANCH   1   6
BRANCH   1  12
ATOM     12  C13 ZIN A   1      18.430   1.774  11.365  0.00  0.00     0.203 C 
ATOM     13  N19 ZIN A   1      17.860   1.802  12.717  0.00  0.00    -0.070 N 
ATOM     14  C18 ZIN A   1      18.037   3.135  13.305  0.00  0.00     0.232 C 
ATOM     15  H20 ZIN A   1      16.875   1.583  12.671  0.00  0.00     0.277 HD
ATOM     16  H21 ZIN A   1      18.329   1.117  13.290  0.00  0.00     0.277 HD
ATOM     17  C17 ZIN A   1      17.261   4.166  12.481  0.00  0.00     0.027 C 
ATOM     18  C16 ZIN A   1      17.790   4.165  11.044  0.00  0.00     0.004 C 
ATOM     19  C15 ZIN A   1      17.670   2.753  10.466  0.00  0.00     0.034 C 
ENDBRANCH   1  12
TORSDOF 4
ENDMDL
MODEL 6
REMARK VINA RESULT:      -6.2      1.653      4.350
REMARK  4 active torsions:
REMARK  status: ('A' for Active; 'I' for Inactive)
REMARK    1  A    between atoms: O2_2  and  C3_3 
REMARK    2  A    between atoms: C3_3  and  C5_5 
REMARK    3  A    between atoms: C5_5  and  C7_6 
REMARK    4  A    between atoms: C5_5  and  C13_12 
ROOT
ATOM      1  C5  ZIN A   1      17.408  -1.236  12.701  0.00  0.00     0.149 C 
ENDROOT
BRANCH   1   2
ATOM      2  C3  ZIN A   1      17.154  -0.206  11.632  0.00  0.00     0.269 C 
ATOM      3  O4  ZIN A   1      16.022   0.129  11.372  0.00  0.00    -0.264 OA
BRANCH   2   4
ATOM      4  O2  ZIN A   1      18.185   0.340  10.967  0.00  0.00    -0.326 OA
ATOM      5  C1  ZIN A   1      17.889   1.474  10.110  0.00  0.00     0.213 C 
ENDBRANCH   2   4
ENDBRANCH   1   2
BRANCH   1   6
ATOM      6  C7  ZIN A   1      18.139  -2.410  12.104  0.00  0.00    -0.043 A 
ATOM      7  C12 ZIN A   1      17.431  -3.427  11.492  0.00  0.00     0.008 A 
ATOM      8  C11 ZIN A   1      18.103  -4.503  10.940  0.00  0.00     0.001 A 
ATOM      9  C10 ZIN A   1      19.481  -4.566  11.008  0.00  0.00     0.000 A 
ATOM     10  C9  ZIN A   1      20.190  -3.551  11.627  0.00  0.00     0.001 A 
ATOM     11  C8  ZIN A   1      19.518  -2.474  12.174  0.00  0.00     0.008 A 
ENDBRANCH   1   6
BRANCH   1  12
ATOM     12  C13 ZIN A   1      18.259  -0.618  13.813  0.00  0.00     0.203 C 
ATOM     13  N19 ZIN A   1      18.220  -1.483  14.998  0.00  0.00    -0.070 N 
ATOM     14  C18 ZIN A   1      19.094  -0.937  16.043  0.00  0.00     0.232 C 
ATOM     15  H20 ZIN A   1      17.273  -1.534  15.346  0.00  0.00     0.277 HD
ATOM     16  H21 ZIN A   1      18.534  -2.407  14.746  0.00  0.00     0.277 HD
ATOM     17  C17 ZIN A   1      18.573   0.433  16.484  0.00  0.00     0.027 C 
ATOM     18  C16 ZIN A   1      18.561   1.380  15.280  0.00  0.00     0.004 C 
ATOM     19  C15 ZIN A   1      17.707   0.765  14.168  0.00  0.00     0.034 C 
ENDBRANCH   1  12
TORSDOF 4
ENDMDL
MODEL 7
REMARK VINA RESULT:      -6.2      3.477      5.049
REMARK  4 active torsions:
REMARK  status: ('A' for Active; 'I' for Inactive)
REMARK    1  A    between atoms: O2_2  and  C3_3 
REMARK    2  A    between atoms: C3_3  and  C5_5 
REMARK    3  A    between atoms: C5_5  and  C7_6 
REMARK    4  A    between atoms: C5_5  and  C13_12 
ROOT
ATOM      1  C5  ZIN A   1      19.392  -0.744   8.612  0.00  0.00     0.149 C 
ENDROOT
BRANCH   1   2
ATOM      2  C3  ZIN A   1      18.724  -0.961   7.279  0.00  0.00     0.269 C 
ATOM      3  O4  ZIN A   1      17.527  -0.829   7.174  0.00  0.00    -0.264 OA
BRANCH   2   4
ATOM      4  O2  ZIN A   1      19.459  -1.301   6.208  0.00  0.00    -0.326 OA
ATOM      5  C1  ZIN A   1      19.336  -0.460   5.030  0.00  0.00     0.213 C 
ENDBRANCH   2   4
ENDBRANCH   1   2
BRANCH   1   6
ATOM      6  C7  ZIN A   1      18.881   0.533   9.228  0.00  0.00    -0.043 A 
ATOM      7  C12 ZIN A   1      18.018   0.483  10.307  0.00  0.00     0.008 A 
ATOM      8  C11 ZIN A   1      17.553   1.655  10.875  0.00  0.00     0.001 A 
ATOM      9  C10 ZIN A   1      17.943   2.876  10.359  0.00  0.00     0.000 A 
ATOM     10  C9  ZIN A   1      18.802   2.926   9.276  0.00  0.00     0.001 A 
ATOM     11  C8  ZIN A   1      19.270   1.754   8.711  0.00  0.00     0.008 A 
ENDBRANCH   1   6
BRANCH   1  12
ATOM     12  C13 ZIN A   1      19.075  -1.920   9.539  0.00  0.00     0.203 C 
ATOM     13  N19 ZIN A   1      20.143  -2.059  10.535  0.00  0.00    -0.070 N 
ATOM     14  C18 ZIN A   1      19.811  -3.136  11.475  0.00  0.00     0.232 C 
ATOM     15  H20 ZIN A   1      21.012  -2.279  10.068  0.00  0.00     0.277 HD
ATOM     16  H21 ZIN A   1      20.244  -1.192  11.040  0.00  0.00     0.277 HD
ATOM     17  C17 ZIN A   1      19.734  -4.467  10.725  0.00  0.00     0.027 C 
ATOM     18  C16 ZIN A   1      18.652  -4.377   9.645  0.00  0.00     0.004 C 
ATOM     19  C15 ZIN A   1      18.970  -3.204   8.714  0.00  0.00     0.034 C 
ENDBRANCH   1  12
TORSDOF 4
ENDMDL
MODEL 8
REMARK VINA RESULT:      -6.2      0.770      1.392
REMARK  4 active torsions:
REMARK  status: ('A' for Active; 'I' for Inactive)
REMARK    1  A    between atoms: O2_2  and  C3_3 
REMARK    2  A    between atoms: C3_3  and  C5_5 
REMARK    3  A    between atoms: C5_5  and  C7_6 
REMARK    4  A    between atoms: C5_5  and  C13_12 
ROOT
ATOM      1  C5  ZIN A   1      18.728  -0.014  12.587  0.00  0.00     0.149 C 
ENDROOT
BRANCH   1   2
ATOM      2  C3  ZIN A   1      17.790  -1.128  12.201  0.00  0.00     0.269 C 
ATOM      3  O4  ZIN A   1      16.641  -0.880  11.920  0.00  0.00    -0.264 OA
BRANCH   2   4
ATOM      4  O2  ZIN A   1      18.231  -2.395  12.171  0.00  0.00    -0.326 OA
ATOM      5  C1  ZIN A   1      19.263  -2.711  11.199  0.00  0.00     0.213 C 
ENDBRANCH   2   4
ENDBRANCH   1   2
BRANCH   1   6
ATOM      6  C7  ZIN A   1      18.600   1.116  11.599  0.00  0.00    -0.043 A 
ATOM      7  C12 ZIN A   1      19.329   1.094  10.425  0.00  0.00     0.008 A 
ATOM      8  C11 ZIN A   1      19.208   2.128   9.515  0.00  0.00     0.001 A 
ATOM      9  C10 ZIN A   1      18.365   3.190   9.784  0.00  0.00     0.000 A 
ATOM     10  C9  ZIN A   1      17.640   3.215  10.961  0.00  0.00     0.001 A 
ATOM     11  C8  ZIN A   1      17.758   2.179  11.868  0.00  0.00     0.008 A 
ENDBRANCH   1   6
BRANCH   1  12
ATOM     12  C13 ZIN A   1      18.371   0.492  13.988  0.00  0.00     0.203 C 
ATOM     13  N19 ZIN A   1      19.487   1.281  14.522  0.00  0.00    -0.070 N 
ATOM     14  C18 ZIN A   1      19.124   1.833  15.833  0.00  0.00     0.232 C 
ATOM     15  H20 ZIN A   1      20.300   0.689  14.621  0.00  0.00     0.277 HD
ATOM     16  H21 ZIN A   1      19.697   2.035  13.887  0.00  0.00     0.277 HD
ATOM     17  C17 ZIN A   1      18.881   0.691  16.822  0.00  0.00     0.027 C 
ATOM     18  C16 ZIN A   1      17.742  -0.192  16.304  0.00  0.00     0.004 C 
ATOM     19  C15 ZIN A   1      18.099  -0.702  14.905  0.00  0.00     0.034 C 
ENDBRANCH   1  12
TORSDOF 4
ENDMDL
MODEL 9
REMARK VINA RESULT:      -6.2      2.428      4.175
REMARK  4 active torsions:
REMARK  status: ('A' for Active; 'I' for Inactive)
REMARK    1  A    between atoms: O2_2  and  C3_3 
REMARK    2  A    between atoms: C3_3  and  C5_5 
REMARK    3  A    between atoms: C5_5  and  C7_6 
REMARK    4  A    between atoms: C5_5  and  C13_12 
ROOT
ATOM      1  C5  ZIN A   1      19.237   2.015  10.649  0.00  0.00     0.149 C 
ENDROOT
BRANCH   1   2
ATOM      2  C3  ZIN A   1      19.586   0.930  11.634  0.00  0.00     0.269 C 
ATOM      3  O4  ZIN A   1      20.744   0.669  11.860  0.00  0.00    -0.264 OA
BRANCH   2   4
ATOM      4  O2  ZIN A   1      18.611   0.252  12.260  0.00  0.00    -0.326 OA
ATOM      5  C1  ZIN A   1      18.855  -0.129  13.640  0.00  0.00     0.213 C 
ENDBRANCH   2   4
ENDBRANCH   1   2
BRANCH   1   6
ATOM      6  C7  ZIN A   1      18.771   1.392   9.359  0.00  0.00    -0.043 A 
ATOM      7  C12 ZIN A   1      19.397   1.713   8.170  0.00  0.00     0.008 A 
ATOM      8  C11 ZIN A   1      18.972   1.137   6.986  0.00  0.00     0.001 A 
ATOM      9  C10 ZIN A   1      17.915   0.247   6.991  0.00  0.00     0.000 A 
ATOM     10  C9  ZIN A   1      17.284  -0.070   8.180  0.00  0.00     0.001 A 
ATOM     11  C8  ZIN A   1      17.712   0.502   9.364  0.00  0.00     0.008 A 
ENDBRANCH   1   6
BRANCH   1  12
ATOM     12  C13 ZIN A   1      18.119   2.888  11.226  0.00  0.00     0.203 C 
ATOM     13  N19 ZIN A   1      17.813   3.974  10.288  0.00  0.00    -0.070 N 
ATOM     14  C18 ZIN A   1      16.691   4.771  10.798  0.00  0.00     0.232 C 
ATOM     15  H20 ZIN A   1      18.624   4.566  10.182  0.00  0.00     0.277 HD
ATOM     16  H21 ZIN A   1      17.566   3.581   9.392  0.00  0.00     0.277 HD
ATOM     17  C17 ZIN A   1      17.090   5.433  12.119  0.00  0.00     0.027 C 
ATOM     18  C16 ZIN A   1      17.453   4.348  13.137  0.00  0.00     0.004 C 
ATOM     19  C15 ZIN A   1      18.573   3.477  12.564  0.00  0.00     0.034 C 
ENDBRANCH   1  12
TORSDOF 4
ENDMDL
