MODEL 1
REMARK VINA RESULT:      -9.2      0.000      0.000
REMARK  7 active torsions:
REMARK  status: ('A' for Active; 'I' for Inactive)
REMARK    1  A    between atoms: C2_2  and  C4_3 
REMARK    2  A    between atoms: C2_2  and  C9_8 
REMARK    3  A    between atoms: C4_3  and  C5_4 
REMARK    4  A    between atoms: C5_4  and  C6_5 
REMARK    5  A    between atoms: C17_13  and  O19_14 
REMARK    6  A    between atoms: C24_18  and  O26_19 
REMARK    7  A    between atoms: C34_26  and  O36_27 
ROOT
ATOM      1  C9  ZIN A   1      18.297   1.638  11.040  0.00  0.00     0.000 C 
ATOM      2  C11 ZIN A   1      18.724   1.985   9.592  0.00  0.00     0.006 C 
ATOM      3  C12 ZIN A   1      19.163   0.649   8.932  0.00  0.00     0.006 C 
ATOM      4  C13 ZIN A   1      18.411  -0.404   9.755  0.00  0.00     0.003 C 
ATOM      5  C15 ZIN A   1      18.992  -1.804   9.726  0.00  0.00     0.024 C 
ATOM      6  C17 ZIN A   1      18.943  -2.371   8.306  0.00  0.00     0.123 C 
ATOM      7  C20 ZIN A   1      19.492  -3.800   8.310  0.00  0.00     0.037 C 
ATOM      8  C21 ZIN A   1      18.639  -4.672   9.233  0.00  0.00    -0.001 C 
ATOM      9  C23 ZIN A   1      17.195  -4.688   8.730  0.00  0.00     0.037 C 
ATOM     10  C24 ZIN A   1      16.343  -5.561   9.652  0.00  0.00     0.118 C 
ATOM     11  C27 ZIN A   1      16.381  -4.994  11.073  0.00  0.00     0.032 C 
ATOM     12  C28 ZIN A   1      17.826  -4.977  11.576  0.00  0.00     0.012 C 
ATOM     13  C29 ZIN A   1      18.678  -4.102  10.654  0.00  0.00    -0.036 C 
ATOM     14  C30 ZIN A   1      20.122  -4.085  11.157  0.00  0.00     0.016 C 
ATOM     15  C31 ZIN A   1      18.139  -2.672  10.666  0.00  0.00     0.003 C 
ATOM     16  C33 ZIN A   1      18.136  -2.126  12.089  0.00  0.00     0.038 C 
ATOM     17  C34 ZIN A   1      17.693  -0.655  12.127  0.00  0.00     0.127 C 
ATOM     18  C37 ZIN A   1      18.580   0.147  11.199  0.00  0.00    -0.010 C 
ATOM     19  C38 ZIN A   1      20.048  -0.064  11.578  0.00  0.00     0.018 C 
ENDROOT
BRANCH   1  20
ATOM     20  C2  ZIN A   1      19.123   2.444  12.045  0.00  0.00    -0.013 C 
ATOM     21  C1  ZIN A   1      18.357   2.552  13.364  0.00  0.00     0.010 C 
BRANCH  20  22
ATOM     22  C4  ZIN A   1      19.377   3.845  11.486  0.00  0.00     0.015 C 
BRANCH  22  23
ATOM     23  C5  ZIN A   1      18.310   4.806  12.017  0.00  0.00     0.113 C 
BRANCH  23  24
ATOM     24  C6  ZIN A   1      17.271   5.042  10.950  0.00  0.00     0.172 C 
ATOM     25  O7  ZIN A   1      16.111   4.727  11.149  0.00  0.00    -0.648 OA
ATOM     26  O8  ZIN A   1      17.592   5.549   9.888  0.00  0.00    -0.648 OA
ENDBRANCH  23  24
ENDBRANCH  22  23
ENDBRANCH  20  22
ENDBRANCH   1  20
BRANCH  17  27
ATOM     27  O36 ZIN A   1      16.352  -0.539  11.643  0.00  0.00    -0.395 OA
ATOM     28  H65 ZIN A   1      16.126   0.345  11.322  0.00  0.00     0.210 HD
ENDBRANCH  17  27
BRANCH   6  29
ATOM     29  O19 ZIN A   1      17.591  -2.380   7.843  0.00  0.00    -0.395 OA
ATOM     30  H50 ZIN A   1      16.934  -2.304   8.549  0.00  0.00     0.210 HD
ENDBRANCH   6  29
BRANCH  10  31
ATOM     31  O26 ZIN A   1      14.994  -5.577   9.182  0.00  0.00    -0.396 OA
ATOM     32  H55 ZIN A   1      14.605  -6.460   9.131  0.00  0.00     0.210 HD
ENDBRANCH  10  31
TORSDOF 7
ENDMDL
MODEL 2
REMARK VINA RESULT:      -8.5      1.923      7.917
REMARK  7 active torsions:
REMARK  status: ('A' for Active; 'I' for Inactive)
REMARK    1  A    between atoms: C2_2  and  C4_3 
REMARK    2  A    between atoms: C2_2  and  C9_8 
REMARK    3  A    between atoms: C4_3  and  C5_4 
REMARK    4  A    between atoms: C5_4  and  C6_5 
REMARK    5  A    between atoms: C17_13  and  O19_14 
REMARK    6  A    between atoms: C24_18  and  O26_19 
REMARK    7  A    between atoms: C34_26  and  O36_27 
ROOT
ATOM      1  C9  ZIN A   1      18.300  -1.554  12.018  0.00  0.00     0.000 C 
ATOM      2  C11 ZIN A   1      18.694  -1.904  13.474  0.00  0.00     0.006 C 
ATOM      3  C12 ZIN A   1      19.128  -0.571  14.143  0.00  0.00     0.006 C 
ATOM      4  C13 ZIN A   1      18.402   0.487  13.304  0.00  0.00     0.003 C 
ATOM      5  C15 ZIN A   1      18.991   1.884  13.344  0.00  0.00     0.024 C 
ATOM      6  C17 ZIN A   1      18.917   2.451  14.763  0.00  0.00     0.123 C 
ATOM      7  C20 ZIN A   1      19.476   3.876  14.770  0.00  0.00     0.037 C 
ATOM      8  C21 ZIN A   1      18.649   4.754  13.829  0.00  0.00    -0.001 C 
ATOM      9  C23 ZIN A   1      17.195   4.780  14.302  0.00  0.00     0.037 C 
ATOM     10  C24 ZIN A   1      16.368   5.659  13.363  0.00  0.00     0.118 C 
ATOM     11  C27 ZIN A   1      16.432   5.091  11.943  0.00  0.00     0.032 C 
ATOM     12  C28 ZIN A   1      17.887   5.064  11.470  0.00  0.00     0.012 C 
ATOM     13  C29 ZIN A   1      18.713   4.183  12.410  0.00  0.00    -0.036 C 
ATOM     14  C30 ZIN A   1      20.167   4.156  11.936  0.00  0.00     0.016 C 
ATOM     15  C31 ZIN A   1      18.164   2.757  12.387  0.00  0.00     0.003 C 
ATOM     16  C33 ZIN A   1      18.187   2.211  10.964  0.00  0.00     0.038 C 
ATOM     17  C34 ZIN A   1      17.734   0.742  10.918  0.00  0.00     0.127 C 
ATOM     18  C37 ZIN A   1      18.596  -0.065  11.864  0.00  0.00    -0.010 C 
ATOM     19  C38 ZIN A   1      20.073   0.135  11.515  0.00  0.00     0.018 C 
ENDROOT
BRANCH   1  20
ATOM     20  C2  ZIN A   1      19.139  -2.366  11.030  0.00  0.00    -0.013 C 
ATOM     21  C1  ZIN A   1      18.388  -2.493   9.704  0.00  0.00     0.010 C 
BRANCH  20  22
ATOM     22  C4  ZIN A   1      19.395  -3.760  11.607  0.00  0.00     0.015 C 
BRANCH  22  23
ATOM     23  C5  ZIN A   1      18.507  -4.779  10.889  0.00  0.00     0.113 C 
BRANCH  23  24
ATOM     24  C6  ZIN A   1      17.326  -5.119  11.761  0.00  0.00     0.172 C 
ATOM     25  O7  ZIN A   1      16.244  -4.598  11.552  0.00  0.00    -0.648 OA
ATOM     26  O8  ZIN A   1      17.453  -5.914  12.677  0.00  0.00    -0.648 OA
ENDBRANCH  23  24
ENDBRANCH  22  23
ENDBRANCH  20  22
ENDBRANCH   1  20
BRANCH  17  27
ATOM     27  O36 ZIN A   1      16.383   0.636  11.374  0.00  0.00    -0.395 OA
ATOM     28  H65 ZIN A   1      15.726   0.926  10.727  0.00  0.00     0.210 HD
ENDBRANCH  17  27
BRANCH   6  29
ATOM     29  O19 ZIN A   1      17.557   2.470  15.198  0.00  0.00    -0.395 OA
ATOM     30  H50 ZIN A   1      17.309   3.273  15.678  0.00  0.00     0.210 HD
ENDBRANCH   6  29
BRANCH  10  31
ATOM     31  O26 ZIN A   1      15.010   5.685  13.805  0.00  0.00    -0.396 OA
ATOM     32  H55 ZIN A   1      14.769   6.486  14.290  0.00  0.00     0.210 HD
ENDBRANCH  10  31
TORSDOF 7
ENDMDL
MODEL 3
REMARK VINA RESULT:      -7.8      2.258      3.156
REMARK  7 active torsions:
REMARK  status: ('A' for Active; 'I' for Inactive)
REMARK    1  A    between atoms: C2_2  and  C4_3 
REMARK    2  A    between atoms: C2_2  and  C9_8 
REMARK    3  A    between atoms: C4_3  and  C5_4 
REMARK    4  A    between atoms: C5_4  and  C6_5 
REMARK    5  A    between atoms: C17_13  and  O19_14 
REMARK    6  A    between atoms: C24_18  and  O26_19 
REMARK    7  A    between atoms: C34_26  and  O36_27 
ROOT
ATOM      1  C9  ZIN A   1      18.571  -1.236  12.276  0.00  0.00     0.000 C 
ATOM      2  C11 ZIN A   1      18.985  -0.085  11.326  0.00  0.00     0.006 C 
ATOM      3  C12 ZIN A   1      19.419  -0.752   9.992  0.00  0.00     0.006 C 
ATOM      4  C13 ZIN A   1      18.676  -2.093  10.021  0.00  0.00     0.003 C 
ATOM      5  C15 ZIN A   1      19.258  -3.191   9.151  0.00  0.00     0.024 C 
ATOM      6  C17 ZIN A   1      19.197  -2.789   7.676  0.00  0.00     0.123 C 
ATOM      7  C20 ZIN A   1      19.748  -3.929   6.816  0.00  0.00     0.037 C 
ATOM      8  C21 ZIN A   1      18.904  -5.186   7.035  0.00  0.00    -0.001 C 
ATOM      9  C23 ZIN A   1      17.456  -4.905   6.632  0.00  0.00     0.037 C 
ATOM     10  C24 ZIN A   1      16.612  -6.163   6.848  0.00  0.00     0.118 C 
ATOM     11  C27 ZIN A   1      16.662  -6.564   8.324  0.00  0.00     0.032 C 
ATOM     12  C28 ZIN A   1      18.112  -6.845   8.727  0.00  0.00     0.012 C 
ATOM     13  C29 ZIN A   1      18.954  -5.586   8.511  0.00  0.00    -0.036 C 
ATOM     14  C30 ZIN A   1      20.403  -5.866   8.915  0.00  0.00     0.016 C 
ATOM     15  C31 ZIN A   1      18.414  -4.454   9.385  0.00  0.00     0.003 C 
ATOM     16  C33 ZIN A   1      18.423  -4.875  10.850  0.00  0.00     0.038 C 
ATOM     17  C34 ZIN A   1      17.978  -3.725  11.768  0.00  0.00     0.127 C 
ATOM     18  C37 ZIN A   1      18.856  -2.521  11.504  0.00  0.00    -0.010 C 
ATOM     19  C38 ZIN A   1      20.328  -2.908  11.671  0.00  0.00     0.018 C 
ENDROOT
BRANCH   1  20
ATOM     20  C2  ZIN A   1      19.404  -1.191  13.559  0.00  0.00    -0.013 C 
ATOM     21  C1  ZIN A   1      18.518  -1.541  14.755  0.00  0.00     0.010 C 
BRANCH  20  22
ATOM     22  C4  ZIN A   1      19.979   0.214  13.743  0.00  0.00     0.015 C 
BRANCH  22  23
ATOM     23  C5  ZIN A   1      19.310   0.884  14.946  0.00  0.00     0.113 C 
BRANCH  23  24
ATOM     24  C6  ZIN A   1      18.696   2.191  14.516  0.00  0.00     0.172 C 
ATOM     25  O7  ZIN A   1      17.814   2.203  13.675  0.00  0.00    -0.648 OA
ATOM     26  O8  ZIN A   1      19.081   3.237  15.010  0.00  0.00    -0.648 OA
ENDBRANCH  23  24
ENDBRANCH  22  23
ENDBRANCH  20  22
ENDBRANCH   1  20
BRANCH  17  27
ATOM     27  O36 ZIN A   1      16.634  -3.349  11.460  0.00  0.00    -0.395 OA
ATOM     28  H65 ZIN A   1      16.547  -2.835  10.646  0.00  0.00     0.210 HD
ENDBRANCH  17  27
BRANCH   6  29
ATOM     29  O19 ZIN A   1      17.842  -2.526   7.310  0.00  0.00    -0.395 OA
ATOM     30  H50 ZIN A   1      17.367  -3.301   6.980  0.00  0.00     0.210 HD
ENDBRANCH   6  29
BRANCH  10  31
ATOM     31  O26 ZIN A   1      15.259  -5.900   6.471  0.00  0.00    -0.396 OA
ATOM     32  H55 ZIN A   1      14.634  -6.581   6.753  0.00  0.00     0.210 HD
ENDBRANCH  10  31
TORSDOF 7
ENDMDL
MODEL 4
REMARK VINA RESULT:      -7.8      3.170      5.243
REMARK  7 active torsions:
REMARK  status: ('A' for Active; 'I' for Inactive)
REMARK    1  A    between atoms: C2_2  and  C4_3 
REMARK    2  A    between atoms: C2_2  and  C9_8 
REMARK    3  A    between atoms: C4_3  and  C5_4 
REMARK    4  A    between atoms: C5_4  and  C6_5 
REMARK    5  A    between atoms: C17_13  and  O19_14 
REMARK    6  A    between atoms: C24_18  and  O26_19 
REMARK    7  A    between atoms: C34_26  and  O36_27 
ROOT
ATOM      1  C9  ZIN A   1      17.569  -0.132  14.841  0.00  0.00     0.000 C 
ATOM      2  C11 ZIN A   1      17.402   1.403  14.965  0.00  0.00     0.006 C 
ATOM      3  C12 ZIN A   1      18.034   2.018  13.686  0.00  0.00     0.006 C 
ATOM      4  C13 ZIN A   1      17.953   0.867  12.676  0.00  0.00     0.003 C 
ATOM      5  C15 ZIN A   1      18.923   0.938  11.513  0.00  0.00     0.024 C 
ATOM      6  C17 ZIN A   1      18.638   2.174  10.657  0.00  0.00     0.123 C 
ATOM      7  C20 ZIN A   1      19.598   2.200   9.466  0.00  0.00     0.037 C 
ATOM      8  C21 ZIN A   1      19.398   0.941   8.621  0.00  0.00    -0.001 C 
ATOM      9  C23 ZIN A   1      17.958   0.896   8.107  0.00  0.00     0.037 C 
ATOM     10  C24 ZIN A   1      17.758  -0.362   7.259  0.00  0.00     0.118 C 
ATOM     11  C27 ZIN A   1      18.034  -1.602   8.112  0.00  0.00     0.032 C 
ATOM     12  C28 ZIN A   1      19.474  -1.556   8.628  0.00  0.00     0.012 C 
ATOM     13  C29 ZIN A   1      19.673  -0.298   9.476  0.00  0.00    -0.036 C 
ATOM     14  C30 ZIN A   1      21.112  -0.253   9.991  0.00  0.00     0.016 C 
ATOM     15  C31 ZIN A   1      18.725  -0.336  10.675  0.00  0.00     0.003 C 
ATOM     16  C33 ZIN A   1      18.973  -1.595  11.497  0.00  0.00     0.038 C 
ATOM     17  C34 ZIN A   1      18.104  -1.618  12.766  0.00  0.00     0.127 C 
ATOM     18  C37 ZIN A   1      18.358  -0.351  13.554  0.00  0.00    -0.010 C 
ATOM     19  C38 ZIN A   1      19.855  -0.208  13.834  0.00  0.00     0.018 C 
ENDROOT
BRANCH   1  20
ATOM     20  C2  ZIN A   1      18.346  -0.680  16.039  0.00  0.00    -0.013 C 
ATOM     21  C1  ZIN A   1      17.955  -2.139  16.277  0.00  0.00     0.010 C 
BRANCH  20  22
ATOM     22  C4  ZIN A   1      18.012   0.146  17.283  0.00  0.00     0.015 C 
BRANCH  22  23
ATOM     23  C5  ZIN A   1      19.302   0.464  18.044  0.00  0.00     0.113 C 
BRANCH  23  24
ATOM     24  C6  ZIN A   1      19.534   1.954  18.037  0.00  0.00     0.172 C 
ATOM     25  O7  ZIN A   1      19.715   2.538  16.983  0.00  0.00    -0.648 OA
ATOM     26  O8  ZIN A   1      19.541   2.574  19.087  0.00  0.00    -0.648 OA
ENDBRANCH  23  24
ENDBRANCH  22  23
ENDBRANCH  20  22
ENDBRANCH   1  20
BRANCH  17  27
ATOM     27  O36 ZIN A   1      16.720  -1.629  12.408  0.00  0.00    -0.395 OA
ATOM     28  H65 ZIN A   1      16.429  -2.453  11.994  0.00  0.00     0.210 HD
ENDBRANCH  17  27
BRANCH   6  29
ATOM     29  O19 ZIN A   1      17.291   2.125  10.184  0.00  0.00    -0.395 OA
ATOM     30  H50 ZIN A   1      16.630   2.053  10.887  0.00  0.00     0.210 HD
ENDBRANCH   6  29
BRANCH  10  31
ATOM     31  O26 ZIN A   1      16.413  -0.404   6.778  0.00  0.00    -0.396 OA
ATOM     32  H55 ZIN A   1      15.909   0.402   6.951  0.00  0.00     0.210 HD
ENDBRANCH  10  31
TORSDOF 7
ENDMDL
MODEL 5
REMARK VINA RESULT:      -7.7      1.772      7.770
REMARK  7 active torsions:
REMARK  status: ('A' for Active; 'I' for Inactive)
REMARK    1  A    between atoms: C2_2  and  C4_3 
REMARK    2  A    between atoms: C2_2  and  C9_8 
REMARK    3  A    between atoms: C4_3  and  C5_4 
REMARK    4  A    between atoms: C5_4  and  C6_5 
REMARK    5  A    between atoms: C17_13  and  O19_14 
REMARK    6  A    between atoms: C24_18  and  O26_19 
REMARK    7  A    between atoms: C34_26  and  O36_27 
ROOT
ATOM      1  C9  ZIN A   1      18.170  -3.716   9.074  0.00  0.00     0.000 C 
ATOM      2  C11 ZIN A   1      17.170  -4.287  10.110  0.00  0.00     0.006 C 
ATOM      3  C12 ZIN A   1      17.231  -3.344  11.343  0.00  0.00     0.006 C 
ATOM      4  C13 ZIN A   1      17.737  -2.027  10.743  0.00  0.00     0.003 C 
ATOM      5  C15 ZIN A   1      18.393  -1.065  11.715  0.00  0.00     0.024 C 
ATOM      6  C17 ZIN A   1      17.385  -0.605  12.770  0.00  0.00     0.123 C 
ATOM      7  C20 ZIN A   1      18.057   0.397  13.712  0.00  0.00     0.037 C 
ATOM      8  C21 ZIN A   1      18.540   1.607  12.910  0.00  0.00    -0.001 C 
ATOM      9  C23 ZIN A   1      17.345   2.277  12.230  0.00  0.00     0.037 C 
ATOM     10  C24 ZIN A   1      17.827   3.488  11.429  0.00  0.00     0.118 C 
ATOM     11  C27 ZIN A   1      18.829   3.032  10.366  0.00  0.00     0.032 C 
ATOM     12  C28 ZIN A   1      20.024   2.361  11.047  0.00  0.00     0.012 C 
ATOM     13  C29 ZIN A   1      19.541   1.149  11.846  0.00  0.00    -0.036 C 
ATOM     14  C30 ZIN A   1      20.735   0.478  12.526  0.00  0.00     0.016 C 
ATOM     15  C31 ZIN A   1      18.887   0.141  10.901  0.00  0.00     0.003 C 
ATOM     16  C33 ZIN A   1      19.874  -0.276   9.817  0.00  0.00     0.038 C 
ATOM     17  C34 ZIN A   1      19.282  -1.363   8.906  0.00  0.00     0.127 C 
ATOM     18  C37 ZIN A   1      18.833  -2.527   9.762  0.00  0.00    -0.010 C 
ATOM     19  C38 ZIN A   1      20.000  -3.014  10.625  0.00  0.00     0.018 C 
ENDROOT
BRANCH   1  20
ATOM     20  C2  ZIN A   1      19.217  -4.771   8.710  0.00  0.00    -0.013 C 
ATOM     21  C1  ZIN A   1      19.728  -4.514   7.291  0.00  0.00     0.010 C 
BRANCH  20  22
ATOM     22  C4  ZIN A   1      18.584  -6.162   8.780  0.00  0.00     0.015 C 
BRANCH  22  23
ATOM     23  C5  ZIN A   1      18.168  -6.604   7.375  0.00  0.00     0.113 C 
BRANCH  23  24
ATOM     24  C6  ZIN A   1      17.504  -7.955   7.450  0.00  0.00     0.172 C 
ATOM     25  O7  ZIN A   1      17.946  -8.888   6.803  0.00  0.00    -0.648 OA
ATOM     26  O8  ZIN A   1      16.525  -8.115   8.159  0.00  0.00    -0.648 OA
ENDBRANCH  23  24
ENDBRANCH  22  23
ENDBRANCH  20  22
ENDBRANCH   1  20
BRANCH  17  27
ATOM     27  O36 ZIN A   1      18.127  -0.857   8.233  0.00  0.00    -0.395 OA
ATOM     28  H65 ZIN A   1      18.033   0.104   8.283  0.00  0.00     0.210 HD
ENDBRANCH  17  27
BRANCH   6  29
ATOM     29  O19 ZIN A   1      16.272   0.017  12.126  0.00  0.00    -0.395 OA
ATOM     30  H50 ZIN A   1      16.473   0.883  11.745  0.00  0.00     0.210 HD
ENDBRANCH   6  29
BRANCH  10  31
ATOM     31  O26 ZIN A   1      16.711   4.115  10.794  0.00  0.00    -0.396 OA
ATOM     32  H55 ZIN A   1      15.911   3.572  10.779  0.00  0.00     0.210 HD
ENDBRANCH  10  31
TORSDOF 7
ENDMDL
MODEL 6
REMARK VINA RESULT:      -7.2      3.448      8.356
REMARK  7 active torsions:
REMARK  status: ('A' for Active; 'I' for Inactive)
REMARK    1  A    between atoms: C2_2  and  C4_3 
REMARK    2  A    between atoms: C2_2  and  C9_8 
REMARK    3  A    between atoms: C4_3  and  C5_4 
REMARK    4  A    between atoms: C5_4  and  C6_5 
REMARK    5  A    between atoms: C17_13  and  O19_14 
REMARK    6  A    between atoms: C24_18  and  O26_19 
REMARK    7  A    between atoms: C34_26  and  O36_27 
ROOT
ATOM      1  C9  ZIN A   1      18.453   1.794  10.783  0.00  0.00     0.000 C 
ATOM      2  C11 ZIN A   1      18.807   0.520  11.588  0.00  0.00     0.006 C 
ATOM      3  C12 ZIN A   1      19.276   1.003  12.989  0.00  0.00     0.006 C 
ATOM      4  C13 ZIN A   1      18.603   2.374  13.122  0.00  0.00     0.003 C 
ATOM      5  C15 ZIN A   1      19.241   3.331  14.110  0.00  0.00     0.024 C 
ATOM      6  C17 ZIN A   1      19.160   2.763  15.529  0.00  0.00     0.123 C 
ATOM      7  C20 ZIN A   1      19.769   3.764  16.513  0.00  0.00     0.037 C 
ATOM      8  C21 ZIN A   1      18.992   5.080  16.449  0.00  0.00    -0.001 C 
ATOM      9  C23 ZIN A   1      17.531   4.828  16.825  0.00  0.00     0.037 C 
ATOM     10  C24 ZIN A   1      16.753   6.144  16.763  0.00  0.00     0.118 C 
ATOM     11  C27 ZIN A   1      16.824   6.713  15.344  0.00  0.00     0.032 C 
ATOM     12  C28 ZIN A   1      18.286   6.964  14.967  0.00  0.00     0.012 C 
ATOM     13  C29 ZIN A   1      19.062   5.647  15.029  0.00  0.00    -0.036 C 
ATOM     14  C30 ZIN A   1      20.523   5.898  14.652  0.00  0.00     0.016 C 
ATOM     15  C31 ZIN A   1      18.464   4.654  14.032  0.00  0.00     0.003 C 
ATOM     16  C33 ZIN A   1      18.494   5.244  12.626  0.00  0.00     0.038 C 
ATOM     17  C34 ZIN A   1      17.990   4.233  11.582  0.00  0.00     0.127 C 
ATOM     18  C37 ZIN A   1      18.805   2.963  11.698  0.00  0.00    -0.010 C 
ATOM     19  C38 ZIN A   1      20.294   3.292  11.569  0.00  0.00     0.018 C 
ENDROOT
BRANCH   1  20
ATOM     20  C2  ZIN A   1      19.282   1.858   9.499  0.00  0.00    -0.013 C 
ATOM     21  C1  ZIN A   1      18.682   2.901   8.555  0.00  0.00     0.010 C 
BRANCH  20  22
ATOM     22  C4  ZIN A   1      19.271   0.488   8.818  0.00  0.00     0.015 C 
BRANCH  22  23
ATOM     23  C5  ZIN A   1      17.905   0.252   8.169  0.00  0.00     0.113 C 
BRANCH  23  24
ATOM     24  C6  ZIN A   1      18.098  -0.204   6.745  0.00  0.00     0.172 C 
ATOM     25  O7  ZIN A   1      19.208  -0.511   6.348  0.00  0.00    -0.648 OA
ATOM     26  O8  ZIN A   1      17.142  -0.267   5.991  0.00  0.00    -0.648 OA
ENDBRANCH  23  24
ENDBRANCH  22  23
ENDBRANCH  20  22
ENDBRANCH   1  20
BRANCH  17  27
ATOM     27  O36 ZIN A   1      16.628   3.894  11.853  0.00  0.00    -0.395 OA
ATOM     28  H65 ZIN A   1      16.307   4.211  12.708  0.00  0.00     0.210 HD
ENDBRANCH  17  27
BRANCH   6  29
ATOM     29  O19 ZIN A   1      17.793   2.528  15.870  0.00  0.00    -0.395 OA
ATOM     30  H50 ZIN A   1      17.653   2.314  16.804  0.00  0.00     0.210 HD
ENDBRANCH   6  29
BRANCH  10  31
ATOM     31  O26 ZIN A   1      15.389   5.909  17.115  0.00  0.00    -0.396 OA
ATOM     32  H55 ZIN A   1      15.252   5.117  17.652  0.00  0.00     0.210 HD
ENDBRANCH  10  31
TORSDOF 7
ENDMDL
MODEL 7
REMARK VINA RESULT:      -7.1      2.503      3.656
REMARK  7 active torsions:
REMARK  status: ('A' for Active; 'I' for Inactive)
REMARK    1  A    between atoms: C2_2  and  C4_3 
REMARK    2  A    between atoms: C2_2  and  C9_8 
REMARK    3  A    between atoms: C4_3  and  C5_4 
REMARK    4  A    between atoms: C5_4  and  C6_5 
REMARK    5  A    between atoms: C17_13  and  O19_14 
REMARK    6  A    between atoms: C24_18  and  O26_19 
REMARK    7  A    between atoms: C34_26  and  O36_27 
ROOT
ATOM      1  C9  ZIN A   1      17.777   3.803  13.257  0.00  0.00     0.000 C 
ATOM      2  C11 ZIN A   1      17.116   4.382  11.983  0.00  0.00     0.006 C 
ATOM      3  C12 ZIN A   1      17.478   3.414  10.823  0.00  0.00     0.006 C 
ATOM      4  C13 ZIN A   1      17.758   2.095  11.551  0.00  0.00     0.003 C 
ATOM      5  C15 ZIN A   1      18.621   1.096  10.804  0.00  0.00     0.024 C 
ATOM      6  C17 ZIN A   1      17.923   0.645   9.520  0.00  0.00     0.123 C 
ATOM      7  C20 ZIN A   1      18.793  -0.394   8.807  0.00  0.00     0.037 C 
ATOM      8  C21 ZIN A   1      18.999  -1.601   9.723  0.00  0.00    -0.001 C 
ATOM      9  C23 ZIN A   1      17.643  -2.224  10.060  0.00  0.00     0.037 C 
ATOM     10  C24 ZIN A   1      17.849  -3.433  10.974  0.00  0.00     0.118 C 
ATOM     11  C27 ZIN A   1      18.539  -2.986  12.264  0.00  0.00     0.032 C 
ATOM     12  C28 ZIN A   1      19.896  -2.363  11.927  0.00  0.00     0.012 C 
ATOM     13  C29 ZIN A   1      19.688  -1.152  11.014  0.00  0.00    -0.036 C 
ATOM     14  C30 ZIN A   1      21.044  -0.529  10.677  0.00  0.00     0.016 C 
ATOM     15  C31 ZIN A   1      18.835  -0.108  11.735  0.00  0.00     0.003 C 
ATOM     16  C33 ZIN A   1      19.504   0.300  13.042  0.00  0.00     0.038 C 
ATOM     17  C34 ZIN A   1      18.723   1.422  13.746  0.00  0.00     0.127 C 
ATOM     18  C37 ZIN A   1      18.563   2.582  12.788  0.00  0.00    -0.010 C 
ATOM     19  C38 ZIN A   1      19.936   3.018  12.271  0.00  0.00     0.018 C 
ENDROOT
BRANCH   1  20
ATOM     20  C2  ZIN A   1      18.720   4.833  13.881  0.00  0.00    -0.013 C 
ATOM     21  C1  ZIN A   1      18.953   4.487  15.353  0.00  0.00     0.010 C 
BRANCH  20  22
ATOM     22  C4  ZIN A   1      18.094   6.225  13.777  0.00  0.00     0.015 C 
BRANCH  22  23
ATOM     23  C5  ZIN A   1      17.427   6.584  15.107  0.00  0.00     0.113 C 
BRANCH  23  24
ATOM     24  C6  ZIN A   1      17.944   7.917  15.585  0.00  0.00     0.172 C 
ATOM     25  O7  ZIN A   1      18.186   8.800  14.781  0.00  0.00    -0.648 OA
ATOM     26  O8  ZIN A   1      18.120   8.111  16.776  0.00  0.00    -0.648 OA
ENDBRANCH  23  24
ENDBRANCH  22  23
ENDBRANCH  20  22
ENDBRANCH   1  20
BRANCH  17  27
ATOM     27  O36 ZIN A   1      17.412   0.963  14.085  0.00  0.00    -0.395 OA
ATOM     28  H65 ZIN A   1      16.946   1.534  14.710  0.00  0.00     0.210 HD
ENDBRANCH  17  27
BRANCH   6  29
ATOM     29  O19 ZIN A   1      16.657   0.068   9.843  0.00  0.00    -0.395 OA
ATOM     30  H50 ZIN A   1      15.906   0.658   9.688  0.00  0.00     0.210 HD
ENDBRANCH   6  29
BRANCH  10  31
ATOM     31  O26 ZIN A   1      16.582  -4.014  11.288  0.00  0.00    -0.396 OA
ATOM     32  H55 ZIN A   1      16.587  -4.559  12.087  0.00  0.00     0.210 HD
ENDBRANCH  10  31
TORSDOF 7
ENDMDL
MODEL 8
REMARK VINA RESULT:      -7.1      2.600      8.064
REMARK  7 active torsions:
REMARK  status: ('A' for Active; 'I' for Inactive)
REMARK    1  A    between atoms: C2_2  and  C4_3 
REMARK    2  A    between atoms: C2_2  and  C9_8 
REMARK    3  A    between atoms: C4_3  and  C5_4 
REMARK    4  A    between atoms: C5_4  and  C6_5 
REMARK    5  A    between atoms: C17_13  and  O19_14 
REMARK    6  A    between atoms: C24_18  and  O26_19 
REMARK    7  A    between atoms: C34_26  and  O36_27 
ROOT
ATOM      1  C9  ZIN A   1      19.015  -0.865  11.607  0.00  0.00     0.000 C 
ATOM      2  C11 ZIN A   1      19.457  -0.302  10.234  0.00  0.00     0.006 C 
ATOM      3  C12 ZIN A   1      19.267   1.238  10.310  0.00  0.00     0.006 C 
ATOM      4  C13 ZIN A   1      19.338   1.519  11.815  0.00  0.00     0.003 C 
ATOM      5  C15 ZIN A   1      18.690   2.809  12.279  0.00  0.00     0.024 C 
ATOM      6  C17 ZIN A   1      19.405   4.014  11.665  0.00  0.00     0.123 C 
ATOM      7  C20 ZIN A   1      18.763   5.304  12.182  0.00  0.00     0.037 C 
ATOM      8  C21 ZIN A   1      18.890   5.362  13.705  0.00  0.00    -0.001 C 
ATOM      9  C23 ZIN A   1      20.368   5.343  14.096  0.00  0.00     0.037 C 
ATOM     10  C24 ZIN A   1      20.496   5.403  15.619  0.00  0.00     0.118 C 
ATOM     11  C27 ZIN A   1      19.790   4.195  16.238  0.00  0.00     0.032 C 
ATOM     12  C28 ZIN A   1      18.310   4.213  15.848  0.00  0.00     0.012 C 
ATOM     13  C29 ZIN A   1      18.184   4.152  14.324  0.00  0.00    -0.036 C 
ATOM     14  C30 ZIN A   1      16.706   4.170  13.933  0.00  0.00     0.016 C 
ATOM     15  C31 ZIN A   1      18.810   2.855  13.811  0.00  0.00     0.003 C 
ATOM     16  C33 ZIN A   1      18.134   1.655  14.465  0.00  0.00     0.038 C 
ATOM     17  C34 ZIN A   1      18.671   0.330  13.900  0.00  0.00     0.127 C 
ATOM     18  C37 ZIN A   1      18.509   0.339  12.395  0.00  0.00    -0.010 C 
ATOM     19  C38 ZIN A   1      17.047   0.616  12.035  0.00  0.00     0.018 C 
ENDROOT
BRANCH   1  20
ATOM     20  C2  ZIN A   1      17.893  -1.889  11.425  0.00  0.00    -0.013 C 
ATOM     21  C1  ZIN A   1      18.191  -3.128  12.272  0.00  0.00     0.010 C 
BRANCH  20  22
ATOM     22  C4  ZIN A   1      17.804  -2.289   9.951  0.00  0.00     0.015 C 
BRANCH  22  23
ATOM     23  C5  ZIN A   1      17.820  -3.815   9.836  0.00  0.00     0.113 C 
BRANCH  23  24
ATOM     24  C6  ZIN A   1      19.047  -4.248   9.074  0.00  0.00     0.172 C 
ATOM     25  O7  ZIN A   1      19.845  -5.012   9.587  0.00  0.00    -0.648 OA
ATOM     26  O8  ZIN A   1      19.240  -3.834   7.943  0.00  0.00    -0.648 OA
ENDBRANCH  23  24
ENDBRANCH  22  23
ENDBRANCH  20  22
ENDBRANCH   1  20
BRANCH  17  27
ATOM     27  O36 ZIN A   1      20.069   0.214  14.178  0.00  0.00    -0.395 OA
ATOM     28  H65 ZIN A   1      20.559  -0.296  13.519  0.00  0.00     0.210 HD
ENDBRANCH  17  27
BRANCH   6  29
ATOM     29  O19 ZIN A   1      20.785   3.987  12.032  0.00  0.00    -0.395 OA
ATOM     30  H50 ZIN A   1      20.939   4.030  12.986  0.00  0.00     0.210 HD
ENDBRANCH   6  29
BRANCH  10  31
ATOM     31  O26 ZIN A   1      21.877   5.386  15.983  0.00  0.00    -0.396 OA
ATOM     32  H55 ZIN A   1      22.472   5.692  15.285  0.00  0.00     0.210 HD
ENDBRANCH  10  31
TORSDOF 7
ENDMDL
MODEL 9
REMARK VINA RESULT:      -7.0      1.790      2.376
REMARK  7 active torsions:
REMARK  status: ('A' for Active; 'I' for Inactive)
REMARK    1  A    between atoms: C2_2  and  C4_3 
REMARK    2  A    between atoms: C2_2  and  C9_8 
REMARK    3  A    between atoms: C4_3  and  C5_4 
REMARK    4  A    between atoms: C5_4  and  C6_5 
REMARK    5  A    between atoms: C17_13  and  O19_14 
REMARK    6  A    between atoms: C24_18  and  O26_19 
REMARK    7  A    between atoms: C34_26  and  O36_27 
ROOT
ATOM      1  C9  ZIN A   1      17.756   2.127  11.045  0.00  0.00     0.000 C 
ATOM      2  C11 ZIN A   1      18.290   2.469   9.633  0.00  0.00     0.006 C 
ATOM      3  C12 ZIN A   1      18.893   1.157   9.062  0.00  0.00     0.006 C 
ATOM      4  C13 ZIN A   1      18.151   0.068   9.847  0.00  0.00     0.003 C 
ATOM      5  C15 ZIN A   1      18.839  -1.281   9.920  0.00  0.00     0.024 C 
ATOM      6  C17 ZIN A   1      18.971  -1.887   8.521  0.00  0.00     0.123 C 
ATOM      7  C20 ZIN A   1      19.627  -3.266   8.625  0.00  0.00     0.037 C 
ATOM      8  C21 ZIN A   1      18.761  -4.180   9.494  0.00  0.00    -0.001 C 
ATOM      9  C23 ZIN A   1      17.377  -4.326   8.859  0.00  0.00     0.037 C 
ATOM     10  C24 ZIN A   1      16.511  -5.241   9.727  0.00  0.00     0.118 C 
ATOM     11  C27 ZIN A   1      16.369  -4.635  11.125  0.00  0.00     0.032 C 
ATOM     12  C28 ZIN A   1      17.754  -4.488  11.760  0.00  0.00     0.012 C 
ATOM     13  C29 ZIN A   1      18.618  -3.571  10.891  0.00  0.00    -0.036 C 
ATOM     14  C30 ZIN A   1      20.002  -3.424  11.527  0.00  0.00     0.016 C 
ATOM     15  C31 ZIN A   1      17.971  -2.189  10.805  0.00  0.00     0.003 C 
ATOM     16  C33 ZIN A   1      17.789  -1.609  12.203  0.00  0.00     0.038 C 
ATOM     17  C34 ZIN A   1      17.230  -0.177  12.148  0.00  0.00     0.127 C 
ATOM     18  C37 ZIN A   1      18.137   0.668  11.281  0.00  0.00    -0.010 C 
ATOM     19  C38 ZIN A   1      19.574   0.587  11.802  0.00  0.00     0.018 C 
ENDROOT
BRANCH   1  20
ATOM     20  C2  ZIN A   1      18.415   3.024  12.095  0.00  0.00    -0.013 C 
ATOM     21  C1  ZIN A   1      19.874   3.275  11.708  0.00  0.00     0.010 C 
BRANCH  20  22
ATOM     22  C4  ZIN A   1      18.361   2.335  13.459  0.00  0.00     0.015 C 
BRANCH  22  23
ATOM     23  C5  ZIN A   1      18.701   3.348  14.555  0.00  0.00     0.113 C 
BRANCH  23  24
ATOM     24  C6  ZIN A   1      19.253   2.622  15.756  0.00  0.00     0.172 C 
ATOM     25  O7  ZIN A   1      19.818   3.245  16.638  0.00  0.00    -0.648 OA
ATOM     26  O8  ZIN A   1      19.133   1.412  15.844  0.00  0.00    -0.648 OA
ENDBRANCH  23  24
ENDBRANCH  22  23
ENDBRANCH  20  22
ENDBRANCH   1  20
BRANCH  17  27
ATOM     27  O36 ZIN A   1      15.938  -0.183  11.538  0.00  0.00    -0.395 OA
ATOM     28  H65 ZIN A   1      15.404  -0.959  11.757  0.00  0.00     0.210 HD
ENDBRANCH  17  27
BRANCH   6  29
ATOM     29  O19 ZIN A   1      17.675  -2.018   7.935  0.00  0.00    -0.395 OA
ATOM     30  H50 ZIN A   1      16.947  -1.860   8.553  0.00  0.00     0.210 HD
ENDBRANCH   6  29
BRANCH  10  31
ATOM     31  O26 ZIN A   1      15.219  -5.378   9.133  0.00  0.00    -0.396 OA
ATOM     32  H55 ZIN A   1      14.487  -5.295   9.760  0.00  0.00     0.210 HD
ENDBRANCH  10  31
TORSDOF 7
ENDMDL
