MODEL 1
REMARK VINA RESULT:      -5.5      0.000      0.000
REMARK  3 active torsions:
REMARK  status: ('A' for Active; 'I' for Inactive)
REMARK    1  A    between atoms: C2_2  and  C3_3 
REMARK    2  A    between atoms: C9_8  and  C11_9 
REMARK    3  A    between atoms: C11_9  and  C12_10 
ROOT
ATOM      1  C3  ZIN A   1      18.504  -1.383   6.439  0.00  0.00     0.091 C 
ATOM      2  C5  ZIN A   1      19.322  -0.875   5.271  0.00  0.00     0.263 C 
ATOM      3  O6  ZIN A   1      19.736  -1.559   4.364  0.00  0.00    -0.265 OA
ATOM      4  O7  ZIN A   1      19.518   0.445   5.392  0.00  0.00    -0.321 OA
ATOM      5  C8  ZIN A   1      18.512   1.016   6.279  0.00  0.00     0.184 C 
ATOM      6  C9  ZIN A   1      18.178  -0.124   7.273  0.00  0.00     0.029 C 
ENDROOT
BRANCH   6   7
ATOM      7  C11 ZIN A   1      19.068  -0.043   8.514  0.00  0.00     0.066 C 
BRANCH   7   8
ATOM      8  C12 ZIN A   1      18.229   0.319   9.711  0.00  0.00     0.030 A 
ATOM      9  N16 ZIN A   1      17.690  -0.549  10.622  0.00  0.00    -0.348 N 
ATOM     10  C15 ZIN A   1      17.017   0.191  11.530  0.00  0.00     0.209 A 
ATOM     11  C17 ZIN A   1      17.827  -2.008  10.620  0.00  0.00     0.157 C 
ATOM     12  N14 ZIN A   1      17.119   1.449  11.202  0.00  0.00    -0.254 NA
ATOM     13  C13 ZIN A   1      17.858   1.558  10.088  0.00  0.00     0.143 A 
ENDBRANCH   7   8
ENDBRANCH   6   7
BRANCH   1  14
ATOM     14  C2  ZIN A   1      19.320  -2.375   7.269  0.00  0.00     0.010 C 
ATOM     15  C1  ZIN A   1      18.586  -3.716   7.329  0.00  0.00     0.006 C 
ENDBRANCH   1  14
TORSDOF 3
ENDMDL
MODEL 2
REMARK VINA RESULT:      -5.5      5.926      8.489
REMARK  3 active torsions:
REMARK  status: ('A' for Active; 'I' for Inactive)
REMARK    1  A    between atoms: C2_2  and  C3_3 
REMARK    2  A    between atoms: C9_8  and  C11_9 
REMARK    3  A    between atoms: C11_9  and  C12_10 
ROOT
ATOM      1  C3  ZIN A   1      18.463   0.996  16.459  0.00  0.00     0.091 C 
ATOM      2  C5  ZIN A   1      19.266   0.530  17.654  0.00  0.00     0.263 C 
ATOM      3  O6  ZIN A   1      19.670   1.245  18.540  0.00  0.00    -0.265 OA
ATOM      4  O7  ZIN A   1      19.460  -0.794  17.584  0.00  0.00    -0.321 OA
ATOM      5  C8  ZIN A   1      18.464  -1.396  16.705  0.00  0.00     0.184 C 
ATOM      6  C9  ZIN A   1      18.145  -0.292  15.667  0.00  0.00     0.029 C 
ENDROOT
BRANCH   6   7
ATOM      7  C11 ZIN A   1      19.051  -0.420  14.440  0.00  0.00     0.066 C 
BRANCH   7   8
ATOM      8  C12 ZIN A   1      18.206  -0.646  13.214  0.00  0.00     0.030 A 
ATOM      9  N16 ZIN A   1      18.380  -1.624  12.272  0.00  0.00    -0.348 N 
ATOM     10  C15 ZIN A   1      17.405  -1.469  11.350  0.00  0.00     0.209 A 
ATOM     11  C17 ZIN A   1      19.423  -2.654  12.270  0.00  0.00     0.157 C 
ATOM     12  N14 ZIN A   1      16.668  -0.447  11.688  0.00  0.00    -0.254 NA
ATOM     13  C13 ZIN A   1      17.137   0.079  12.830  0.00  0.00     0.143 A 
ENDBRANCH   7   8
ENDBRANCH   6   7
BRANCH   1  14
ATOM     14  C2  ZIN A   1      19.292   1.956  15.603  0.00  0.00     0.010 C 
ATOM     15  C1  ZIN A   1      18.471   3.212  15.304  0.00  0.00     0.006 C 
ENDBRANCH   1  14
TORSDOF 3
ENDMDL
MODEL 3
REMARK VINA RESULT:      -5.5      3.004      4.989
REMARK  3 active torsions:
REMARK  status: ('A' for Active; 'I' for Inactive)
REMARK    1  A    between atoms: C2_2  and  C3_3 
REMARK    2  A    between atoms: C9_8  and  C11_9 
REMARK    3  A    between atoms: C11_9  and  C12_10 
ROOT
ATOM      1  C3  ZIN A   1      18.218   0.898  10.550  0.00  0.00     0.091 C 
ATOM      2  C5  ZIN A   1      17.826   2.350  10.723  0.00  0.00     0.263 C 
ATOM      3  O6  ZIN A   1      17.360   2.828  11.730  0.00  0.00    -0.265 OA
ATOM      4  O7  ZIN A   1      18.074   3.025   9.592  0.00  0.00    -0.321 OA
ATOM      5  C8  ZIN A   1      19.052   2.304   8.787  0.00  0.00     0.184 C 
ATOM      6  C9  ZIN A   1      18.809   0.812   9.126  0.00  0.00     0.029 C 
ENDROOT
BRANCH   6   7
ATOM      7  C11 ZIN A   1      17.807   0.189   8.152  0.00  0.00     0.066 C 
BRANCH   7   8
ATOM      8  C12 ZIN A   1      18.516  -0.805   7.270  0.00  0.00     0.030 A 
ATOM      9  N16 ZIN A   1      18.734  -2.129   7.543  0.00  0.00    -0.348 N 
ATOM     10  C15 ZIN A   1      19.398  -2.650   6.488  0.00  0.00     0.209 A 
ATOM     11  C17 ZIN A   1      18.315  -2.849   8.748  0.00  0.00     0.157 C 
ATOM     12  N14 ZIN A   1      19.595  -1.706   5.610  0.00  0.00    -0.254 NA
ATOM     13  C13 ZIN A   1      19.064  -0.561   6.063  0.00  0.00     0.143 A 
ENDBRANCH   7   8
ENDBRANCH   6   7
BRANCH   1  14
ATOM     14  C2  ZIN A   1      16.987  -0.004  10.671  0.00  0.00     0.010 C 
ATOM     15  C1  ZIN A   1      17.062  -0.798  11.976  0.00  0.00     0.006 C 
ENDBRANCH   1  14
TORSDOF 3
ENDMDL
MODEL 4
REMARK VINA RESULT:      -5.5      4.145      5.780
REMARK  3 active torsions:
REMARK  status: ('A' for Active; 'I' for Inactive)
REMARK    1  A    between atoms: C2_2  and  C3_3 
REMARK    2  A    between atoms: C9_8  and  C11_9 
REMARK    3  A    between atoms: C11_9  and  C12_10 
ROOT
ATOM      1  C3  ZIN A   1      17.893   2.930  10.391  0.00  0.00     0.091 C 
ATOM      2  C5  ZIN A   1      17.780   4.439  10.420  0.00  0.00     0.263 C 
ATOM      3  O6  ZIN A   1      17.671   5.146   9.446  0.00  0.00    -0.265 OA
ATOM      4  O7  ZIN A   1      17.818   4.875  11.687  0.00  0.00    -0.321 OA
ATOM      5  C8  ZIN A   1      17.462   3.791  12.595  0.00  0.00     0.184 C 
ATOM      6  C9  ZIN A   1      17.948   2.508  11.877  0.00  0.00     0.029 C 
ENDROOT
BRANCH   6   7
ATOM      7  C11 ZIN A   1      19.377   2.156  12.295  0.00  0.00     0.066 C 
BRANCH   7   8
ATOM      8  C12 ZIN A   1      19.373   0.854  13.051  0.00  0.00     0.030 A 
ATOM      9  N16 ZIN A   1      19.268   0.698  14.407  0.00  0.00    -0.348 N 
ATOM     10  C15 ZIN A   1      19.301  -0.629  14.660  0.00  0.00     0.209 A 
ATOM     11  C17 ZIN A   1      19.132   1.769  15.398  0.00  0.00     0.157 C 
ATOM     12  N14 ZIN A   1      19.430  -1.267  13.531  0.00  0.00    -0.254 NA
ATOM     13  C13 ZIN A   1      19.477  -0.382  12.524  0.00  0.00     0.143 A 
ENDBRANCH   7   8
ENDBRANCH   6   7
BRANCH   1  14
ATOM     14  C2  ZIN A   1      19.174   2.506   9.670  0.00  0.00     0.010 C 
ATOM     15  C1  ZIN A   1      18.814   1.685   8.430  0.00  0.00     0.006 C 
ENDBRANCH   1  14
TORSDOF 3
ENDMDL
MODEL 5
REMARK VINA RESULT:      -5.2      2.986      4.707
REMARK  3 active torsions:
REMARK  status: ('A' for Active; 'I' for Inactive)
REMARK    1  A    between atoms: C2_2  and  C3_3 
REMARK    2  A    between atoms: C9_8  and  C11_9 
REMARK    3  A    between atoms: C11_9  and  C12_10 
ROOT
ATOM      1  C3  ZIN A   1      19.238   1.833   9.928  0.00  0.00     0.091 C 
ATOM      2  C5  ZIN A   1      19.244   1.251   8.530  0.00  0.00     0.263 C 
ATOM      3  O6  ZIN A   1      19.040   1.877   7.517  0.00  0.00    -0.265 OA
ATOM      4  O7  ZIN A   1      19.510  -0.062   8.585  0.00  0.00    -0.321 OA
ATOM      5  C8  ZIN A   1      20.171  -0.382   9.844  0.00  0.00     0.184 C 
ATOM      6  C9  ZIN A   1      19.609   0.651  10.852  0.00  0.00     0.029 C 
ENDROOT
BRANCH   6   7
ATOM      7  C11 ZIN A   1      18.370   0.101  11.563  0.00  0.00     0.066 C 
BRANCH   7   8
ATOM      8  C12 ZIN A   1      18.713  -0.217  12.995  0.00  0.00     0.030 A 
ATOM      9  N16 ZIN A   1      18.598   0.627  14.067  0.00  0.00    -0.348 N 
ATOM     10  C15 ZIN A   1      19.007  -0.057  15.158  0.00  0.00     0.209 A 
ATOM     11  C17 ZIN A   1      18.113   2.009  14.039  0.00  0.00     0.157 C 
ATOM     12  N14 ZIN A   1      19.367  -1.256  14.790  0.00  0.00    -0.254 NA
ATOM     13  C13 ZIN A   1      19.197  -1.382  13.466  0.00  0.00     0.143 A 
ENDBRANCH   7   8
ENDBRANCH   6   7
BRANCH   1  14
ATOM     14  C2  ZIN A   1      17.847   2.365  10.277  0.00  0.00     0.010 C 
ATOM     15  C1  ZIN A   1      17.889   3.892  10.352  0.00  0.00     0.006 C 
ENDBRANCH   1  14
TORSDOF 3
ENDMDL
MODEL 6
REMARK VINA RESULT:      -5.2      2.199      3.239
REMARK  3 active torsions:
REMARK  status: ('A' for Active; 'I' for Inactive)
REMARK    1  A    between atoms: C2_2  and  C3_3 
REMARK    2  A    between atoms: C9_8  and  C11_9 
REMARK    3  A    between atoms: C11_9  and  C12_10 
ROOT
ATOM      1  C3  ZIN A   1      18.794  -0.029   7.909  0.00  0.00     0.091 C 
ATOM      2  C5  ZIN A   1      19.296  -1.394   8.330  0.00  0.00     0.263 C 
ATOM      3  O6  ZIN A   1      19.357  -2.363   7.611  0.00  0.00    -0.265 OA
ATOM      4  O7  ZIN A   1      19.662  -1.367   9.619  0.00  0.00    -0.321 OA
ATOM      5  C8  ZIN A   1      19.924   0.006  10.032  0.00  0.00     0.184 C 
ATOM      6  C9  ZIN A   1      18.973   0.862   9.158  0.00  0.00     0.029 C 
ENDROOT
BRANCH   6   7
ATOM      7  C11 ZIN A   1      17.636   1.088   9.868  0.00  0.00     0.066 C 
BRANCH   7   8
ATOM      8  C12 ZIN A   1      17.744   2.290  10.770  0.00  0.00     0.030 A 
ATOM      9  N16 ZIN A   1      17.766   2.284  12.138  0.00  0.00    -0.348 N 
ATOM     10  C15 ZIN A   1      17.876   3.568  12.542  0.00  0.00     0.209 A 
ATOM     11  C17 ZIN A   1      17.696   1.104  13.004  0.00  0.00     0.157 C 
ATOM     12  N14 ZIN A   1      17.910   4.336  11.489  0.00  0.00    -0.254 NA
ATOM     13  C13 ZIN A   1      17.830   3.578  10.385  0.00  0.00     0.143 A 
ENDBRANCH   7   8
ENDBRANCH   6   7
BRANCH   1  14
ATOM     14  C2  ZIN A   1      17.317  -0.103   7.516  0.00  0.00     0.010 C 
ATOM     15  C1  ZIN A   1      17.192  -0.057   5.992  0.00  0.00     0.006 C 
ENDBRANCH   1  14
TORSDOF 3
ENDMDL
MODEL 7
REMARK VINA RESULT:      -5.2      5.334      7.048
REMARK  3 active torsions:
REMARK  status: ('A' for Active; 'I' for Inactive)
REMARK    1  A    between atoms: C2_2  and  C3_3 
REMARK    2  A    between atoms: C9_8  and  C11_9 
REMARK    3  A    between atoms: C11_9  and  C12_10 
ROOT
ATOM      1  C3  ZIN A   1      17.445   1.093  13.006  0.00  0.00     0.091 C 
ATOM      2  C5  ZIN A   1      17.645   2.230  12.027  0.00  0.00     0.263 C 
ATOM      3  O6  ZIN A   1      17.412   2.175  10.843  0.00  0.00    -0.265 OA
ATOM      4  O7  ZIN A   1      18.119   3.306  12.670  0.00  0.00    -0.321 OA
ATOM      5  C8  ZIN A   1      17.821   3.204  14.094  0.00  0.00     0.184 C 
ATOM      6  C9  ZIN A   1      17.824   1.683  14.383  0.00  0.00     0.029 C 
ENDROOT
BRANCH   6   7
ATOM      7  C11 ZIN A   1      19.214   1.213  14.817  0.00  0.00     0.066 C 
BRANCH   7   8
ATOM      8  C12 ZIN A   1      19.236   1.025  16.311  0.00  0.00     0.030 A 
ATOM      9  N16 ZIN A   1      19.082  -0.155  16.987  0.00  0.00    -0.348 N 
ATOM     10  C15 ZIN A   1      19.173   0.125  18.306  0.00  0.00     0.209 A 
ATOM     11  C17 ZIN A   1      18.871  -1.478  16.392  0.00  0.00     0.157 C 
ATOM     12  N14 ZIN A   1      19.362   1.407  18.449  0.00  0.00    -0.254 NA
ATOM     13  C13 ZIN A   1      19.405   1.986  17.240  0.00  0.00     0.143 A 
ENDBRANCH   7   8
ENDBRANCH   6   7
BRANCH   1  14
ATOM     14  C2  ZIN A   1      18.365  -0.079  12.657  0.00  0.00     0.010 C 
ATOM     15  C1  ZIN A   1      17.520  -1.285  12.243  0.00  0.00     0.006 C 
ENDBRANCH   1  14
TORSDOF 3
ENDMDL
MODEL 8
REMARK VINA RESULT:      -5.2      3.248      4.852
REMARK  3 active torsions:
REMARK  status: ('A' for Active; 'I' for Inactive)
REMARK    1  A    between atoms: C2_2  and  C3_3 
REMARK    2  A    between atoms: C9_8  and  C11_9 
REMARK    3  A    between atoms: C11_9  and  C12_10 
ROOT
ATOM      1  C3  ZIN A   1      18.061   1.579   9.449  0.00  0.00     0.091 C 
ATOM      2  C5  ZIN A   1      18.012   2.799  10.344  0.00  0.00     0.263 C 
ATOM      3  O6  ZIN A   1      17.965   3.942   9.956  0.00  0.00    -0.265 OA
ATOM      4  O7  ZIN A   1      18.027   2.421  11.629  0.00  0.00    -0.321 OA
ATOM      5  C8  ZIN A   1      17.595   1.033  11.744  0.00  0.00     0.184 C 
ATOM      6  C9  ZIN A   1      18.048   0.375  10.417  0.00  0.00     0.029 C 
ENDROOT
BRANCH   6   7
ATOM      7  C11 ZIN A   1      19.446  -0.231  10.559  0.00  0.00     0.066 C 
BRANCH   7   8
ATOM      8  C12 ZIN A   1      19.335  -1.728  10.682  0.00  0.00     0.030 A 
ATOM      9  N16 ZIN A   1      19.127  -2.617   9.662  0.00  0.00    -0.348 N 
ATOM     10  C15 ZIN A   1      19.096  -3.851  10.209  0.00  0.00     0.209 A 
ATOM     11  C17 ZIN A   1      18.976  -2.291   8.241  0.00  0.00     0.157 C 
ATOM     12  N14 ZIN A   1      19.265  -3.743  11.497  0.00  0.00    -0.254 NA
ATOM     13  C13 ZIN A   1      19.414  -2.449  11.817  0.00  0.00     0.143 A 
ENDBRANCH   7   8
ENDBRANCH   6   7
BRANCH   1  14
ATOM     14  C2  ZIN A   1      19.345   1.579   8.617  0.00  0.00     0.010 C 
ATOM     15  C1  ZIN A   1      19.002   1.325   7.149  0.00  0.00     0.006 C 
ENDBRANCH   1  14
TORSDOF 3
ENDMDL
MODEL 9
REMARK VINA RESULT:      -5.1      1.575      1.954
REMARK  3 active torsions:
REMARK  status: ('A' for Active; 'I' for Inactive)
REMARK    1  A    between atoms: C2_2  and  C3_3 
REMARK    2  A    between atoms: C9_8  and  C11_9 
REMARK    3  A    between atoms: C11_9  and  C12_10 
ROOT
ATOM      1  C3  ZIN A   1      18.449  -1.302   6.252  0.00  0.00     0.091 C 
ATOM      2  C5  ZIN A   1      19.149  -0.213   5.469  0.00  0.00     0.263 C 
ATOM      3  O6  ZIN A   1      19.497  -0.302   4.315  0.00  0.00    -0.265 OA
ATOM      4  O7  ZIN A   1      19.326   0.864   6.245  0.00  0.00    -0.321 OA
ATOM      5  C8  ZIN A   1      18.390   0.829   7.362  0.00  0.00     0.184 C 
ATOM      6  C9  ZIN A   1      18.170  -0.678   7.638  0.00  0.00     0.029 C 
ENDROOT
BRANCH   6   7
ATOM      7  C11 ZIN A   1      19.165  -1.193   8.681  0.00  0.00     0.066 C 
BRANCH   7   8
ATOM      8  C12 ZIN A   1      18.413  -1.711   9.879  0.00  0.00     0.030 A 
ATOM      9  N16 ZIN A   1      18.392  -3.003  10.332  0.00  0.00    -0.348 N 
ATOM     10  C15 ZIN A   1      17.601  -3.028  11.427  0.00  0.00     0.209 A 
ATOM     11  C17 ZIN A   1      19.103  -4.142   9.747  0.00  0.00     0.157 C 
ATOM     12  N14 ZIN A   1      17.144  -1.826  11.642  0.00  0.00    -0.254 NA
ATOM     13  C13 ZIN A   1      17.626  -0.995  10.705  0.00  0.00     0.143 A 
ENDBRANCH   7   8
ENDBRANCH   6   7
BRANCH   1  14
ATOM     14  C2  ZIN A   1      19.357  -2.526   6.392  0.00  0.00     0.010 C 
ATOM     15  C1  ZIN A   1      18.954  -3.581   5.360  0.00  0.00     0.006 C 
ENDBRANCH   1  14
TORSDOF 3
ENDMDL
