MODEL 1
REMARK VINA RESULT:      -3.9      0.000      0.000
REMARK  3 active torsions:
REMARK  status: ('A' for Active; 'I' for Inactive)
REMARK    1  A    between atoms: N1_1  and  C5_5 
REMARK    2  A    between atoms: C5_5  and  C6_6 
REMARK    3  A    between atoms: C6_6  and  C7_7 
ROOT
ATOM      1  C7  <0> d   1      19.804   0.087   9.235  0.00  0.00     0.027 A 
ATOM      2  C8  <0> d   1      19.252  -0.526   8.171  0.00  0.00     0.114 A 
ATOM      3  N9  <0> d   1      18.888   0.459   7.291  0.00  0.00    -0.360 N 
ATOM      4  C10 <0> d   1      19.230   1.639   7.850  0.00  0.00     0.180 A 
ATOM      5  N11 <0> d   1      19.772   1.410   9.015  0.00  0.00    -0.355 N 
ATOM      6  H12 <0> d   1      20.105   2.089   9.623  0.00  0.00     0.166 HD
ATOM      7  H18 <0> d   1      18.464   0.331   6.428  0.00  0.00     0.166 HD
ENDROOT
BRANCH   1   8
ATOM      8  C6  <0> d   1      20.354  -0.593  10.462  0.00  0.00     0.085 C 
BRANCH   8   9
ATOM      9  C5  <0> d   1      20.249   0.354  11.660  0.00  0.00     0.235 C 
BRANCH   9  10
ATOM     10  N1  <0> d   1      21.591   0.622  12.191  0.00  0.00    -0.079 N 
ATOM     11  H2  <0> d   1      21.523   1.241  12.985  0.00  0.00     0.274 HD
ATOM     12  H3  <0> d   1      22.156   1.056  11.476  0.00  0.00     0.274 HD
ATOM     13  H4  <0> d   1      22.020  -0.246  12.477  0.00  0.00     0.274 HD
ENDBRANCH   9  10
ENDBRANCH   8   9
ENDBRANCH   1   8
TORSDOF 3
ENDMDL
MODEL 2
REMARK VINA RESULT:      -3.9      3.225      4.406
REMARK  3 active torsions:
REMARK  status: ('A' for Active; 'I' for Inactive)
REMARK    1  A    between atoms: N1_1  and  C5_5 
REMARK    2  A    between atoms: C5_5  and  C6_6 
REMARK    3  A    between atoms: C6_6  and  C7_7 
ROOT
ATOM      1  C7  <0> d   1      19.485  -2.301  11.985  0.00  0.00     0.027 A 
ATOM      2  C8  <0> d   1      18.396  -3.092  12.044  0.00  0.00     0.114 A 
ATOM      3  N9  <0> d   1      18.779  -4.327  11.591  0.00  0.00    -0.360 N 
ATOM      4  C10 <0> d   1      20.088  -4.246  11.271  0.00  0.00     0.180 A 
ATOM      5  N11 <0> d   1      20.502  -3.031  11.504  0.00  0.00    -0.355 N 
ATOM      6  H12 <0> d   1      21.405  -2.707  11.359  0.00  0.00     0.166 HD
ATOM      7  H18 <0> d   1      18.215  -5.112  11.515  0.00  0.00     0.166 HD
ENDROOT
BRANCH   1   8
ATOM      8  C6  <0> d   1      19.547  -0.849  12.384  0.00  0.00     0.085 C 
BRANCH   8   9
ATOM      9  C5  <0> d   1      20.433  -0.087  11.396  0.00  0.00     0.235 C 
BRANCH   9  10
ATOM     10  N1  <0> d   1      21.537   0.553  12.122  0.00  0.00    -0.079 N 
ATOM     11  H2  <0> d   1      22.224   0.889  11.464  0.00  0.00     0.274 HD
ATOM     12  H3  <0> d   1      21.967  -0.119  12.741  0.00  0.00     0.274 HD
ATOM     13  H4  <0> d   1      21.181   1.327  12.662  0.00  0.00     0.274 HD
ENDBRANCH   9  10
ENDBRANCH   8   9
ENDBRANCH   1   8
TORSDOF 3
ENDMDL
MODEL 3
REMARK VINA RESULT:      -3.8      3.638      5.935
REMARK  3 active torsions:
REMARK  status: ('A' for Active; 'I' for Inactive)
REMARK    1  A    between atoms: N1_1  and  C5_5 
REMARK    2  A    between atoms: C5_5  and  C6_6 
REMARK    3  A    between atoms: C6_6  and  C7_7 
ROOT
ATOM      1  C7  <0> d   1      19.285   1.160  14.707  0.00  0.00     0.027 A 
ATOM      2  C8  <0> d   1      18.573   0.952  15.830  0.00  0.00     0.114 A 
ATOM      3  N9  <0> d   1      18.214   2.185  16.305  0.00  0.00    -0.360 N 
ATOM      4  C10 <0> d   1      18.720   3.103  15.455  0.00  0.00     0.180 A 
ATOM      5  N11 <0> d   1      19.364   2.483  14.504  0.00  0.00    -0.355 N 
ATOM      6  H12 <0> d   1      19.822   2.911  13.764  0.00  0.00     0.166 HD
ATOM      7  H18 <0> d   1      17.692   2.365  17.104  0.00  0.00     0.166 HD
ENDROOT
BRANCH   1   8
ATOM      8  C6  <0> d   1      19.893   0.093  13.834  0.00  0.00     0.085 C 
BRANCH   8   9
ATOM      9  C5  <0> d   1      20.152   0.663  12.437  0.00  0.00     0.235 C 
BRANCH   9  10
ATOM     10  N1  <0> d   1      21.589   0.604  12.143  0.00  0.00    -0.079 N 
ATOM     11  H2  <0> d   1      22.113   0.798  12.983  0.00  0.00     0.274 HD
ATOM     12  H3  <0> d   1      21.817   1.290  11.439  0.00  0.00     0.274 HD
ATOM     13  H4  <0> d   1      21.826  -0.317  11.804  0.00  0.00     0.274 HD
ENDBRANCH   9  10
ENDBRANCH   8   9
ENDBRANCH   1   8
TORSDOF 3
ENDMDL
MODEL 4
REMARK VINA RESULT:      -3.8      1.867      2.472
REMARK  3 active torsions:
REMARK  status: ('A' for Active; 'I' for Inactive)
REMARK    1  A    between atoms: N1_1  and  C5_5 
REMARK    2  A    between atoms: C5_5  and  C6_6 
REMARK    3  A    between atoms: C6_6  and  C7_7 
ROOT
ATOM      1  C7  <0> d   1      19.151  -0.882   8.489  0.00  0.00     0.027 A 
ATOM      2  C8  <0> d   1      17.985  -0.720   7.836  0.00  0.00     0.114 A 
ATOM      3  N9  <0> d   1      17.784  -1.857   7.098  0.00  0.00    -0.360 N 
ATOM      4  C10 <0> d   1      18.835  -2.672   7.328  0.00  0.00     0.180 A 
ATOM      5  N11 <0> d   1      19.651  -2.080   8.156  0.00  0.00    -0.355 N 
ATOM      6  H12 <0> d   1      20.485  -2.452   8.485  0.00  0.00     0.166 HD
ATOM      7  H18 <0> d   1      17.027  -2.041   6.519  0.00  0.00     0.166 HD
ENDROOT
BRANCH   1   8
ATOM      8  C6  <0> d   1      19.786   0.113   9.426  0.00  0.00     0.085 C 
BRANCH   8   9
ATOM      9  C5  <0> d   1      20.124  -0.577  10.750  0.00  0.00     0.235 C 
BRANCH   9  10
ATOM     10  N1  <0> d   1      21.581  -0.592  10.935  0.00  0.00    -0.079 N 
ATOM     11  H2  <0> d   1      22.035  -0.442  10.046  0.00  0.00     0.274 HD
ATOM     12  H3  <0> d   1      21.863  -1.486  11.309  0.00  0.00     0.274 HD
ATOM     13  H4  <0> d   1      21.847   0.140  11.576  0.00  0.00     0.274 HD
ENDBRANCH   9  10
ENDBRANCH   8   9
ENDBRANCH   1   8
TORSDOF 3
ENDMDL
MODEL 5
REMARK VINA RESULT:      -3.7      1.801      2.233
REMARK  3 active torsions:
REMARK  status: ('A' for Active; 'I' for Inactive)
REMARK    1  A    between atoms: N1_1  and  C5_5 
REMARK    2  A    between atoms: C5_5  and  C6_6 
REMARK    3  A    between atoms: C6_6  and  C7_7 
ROOT
ATOM      1  C7  <0> d   1      18.992   0.847   9.802  0.00  0.00     0.027 A 
ATOM      2  C8  <0> d   1      17.795   1.078  10.374  0.00  0.00     0.114 A 
ATOM      3  N9  <0> d   1      17.627   2.438  10.402  0.00  0.00    -0.360 N 
ATOM      4  C10 <0> d   1      18.727   2.987   9.846  0.00  0.00     0.180 A 
ATOM      5  N11 <0> d   1      19.542   2.030   9.494  0.00  0.00    -0.355 N 
ATOM      6  H12 <0> d   1      20.406   2.156   9.071  0.00  0.00     0.166 HD
ATOM      7  H18 <0> d   1      16.860   2.915  10.755  0.00  0.00     0.166 HD
ENDROOT
BRANCH   1   8
ATOM      8  C6  <0> d   1      19.609  -0.506   9.557  0.00  0.00     0.085 C 
BRANCH   8   9
ATOM      9  C5  <0> d   1      20.201  -1.041  10.863  0.00  0.00     0.235 C 
BRANCH   9  10
ATOM     10  N1  <0> d   1      21.591  -0.587  10.993  0.00  0.00    -0.079 N 
ATOM     11  H2  <0> d   1      22.175  -1.102  10.352  0.00  0.00     0.274 HD
ATOM     12  H3  <0> d   1      21.909  -0.743  11.937  0.00  0.00     0.274 HD
ATOM     13  H4  <0> d   1      21.644   0.398  10.778  0.00  0.00     0.274 HD
ENDBRANCH   9  10
ENDBRANCH   8   9
ENDBRANCH   1   8
TORSDOF 3
ENDMDL
MODEL 6
REMARK VINA RESULT:      -3.5      2.967      4.958
REMARK  3 active torsions:
REMARK  status: ('A' for Active; 'I' for Inactive)
REMARK    1  A    between atoms: N1_1  and  C5_5 
REMARK    2  A    between atoms: C5_5  and  C6_6 
REMARK    3  A    between atoms: C6_6  and  C7_7 
ROOT
ATOM      1  C7  <0> d   1      19.215   1.281  13.108  0.00  0.00     0.027 A 
ATOM      2  C8  <0> d   1      17.891   1.411  13.318  0.00  0.00     0.114 A 
ATOM      3  N9  <0> d   1      17.715   1.528  14.671  0.00  0.00    -0.360 N 
ATOM      4  C10 <0> d   1      18.938   1.466  15.239  0.00  0.00     0.180 A 
ATOM      5  N11 <0> d   1      19.830   1.312  14.299  0.00  0.00    -0.355 N 
ATOM      6  H12 <0> d   1      20.787   1.239  14.439  0.00  0.00     0.166 HD
ATOM      7  H18 <0> d   1      16.869   1.637  15.135  0.00  0.00     0.166 HD
ENDROOT
BRANCH   1   8
ATOM      8  C6  <0> d   1      19.887   1.121  11.768  0.00  0.00     0.085 C 
BRANCH   8   9
ATOM      9  C5  <0> d   1      20.158  -0.363  11.508  0.00  0.00     0.235 C 
BRANCH   9  10
ATOM     10  N1  <0> d   1      21.525  -0.528  10.997  0.00  0.00    -0.079 N 
ATOM     11  H2  <0> d   1      21.647   0.040  10.172  0.00  0.00     0.274 HD
ATOM     12  H3  <0> d   1      21.683  -1.497  10.764  0.00  0.00     0.274 HD
ATOM     13  H4  <0> d   1      22.185  -0.240  11.704  0.00  0.00     0.274 HD
ENDBRANCH   9  10
ENDBRANCH   8   9
ENDBRANCH   1   8
TORSDOF 3
ENDMDL
MODEL 7
REMARK VINA RESULT:      -3.4      2.190      2.507
REMARK  3 active torsions:
REMARK  status: ('A' for Active; 'I' for Inactive)
REMARK    1  A    between atoms: N1_1  and  C5_5 
REMARK    2  A    between atoms: C5_5  and  C6_6 
REMARK    3  A    between atoms: C6_6  and  C7_7 
ROOT
ATOM      1  C7  <0> d   1      18.579   2.165   9.590  0.00  0.00     0.027 A 
ATOM      2  C8  <0> d   1      17.785   1.085   9.713  0.00  0.00     0.114 A 
ATOM      3  N9  <0> d   1      18.044   0.278   8.636  0.00  0.00    -0.360 N 
ATOM      4  C10 <0> d   1      18.987   0.896   7.893  0.00  0.00     0.180 A 
ATOM      5  N11 <0> d   1      19.298   2.026   8.466  0.00  0.00    -0.355 N 
ATOM      6  H12 <0> d   1      19.952   2.662   8.135  0.00  0.00     0.166 HD
ATOM      7  H18 <0> d   1      17.627  -0.577   8.445  0.00  0.00     0.166 HD
ENDROOT
BRANCH   1   8
ATOM      8  C6  <0> d   1      18.643   3.330  10.543  0.00  0.00     0.085 C 
BRANCH   8   9
ATOM      9  C5  <0> d   1      19.417   2.920  11.799  0.00  0.00     0.235 C 
BRANCH   9  10
ATOM     10  N1  <0> d   1      20.846   3.193  11.604  0.00  0.00    -0.079 N 
ATOM     11  H2  <0> d   1      21.012   3.450  10.643  0.00  0.00     0.274 HD
ATOM     12  H3  <0> d   1      21.381   2.367  11.829  0.00  0.00     0.274 HD
ATOM     13  H4  <0> d   1      21.129   3.951  12.208  0.00  0.00     0.274 HD
ENDBRANCH   9  10
ENDBRANCH   8   9
ENDBRANCH   1   8
TORSDOF 3
ENDMDL
MODEL 8
REMARK VINA RESULT:      -3.4      2.561      3.902
REMARK  3 active torsions:
REMARK  status: ('A' for Active; 'I' for Inactive)
REMARK    1  A    between atoms: N1_1  and  C5_5 
REMARK    2  A    between atoms: C5_5  and  C6_6 
REMARK    3  A    between atoms: C6_6  and  C7_7 
ROOT
ATOM      1  C7  <0> d   1      18.618  -0.577   6.203  0.00  0.00     0.027 A 
ATOM      2  C8  <0> d   1      19.257  -0.266   5.059  0.00  0.00     0.114 A 
ATOM      3  N9  <0> d   1      18.535  -0.826   4.038  0.00  0.00    -0.360 N 
ATOM      4  C10 <0> d   1      17.482  -1.460   4.595  0.00  0.00     0.180 A 
ATOM      5  N11 <0> d   1      17.540  -1.311   5.890  0.00  0.00    -0.355 N 
ATOM      6  H12 <0> d   1      16.901  -1.670   6.526  0.00  0.00     0.166 HD
ATOM      7  H18 <0> d   1      18.744  -0.776   3.091  0.00  0.00     0.166 HD
ENDROOT
BRANCH   1   8
ATOM      8  C6  <0> d   1      19.043  -0.177   7.592  0.00  0.00     0.085 C 
BRANCH   8   9
ATOM      9  C5  <0> d   1      19.170   1.347   7.667  0.00  0.00     0.235 C 
BRANCH   9  10
ATOM     10  N1  <0> d   1      19.774   1.725   8.950  0.00  0.00    -0.079 N 
ATOM     11  H2  <0> d   1      19.064   2.100   9.560  0.00  0.00     0.274 HD
ATOM     12  H3  <0> d   1      20.486   2.423   8.794  0.00  0.00     0.274 HD
ATOM     13  H4  <0> d   1      20.190   0.912   9.379  0.00  0.00     0.274 HD
ENDBRANCH   9  10
ENDBRANCH   8   9
ENDBRANCH   1   8
TORSDOF 3
ENDMDL
MODEL 9
REMARK VINA RESULT:      -3.3      4.096      5.792
REMARK  3 active torsions:
REMARK  status: ('A' for Active; 'I' for Inactive)
REMARK    1  A    between atoms: N1_1  and  C5_5 
REMARK    2  A    between atoms: C5_5  and  C6_6 
REMARK    3  A    between atoms: C6_6  and  C7_7 
ROOT
ATOM      1  C7  <0> d   1      19.346   0.291  14.731  0.00  0.00     0.027 A 
ATOM      2  C8  <0> d   1      19.402  -0.957  14.229  0.00  0.00     0.114 A 
ATOM      3  N9  <0> d   1      20.021  -0.866  13.010  0.00  0.00    -0.360 N 
ATOM      4  C10 <0> d   1      20.321   0.435  12.812  0.00  0.00     0.180 A 
ATOM      5  N11 <0> d   1      19.910   1.122  13.842  0.00  0.00    -0.355 N 
ATOM      6  H12 <0> d   1      20.004   2.082  13.951  0.00  0.00     0.166 HD
ATOM      7  H18 <0> d   1      20.208  -1.600  12.403  0.00  0.00     0.166 HD
ENDROOT
BRANCH   1   8
ATOM      8  C6  <0> d   1      18.749   0.686  16.057  0.00  0.00     0.085 C 
BRANCH   8   9
ATOM      9  C5  <0> d   1      17.793  -0.411  16.533  0.00  0.00     0.235 C 
BRANCH   9  10
ATOM     10  N1  <0> d   1      16.536   0.198  16.985  0.00  0.00    -0.079 N 
ATOM     11  H2  <0> d   1      16.737   1.036  17.510  0.00  0.00     0.274 HD
ATOM     12  H3  <0> d   1      16.038  -0.455  17.572  0.00  0.00     0.274 HD
ATOM     13  H4  <0> d   1      15.968   0.432  16.184  0.00  0.00     0.274 HD
ENDBRANCH   9  10
ENDBRANCH   8   9
ENDBRANCH   1   8
TORSDOF 3
ENDMDL
