MODEL 1
REMARK VINA RESULT:      -9.9      0.000      0.000
REMARK  14 active torsions:
REMARK  status: ('A' for Active; 'I' for Inactive)
REMARK    1  A    between atoms: C2_2  and  N5_5 
REMARK       I    between atoms: N5_5  and  C6_6 
REMARK    2  A    between atoms: C6_6  and  C8_8 
REMARK    3  A    between atoms: N11_10  and  C13_12 
REMARK    4  A    between atoms: C13_12  and  C14_13 
REMARK    5  A    between atoms: N22_21  and  C23_22 
REMARK    6  A    between atoms: C23_22  and  C24_23 
REMARK    7  A    between atoms: C24_23  and  O26_24 
REMARK    8  A    between atoms: C24_23  and  C27_25 
REMARK    9  A    between atoms: C27_25  and  C28_26 
REMARK   10  A    between atoms: C28_26  and  C30_27 
REMARK   11  A    between atoms: C28_26  and  C37_34 
REMARK   12  A    between atoms: C30_27  and  C31_28 
REMARK       I    between atoms: C37_34  and  N39_36 
REMARK   13  A    between atoms: N39_36  and  C40_37 
REMARK   14  A    between atoms: C49_45  and  O51_46 
ROOT
ATOM      1  C24 ZIN A   1      18.788  -3.606  11.227  0.00  0.00     0.147 C 
ENDROOT
BRANCH   1   2
ATOM      2  C23 ZIN A   1      19.338  -3.239   9.846  0.00  0.00     0.305 C 
BRANCH   2   3
ATOM      3  N22 ZIN A   1      18.923  -4.255   8.869  0.00  0.00     0.108 N 
ATOM      4  C8  ZIN A   1      19.612  -4.063   7.585  0.00  0.00     0.339 C 
ATOM      5  C10 ZIN A   1      19.197  -5.174   6.617  0.00  0.00     0.281 C 
ATOM      6  N11 ZIN A   1      17.743  -5.136   6.421  0.00  0.00    -0.063 N 
ATOM      7  H12 ZIN A   1      17.477  -4.237   6.050  0.00  0.00     0.280 HD
ATOM      8  C20 ZIN A   1      17.068  -5.354   7.707  0.00  0.00     0.265 C 
ATOM      9  C21 ZIN A   1      17.464  -4.244   8.685  0.00  0.00     0.301 C 
BRANCH   4  10
ATOM     10  C6  ZIN A   1      19.234  -2.725   7.006  0.00  0.00     0.253 C 
ATOM     11  N5  ZIN A   1      18.542  -2.661   5.852  0.00  0.00    -0.351 N 
ATOM     12  H61 ZIN A   1      18.287  -3.478   5.393  0.00  0.00     0.163 HD
ATOM     13  O7  ZIN A   1      19.554  -1.704   7.578  0.00  0.00    -0.271 OA
BRANCH  11  14
ATOM     14  C2  ZIN A   1      18.175  -1.359   5.289  0.00  0.00     0.022 C 
ATOM     15  C1  ZIN A   1      17.249  -1.565   4.089  0.00  0.00     0.037 C 
ATOM     16  C3  ZIN A   1      19.439  -0.623   4.838  0.00  0.00     0.037 C 
ATOM     17  C4  ZIN A   1      17.453  -0.529   6.353  0.00  0.00     0.037 C 
ENDBRANCH  11  14
ENDBRANCH   4  10
BRANCH   6  18
ATOM     18  C13 ZIN A   1      17.348  -6.191   5.478  0.00  0.00     0.275 C 
BRANCH  18  19
ATOM     19  C14 ZIN A   1      16.743  -5.565   4.248  0.00  0.00    -0.015 A 
ATOM     20  C19 ZIN A   1      15.388  -5.303   4.190  0.00  0.00     0.125 A 
ATOM     21  N18 ZIN A   1      14.851  -4.751   3.119  0.00  0.00    -0.273 NA
ATOM     22  C17 ZIN A   1      15.578  -4.439   2.063  0.00  0.00     0.116 A 
ATOM     23  C16 ZIN A   1      16.940  -4.677   2.046  0.00  0.00     0.020 A 
ATOM     24  C15 ZIN A   1      17.539  -5.250   3.157  0.00  0.00     0.012 A 
ENDBRANCH  18  19
ENDBRANCH   6  18
ENDBRANCH   2   3
ENDBRANCH   1   2
BRANCH   1  25
ATOM     25  O26 ZIN A   1      18.818  -5.025  11.390  0.00  0.00    -0.394 OA
ATOM     26  H76 ZIN A   1      18.811  -5.517  10.557  0.00  0.00     0.210 HD
ENDBRANCH   1  25
BRANCH   1  27
ATOM     27  C27 ZIN A   1      19.650  -2.950  12.308  0.00  0.00     0.047 C 
BRANCH  27  28
ATOM     28  C28 ZIN A   1      18.788  -1.998  13.140  0.00  0.00     0.084 C 
BRANCH  28  29
ATOM     29  C30 ZIN A   1      19.683  -1.196  14.087  0.00  0.00     0.052 C 
BRANCH  29  30
ATOM     30  C31 ZIN A   1      18.858  -0.673  15.235  0.00  0.00    -0.057 A 
ATOM     31  C36 ZIN A   1      17.955  -1.504  15.872  0.00  0.00     0.007 A 
ATOM     32  C35 ZIN A   1      17.200  -1.027  16.927  0.00  0.00     0.001 A 
ATOM     33  C34 ZIN A   1      17.343   0.285  17.341  0.00  0.00     0.000 A 
ATOM     34  C33 ZIN A   1      18.241   1.117  16.700  0.00  0.00     0.001 A 
ATOM     35  C32 ZIN A   1      18.999   0.638  15.647  0.00  0.00     0.007 A 
ENDBRANCH  29  30
ENDBRANCH  28  29
BRANCH  28  36
ATOM     36  C37 ZIN A   1      18.053  -1.055  12.224  0.00  0.00     0.222 C 
ATOM     37  O38 ZIN A   1      16.845  -1.114  12.135  0.00  0.00    -0.273 OA
ATOM     38  N39 ZIN A   1      18.737  -0.145  11.503  0.00  0.00    -0.350 N 
ATOM     39  H86 ZIN A   1      19.707  -0.150  11.511  0.00  0.00     0.163 HD
BRANCH  38  40
ATOM     40  C40 ZIN A   1      18.016   0.853  10.708  0.00  0.00     0.147 C 
ATOM     41  C49 ZIN A   1      18.754   1.113   9.378  0.00  0.00     0.149 C 
ATOM     42  C48 ZIN A   1      18.497   2.619   9.146  0.00  0.00     0.073 C 
ATOM     43  C47 ZIN A   1      18.281   3.201  10.527  0.00  0.00    -0.047 A 
ATOM     44  C42 ZIN A   1      18.005   2.186  11.424  0.00  0.00    -0.027 A 
ATOM     45  C46 ZIN A   1      18.322   4.515  10.963  0.00  0.00     0.008 A 
ATOM     46  C43 ZIN A   1      17.770   2.488  12.755  0.00  0.00     0.010 A 
ATOM     47  C44 ZIN A   1      17.811   3.800  13.188  0.00  0.00     0.001 A 
ATOM     48  C45 ZIN A   1      18.088   4.814  12.291  0.00  0.00     0.001 A 
BRANCH  41  49
ATOM     49  O51 ZIN A   1      20.152   0.850   9.511  0.00  0.00    -0.393 OA
ATOM     50  H93 ZIN A   1      20.413   0.550  10.393  0.00  0.00     0.210 HD
ENDBRANCH  41  49
ENDBRANCH  38  40
ENDBRANCH  28  36
ENDBRANCH  27  28
ENDBRANCH   1  27
TORSDOF 14
ENDMDL
MODEL 2
REMARK VINA RESULT:      -9.8      1.232      2.598
REMARK  14 active torsions:
REMARK  status: ('A' for Active; 'I' for Inactive)
REMARK    1  A    between atoms: C2_2  and  N5_5 
REMARK       I    between atoms: N5_5  and  C6_6 
REMARK    2  A    between atoms: C6_6  and  C8_8 
REMARK    3  A    between atoms: N11_10  and  C13_12 
REMARK    4  A    between atoms: C13_12  and  C14_13 
REMARK    5  A    between atoms: N22_21  and  C23_22 
REMARK    6  A    between atoms: C23_22  and  C24_23 
REMARK    7  A    between atoms: C24_23  and  O26_24 
REMARK    8  A    between atoms: C24_23  and  C27_25 
REMARK    9  A    between atoms: C27_25  and  C28_26 
REMARK   10  A    between atoms: C28_26  and  C30_27 
REMARK   11  A    between atoms: C28_26  and  C37_34 
REMARK   12  A    between atoms: C30_27  and  C31_28 
REMARK       I    between atoms: C37_34  and  N39_36 
REMARK   13  A    between atoms: N39_36  and  C40_37 
REMARK   14  A    between atoms: C49_45  and  O51_46 
ROOT
ATOM      1  C24 ZIN A   1      18.408  -4.107  11.349  0.00  0.00     0.147 C 
ENDROOT
BRANCH   1   2
ATOM      2  C23 ZIN A   1      19.190  -4.997  10.379  0.00  0.00     0.305 C 
BRANCH   2   3
ATOM      3  N22 ZIN A   1      19.307  -4.319   9.081  0.00  0.00     0.108 N 
ATOM      4  C8  ZIN A   1      18.002  -3.819   8.627  0.00  0.00     0.339 C 
ATOM      5  C10 ZIN A   1      18.178  -3.070   7.304  0.00  0.00     0.281 C 
ATOM      6  N11 ZIN A   1      18.748  -3.976   6.300  0.00  0.00    -0.063 N 
ATOM      7  H12 ZIN A   1      18.134  -4.766   6.172  0.00  0.00     0.280 HD
ATOM      8  C20 ZIN A   1      20.063  -4.449   6.755  0.00  0.00     0.265 C 
ATOM      9  C21 ZIN A   1      19.904  -5.210   8.074  0.00  0.00     0.301 C 
BRANCH   4  10
ATOM     10  C6  ZIN A   1      17.060  -4.978   8.427  0.00  0.00     0.253 C 
ATOM     11  N5  ZIN A   1      16.529  -5.213   7.212  0.00  0.00    -0.351 N 
ATOM     12  H61 ZIN A   1      16.754  -4.636   6.465  0.00  0.00     0.163 HD
ATOM     13  O7  ZIN A   1      16.780  -5.699   9.362  0.00  0.00    -0.271 OA
BRANCH  11  14
ATOM     14  C2  ZIN A   1      15.614  -6.340   7.018  0.00  0.00     0.022 C 
ATOM     15  C1  ZIN A   1      14.450  -6.228   8.005  0.00  0.00     0.037 C 
ATOM     16  C3  ZIN A   1      16.362  -7.653   7.259  0.00  0.00     0.037 C 
ATOM     17  C4  ZIN A   1      15.072  -6.317   5.587  0.00  0.00     0.037 C 
ENDBRANCH  11  14
ENDBRANCH   4  10
BRANCH   6  18
ATOM     18  C13 ZIN A   1      18.901  -3.262   5.026  0.00  0.00     0.275 C 
BRANCH  18  19
ATOM     19  C14 ZIN A   1      17.898  -3.788   4.032  0.00  0.00    -0.015 A 
ATOM     20  C19 ZIN A   1      16.634  -3.234   3.951  0.00  0.00     0.125 A 
ATOM     21  N18 ZIN A   1      15.753  -3.685   3.080  0.00  0.00    -0.273 NA
ATOM     22  C17 ZIN A   1      16.034  -4.684   2.265  0.00  0.00     0.116 A 
ATOM     23  C16 ZIN A   1      17.275  -5.292   2.292  0.00  0.00     0.020 A 
ATOM     24  C15 ZIN A   1      18.228  -4.840   3.190  0.00  0.00     0.012 A 
ENDBRANCH  18  19
ENDBRANCH   6  18
ENDBRANCH   2   3
ENDBRANCH   1   2
BRANCH   1  25
ATOM     25  O26 ZIN A   1      17.618  -4.924  12.214  0.00  0.00    -0.394 OA
ATOM     26  H76 ZIN A   1      17.031  -5.537  11.748  0.00  0.00     0.210 HD
ENDBRANCH   1  25
BRANCH   1  27
ATOM     27  C27 ZIN A   1      19.389  -3.281  12.184  0.00  0.00     0.047 C 
BRANCH  27  28
ATOM     28  C28 ZIN A   1      18.633  -2.154  12.892  0.00  0.00     0.084 C 
BRANCH  28  29
ATOM     29  C30 ZIN A   1      19.613  -1.331  13.731  0.00  0.00     0.052 C 
BRANCH  29  30
ATOM     30  C31 ZIN A   1      18.888  -0.735  14.909  0.00  0.00    -0.057 A 
ATOM     31  C36 ZIN A   1      18.162  -1.549  15.758  0.00  0.00     0.007 A 
ATOM     32  C35 ZIN A   1      17.499  -1.004  16.842  0.00  0.00     0.001 A 
ATOM     33  C34 ZIN A   1      17.556   0.359  17.072  0.00  0.00     0.000 A 
ATOM     34  C33 ZIN A   1      18.277   1.173  16.220  0.00  0.00     0.001 A 
ATOM     35  C32 ZIN A   1      18.944   0.627  15.138  0.00  0.00     0.007 A 
ENDBRANCH  29  30
ENDBRANCH  28  29
BRANCH  28  36
ATOM     36  C37 ZIN A   1      17.980  -1.265  11.866  0.00  0.00     0.222 C 
ATOM     37  O38 ZIN A   1      16.771  -1.233  11.774  0.00  0.00    -0.273 OA
ATOM     38  N39 ZIN A   1      18.738  -0.506  11.051  0.00  0.00    -0.350 N 
ATOM     39  H86 ZIN A   1      19.704  -0.591  11.068  0.00  0.00     0.163 HD
BRANCH  38  40
ATOM     40  C40 ZIN A   1      18.104   0.450  10.139  0.00  0.00     0.147 C 
ATOM     41  C49 ZIN A   1      18.980   0.658   8.886  0.00  0.00     0.149 C 
ATOM     42  C48 ZIN A   1      18.744   2.150   8.562  0.00  0.00     0.073 C 
ATOM     43  C47 ZIN A   1      18.377   2.790   9.884  0.00  0.00    -0.047 A 
ATOM     44  C42 ZIN A   1      18.010   1.813  10.790  0.00  0.00    -0.027 A 
ATOM     45  C46 ZIN A   1      18.366   4.122  10.263  0.00  0.00     0.008 A 
ATOM     46  C43 ZIN A   1      17.631   2.171  12.073  0.00  0.00     0.010 A 
ATOM     47  C44 ZIN A   1      17.620   3.500  12.449  0.00  0.00     0.001 A 
ATOM     48  C45 ZIN A   1      17.988   4.477  11.543  0.00  0.00     0.001 A 
BRANCH  41  49
ATOM     49  O51 ZIN A   1      20.357   0.413   9.181  0.00  0.00    -0.393 OA
ATOM     50  H93 ZIN A   1      20.956   0.604   8.446  0.00  0.00     0.210 HD
ENDBRANCH  41  49
ENDBRANCH  38  40
ENDBRANCH  28  36
ENDBRANCH  27  28
ENDBRANCH   1  27
TORSDOF 14
ENDMDL
MODEL 3
REMARK VINA RESULT:      -9.8      1.788      4.285
REMARK  14 active torsions:
REMARK  status: ('A' for Active; 'I' for Inactive)
REMARK    1  A    between atoms: C2_2  and  N5_5 
REMARK       I    between atoms: N5_5  and  C6_6 
REMARK    2  A    between atoms: C6_6  and  C8_8 
REMARK    3  A    between atoms: N11_10  and  C13_12 
REMARK    4  A    between atoms: C13_12  and  C14_13 
REMARK    5  A    between atoms: N22_21  and  C23_22 
REMARK    6  A    between atoms: C23_22  and  C24_23 
REMARK    7  A    between atoms: C24_23  and  O26_24 
REMARK    8  A    between atoms: C24_23  and  C27_25 
REMARK    9  A    between atoms: C27_25  and  C28_26 
REMARK   10  A    between atoms: C28_26  and  C30_27 
REMARK   11  A    between atoms: C28_26  and  C37_34 
REMARK   12  A    between atoms: C30_27  and  C31_28 
REMARK       I    between atoms: C37_34  and  N39_36 
REMARK   13  A    between atoms: N39_36  and  C40_37 
REMARK   14  A    between atoms: C49_45  and  O51_46 
ROOT
ATOM      1  C24 ZIN A   1      19.534  -2.727  11.078  0.00  0.00     0.147 C 
ENDROOT
BRANCH   1   2
ATOM      2  C23 ZIN A   1      19.039  -2.408   9.665  0.00  0.00     0.305 C 
BRANCH   2   3
ATOM      3  N22 ZIN A   1      18.780  -3.661   8.943  0.00  0.00     0.108 N 
ATOM      4  C8  ZIN A   1      19.444  -3.661   7.632  0.00  0.00     0.339 C 
ATOM      5  C10 ZIN A   1      19.198  -5.004   6.940  0.00  0.00     0.281 C 
ATOM      6  N11 ZIN A   1      17.755  -5.214   6.775  0.00  0.00    -0.063 N 
ATOM      7  H12 ZIN A   1      17.366  -4.464   6.224  0.00  0.00     0.280 HD
ATOM      8  C20 ZIN A   1      17.108  -5.236   8.094  0.00  0.00     0.265 C 
ATOM      9  C21 ZIN A   1      17.335  -3.895   8.797  0.00  0.00     0.301 C 
BRANCH   4  10
ATOM     10  C6  ZIN A   1      18.884  -2.549   6.784  0.00  0.00     0.253 C 
ATOM     11  N5  ZIN A   1      19.154  -1.266   7.092  0.00  0.00    -0.351 N 
ATOM     12  H61 ZIN A   1      19.710  -1.057   7.859  0.00  0.00     0.163 HD
ATOM     13  O7  ZIN A   1      18.189  -2.810   5.824  0.00  0.00    -0.271 OA
BRANCH  11  14
ATOM     14  C2  ZIN A   1      18.609  -0.184   6.266  0.00  0.00     0.022 C 
ATOM     15  C1  ZIN A   1      17.085  -0.168   6.389  0.00  0.00     0.037 C 
ATOM     16  C3  ZIN A   1      19.002  -0.411   4.805  0.00  0.00     0.037 C 
ATOM     17  C4  ZIN A   1      19.173   1.156   6.745  0.00  0.00     0.037 C 
ENDBRANCH  11  14
ENDBRANCH   4  10
BRANCH   6  18
ATOM     18  C13 ZIN A   1      17.521  -6.495   6.095  0.00  0.00     0.275 C 
BRANCH  18  19
ATOM     19  C14 ZIN A   1      16.168  -6.471   5.430  0.00  0.00    -0.015 A 
ATOM     20  C19 ZIN A   1      15.816  -5.425   4.598  0.00  0.00     0.125 A 
ATOM     21  N18 ZIN A   1      14.637  -5.399   4.008  0.00  0.00    -0.273 NA
ATOM     22  C17 ZIN A   1      13.748  -6.356   4.195  0.00  0.00     0.116 A 
ATOM     23  C16 ZIN A   1      14.027  -7.430   5.018  0.00  0.00     0.020 A 
ATOM     24  C15 ZIN A   1      15.259  -7.494   5.650  0.00  0.00     0.012 A 
ENDBRANCH  18  19
ENDBRANCH   6  18
ENDBRANCH   2   3
ENDBRANCH   1   2
BRANCH   1  25
ATOM     25  O26 ZIN A   1      20.727  -1.987  11.343  0.00  0.00    -0.394 OA
ATOM     26  H76 ZIN A   1      20.798  -1.161  10.844  0.00  0.00     0.210 HD
ENDBRANCH   1  25
BRANCH   1  27
ATOM     27  C27 ZIN A   1      18.458  -2.339  12.094  0.00  0.00     0.047 C 
BRANCH  27  28
ATOM     28  C28 ZIN A   1      18.664  -0.886  12.526  0.00  0.00     0.084 C 
BRANCH  28  29
ATOM     29  C30 ZIN A   1      17.350  -0.117  12.373  0.00  0.00     0.052 C 
BRANCH  29  30
ATOM     30  C31 ZIN A   1      17.621   1.217  11.725  0.00  0.00    -0.057 A 
ATOM     31  C36 ZIN A   1      17.890   1.285  10.371  0.00  0.00     0.007 A 
ATOM     32  C35 ZIN A   1      18.136   2.508   9.774  0.00  0.00     0.001 A 
ATOM     33  C34 ZIN A   1      18.120   3.663  10.535  0.00  0.00     0.000 A 
ATOM     34  C33 ZIN A   1      17.857   3.594  11.890  0.00  0.00     0.001 A 
ATOM     35  C32 ZIN A   1      17.608   2.371  12.485  0.00  0.00     0.007 A 
ENDBRANCH  29  30
ENDBRANCH  28  29
BRANCH  28  36
ATOM     36  C37 ZIN A   1      19.105  -0.847  13.967  0.00  0.00     0.222 C 
ATOM     37  O38 ZIN A   1      20.014  -1.555  14.341  0.00  0.00    -0.273 OA
ATOM     38  N39 ZIN A   1      18.487  -0.026  14.838  0.00  0.00    -0.350 N 
ATOM     39  H86 ZIN A   1      17.708   0.480  14.559  0.00  0.00     0.163 HD
BRANCH  38  40
ATOM     40  C40 ZIN A   1      18.994   0.104  16.207  0.00  0.00     0.147 C 
ATOM     41  C49 ZIN A   1      18.087  -0.667  17.189  0.00  0.00     0.149 C 
ATOM     42  C48 ZIN A   1      18.139   0.220  18.453  0.00  0.00     0.073 C 
ATOM     43  C47 ZIN A   1      18.438   1.616  17.946  0.00  0.00    -0.047 A 
ATOM     44  C42 ZIN A   1      18.929   1.548  16.656  0.00  0.00    -0.027 A 
ATOM     45  C46 ZIN A   1      18.292   2.845  18.566  0.00  0.00     0.008 A 
ATOM     46  C43 ZIN A   1      19.274   2.712  15.988  0.00  0.00     0.010 A 
ATOM     47  C44 ZIN A   1      19.128   3.938  16.609  0.00  0.00     0.001 A 
ATOM     48  C45 ZIN A   1      18.636   4.004  17.898  0.00  0.00     0.001 A 
BRANCH  41  49
ATOM     49  O51 ZIN A   1      16.752  -0.758  16.686  0.00  0.00    -0.393 OA
ATOM     50  H93 ZIN A   1      16.373   0.092  16.422  0.00  0.00     0.210 HD
ENDBRANCH  41  49
ENDBRANCH  38  40
ENDBRANCH  28  36
ENDBRANCH  27  28
ENDBRANCH   1  27
TORSDOF 14
ENDMDL
MODEL 4
REMARK VINA RESULT:      -9.6      1.976      9.632
REMARK  14 active torsions:
REMARK  status: ('A' for Active; 'I' for Inactive)
REMARK    1  A    between atoms: C2_2  and  N5_5 
REMARK       I    between atoms: N5_5  and  C6_6 
REMARK    2  A    between atoms: C6_6  and  C8_8 
REMARK    3  A    between atoms: N11_10  and  C13_12 
REMARK    4  A    between atoms: C13_12  and  C14_13 
REMARK    5  A    between atoms: N22_21  and  C23_22 
REMARK    6  A    between atoms: C23_22  and  C24_23 
REMARK    7  A    between atoms: C24_23  and  O26_24 
REMARK    8  A    between atoms: C24_23  and  C27_25 
REMARK    9  A    between atoms: C27_25  and  C28_26 
REMARK   10  A    between atoms: C28_26  and  C30_27 
REMARK   11  A    between atoms: C28_26  and  C37_34 
REMARK   12  A    between atoms: C30_27  and  C31_28 
REMARK       I    between atoms: C37_34  and  N39_36 
REMARK   13  A    between atoms: N39_36  and  C40_37 
REMARK   14  A    between atoms: C49_45  and  O51_46 
ROOT
ATOM      1  C24 ZIN A   1      18.261  -0.159   8.255  0.00  0.00     0.147 C 
ENDROOT
BRANCH   1   2
ATOM      2  C23 ZIN A   1      18.600   0.768   9.425  0.00  0.00     0.305 C 
BRANCH   2   3
ATOM      3  N22 ZIN A   1      18.492   0.022  10.686  0.00  0.00     0.108 N 
ATOM      4  C8  ZIN A   1      17.360   0.507  11.489  0.00  0.00     0.339 C 
ATOM      5  C10 ZIN A   1      17.247  -0.333  12.764  0.00  0.00     0.281 C 
ATOM      6  N11 ZIN A   1      18.494  -0.228  13.532  0.00  0.00    -0.063 N 
ATOM      7  H12 ZIN A   1      18.663   0.737  13.768  0.00  0.00     0.280 HD
ATOM      8  C20 ZIN A   1      19.611  -0.738  12.727  0.00  0.00     0.265 C 
ATOM      9  C21 ZIN A   1      19.745   0.098  11.452  0.00  0.00     0.301 C 
BRANCH   4  10
ATOM     10  C6  ZIN A   1      17.585   1.950  11.857  0.00  0.00     0.253 C 
ATOM     11  N5  ZIN A   1      17.573   2.899  10.901  0.00  0.00    -0.351 N 
ATOM     12  H61 ZIN A   1      17.420   2.653   9.975  0.00  0.00     0.163 HD
ATOM     13  O7  ZIN A   1      17.777   2.258  13.015  0.00  0.00    -0.271 OA
BRANCH  11  14
ATOM     14  C2  ZIN A   1      17.792   4.303  11.259  0.00  0.00     0.022 C 
ATOM     15  C1  ZIN A   1      19.187   4.463  11.865  0.00  0.00     0.037 C 
ATOM     16  C3  ZIN A   1      16.739   4.739  12.280  0.00  0.00     0.037 C 
ATOM     17  C4  ZIN A   1      17.678   5.173  10.005  0.00  0.00     0.037 C 
ENDBRANCH  11  14
ENDBRANCH   4  10
BRANCH   6  18
ATOM     18  C13 ZIN A   1      18.378  -1.020  14.764  0.00  0.00     0.275 C 
BRANCH  18  19
ATOM     19  C14 ZIN A   1      18.727  -0.159  15.950  0.00  0.00    -0.015 A 
ATOM     20  C19 ZIN A   1      18.896   1.204  15.800  0.00  0.00     0.125 A 
ATOM     21  N18 ZIN A   1      19.197   1.966  16.834  0.00  0.00    -0.273 NA
ATOM     22  C17 ZIN A   1      19.360   1.460  18.042  0.00  0.00     0.116 A 
ATOM     23  C16 ZIN A   1      19.212   0.105  18.268  0.00  0.00     0.020 A 
ATOM     24  C15 ZIN A   1      18.890  -0.725  17.205  0.00  0.00     0.012 A 
ENDBRANCH  18  19
ENDBRANCH   6  18
ENDBRANCH   2   3
ENDBRANCH   1   2
BRANCH   1  25
ATOM     25  O26 ZIN A   1      17.911   0.624   7.113  0.00  0.00    -0.394 OA
ATOM     26  H76 ZIN A   1      18.670   0.937   6.602  0.00  0.00     0.210 HD
ENDBRANCH   1  25
BRANCH   1  27
ATOM     27  C27 ZIN A   1      19.478  -1.027   7.924  0.00  0.00     0.047 C 
BRANCH  27  28
ATOM     28  C28 ZIN A   1      19.109  -2.503   8.083  0.00  0.00     0.084 C 
BRANCH  28  29
ATOM     29  C30 ZIN A   1      17.673  -2.618   8.600  0.00  0.00     0.052 C 
BRANCH  29  30
ATOM     30  C31 ZIN A   1      17.589  -3.735   9.607  0.00  0.00    -0.057 A 
ATOM     31  C36 ZIN A   1      18.054  -3.541  10.895  0.00  0.00     0.007 A 
ATOM     32  C35 ZIN A   1      17.974  -4.564  11.821  0.00  0.00     0.001 A 
ATOM     33  C34 ZIN A   1      17.437  -5.785  11.457  0.00  0.00     0.000 A 
ATOM     34  C33 ZIN A   1      16.978  -5.981  10.168  0.00  0.00     0.001 A 
ATOM     35  C32 ZIN A   1      17.055  -4.956   9.243  0.00  0.00     0.007 A 
ENDBRANCH  29  30
ENDBRANCH  28  29
BRANCH  28  36
ATOM     36  C37 ZIN A   1      19.221  -3.196   6.750  0.00  0.00     0.222 C 
ATOM     37  O38 ZIN A   1      20.308  -3.536   6.333  0.00  0.00    -0.273 OA
ATOM     38  N39 ZIN A   1      18.114  -3.438   6.022  0.00  0.00    -0.350 N 
ATOM     39  H86 ZIN A   1      17.255  -3.095   6.315  0.00  0.00     0.163 HD
BRANCH  38  40
ATOM     40  C40 ZIN A   1      18.206  -4.220   4.786  0.00  0.00     0.147 C 
ATOM     41  C49 ZIN A   1      17.271  -3.631   3.708  0.00  0.00     0.149 C 
ATOM     42  C48 ZIN A   1      16.795  -4.896   2.958  0.00  0.00     0.073 C 
ATOM     43  C47 ZIN A   1      16.898  -6.019   3.968  0.00  0.00    -0.047 A 
ATOM     44  C42 ZIN A   1      17.708  -5.630   5.019  0.00  0.00    -0.027 A 
ATOM     45  C46 ZIN A   1      16.327  -7.280   3.968  0.00  0.00     0.008 A 
ATOM     46  C43 ZIN A   1      17.947  -6.505   6.065  0.00  0.00     0.010 A 
ATOM     47  C44 ZIN A   1      17.376  -7.763   6.063  0.00  0.00     0.001 A 
ATOM     48  C45 ZIN A   1      16.565  -8.151   5.013  0.00  0.00     0.001 A 
BRANCH  41  49
ATOM     49  O51 ZIN A   1      16.168  -2.951   4.308  0.00  0.00    -0.393 OA
ATOM     50  H93 ZIN A   1      15.644  -3.502   4.907  0.00  0.00     0.210 HD
ENDBRANCH  41  49
ENDBRANCH  38  40
ENDBRANCH  28  36
ENDBRANCH  27  28
ENDBRANCH   1  27
TORSDOF 14
ENDMDL
MODEL 5
REMARK VINA RESULT:      -9.6      3.239     10.750
REMARK  14 active torsions:
REMARK  status: ('A' for Active; 'I' for Inactive)
REMARK    1  A    between atoms: C2_2  and  N5_5 
REMARK       I    between atoms: N5_5  and  C6_6 
REMARK    2  A    between atoms: C6_6  and  C8_8 
REMARK    3  A    between atoms: N11_10  and  C13_12 
REMARK    4  A    between atoms: C13_12  and  C14_13 
REMARK    5  A    between atoms: N22_21  and  C23_22 
REMARK    6  A    between atoms: C23_22  and  C24_23 
REMARK    7  A    between atoms: C24_23  and  O26_24 
REMARK    8  A    between atoms: C24_23  and  C27_25 
REMARK    9  A    between atoms: C27_25  and  C28_26 
REMARK   10  A    between atoms: C28_26  and  C30_27 
REMARK   11  A    between atoms: C28_26  and  C37_34 
REMARK   12  A    between atoms: C30_27  and  C31_28 
REMARK       I    between atoms: C37_34  and  N39_36 
REMARK   13  A    between atoms: N39_36  and  C40_37 
REMARK   14  A    between atoms: C49_45  and  O51_46 
ROOT
ATOM      1  C24 ZIN A   1      18.915   2.643  11.596  0.00  0.00     0.147 C 
ENDROOT
BRANCH   1   2
ATOM      2  C23 ZIN A   1      19.078   2.218  13.057  0.00  0.00     0.305 C 
BRANCH   2   3
ATOM      3  N22 ZIN A   1      18.832   3.372  13.932  0.00  0.00     0.108 N 
ATOM      4  C8  ZIN A   1      19.485   3.193  15.237  0.00  0.00     0.339 C 
ATOM      5  C10 ZIN A   1      19.254   4.439  16.095  0.00  0.00     0.281 C 
ATOM      6  N11 ZIN A   1      17.812   4.649  16.276  0.00  0.00    -0.063 N 
ATOM      7  H12 ZIN A   1      17.408   3.842  16.724  0.00  0.00     0.280 HD
ATOM      8  C20 ZIN A   1      17.177   4.852  14.967  0.00  0.00     0.265 C 
ATOM      9  C21 ZIN A   1      17.390   3.609  14.099  0.00  0.00     0.301 C 
BRANCH   4  10
ATOM     10  C6  ZIN A   1      18.901   1.990  15.931  0.00  0.00     0.253 C 
ATOM     11  N5  ZIN A   1      19.066   0.761  15.404  0.00  0.00    -0.351 N 
ATOM     12  H61 ZIN A   1      19.562   0.651  14.577  0.00  0.00     0.163 HD
ATOM     13  O7  ZIN A   1      18.280   2.128  16.964  0.00  0.00    -0.271 OA
BRANCH  11  14
ATOM     14  C2  ZIN A   1      18.498  -0.408  16.080  0.00  0.00     0.022 C 
ATOM     15  C1  ZIN A   1      17.016  -0.162  16.364  0.00  0.00     0.037 C 
ATOM     16  C3  ZIN A   1      19.239  -0.646  17.397  0.00  0.00     0.037 C 
ATOM     17  C4  ZIN A   1      18.647  -1.639  15.181  0.00  0.00     0.037 C 
ENDBRANCH  11  14
ENDBRANCH   4  10
BRANCH   6  18
ATOM     18  C13 ZIN A   1      17.592   5.836  17.114  0.00  0.00     0.275 C 
BRANCH  18  19
ATOM     19  C14 ZIN A   1      16.827   5.442  18.351  0.00  0.00    -0.015 A 
ATOM     20  C19 ZIN A   1      15.457   5.615  18.412  0.00  0.00     0.125 A 
ATOM     21  N18 ZIN A   1      14.780   5.268  19.489  0.00  0.00    -0.273 NA
ATOM     22  C17 ZIN A   1      15.377   4.757  20.548  0.00  0.00     0.116 A 
ATOM     23  C16 ZIN A   1      16.745   4.560  20.563  0.00  0.00     0.020 A 
ATOM     24  C15 ZIN A   1      17.489   4.907  19.446  0.00  0.00     0.012 A 
ENDBRANCH  18  19
ENDBRANCH   6  18
ENDBRANCH   2   3
ENDBRANCH   1   2
BRANCH   1  25
ATOM     25  O26 ZIN A   1      20.183   2.590  10.940  0.00  0.00    -0.394 OA
ATOM     26  H76 ZIN A   1      20.138   2.730   9.984  0.00  0.00     0.210 HD
ENDBRANCH   1  25
BRANCH   1  27
ATOM     27  C27 ZIN A   1      17.939   1.696  10.896  0.00  0.00     0.047 C 
BRANCH  27  28
ATOM     28  C28 ZIN A   1      18.555   0.298  10.814  0.00  0.00     0.084 C 
BRANCH  28  29
ATOM     29  C30 ZIN A   1      17.488  -0.750  11.141  0.00  0.00     0.052 C 
BRANCH  29  30
ATOM     30  C31 ZIN A   1      18.134  -2.107  11.254  0.00  0.00    -0.057 A 
ATOM     31  C36 ZIN A   1      19.461  -2.211  11.625  0.00  0.00     0.007 A 
ATOM     32  C35 ZIN A   1      20.054  -3.455  11.733  0.00  0.00     0.001 A 
ATOM     33  C34 ZIN A   1      19.321  -4.596  11.462  0.00  0.00     0.000 A 
ATOM     34  C33 ZIN A   1      17.995  -4.491  11.085  0.00  0.00     0.001 A 
ATOM     35  C32 ZIN A   1      17.402  -3.246  10.981  0.00  0.00     0.007 A 
ENDBRANCH  29  30
ENDBRANCH  28  29
BRANCH  28  36
ATOM     36  C37 ZIN A   1      19.083   0.060   9.423  0.00  0.00     0.222 C 
ATOM     37  O38 ZIN A   1      20.267   0.187   9.195  0.00  0.00    -0.273 OA
ATOM     38  N39 ZIN A   1      18.240  -0.291   8.433  0.00  0.00    -0.350 N 
ATOM     39  H86 ZIN A   1      17.284  -0.313   8.595  0.00  0.00     0.163 HD
BRANCH  38  40
ATOM     40  C40 ZIN A   1      18.767  -0.642   7.111  0.00  0.00     0.147 C 
ATOM     41  C49 ZIN A   1      17.778  -0.211   6.008  0.00  0.00     0.149 C 
ATOM     42  C48 ZIN A   1      17.948  -1.330   4.957  0.00  0.00     0.073 C 
ATOM     43  C47 ZIN A   1      18.415  -2.541   5.737  0.00  0.00    -0.047 A 
ATOM     44  C42 ZIN A   1      18.885  -2.145   6.976  0.00  0.00    -0.027 A 
ATOM     45  C46 ZIN A   1      18.427  -3.881   5.391  0.00  0.00     0.008 A 
ATOM     46  C43 ZIN A   1      19.368  -3.091   7.864  0.00  0.00     0.010 A 
ATOM     47  C44 ZIN A   1      19.379  -4.429   7.516  0.00  0.00     0.001 A 
ATOM     48  C45 ZIN A   1      18.908  -4.824   6.279  0.00  0.00     0.001 A 
BRANCH  41  49
ATOM     49  O51 ZIN A   1      16.439  -0.181   6.508  0.00  0.00    -0.393 OA
ATOM     50  H93 ZIN A   1      16.380  -0.201   7.473  0.00  0.00     0.210 HD
ENDBRANCH  41  49
ENDBRANCH  38  40
ENDBRANCH  28  36
ENDBRANCH  27  28
ENDBRANCH   1  27
TORSDOF 14
ENDMDL
MODEL 6
REMARK VINA RESULT:      -9.3      3.299      5.612
REMARK  14 active torsions:
REMARK  status: ('A' for Active; 'I' for Inactive)
REMARK    1  A    between atoms: C2_2  and  N5_5 
REMARK       I    between atoms: N5_5  and  C6_6 
REMARK    2  A    between atoms: C6_6  and  C8_8 
REMARK    3  A    between atoms: N11_10  and  C13_12 
REMARK    4  A    between atoms: C13_12  and  C14_13 
REMARK    5  A    between atoms: N22_21  and  C23_22 
REMARK    6  A    between atoms: C23_22  and  C24_23 
REMARK    7  A    between atoms: C24_23  and  O26_24 
REMARK    8  A    between atoms: C24_23  and  C27_25 
REMARK    9  A    between atoms: C27_25  and  C28_26 
REMARK   10  A    between atoms: C28_26  and  C30_27 
REMARK   11  A    between atoms: C28_26  and  C37_34 
REMARK   12  A    between atoms: C30_27  and  C31_28 
REMARK       I    between atoms: C37_34  and  N39_36 
REMARK   13  A    between atoms: N39_36  and  C40_37 
REMARK   14  A    between atoms: C49_45  and  O51_46 
ROOT
ATOM      1  C24 ZIN A   1      19.559   1.947  11.902  0.00  0.00     0.147 C 
ENDROOT
BRANCH   1   2
ATOM      2  C23 ZIN A   1      19.119   1.063  10.733  0.00  0.00     0.305 C 
BRANCH   2   3
ATOM      3  N22 ZIN A   1      19.040  -0.335  11.180  0.00  0.00     0.108 N 
ATOM      4  C8  ZIN A   1      19.829  -1.212  10.304  0.00  0.00     0.339 C 
ATOM      5  C10 ZIN A   1      19.770  -2.646  10.837  0.00  0.00     0.281 C 
ATOM      6  N11 ZIN A   1      18.373  -3.096  10.879  0.00  0.00    -0.063 N 
ATOM      7  H12 ZIN A   1      17.978  -3.055   9.952  0.00  0.00     0.280 HD
ATOM      8  C20 ZIN A   1      17.603  -2.225  11.777  0.00  0.00     0.265 C 
ATOM      9  C21 ZIN A   1      17.643  -0.787  11.252  0.00  0.00     0.301 C 
BRANCH   4  10
ATOM     10  C6  ZIN A   1      19.262  -1.171   8.908  0.00  0.00     0.253 C 
ATOM     11  N5  ZIN A   1      19.223  -0.008   8.231  0.00  0.00    -0.351 N 
ATOM     12  H61 ZIN A   1      19.561   0.804   8.641  0.00  0.00     0.163 HD
ATOM     13  O7  ZIN A   1      18.840  -2.186   8.396  0.00  0.00    -0.271 OA
BRANCH  11  14
ATOM     14  C2  ZIN A   1      18.672   0.032   6.874  0.00  0.00     0.022 C 
ATOM     15  C1  ZIN A   1      17.150  -0.101   6.938  0.00  0.00     0.037 C 
ATOM     16  C3  ZIN A   1      19.251  -1.123   6.054  0.00  0.00     0.037 C 
ATOM     17  C4  ZIN A   1      19.040   1.362   6.212  0.00  0.00     0.037 C 
ENDBRANCH  11  14
ENDBRANCH   4  10
BRANCH   6  18
ATOM     18  C13 ZIN A   1      18.318  -4.478  11.373  0.00  0.00     0.275 C 
BRANCH  18  19
ATOM     19  C14 ZIN A   1      18.122  -5.420  10.213  0.00  0.00    -0.015 A 
ATOM     20  C19 ZIN A   1      19.187  -5.762   9.402  0.00  0.00     0.125 A 
ATOM     21  N18 ZIN A   1      19.025  -6.589   8.388  0.00  0.00    -0.273 NA
ATOM     22  C17 ZIN A   1      17.848  -7.111   8.101  0.00  0.00     0.116 A 
ATOM     23  C16 ZIN A   1      16.736  -6.811   8.865  0.00  0.00     0.020 A 
ATOM     24  C15 ZIN A   1      16.870  -5.950   9.943  0.00  0.00     0.012 A 
ENDBRANCH  18  19
ENDBRANCH   6  18
ENDBRANCH   2   3
ENDBRANCH   1   2
BRANCH   1  25
ATOM     25  O26 ZIN A   1      20.667   2.753  11.499  0.00  0.00    -0.394 OA
ATOM     26  H76 ZIN A   1      20.431   3.480  10.906  0.00  0.00     0.210 HD
ENDBRANCH   1  25
BRANCH   1  27
ATOM     27  C27 ZIN A   1      18.397   2.851  12.322  0.00  0.00     0.047 C 
BRANCH  27  28
ATOM     28  C28 ZIN A   1      18.108   2.652  13.811  0.00  0.00     0.084 C 
BRANCH  28  29
ATOM     29  C30 ZIN A   1      19.171   1.733  14.419  0.00  0.00     0.052 C 
BRANCH  29  30
ATOM     30  C31 ZIN A   1      18.679   1.202  15.741  0.00  0.00    -0.057 A 
ATOM     31  C36 ZIN A   1      19.264   1.631  16.917  0.00  0.00     0.007 A 
ATOM     32  C35 ZIN A   1      18.812   1.147  18.131  0.00  0.00     0.001 A 
ATOM     33  C34 ZIN A   1      17.780   0.227  18.167  0.00  0.00     0.000 A 
ATOM     34  C33 ZIN A   1      17.199  -0.205  16.989  0.00  0.00     0.001 A 
ATOM     35  C32 ZIN A   1      17.649   0.282  15.776  0.00  0.00     0.007 A 
ENDBRANCH  29  30
ENDBRANCH  28  29
BRANCH  28  36
ATOM     36  C37 ZIN A   1      18.136   3.985  14.512  0.00  0.00     0.222 C 
ATOM     37  O38 ZIN A   1      19.113   4.697  14.422  0.00  0.00    -0.273 OA
ATOM     38  N39 ZIN A   1      17.075   4.387  15.239  0.00  0.00    -0.350 N 
ATOM     39  H86 ZIN A   1      16.327   3.786  15.378  0.00  0.00     0.163 HD
BRANCH  38  40
ATOM     40  C40 ZIN A   1      17.050   5.733  15.818  0.00  0.00     0.147 C 
ATOM     41  C49 ZIN A   1      17.477   5.686  17.300  0.00  0.00     0.149 C 
ATOM     42  C48 ZIN A   1      16.599   6.790  17.932  0.00  0.00     0.073 C 
ATOM     43  C47 ZIN A   1      15.377   6.882  17.041  0.00  0.00    -0.047 A 
ATOM     44  C42 ZIN A   1      15.637   6.275  15.827  0.00  0.00    -0.027 A 
ATOM     45  C46 ZIN A   1      14.138   7.453  17.276  0.00  0.00     0.008 A 
ATOM     46  C43 ZIN A   1      14.657   6.241  14.850  0.00  0.00     0.010 A 
ATOM     47  C44 ZIN A   1      13.420   6.811  15.086  0.00  0.00     0.001 A 
ATOM     48  C45 ZIN A   1      13.161   7.417  16.300  0.00  0.00     0.001 A 
BRANCH  41  49
ATOM     49  O51 ZIN A   1      17.184   4.411  17.875  0.00  0.00    -0.393 OA
ATOM     50  H93 ZIN A   1      17.746   4.181  18.628  0.00  0.00     0.210 HD
ENDBRANCH  41  49
ENDBRANCH  38  40
ENDBRANCH  28  36
ENDBRANCH  27  28
ENDBRANCH   1  27
TORSDOF 14
ENDMDL
MODEL 7
REMARK VINA RESULT:      -9.3      2.039      3.066
REMARK  14 active torsions:
REMARK  status: ('A' for Active; 'I' for Inactive)
REMARK    1  A    between atoms: C2_2  and  N5_5 
REMARK       I    between atoms: N5_5  and  C6_6 
REMARK    2  A    between atoms: C6_6  and  C8_8 
REMARK    3  A    between atoms: N11_10  and  C13_12 
REMARK    4  A    between atoms: C13_12  and  C14_13 
REMARK    5  A    between atoms: N22_21  and  C23_22 
REMARK    6  A    between atoms: C23_22  and  C24_23 
REMARK    7  A    between atoms: C24_23  and  O26_24 
REMARK    8  A    between atoms: C24_23  and  C27_25 
REMARK    9  A    between atoms: C27_25  and  C28_26 
REMARK   10  A    between atoms: C28_26  and  C30_27 
REMARK   11  A    between atoms: C28_26  and  C37_34 
REMARK   12  A    between atoms: C30_27  and  C31_28 
REMARK       I    between atoms: C37_34  and  N39_36 
REMARK   13  A    between atoms: N39_36  and  C40_37 
REMARK   14  A    between atoms: C49_45  and  O51_46 
ROOT
ATOM      1  C24 ZIN A   1      20.386  -1.268  11.219  0.00  0.00     0.147 C 
ENDROOT
BRANCH   1   2
ATOM      2  C23 ZIN A   1      19.483  -1.284   9.983  0.00  0.00     0.305 C 
BRANCH   2   3
ATOM      3  N22 ZIN A   1      19.096  -2.668   9.679  0.00  0.00     0.108 N 
ATOM      4  C8  ZIN A   1      19.612  -3.083   8.366  0.00  0.00     0.339 C 
ATOM      5  C10 ZIN A   1      19.239  -4.546   8.114  0.00  0.00     0.281 C 
ATOM      6  N11 ZIN A   1      17.779  -4.693   8.153  0.00  0.00    -0.063 N 
ATOM      7  H12 ZIN A   1      17.362  -4.103   7.449  0.00  0.00     0.280 HD
ATOM      8  C20 ZIN A   1      17.281  -4.299   9.478  0.00  0.00     0.265 C 
ATOM      9  C21 ZIN A   1      17.637  -2.834   9.742  0.00  0.00     0.301 C 
BRANCH   4  10
ATOM     10  C6  ZIN A   1      19.007  -2.217   7.292  0.00  0.00     0.253 C 
ATOM     11  N5  ZIN A   1      19.244  -0.892   7.281  0.00  0.00    -0.351 N 
ATOM     12  H61 ZIN A   1      19.806  -0.494   7.964  0.00  0.00     0.163 HD
ATOM     13  O7  ZIN A   1      18.304  -2.715   6.437  0.00  0.00    -0.271 OA
BRANCH  11  14
ATOM     14  C2  ZIN A   1      18.655  -0.051   6.235  0.00  0.00     0.022 C 
ATOM     15  C1  ZIN A   1      17.141  -0.264   6.202  0.00  0.00     0.037 C 
ATOM     16  C3  ZIN A   1      19.254  -0.429   4.879  0.00  0.00     0.037 C 
ATOM     17  C4  ZIN A   1      18.957   1.420   6.534  0.00  0.00     0.037 C 
ENDBRANCH  11  14
ENDBRANCH   4  10
BRANCH   6  18
ATOM     18  C13 ZIN A   1      17.421  -6.094   7.894  0.00  0.00     0.275 C 
BRANCH  18  19
ATOM     19  C14 ZIN A   1      16.163  -6.146   7.066  0.00  0.00    -0.015 A 
ATOM     20  C19 ZIN A   1      16.203  -5.867   5.713  0.00  0.00     0.125 A 
ATOM     21  N18 ZIN A   1      15.108  -5.915   4.980  0.00  0.00    -0.273 NA
ATOM     22  C17 ZIN A   1      13.936  -6.218   5.506  0.00  0.00     0.116 A 
ATOM     23  C16 ZIN A   1      13.817  -6.504   6.853  0.00  0.00     0.020 A 
ATOM     24  C15 ZIN A   1      14.949  -6.469   7.653  0.00  0.00     0.012 A 
ENDBRANCH  18  19
ENDBRANCH   6  18
ENDBRANCH   2   3
ENDBRANCH   1   2
BRANCH   1  25
ATOM     25  O26 ZIN A   1      21.641  -0.674  10.884  0.00  0.00    -0.394 OA
ATOM     26  H76 ZIN A   1      22.144  -1.165  10.219  0.00  0.00     0.210 HD
ENDBRANCH   1  25
BRANCH   1  27
ATOM     27  C27 ZIN A   1      19.716  -0.452  12.328  0.00  0.00     0.047 C 
BRANCH  27  28
ATOM     28  C28 ZIN A   1      18.287  -0.102  11.911  0.00  0.00     0.084 C 
BRANCH  28  29
ATOM     29  C30 ZIN A   1      17.297  -0.797  12.849  0.00  0.00     0.052 C 
BRANCH  29  30
ATOM     30  C31 ZIN A   1      17.811  -0.726  14.264  0.00  0.00    -0.057 A 
ATOM     31  C36 ZIN A   1      17.246   0.163  15.159  0.00  0.00     0.007 A 
ATOM     32  C35 ZIN A   1      17.714   0.227  16.459  0.00  0.00     0.001 A 
ATOM     33  C34 ZIN A   1      18.752  -0.594  16.860  0.00  0.00     0.000 A 
ATOM     34  C33 ZIN A   1      19.320  -1.478  15.963  0.00  0.00     0.001 A 
ATOM     35  C32 ZIN A   1      18.849  -1.545  14.664  0.00  0.00     0.007 A 
ENDBRANCH  29  30
ENDBRANCH  28  29
BRANCH  28  36
ATOM     36  C37 ZIN A   1      18.091   1.390  11.990  0.00  0.00     0.222 C 
ATOM     37  O38 ZIN A   1      17.072   1.891  11.565  0.00  0.00    -0.273 OA
ATOM     38  N39 ZIN A   1      19.047   2.168  12.533  0.00  0.00    -0.350 N 
ATOM     39  H86 ZIN A   1      19.895   1.779  12.799  0.00  0.00     0.163 HD
BRANCH  38  40
ATOM     40  C40 ZIN A   1      18.807   3.601  12.724  0.00  0.00     0.147 C 
ATOM     41  C49 ZIN A   1      19.890   4.427  11.998  0.00  0.00     0.149 C 
ATOM     42  C48 ZIN A   1      20.068   5.638  12.941  0.00  0.00     0.073 C 
ATOM     43  C47 ZIN A   1      19.665   5.136  14.312  0.00  0.00    -0.047 A 
ATOM     44  C42 ZIN A   1      18.940   3.965  14.186  0.00  0.00    -0.027 A 
ATOM     45  C46 ZIN A   1      19.912   5.663  15.568  0.00  0.00     0.008 A 
ATOM     46  C43 ZIN A   1      18.465   3.325  15.318  0.00  0.00     0.010 A 
ATOM     47  C44 ZIN A   1      18.713   3.853  16.571  0.00  0.00     0.001 A 
ATOM     48  C45 ZIN A   1      19.438   5.023  16.696  0.00  0.00     0.001 A 
BRANCH  41  49
ATOM     49  O51 ZIN A   1      21.106   3.685  11.887  0.00  0.00    -0.393 OA
ATOM     50  H93 ZIN A   1      21.141   2.900  12.451  0.00  0.00     0.210 HD
ENDBRANCH  41  49
ENDBRANCH  38  40
ENDBRANCH  28  36
ENDBRANCH  27  28
ENDBRANCH   1  27
TORSDOF 14
ENDMDL
MODEL 8
REMARK VINA RESULT:      -9.2      2.302     10.014
REMARK  14 active torsions:
REMARK  status: ('A' for Active; 'I' for Inactive)
REMARK    1  A    between atoms: C2_2  and  N5_5 
REMARK       I    between atoms: N5_5  and  C6_6 
REMARK    2  A    between atoms: C6_6  and  C8_8 
REMARK    3  A    between atoms: N11_10  and  C13_12 
REMARK    4  A    between atoms: C13_12  and  C14_13 
REMARK    5  A    between atoms: N22_21  and  C23_22 
REMARK    6  A    between atoms: C23_22  and  C24_23 
REMARK    7  A    between atoms: C24_23  and  O26_24 
REMARK    8  A    between atoms: C24_23  and  C27_25 
REMARK    9  A    between atoms: C27_25  and  C28_26 
REMARK   10  A    between atoms: C28_26  and  C30_27 
REMARK   11  A    between atoms: C28_26  and  C37_34 
REMARK   12  A    between atoms: C30_27  and  C31_28 
REMARK       I    between atoms: C37_34  and  N39_36 
REMARK   13  A    between atoms: N39_36  and  C40_37 
REMARK   14  A    between atoms: C49_45  and  O51_46 
ROOT
ATOM      1  C24 ZIN A   1      19.649  -2.746  11.424  0.00  0.00     0.147 C 
ENDROOT
BRANCH   1   2
ATOM      2  C23 ZIN A   1      19.234  -1.790  12.546  0.00  0.00     0.305 C 
BRANCH   2   3
ATOM      3  N22 ZIN A   1      19.260  -0.409  12.046  0.00  0.00     0.108 N 
ATOM      4  C8  ZIN A   1      19.977   0.474  12.977  0.00  0.00     0.339 C 
ATOM      5  C10 ZIN A   1      20.034   1.888  12.392  0.00  0.00     0.281 C 
ATOM      6  N11 ZIN A   1      18.669   2.383  12.175  0.00  0.00    -0.063 N 
ATOM      7  H12 ZIN A   1      18.170   2.391  13.051  0.00  0.00     0.280 HD
ATOM      8  C20 ZIN A   1      17.974   1.505  11.224  0.00  0.00     0.265 C 
ATOM      9  C21 ZIN A   1      17.899   0.088  11.798  0.00  0.00     0.301 C 
BRANCH   4  10
ATOM     10  C6  ZIN A   1      19.255   0.505  14.298  0.00  0.00     0.253 C 
ATOM     11  N5  ZIN A   1      19.108  -0.627  15.013  0.00  0.00    -0.351 N 
ATOM     12  H61 ZIN A   1      19.468  -1.463  14.677  0.00  0.00     0.163 HD
ATOM     13  O7  ZIN A   1      18.804   1.551  14.718  0.00  0.00    -0.271 OA
BRANCH  11  14
ATOM     14  C2  ZIN A   1      18.405  -0.596  16.298  0.00  0.00     0.022 C 
ATOM     15  C1  ZIN A   1      19.308   0.035  17.359  0.00  0.00     0.037 C 
ATOM     16  C3  ZIN A   1      18.044  -2.022  16.717  0.00  0.00     0.037 C 
ATOM     17  C4  ZIN A   1      17.126   0.234  16.160  0.00  0.00     0.037 C 
ENDBRANCH  11  14
ENDBRANCH   4  10
BRANCH   6  18
ATOM     18  C13 ZIN A   1      18.724   3.746  11.630  0.00  0.00     0.275 C 
BRANCH  18  19
ATOM     19  C14 ZIN A   1      18.706   4.741  12.762  0.00  0.00    -0.015 A 
ATOM     20  C19 ZIN A   1      17.506   5.189  13.281  0.00  0.00     0.125 A 
ATOM     21  N18 ZIN A   1      17.482   6.056  14.275  0.00  0.00    -0.273 NA
ATOM     22  C17 ZIN A   1      18.592   6.535  14.803  0.00  0.00     0.116 A 
ATOM     23  C16 ZIN A   1      19.829   6.136  14.333  0.00  0.00     0.020 A 
ATOM     24  C15 ZIN A   1      19.893   5.222  13.293  0.00  0.00     0.012 A 
ENDBRANCH  18  19
ENDBRANCH   6  18
ENDBRANCH   2   3
ENDBRANCH   1   2
BRANCH   1  25
ATOM     25  O26 ZIN A   1      20.684  -3.611  11.894  0.00  0.00    -0.394 OA
ATOM     26  H76 ZIN A   1      20.809  -4.404  11.355  0.00  0.00     0.210 HD
ENDBRANCH   1  25
BRANCH   1  27
ATOM     27  C27 ZIN A   1      18.441  -3.583  10.996  0.00  0.00     0.047 C 
BRANCH  27  28
ATOM     28  C28 ZIN A   1      18.079  -3.251   9.547  0.00  0.00     0.084 C 
BRANCH  28  29
ATOM     29  C30 ZIN A   1      19.221  -2.462   8.904  0.00  0.00     0.052 C 
BRANCH  29  30
ATOM     30  C31 ZIN A   1      18.676  -1.609   7.786  0.00  0.00    -0.057 A 
ATOM     31  C36 ZIN A   1      17.616  -0.755   8.024  0.00  0.00     0.007 A 
ATOM     32  C35 ZIN A   1      17.117   0.031   7.001  0.00  0.00     0.001 A 
ATOM     33  C34 ZIN A   1      17.675  -0.045   5.738  0.00  0.00     0.000 A 
ATOM     34  C33 ZIN A   1      18.731  -0.904   5.500  0.00  0.00     0.001 A 
ATOM     35  C32 ZIN A   1      19.232  -1.686   6.524  0.00  0.00     0.007 A 
ENDBRANCH  29  30
ENDBRANCH  28  29
BRANCH  28  36
ATOM     36  C37 ZIN A   1      17.855  -4.528   8.779  0.00  0.00     0.222 C 
ATOM     37  O38 ZIN A   1      18.299  -5.575   9.202  0.00  0.00    -0.273 OA
ATOM     38  N39 ZIN A   1      17.164  -4.508   7.624  0.00  0.00    -0.350 N 
ATOM     39  H86 ZIN A   1      16.879  -3.662   7.243  0.00  0.00     0.163 HD
BRANCH  38  40
ATOM     40  C40 ZIN A   1      16.840  -5.763   6.941  0.00  0.00     0.147 C 
ATOM     41  C49 ZIN A   1      17.049  -5.615   5.419  0.00  0.00     0.149 C 
ATOM     42  C48 ZIN A   1      15.922  -6.502   4.843  0.00  0.00     0.073 C 
ATOM     43  C47 ZIN A   1      14.844  -6.515   5.906  0.00  0.00    -0.047 A 
ATOM     44  C42 ZIN A   1      15.372  -6.090   7.111  0.00  0.00    -0.027 A 
ATOM     45  C46 ZIN A   1      13.509  -6.870   5.825  0.00  0.00     0.008 A 
ATOM     46  C43 ZIN A   1      14.562  -6.022   8.232  0.00  0.00     0.010 A 
ATOM     47  C44 ZIN A   1      13.229  -6.378   8.149  0.00  0.00     0.001 A 
ATOM     48  C45 ZIN A   1      12.702  -6.801   6.943  0.00  0.00     0.001 A 
BRANCH  41  49
ATOM     49  O51 ZIN A   1      16.883  -4.255   5.012  0.00  0.00    -0.393 OA
ATOM     50  H93 ZIN A   1      15.998  -4.049   4.681  0.00  0.00     0.210 HD
ENDBRANCH  41  49
ENDBRANCH  38  40
ENDBRANCH  28  36
ENDBRANCH  27  28
ENDBRANCH   1  27
TORSDOF 14
ENDMDL
MODEL 9
REMARK VINA RESULT:      -9.1      2.290      9.765
REMARK  14 active torsions:
REMARK  status: ('A' for Active; 'I' for Inactive)
REMARK    1  A    between atoms: C2_2  and  N5_5 
REMARK       I    between atoms: N5_5  and  C6_6 
REMARK    2  A    between atoms: C6_6  and  C8_8 
REMARK    3  A    between atoms: N11_10  and  C13_12 
REMARK    4  A    between atoms: C13_12  and  C14_13 
REMARK    5  A    between atoms: N22_21  and  C23_22 
REMARK    6  A    between atoms: C23_22  and  C24_23 
REMARK    7  A    between atoms: C24_23  and  O26_24 
REMARK    8  A    between atoms: C24_23  and  C27_25 
REMARK    9  A    between atoms: C27_25  and  C28_26 
REMARK   10  A    between atoms: C28_26  and  C30_27 
REMARK   11  A    between atoms: C28_26  and  C37_34 
REMARK   12  A    between atoms: C30_27  and  C31_28 
REMARK       I    between atoms: C37_34  and  N39_36 
REMARK   13  A    between atoms: N39_36  and  C40_37 
REMARK   14  A    between atoms: C49_45  and  O51_46 
ROOT
ATOM      1  C24 ZIN A   1      18.664  -3.824  10.548  0.00  0.00     0.147 C 
ENDROOT
BRANCH   1   2
ATOM      2  C23 ZIN A   1      18.407  -2.316  10.564  0.00  0.00     0.305 C 
BRANCH   2   3
ATOM      3  N22 ZIN A   1      18.071  -1.892  11.930  0.00  0.00     0.108 N 
ATOM      4  C8  ZIN A   1      17.373  -0.599  11.924  0.00  0.00     0.339 C 
ATOM      5  C10 ZIN A   1      16.989  -0.223  13.357  0.00  0.00     0.281 C 
ATOM      6  N11 ZIN A   1      18.200  -0.140  14.183  0.00  0.00    -0.063 N 
ATOM      7  H12 ZIN A   1      18.823   0.553  13.799  0.00  0.00     0.280 HD
ATOM      8  C20 ZIN A   1      18.873  -1.446  14.201  0.00  0.00     0.265 C 
ATOM      9  C21 ZIN A   1      19.273  -1.833  12.775  0.00  0.00     0.301 C 
BRANCH   4  10
ATOM     10  C6  ZIN A   1      18.281   0.460  11.353  0.00  0.00     0.253 C 
ATOM     11  N5  ZIN A   1      17.796   1.686  11.077  0.00  0.00    -0.351 N 
ATOM     12  H61 ZIN A   1      16.862   1.888  11.246  0.00  0.00     0.163 HD
ATOM     13  O7  ZIN A   1      19.448   0.207  11.141  0.00  0.00    -0.271 OA
BRANCH  11  14
ATOM     14  C2  ZIN A   1      18.679   2.715  10.521  0.00  0.00     0.022 C 
ATOM     15  C1  ZIN A   1      19.205   2.255   9.161  0.00  0.00     0.037 C 
ATOM     16  C3  ZIN A   1      19.855   2.946  11.473  0.00  0.00     0.037 C 
ATOM     17  C4  ZIN A   1      17.897   4.020  10.351  0.00  0.00     0.037 C 
ENDBRANCH  11  14
ENDBRANCH   4  10
BRANCH   6  18
ATOM     18  C13 ZIN A   1      17.832   0.238  15.554  0.00  0.00     0.275 C 
BRANCH  18  19
ATOM     19  C14 ZIN A   1      18.473   1.557  15.901  0.00  0.00    -0.015 A 
ATOM     20  C19 ZIN A   1      19.061   1.747  17.137  0.00  0.00     0.125 A 
ATOM     21  N18 ZIN A   1      19.628   2.896  17.446  0.00  0.00    -0.273 NA
ATOM     22  C17 ZIN A   1      19.647   3.909  16.600  0.00  0.00     0.116 A 
ATOM     23  C16 ZIN A   1      19.073   3.795  15.348  0.00  0.00     0.020 A 
ATOM     24  C15 ZIN A   1      18.474   2.599  14.986  0.00  0.00     0.012 A 
ENDBRANCH  18  19
ENDBRANCH   6  18
ENDBRANCH   2   3
ENDBRANCH   1   2
BRANCH   1  25
ATOM     25  O26 ZIN A   1      17.420  -4.519  10.449  0.00  0.00    -0.394 OA
ATOM     26  H76 ZIN A   1      16.660  -3.944  10.283  0.00  0.00     0.210 HD
ENDBRANCH   1  25
BRANCH   1  27
ATOM     27  C27 ZIN A   1      19.543  -4.178   9.346  0.00  0.00     0.047 C 
BRANCH  27  28
ATOM     28  C28 ZIN A   1      18.868  -3.694   8.061  0.00  0.00     0.084 C 
BRANCH  28  29
ATOM     29  C30 ZIN A   1      19.904  -3.010   7.167  0.00  0.00     0.052 C 
BRANCH  29  30
ATOM     30  C31 ZIN A   1      19.253  -1.875   6.420  0.00  0.00    -0.057 A 
ATOM     31  C36 ZIN A   1      18.678  -0.829   7.117  0.00  0.00     0.007 A 
ATOM     32  C35 ZIN A   1      18.083   0.215   6.433  0.00  0.00     0.001 A 
ATOM     33  C34 ZIN A   1      18.056   0.209   5.051  0.00  0.00     0.000 A 
ATOM     34  C33 ZIN A   1      18.626  -0.840   4.354  0.00  0.00     0.001 A 
ATOM     35  C32 ZIN A   1      19.224  -1.882   5.038  0.00  0.00     0.007 A 
ENDBRANCH  29  30
ENDBRANCH  28  29
BRANCH  28  36
ATOM     36  C37 ZIN A   1      18.272  -4.870   7.331  0.00  0.00     0.222 C 
ATOM     37  O38 ZIN A   1      18.859  -5.931   7.311  0.00  0.00    -0.273 OA
ATOM     38  N39 ZIN A   1      17.088  -4.743   6.702  0.00  0.00    -0.350 N 
ATOM     39  H86 ZIN A   1      16.657  -3.876   6.648  0.00  0.00     0.163 HD
BRANCH  38  40
ATOM     40  C40 ZIN A   1      16.449  -5.916   6.098  0.00  0.00     0.147 C 
ATOM     41  C49 ZIN A   1      16.112  -5.641   4.617  0.00  0.00     0.149 C 
ATOM     42  C48 ZIN A   1      14.792  -6.420   4.429  0.00  0.00     0.073 C 
ATOM     43  C47 ZIN A   1      14.166  -6.480   5.806  0.00  0.00    -0.047 A 
ATOM     44  C42 ZIN A   1      15.119  -6.190   6.765  0.00  0.00    -0.027 A 
ATOM     45  C46 ZIN A   1      12.867  -6.766   6.189  0.00  0.00     0.008 A 
ATOM     46  C43 ZIN A   1      14.769  -6.188   8.105  0.00  0.00     0.010 A 
ATOM     47  C44 ZIN A   1      13.471  -6.474   8.485  0.00  0.00     0.001 A 
ATOM     48  C45 ZIN A   1      12.519  -6.763   7.526  0.00  0.00     0.001 A 
BRANCH  41  49
ATOM     49  O51 ZIN A   1      15.915  -4.243   4.392  0.00  0.00    -0.393 OA
ATOM     50  H93 ZIN A   1      16.712  -3.709   4.516  0.00  0.00     0.210 HD
ENDBRANCH  41  49
ENDBRANCH  38  40
ENDBRANCH  28  36
ENDBRANCH  27  28
ENDBRANCH   1  27
TORSDOF 14
ENDMDL
