MODEL 1
REMARK VINA RESULT:      -8.7      0.000      0.000
REMARK  4 active torsions:
REMARK  status: ('A' for Active; 'I' for Inactive)
REMARK    1  A    between atoms: O1_1  and  C2_2 
REMARK    2  A    between atoms: N9_8  and  C11_10 
REMARK    3  A    between atoms: C11_10  and  C12_11 
REMARK    4  A    between atoms: C23_22  and  O24_23 
ROOT
ATOM      1  C2  ZIN A   1      18.007   4.049  10.643  0.00  0.00     0.066 A 
ATOM      2  C3  ZIN A   1      19.077   4.263  11.499  0.00  0.00     0.037 A 
ATOM      3  C4  ZIN A   1      19.752   3.189  12.038  0.00  0.00     0.010 A 
ATOM      4  C5  ZIN A   1      19.370   1.888  11.732  0.00  0.00    -0.049 A 
ATOM      5  C6  ZIN A   1      20.180   0.764  12.322  0.00  0.00     0.075 C 
ATOM      6  C7  ZIN A   1      19.521  -0.588  12.120  0.00  0.00     0.227 C 
ATOM      7  N9  ZIN A   1      18.472  -0.854  13.094  0.00  0.00    -0.063 N 
ATOM      8  H10 ZIN A   1      18.157  -1.807  12.984  0.00  0.00     0.280 HD
ATOM      9  C16 ZIN A   1      17.328   0.046  12.933  0.00  0.00     0.236 C 
ATOM     10  C17 ZIN A   1      16.744  -0.105  11.523  0.00  0.00     0.045 C 
ATOM     11  C18 ZIN A   1      17.846   0.277  10.523  0.00  0.00     0.022 C 
ATOM     12  C19 ZIN A   1      17.308   0.229   9.099  0.00  0.00     0.017 C 
ATOM     13  C20 ZIN A   1      18.427   0.578   8.115  0.00  0.00     0.001 C 
ATOM     14  C21 ZIN A   1      19.574  -0.423   8.274  0.00  0.00     0.003 C 
ATOM     15  C22 ZIN A   1      20.118  -0.357   9.702  0.00  0.00     0.041 C 
ATOM     16  C23 ZIN A   1      18.983  -0.703  10.694  0.00  0.00     0.098 C 
ATOM     17  C25 ZIN A   1      18.296   1.674  10.895  0.00  0.00    -0.037 A 
ATOM     18  C26 ZIN A   1      17.615   2.752  10.351  0.00  0.00     0.045 A 
ENDROOT
BRANCH   7  19
ATOM     19  C11 ZIN A   1      19.023  -0.689  14.446  0.00  0.00     0.240 C 
BRANCH  19  20
ATOM     20  C12 ZIN A   1      17.946  -0.114  15.368  0.00  0.00     0.011 C 
ATOM     21  C15 ZIN A   1      18.492   0.877  16.410  0.00  0.00     0.006 C 
ATOM     22  C14 ZIN A   1      17.523   0.233  17.415  0.00  0.00     0.001 C 
ATOM     23  C13 ZIN A   1      17.589  -1.035  16.546  0.00  0.00     0.006 C 
ENDBRANCH  19  20
ENDBRANCH   7  19
BRANCH  16  24
ATOM     24  O24 ZIN A   1      18.524  -2.036  10.457  0.00  0.00    -0.387 OA
ATOM     25  H53 ZIN A   1      18.384  -2.553  11.262  0.00  0.00     0.210 HD
ENDBRANCH  16  24
BRANCH   1  26
ATOM     26  O1  ZIN A   1      17.343   5.102  10.101  0.00  0.00    -0.361 OA
ATOM     27  H27 ZIN A   1      17.789   5.952  10.218  0.00  0.00     0.217 HD
ENDBRANCH   1  26
TORSDOF 4
ENDMDL
MODEL 2
REMARK VINA RESULT:      -8.6      1.704      5.505
REMARK  4 active torsions:
REMARK  status: ('A' for Active; 'I' for Inactive)
REMARK    1  A    between atoms: O1_1  and  C2_2 
REMARK    2  A    between atoms: N9_8  and  C11_10 
REMARK    3  A    between atoms: C11_10  and  C12_11 
REMARK    4  A    between atoms: C23_22  and  O24_23 
ROOT
ATOM      1  C2  ZIN A   1      19.537   3.598  11.755  0.00  0.00     0.066 A 
ATOM      2  C3  ZIN A   1      18.406   3.843  10.992  0.00  0.00     0.037 A 
ATOM      3  C4  ZIN A   1      17.664   2.787  10.505  0.00  0.00     0.010 A 
ATOM      4  C5  ZIN A   1      18.039   1.476  10.773  0.00  0.00    -0.049 A 
ATOM      5  C6  ZIN A   1      17.157   0.375  10.247  0.00  0.00     0.075 C 
ATOM      6  C7  ZIN A   1      17.798  -0.994  10.388  0.00  0.00     0.227 C 
ATOM      7  N9  ZIN A   1      18.757  -1.278   9.330  0.00  0.00    -0.063 N 
ATOM      8  H10 ZIN A   1      19.058  -2.238   9.409  0.00  0.00     0.280 HD
ATOM      9  C16 ZIN A   1      19.931  -0.404   9.400  0.00  0.00     0.236 C 
ATOM     10  C17 ZIN A   1      20.625  -0.578  10.757  0.00  0.00     0.045 C 
ATOM     11  C18 ZIN A   1      19.619  -0.177  11.846  0.00  0.00     0.022 C 
ATOM     12  C19 ZIN A   1      20.270  -0.246  13.221  0.00  0.00     0.017 C 
ATOM     13  C20 ZIN A   1      19.244   0.122  14.295  0.00  0.00     0.001 C 
ATOM     14  C21 ZIN A   1      18.065  -0.851  14.226  0.00  0.00     0.003 C 
ATOM     15  C22 ZIN A   1      17.407  -0.763  12.848  0.00  0.00     0.041 C 
ATOM     16  C23 ZIN A   1      18.449  -1.130  11.764  0.00  0.00     0.098 C 
ATOM     17  C25 ZIN A   1      19.173   1.233  11.518  0.00  0.00    -0.037 A 
ATOM     18  C26 ZIN A   1      19.921   2.290  12.009  0.00  0.00     0.045 A 
ENDROOT
BRANCH   7  19
ATOM     19  C11 ZIN A   1      18.101  -1.091   8.029  0.00  0.00     0.240 C 
BRANCH  19  20
ATOM     20  C12 ZIN A   1      19.062  -0.383   7.071  0.00  0.00     0.011 C 
ATOM     21  C15 ZIN A   1      18.400   0.739   6.253  0.00  0.00     0.006 C 
ATOM     22  C14 ZIN A   1      19.233   0.251   5.057  0.00  0.00     0.001 C 
ATOM     23  C13 ZIN A   1      19.264  -1.126   5.741  0.00  0.00     0.006 C 
ENDBRANCH  19  20
ENDBRANCH   7  19
BRANCH  16  24
ATOM     24  O24 ZIN A   1      18.894  -2.474  11.958  0.00  0.00    -0.387 OA
ATOM     25  H53 ZIN A   1      18.267  -3.143  11.652  0.00  0.00     0.210 HD
ENDBRANCH  16  24
BRANCH   1  26
ATOM     26  O1  ZIN A   1      20.268   4.632  12.246  0.00  0.00    -0.361 OA
ATOM     27  H27 ZIN A   1      20.392   5.359  11.620  0.00  0.00     0.217 HD
ENDBRANCH   1  26
TORSDOF 4
ENDMDL
MODEL 3
REMARK VINA RESULT:      -8.1      1.834      4.346
REMARK  4 active torsions:
REMARK  status: ('A' for Active; 'I' for Inactive)
REMARK    1  A    between atoms: O1_1  and  C2_2 
REMARK    2  A    between atoms: N9_8  and  C11_10 
REMARK    3  A    between atoms: C11_10  and  C12_11 
REMARK    4  A    between atoms: C23_22  and  O24_23 
ROOT
ATOM      1  C2  ZIN A   1      19.305  -3.943  10.905  0.00  0.00     0.066 A 
ATOM      2  C3  ZIN A   1      18.164  -4.111  11.675  0.00  0.00     0.037 A 
ATOM      3  C4  ZIN A   1      17.465  -3.008  12.118  0.00  0.00     0.010 A 
ATOM      4  C5  ZIN A   1      17.893  -1.725  11.800  0.00  0.00    -0.049 A 
ATOM      5  C6  ZIN A   1      17.057  -0.569  12.281  0.00  0.00     0.075 C 
ATOM      6  C7  ZIN A   1      17.753   0.766  12.087  0.00  0.00     0.227 C 
ATOM      7  N9  ZIN A   1      18.722   1.052  13.136  0.00  0.00    -0.063 N 
ATOM      8  H10 ZIN A   1      19.061   1.996  13.019  0.00  0.00     0.280 HD
ATOM      9  C16 ZIN A   1      19.860   0.130  13.103  0.00  0.00     0.236 C 
ATOM     10  C17 ZIN A   1      20.561   0.221  11.741  0.00  0.00     0.045 C 
ATOM     11  C18 ZIN A   1      19.540  -0.181  10.667  0.00  0.00     0.022 C 
ATOM     12  C19 ZIN A   1      20.194  -0.192   9.292  0.00  0.00     0.017 C 
ATOM     13  C20 ZIN A   1      19.155  -0.560   8.230  0.00  0.00     0.001 C 
ATOM     14  C21 ZIN A   1      18.016   0.462   8.258  0.00  0.00     0.003 C 
ATOM     15  C22 ZIN A   1      17.354   0.455   9.638  0.00  0.00     0.041 C 
ATOM     16  C23 ZIN A   1      18.410   0.821  10.708  0.00  0.00     0.098 C 
ATOM     17  C25 ZIN A   1      19.036  -1.557  11.049  0.00  0.00    -0.037 A 
ATOM     18  C26 ZIN A   1      19.741  -2.663  10.601  0.00  0.00     0.045 A 
ENDROOT
BRANCH   7  19
ATOM     19  C11 ZIN A   1      18.058   0.943  14.442  0.00  0.00     0.240 C 
BRANCH  19  20
ATOM     20  C12 ZIN A   1      18.906   0.074  15.374  0.00  0.00     0.011 C 
ATOM     21  C15 ZIN A   1      18.147  -1.134  15.949  0.00  0.00     0.006 C 
ATOM     22  C14 ZIN A   1      18.863  -0.851  17.279  0.00  0.00     0.001 C 
ATOM     23  C13 ZIN A   1      18.985   0.610  16.812  0.00  0.00     0.006 C 
ENDBRANCH  19  20
ENDBRANCH   7  19
BRANCH  16  24
ATOM     24  O24 ZIN A   1      18.909   2.138  10.464  0.00  0.00    -0.387 OA
ATOM     25  H53 ZIN A   1      19.863   2.174  10.314  0.00  0.00     0.210 HD
ENDBRANCH  16  24
BRANCH   1  26
ATOM     26  O1  ZIN A   1      19.993  -5.024  10.457  0.00  0.00    -0.361 OA
ATOM     27  H27 ZIN A   1      19.915  -5.173   9.504  0.00  0.00     0.217 HD
ENDBRANCH   1  26
TORSDOF 4
ENDMDL
MODEL 4
REMARK VINA RESULT:      -8.0      2.619      4.857
REMARK  4 active torsions:
REMARK  status: ('A' for Active; 'I' for Inactive)
REMARK    1  A    between atoms: O1_1  and  C2_2 
REMARK    2  A    between atoms: N9_8  and  C11_10 
REMARK    3  A    between atoms: C11_10  and  C12_11 
REMARK    4  A    between atoms: C23_22  and  O24_23 
ROOT
ATOM      1  C2  ZIN A   1      17.697  -0.004  15.459  0.00  0.00     0.066 A 
ATOM      2  C3  ZIN A   1      18.649  -1.009  15.557  0.00  0.00     0.037 A 
ATOM      3  C4  ZIN A   1      19.376  -1.376  14.444  0.00  0.00     0.010 A 
ATOM      4  C5  ZIN A   1      19.165  -0.749  13.222  0.00  0.00    -0.049 A 
ATOM      5  C6  ZIN A   1      20.026  -1.171  12.062  0.00  0.00     0.075 C 
ATOM      6  C7  ZIN A   1      19.537  -0.599  10.743  0.00  0.00     0.227 C 
ATOM      7  N9  ZIN A   1      18.430  -1.358  10.178  0.00  0.00    -0.063 N 
ATOM      8  H10 ZIN A   1      18.229  -1.005   9.253  0.00  0.00     0.280 HD
ATOM      9  C16 ZIN A   1      17.219  -1.262  10.997  0.00  0.00     0.236 C 
ATOM     10  C17 ZIN A   1      16.797   0.207  11.127  0.00  0.00     0.045 C 
ATOM     11  C18 ZIN A   1      17.946   0.958  11.816  0.00  0.00     0.022 C 
ATOM     12  C19 ZIN A   1      17.560   2.413  12.053  0.00  0.00     0.017 C 
ATOM     13  C20 ZIN A   1      18.729   3.155  12.706  0.00  0.00     0.001 C 
ATOM     14  C21 ZIN A   1      19.953   3.082  11.791  0.00  0.00     0.003 C 
ATOM     15  C22 ZIN A   1      20.343   1.619  11.571  0.00  0.00     0.041 C 
ATOM     16  C23 ZIN A   1      19.157   0.871  10.916  0.00  0.00     0.098 C 
ATOM     17  C25 ZIN A   1      18.208   0.238  13.121  0.00  0.00    -0.037 A 
ATOM     18  C26 ZIN A   1      17.475   0.611  14.237  0.00  0.00     0.045 A 
ENDROOT
BRANCH   7  19
ATOM     19  C11 ZIN A   1      18.824  -2.770  10.072  0.00  0.00     0.240 C 
BRANCH  19  20
ATOM     20  C12 ZIN A   1      17.773  -3.645  10.758  0.00  0.00     0.011 C 
ATOM     21  C15 ZIN A   1      18.373  -4.715  11.685  0.00  0.00     0.006 C 
ATOM     22  C14 ZIN A   1      17.296  -5.671  11.149  0.00  0.00     0.001 C 
ATOM     23  C13 ZIN A   1      17.266  -4.801   9.881  0.00  0.00     0.006 C 
ENDBRANCH  19  20
ENDBRANCH   7  19
BRANCH  16  24
ATOM     24  O24 ZIN A   1      18.867   1.448   9.642  0.00  0.00    -0.387 OA
ATOM     25  H53 ZIN A   1      19.627   1.488   9.046  0.00  0.00     0.210 HD
ENDBRANCH  16  24
BRANCH   1  26
ATOM     26  O1  ZIN A   1      16.983   0.370  16.552  0.00  0.00    -0.361 OA
ATOM     27  H27 ZIN A   1      16.793   1.317  16.593  0.00  0.00     0.217 HD
ENDBRANCH   1  26
TORSDOF 4
ENDMDL
MODEL 5
REMARK VINA RESULT:      -8.0      2.754      4.337
REMARK  4 active torsions:
REMARK  status: ('A' for Active; 'I' for Inactive)
REMARK    1  A    between atoms: O1_1  and  C2_2 
REMARK    2  A    between atoms: N9_8  and  C11_10 
REMARK    3  A    between atoms: C11_10  and  C12_11 
REMARK    4  A    between atoms: C23_22  and  O24_23 
ROOT
ATOM      1  C2  ZIN A   1      17.696  -0.314   7.317  0.00  0.00     0.066 A 
ATOM      2  C3  ZIN A   1      18.590   0.736   7.179  0.00  0.00     0.037 A 
ATOM      3  C4  ZIN A   1      19.256   1.221   8.285  0.00  0.00     0.010 A 
ATOM      4  C5  ZIN A   1      19.041   0.665   9.541  0.00  0.00    -0.049 A 
ATOM      5  C6  ZIN A   1      19.835   1.215  10.695  0.00  0.00     0.075 C 
ATOM      6  C7  ZIN A   1      19.334   0.705  12.034  0.00  0.00     0.227 C 
ATOM      7  N9  ZIN A   1      18.167   1.433  12.512  0.00  0.00    -0.063 N 
ATOM      8  H10 ZIN A   1      17.955   1.131  13.452  0.00  0.00     0.280 HD
ATOM      9  C16 ZIN A   1      16.992   1.210  11.665  0.00  0.00     0.236 C 
ATOM     10  C17 ZIN A   1      16.661  -0.288  11.624  0.00  0.00     0.045 C 
ATOM     11  C18 ZIN A   1      17.874  -1.014  11.024  0.00  0.00     0.022 C 
ATOM     12  C19 ZIN A   1      17.581  -2.501  10.876  0.00  0.00     0.017 C 
ATOM     13  C20 ZIN A   1      18.813  -3.214  10.312  0.00  0.00     0.001 C 
ATOM     14  C21 ZIN A   1      19.998  -3.006  11.256  0.00  0.00     0.003 C 
ATOM     15  C22 ZIN A   1      20.295  -1.511  11.387  0.00  0.00     0.041 C 
ATOM     16  C23 ZIN A   1      19.046  -0.793  11.952  0.00  0.00     0.098 C 
ATOM     17  C25 ZIN A   1      18.139  -0.368   9.680  0.00  0.00    -0.037 A 
ATOM     18  C26 ZIN A   1      17.468  -0.858   8.572  0.00  0.00     0.045 A 
ENDROOT
BRANCH   7  19
ATOM     19  C11 ZIN A   1      18.474   2.869  12.532  0.00  0.00     0.240 C 
BRANCH  19  20
ATOM     20  C12 ZIN A   1      17.415   3.628  11.730  0.00  0.00     0.011 C 
ATOM     21  C15 ZIN A   1      17.974   4.330  10.481  0.00  0.00     0.006 C 
ATOM     22  C14 ZIN A   1      17.047   5.507  10.824  0.00  0.00     0.001 C 
ATOM     23  C13 ZIN A   1      17.110   5.029  12.285  0.00  0.00     0.006 C 
ENDBRANCH  19  20
ENDBRANCH   7  19
BRANCH  16  24
ATOM     24  O24 ZIN A   1      18.746  -1.300  13.254  0.00  0.00    -0.387 OA
ATOM     25  H53 ZIN A   1      18.197  -2.096  13.249  0.00  0.00     0.210 HD
ENDBRANCH  16  24
BRANCH   1  26
ATOM     26  O1  ZIN A   1      17.043  -0.803   6.231  0.00  0.00    -0.361 OA
ATOM     27  H27 ZIN A   1      17.265  -0.355   5.403  0.00  0.00     0.217 HD
ENDBRANCH   1  26
TORSDOF 4
ENDMDL
MODEL 6
REMARK VINA RESULT:      -7.9      1.739      3.768
REMARK  4 active torsions:
REMARK  status: ('A' for Active; 'I' for Inactive)
REMARK    1  A    between atoms: O1_1  and  C2_2 
REMARK    2  A    between atoms: N9_8  and  C11_10 
REMARK    3  A    between atoms: C11_10  and  C12_11 
REMARK    4  A    between atoms: C23_22  and  O24_23 
ROOT
ATOM      1  C2  ZIN A   1      18.504   0.748   8.624  0.00  0.00     0.066 A 
ATOM      2  C3  ZIN A   1      17.372   0.001   8.914  0.00  0.00     0.037 A 
ATOM      3  C4  ZIN A   1      16.926  -0.093  10.215  0.00  0.00     0.010 A 
ATOM      4  C5  ZIN A   1      17.601   0.556  11.243  0.00  0.00    -0.049 A 
ATOM      5  C6  ZIN A   1      17.032   0.446  12.632  0.00  0.00     0.075 C 
ATOM      6  C7  ZIN A   1      17.983   0.980  13.688  0.00  0.00     0.227 C 
ATOM      7  N9  ZIN A   1      19.016   0.020  14.052  0.00  0.00    -0.063 N 
ATOM      8  H10 ZIN A   1      19.539   0.384  14.836  0.00  0.00     0.280 HD
ATOM      9  C16 ZIN A   1      19.939  -0.244  12.945  0.00  0.00     0.236 C 
ATOM     10  C17 ZIN A   1      20.609   1.064  12.507  0.00  0.00     0.045 C 
ATOM     11  C18 ZIN A   1      19.501   2.018  12.038  0.00  0.00     0.022 C 
ATOM     12  C19 ZIN A   1      20.105   3.312  11.508  0.00  0.00     0.017 C 
ATOM     13  C20 ZIN A   1      18.986   4.264  11.079  0.00  0.00     0.001 C 
ATOM     14  C21 ZIN A   1      18.083   4.561  12.278  0.00  0.00     0.003 C 
ATOM     15  C22 ZIN A   1      17.468   3.258  12.793  0.00  0.00     0.041 C 
ATOM     16  C23 ZIN A   1      18.602   2.296  13.220  0.00  0.00     0.098 C 
ATOM     17  C25 ZIN A   1      18.735   1.285  10.956  0.00  0.00    -0.037 A 
ATOM     18  C26 ZIN A   1      19.186   1.382   9.650  0.00  0.00     0.045 A 
ENDROOT
BRANCH   7  19
ATOM     19  C11 ZIN A   1      18.376  -1.241  14.451  0.00  0.00     0.240 C 
BRANCH  19  20
ATOM     20  C12 ZIN A   1      18.445  -1.388  15.973  0.00  0.00     0.011 C 
ATOM     21  C15 ZIN A   1      17.163  -0.939  16.693  0.00  0.00     0.006 C 
ATOM     22  C14 ZIN A   1      18.076  -0.319  17.764  0.00  0.00     0.001 C 
ATOM     23  C13 ZIN A   1      19.155  -0.218  16.673  0.00  0.00     0.006 C 
ENDBRANCH  19  20
ENDBRANCH   7  19
BRANCH  16  24
ATOM     24  O24 ZIN A   1      19.356   2.881  14.284  0.00  0.00    -0.387 OA
ATOM     25  H53 ZIN A   1      19.427   2.321  15.070  0.00  0.00     0.210 HD
ENDBRANCH  16  24
BRANCH   1  26
ATOM     26  O1  ZIN A   1      18.943   0.853   7.343  0.00  0.00    -0.361 OA
ATOM     27  H27 ZIN A   1      19.708   1.436   7.236  0.00  0.00     0.217 HD
ENDBRANCH   1  26
TORSDOF 4
ENDMDL
MODEL 7
REMARK VINA RESULT:      -7.9      2.454      4.625
REMARK  4 active torsions:
REMARK  status: ('A' for Active; 'I' for Inactive)
REMARK    1  A    between atoms: O1_1  and  C2_2 
REMARK    2  A    between atoms: N9_8  and  C11_10 
REMARK    3  A    between atoms: C11_10  and  C12_11 
REMARK    4  A    between atoms: C23_22  and  O24_23 
ROOT
ATOM      1  C2  ZIN A   1      18.697   1.187   7.647  0.00  0.00     0.066 A 
ATOM      2  C3  ZIN A   1      17.656   0.270   7.661  0.00  0.00     0.037 A 
ATOM      3  C4  ZIN A   1      17.232  -0.269   8.858  0.00  0.00     0.010 A 
ATOM      4  C5  ZIN A   1      17.838   0.099  10.053  0.00  0.00    -0.049 A 
ATOM      5  C6  ZIN A   1      17.295  -0.496  11.325  0.00  0.00     0.075 C 
ATOM      6  C7  ZIN A   1      18.188  -0.217  12.520  0.00  0.00     0.227 C 
ATOM      7  N9  ZIN A   1      19.322  -1.126  12.599  0.00  0.00    -0.063 N 
ATOM      8  H10 ZIN A   1      19.808  -0.969  13.470  0.00  0.00     0.280 HD
ATOM      9  C16 ZIN A   1      20.261  -0.935  11.490  0.00  0.00     0.236 C 
ATOM     10  C17 ZIN A   1      20.781   0.508  11.495  0.00  0.00     0.045 C 
ATOM     11  C18 ZIN A   1      19.572   1.437  11.312  0.00  0.00     0.022 C 
ATOM     12  C19 ZIN A   1      20.026   2.888  11.224  0.00  0.00     0.017 C 
ATOM     13  C20 ZIN A   1      18.806   3.801  11.078  0.00  0.00     0.001 C 
ATOM     14  C21 ZIN A   1      17.884   3.614  12.285  0.00  0.00     0.003 C 
ATOM     15  C22 ZIN A   1      17.420   2.158  12.356  0.00  0.00     0.041 C 
ATOM     16  C23 ZIN A   1      18.656   1.238  12.497  0.00  0.00     0.098 C 
ATOM     17  C25 ZIN A   1      18.884   0.997  10.037  0.00  0.00    -0.037 A 
ATOM     18  C26 ZIN A   1      19.313   1.541   8.837  0.00  0.00     0.045 A 
ENDROOT
BRANCH   7  19
ATOM     19  C11 ZIN A   1      18.828  -2.509  12.572  0.00  0.00     0.240 C 
BRANCH  19  20
ATOM     20  C12 ZIN A   1      19.264  -3.181  11.268  0.00  0.00     0.011 C 
ATOM     21  C15 ZIN A   1      18.118  -3.894  10.531  0.00  0.00     0.006 C 
ATOM     22  C14 ZIN A   1      19.123  -5.013  10.215  0.00  0.00     0.001 C 
ATOM     23  C13 ZIN A   1      19.893  -4.568  11.470  0.00  0.00     0.006 C 
ENDBRANCH  19  20
ENDBRANCH   7  19
BRANCH  16  24
ATOM     24  O24 ZIN A   1      19.347   1.542  13.711  0.00  0.00    -0.387 OA
ATOM     25  H53 ZIN A   1      19.906   0.823  14.035  0.00  0.00     0.210 HD
ENDBRANCH  16  24
BRANCH   1  26
ATOM     26  O1  ZIN A   1      19.114   1.729   6.474  0.00  0.00    -0.361 OA
ATOM     27  H27 ZIN A   1      19.367   1.076   5.806  0.00  0.00     0.217 HD
ENDBRANCH   1  26
TORSDOF 4
ENDMDL
MODEL 8
REMARK VINA RESULT:      -7.5      1.650      4.009
REMARK  4 active torsions:
REMARK  status: ('A' for Active; 'I' for Inactive)
REMARK    1  A    between atoms: O1_1  and  C2_2 
REMARK    2  A    between atoms: N9_8  and  C11_10 
REMARK    3  A    between atoms: C11_10  and  C12_11 
REMARK    4  A    between atoms: C23_22  and  O24_23 
ROOT
ATOM      1  C2  ZIN A   1      19.010  -1.918   9.643  0.00  0.00     0.066 A 
ATOM      2  C3  ZIN A   1      17.885  -2.492  10.216  0.00  0.00     0.037 A 
ATOM      3  C4  ZIN A   1      17.296  -1.901  11.313  0.00  0.00     0.010 A 
ATOM      4  C5  ZIN A   1      17.819  -0.731  11.852  0.00  0.00    -0.049 A 
ATOM      5  C6  ZIN A   1      17.098  -0.118  13.023  0.00  0.00     0.075 C 
ATOM      6  C7  ZIN A   1      17.896   1.000  13.670  0.00  0.00     0.227 C 
ATOM      7  N9  ZIN A   1      18.919   0.506  14.580  0.00  0.00    -0.063 N 
ATOM      8  H10 ZIN A   1      19.333   1.289  15.065  0.00  0.00     0.280 HD
ATOM      9  C16 ZIN A   1      19.975  -0.229  13.878  0.00  0.00     0.236 C 
ATOM     10  C17 ZIN A   1      20.636   0.684  12.837  0.00  0.00     0.045 C 
ATOM     11  C18 ZIN A   1      19.550   1.107  11.837  0.00  0.00     0.022 C 
ATOM     12  C19 ZIN A   1      20.156   1.952  10.723  0.00  0.00     0.017 C 
ATOM     13  C20 ZIN A   1      19.054   2.395   9.757  0.00  0.00     0.001 C 
ATOM     14  C21 ZIN A   1      18.007   3.209  10.519  0.00  0.00     0.003 C 
ATOM     15  C22 ZIN A   1      17.392   2.348  11.625  0.00  0.00     0.041 C 
ATOM     16  C23 ZIN A   1      18.509   1.898  12.596  0.00  0.00     0.098 C 
ATOM     17  C25 ZIN A   1      18.947  -0.170  11.293  0.00  0.00    -0.037 A 
ATOM     18  C26 ZIN A   1      19.542  -0.761  10.190  0.00  0.00     0.045 A 
ENDROOT
BRANCH   7  19
ATOM     19  C11 ZIN A   1      18.293  -0.386  15.565  0.00  0.00     0.240 C 
BRANCH  19  20
ATOM     20  C12 ZIN A   1      18.147   0.349  16.899  0.00  0.00     0.011 C 
ATOM     21  C15 ZIN A   1      19.022   1.609  17.006  0.00  0.00     0.006 C 
ATOM     22  C14 ZIN A   1      19.297   1.198  18.462  0.00  0.00     0.001 C 
ATOM     23  C13 ZIN A   1      19.004  -0.247  18.027  0.00  0.00     0.006 C 
ENDBRANCH  19  20
ENDBRANCH   7  19
BRANCH  16  24
ATOM     24  O24 ZIN A   1      19.108   3.042  13.207  0.00  0.00    -0.387 OA
ATOM     25  H53 ZIN A   1      19.936   2.853  13.669  0.00  0.00     0.210 HD
ENDBRANCH  16  24
BRANCH   1  26
ATOM     26  O1  ZIN A   1      19.591  -2.490   8.556  0.00  0.00    -0.361 OA
ATOM     27  H27 ZIN A   1      19.872  -3.405   8.695  0.00  0.00     0.217 HD
ENDBRANCH   1  26
TORSDOF 4
ENDMDL
MODEL 9
REMARK VINA RESULT:      -7.4      2.157      5.570
REMARK  4 active torsions:
REMARK  status: ('A' for Active; 'I' for Inactive)
REMARK    1  A    between atoms: O1_1  and  C2_2 
REMARK    2  A    between atoms: N9_8  and  C11_10 
REMARK    3  A    between atoms: C11_10  and  C12_11 
REMARK    4  A    between atoms: C23_22  and  O24_23 
ROOT
ATOM      1  C2  ZIN A   1      17.755   0.030  15.114  0.00  0.00     0.066 A 
ATOM      2  C3  ZIN A   1      18.750  -0.936  15.116  0.00  0.00     0.037 A 
ATOM      3  C4  ZIN A   1      19.509  -1.143  13.984  0.00  0.00     0.010 A 
ATOM      4  C5  ZIN A   1      19.287  -0.392  12.836  0.00  0.00    -0.049 A 
ATOM      5  C6  ZIN A   1      20.182  -0.642  11.652  0.00  0.00     0.075 C 
ATOM      6  C7  ZIN A   1      19.685   0.053  10.397  0.00  0.00     0.227 C 
ATOM      7  N9  ZIN A   1      18.622  -0.685   9.729  0.00  0.00    -0.063 N 
ATOM      8  H10 ZIN A   1      18.418  -0.239   8.846  0.00  0.00     0.280 HD
ATOM      9  C16 ZIN A   1      17.397  -0.736  10.530  0.00  0.00     0.236 C 
ATOM     10  C17 ZIN A   1      16.907   0.689  10.817  0.00  0.00     0.045 C 
ATOM     11  C18 ZIN A   1      18.010   1.408  11.607  0.00  0.00     0.022 C 
ATOM     12  C19 ZIN A   1      17.554   2.808  11.999  0.00  0.00     0.017 C 
ATOM     13  C20 ZIN A   1      18.678   3.522  12.753  0.00  0.00     0.001 C 
ATOM     14  C21 ZIN A   1      19.917   3.607  11.859  0.00  0.00     0.003 C 
ATOM     15  C22 ZIN A   1      20.377   2.197  11.483  0.00  0.00     0.041 C 
ATOM     16  C23 ZIN A   1      19.236   1.476  10.726  0.00  0.00     0.098 C 
ATOM     17  C25 ZIN A   1      18.286   0.557  12.828  0.00  0.00    -0.037 A 
ATOM     18  C26 ZIN A   1      17.522   0.768  13.964  0.00  0.00     0.045 A 
ENDROOT
BRANCH   7  19
ATOM     19  C11 ZIN A   1      19.082  -2.057   9.473  0.00  0.00     0.240 C 
BRANCH  19  20
ATOM     20  C12 ZIN A   1      18.602  -2.506   8.090  0.00  0.00     0.011 C 
ATOM     21  C15 ZIN A   1      19.586  -3.445   7.373  0.00  0.00     0.006 C 
ATOM     22  C14 ZIN A   1      19.252  -2.679   6.082  0.00  0.00     0.001 C 
ATOM     23  C13 ZIN A   1      18.888  -1.484   6.979  0.00  0.00     0.006 C 
ENDBRANCH  19  20
ENDBRANCH   7  19
BRANCH  16  24
ATOM     24  O24 ZIN A   1      18.937   2.180   9.519  0.00  0.00    -0.387 OA
ATOM     25  H53 ZIN A   1      19.638   2.781   9.231  0.00  0.00     0.210 HD
ENDBRANCH  16  24
BRANCH   1  26
ATOM     26  O1  ZIN A   1      17.010   0.246  16.228  0.00  0.00    -0.361 OA
ATOM     27  H27 ZIN A   1      16.991   1.169  16.516  0.00  0.00     0.217 HD
ENDBRANCH   1  26
TORSDOF 4
ENDMDL
