MODEL 1
REMARK VINA RESULT:      -8.8      0.000      0.000
REMARK  5 active torsions:
REMARK  status: ('A' for Active; 'I' for Inactive)
REMARK    1  A    between atoms: C10_10  and  O11_11 
REMARK    2  A    between atoms: O11_11  and  C12_12 
REMARK    3  A    between atoms: C14_14  and  N15_15 
REMARK    4  A    between atoms: N15_15  and  C16_16 
REMARK    5  A    between atoms: C25_25  and  N26_26 
ROOT
ATOM      1  C1  ZIN A   1      20.010  -3.319  11.895  0.00  0.00     0.051 C 
ATOM      2  C2  ZIN A   1      19.184  -2.238  12.544  0.00  0.00    -0.026 A 
ATOM      3  C3  ZIN A   1      19.437  -1.869  13.847  0.00  0.00     0.032 A 
ATOM      4  C4  ZIN A   1      18.670  -0.867  14.449  0.00  0.00     0.045 A 
ATOM      5  C5  ZIN A   1      18.930  -0.481  15.803  0.00  0.00     0.099 C 
ATOM      6  N6  ZIN A   1      19.137  -0.174  16.877  0.00  0.00    -0.191 NA
ATOM      7  C7  ZIN A   1      17.652  -0.243  13.726  0.00  0.00     0.032 A 
ATOM      8  C8  ZIN A   1      17.405  -0.617  12.423  0.00  0.00    -0.026 A 
ATOM      9  C9  ZIN A   1      16.306   0.055  11.642  0.00  0.00     0.051 C 
ATOM     10  C10 ZIN A   1      18.172  -1.611  11.827  0.00  0.00     0.089 A 
ENDROOT
BRANCH  10  11
ATOM     11  O11 ZIN A   1      17.927  -1.977  10.543  0.00  0.00    -0.289 OA
BRANCH  11  12
ATOM     12  C12 ZIN A   1      18.441  -1.208   9.552  0.00  0.00     0.210 A 
ATOM     13  C27 ZIN A   1      18.637  -1.734   8.281  0.00  0.00     0.110 A 
ATOM     14  C25 ZIN A   1      19.163  -0.905   7.293  0.00  0.00     0.162 A 
ATOM     15 Br28 ZIN A   1      18.185  -3.530   7.897  0.00  0.00    -0.042 Br
ATOM     16  N24 ZIN A   1      19.469   0.353   7.600  0.00  0.00    -0.044 NA
ATOM     17  C14 ZIN A   1      19.274   0.819   8.824  0.00  0.00     0.731 A 
ATOM     18  N13 ZIN A   1      18.771   0.059   9.786  0.00  0.00    -0.036 NA
BRANCH  14  19
ATOM     19  N26 ZIN A   1      19.372  -1.386   6.009  0.00  0.00    -0.382 N 
ATOM     20  H42 ZIN A   1      18.629  -1.743   5.498  0.00  0.00     0.157 HD
ATOM     21  H43 ZIN A   1      20.261  -1.367   5.623  0.00  0.00     0.157 HD
ENDBRANCH  14  19
BRANCH  17  22
ATOM     22  N15 ZIN A   1      19.604   2.135   9.106  0.00  0.00    -0.188 N 
ATOM     23  H37 ZIN A   1      20.211   2.619   8.524  0.00  0.00     0.184 HD
BRANCH  22  24
ATOM     24  C16 ZIN A   1      19.063   2.763  10.226  0.00  0.00     0.049 A 
ATOM     25  C23 ZIN A   1      19.697   2.652  11.460  0.00  0.00     0.031 A 
ATOM     26  C22 ZIN A   1      19.167   3.275  12.567  0.00  0.00     0.025 A 
ATOM     27  C19 ZIN A   1      17.985   4.010  12.454  0.00  0.00     0.044 A 
ATOM     28  C18 ZIN A   1      17.346   4.115  11.214  0.00  0.00     0.025 A 
ATOM     29  C20 ZIN A   1      17.427   4.654  13.605  0.00  0.00     0.099 C 
ATOM     30  C17 ZIN A   1      17.884   3.494  10.110  0.00  0.00     0.031 A 
ATOM     31  N21 ZIN A   1      16.984   5.165  14.518  0.00  0.00    -0.191 NA
ENDBRANCH  22  24
ENDBRANCH  17  22
ENDBRANCH  11  12
ENDBRANCH  10  11
TORSDOF 5
ENDMDL
MODEL 2
REMARK VINA RESULT:      -8.8      0.061      1.862
REMARK  5 active torsions:
REMARK  status: ('A' for Active; 'I' for Inactive)
REMARK    1  A    between atoms: C10_10  and  O11_11 
REMARK    2  A    between atoms: O11_11  and  C12_12 
REMARK    3  A    between atoms: C14_14  and  N15_15 
REMARK    4  A    between atoms: N15_15  and  C16_16 
REMARK    5  A    between atoms: C25_25  and  N26_26 
ROOT
ATOM      1  C1  ZIN A   1      16.302   0.082  11.598  0.00  0.00     0.051 C 
ATOM      2  C2  ZIN A   1      17.387  -0.586  12.404  0.00  0.00    -0.026 A 
ATOM      3  C3  ZIN A   1      17.620  -0.191  13.703  0.00  0.00     0.032 A 
ATOM      4  C4  ZIN A   1      18.626  -0.810  14.450  0.00  0.00     0.045 A 
ATOM      5  C5  ZIN A   1      18.871  -0.403  15.801  0.00  0.00     0.099 C 
ATOM      6  N6  ZIN A   1      19.065  -0.080  16.873  0.00  0.00    -0.191 NA
ATOM      7  C7  ZIN A   1      19.390  -1.829  13.876  0.00  0.00     0.032 A 
ATOM      8  C8  ZIN A   1      19.151  -2.217  12.576  0.00  0.00    -0.026 A 
ATOM      9  C9  ZIN A   1      19.975  -3.315  11.955  0.00  0.00     0.051 C 
ATOM     10  C10 ZIN A   1      18.147  -1.602  11.839  0.00  0.00     0.089 A 
ENDROOT
BRANCH  10  11
ATOM     11  O11 ZIN A   1      17.913  -1.989  10.558  0.00  0.00    -0.289 OA
BRANCH  11  12
ATOM     12  C12 ZIN A   1      18.434  -1.234   9.560  0.00  0.00     0.210 A 
ATOM     13  C27 ZIN A   1      18.638  -1.779   8.298  0.00  0.00     0.110 A 
ATOM     14  C25 ZIN A   1      19.171  -0.964   7.301  0.00  0.00     0.162 A 
ATOM     15 Br28 ZIN A   1      18.188  -3.580   7.937  0.00  0.00    -0.042 Br
ATOM     16  N24 ZIN A   1      19.475   0.298   7.592  0.00  0.00    -0.044 NA
ATOM     17  C14 ZIN A   1      19.273   0.781   8.808  0.00  0.00     0.731 A 
ATOM     18  N13 ZIN A   1      18.763   0.036   9.777  0.00  0.00    -0.036 NA
BRANCH  14  19
ATOM     19  N26 ZIN A   1      19.387  -1.464   6.026  0.00  0.00    -0.382 N 
ATOM     20  H42 ZIN A   1      18.688  -1.960   5.574  0.00  0.00     0.157 HD
ATOM     21  H43 ZIN A   1      20.240  -1.318   5.586  0.00  0.00     0.157 HD
ENDBRANCH  14  19
BRANCH  17  22
ATOM     22  N15 ZIN A   1      19.601   2.101   9.073  0.00  0.00    -0.188 N 
ATOM     23  H37 ZIN A   1      20.196   2.583   8.477  0.00  0.00     0.184 HD
BRANCH  22  24
ATOM     24  C16 ZIN A   1      19.076   2.737  10.197  0.00  0.00     0.049 A 
ATOM     25  C23 ZIN A   1      17.896   3.467  10.093  0.00  0.00     0.031 A 
ATOM     26  C22 ZIN A   1      17.372   4.093  11.202  0.00  0.00     0.025 A 
ATOM     27  C19 ZIN A   1      18.032   4.003  12.430  0.00  0.00     0.044 A 
ATOM     28  C18 ZIN A   1      19.221   3.273  12.529  0.00  0.00     0.025 A 
ATOM     29  C20 ZIN A   1      17.494   4.658  13.584  0.00  0.00     0.099 C 
ATOM     30  C17 ZIN A   1      19.736   2.645  11.418  0.00  0.00     0.031 A 
ATOM     31  N21 ZIN A   1      17.066   5.178  14.500  0.00  0.00    -0.191 NA
ENDBRANCH  22  24
ENDBRANCH  17  22
ENDBRANCH  11  12
ENDBRANCH  10  11
TORSDOF 5
ENDMDL
MODEL 3
REMARK VINA RESULT:      -8.7      2.975      5.903
REMARK  5 active torsions:
REMARK  status: ('A' for Active; 'I' for Inactive)
REMARK    1  A    between atoms: C10_10  and  O11_11 
REMARK    2  A    between atoms: O11_11  and  C12_12 
REMARK    3  A    between atoms: C14_14  and  N15_15 
REMARK    4  A    between atoms: N15_15  and  C16_16 
REMARK    5  A    between atoms: C25_25  and  N26_26 
ROOT
ATOM      1  C1  ZIN A   1      21.014   0.675  12.114  0.00  0.00     0.051 C 
ATOM      2  C2  ZIN A   1      20.056  -0.343  12.678  0.00  0.00    -0.026 A 
ATOM      3  C3  ZIN A   1      19.820  -1.516  11.995  0.00  0.00     0.032 A 
ATOM      4  C4  ZIN A   1      18.932  -2.460  12.518  0.00  0.00     0.045 A 
ATOM      5  C5  ZIN A   1      18.683  -3.680  11.811  0.00  0.00     0.099 C 
ATOM      6  N6  ZIN A   1      18.486  -4.649  11.251  0.00  0.00    -0.191 NA
ATOM      7  C7  ZIN A   1      18.288  -2.210  13.732  0.00  0.00     0.032 A 
ATOM      8  C8  ZIN A   1      18.530  -1.035  14.409  0.00  0.00    -0.026 A 
ATOM      9  C9  ZIN A   1      17.837  -0.764  15.719  0.00  0.00     0.051 C 
ATOM     10  C10 ZIN A   1      19.418  -0.101  13.888  0.00  0.00     0.089 A 
ENDROOT
BRANCH  10  11
ATOM     11  O11 ZIN A   1      19.655   1.055  14.559  0.00  0.00    -0.289 OA
BRANCH  11  12
ATOM     12  C12 ZIN A   1      18.917   2.144  14.230  0.00  0.00     0.210 A 
ATOM     13  C27 ZIN A   1      18.534   3.056  15.206  0.00  0.00     0.110 A 
ATOM     14  C25 ZIN A   1      17.781   4.163  14.822  0.00  0.00     0.162 A 
ATOM     15 Br28 ZIN A   1      19.037   2.808  17.012  0.00  0.00    -0.042 Br
ATOM     16  N24 ZIN A   1      17.446   4.304  13.542  0.00  0.00    -0.044 NA
ATOM     17  C14 ZIN A   1      17.824   3.412  12.640  0.00  0.00     0.731 A 
ATOM     18  N13 ZIN A   1      18.546   2.351  12.970  0.00  0.00    -0.036 NA
BRANCH  14  19
ATOM     19  N26 ZIN A   1      17.380   5.102  15.761  0.00  0.00    -0.382 N 
ATOM     20  H42 ZIN A   1      17.990   5.377  16.462  0.00  0.00     0.157 HD
ATOM     21  H43 ZIN A   1      16.489   5.481  15.716  0.00  0.00     0.157 HD
ENDBRANCH  14  19
BRANCH  17  22
ATOM     22  N15 ZIN A   1      17.458   3.593  11.316  0.00  0.00    -0.188 N 
ATOM     23  H37 ZIN A   1      16.948   4.377  11.056  0.00  0.00     0.184 HD
BRANCH  22  24
ATOM     24  C16 ZIN A   1      17.822   2.649  10.357  0.00  0.00     0.049 A 
ATOM     25  C23 ZIN A   1      17.293   1.363  10.412  0.00  0.00     0.031 A 
ATOM     26  C22 ZIN A   1      17.649   0.430   9.464  0.00  0.00     0.025 A 
ATOM     27  C19 ZIN A   1      18.550   0.772   8.453  0.00  0.00     0.044 A 
ATOM     28  C18 ZIN A   1      19.085   2.063   8.404  0.00  0.00     0.025 A 
ATOM     29  C20 ZIN A   1      18.927  -0.198   7.469  0.00  0.00     0.099 C 
ATOM     30  C17 ZIN A   1      18.721   2.993   9.352  0.00  0.00     0.031 A 
ATOM     31  N21 ZIN A   1      19.226  -0.968   6.688  0.00  0.00    -0.191 NA
ENDBRANCH  22  24
ENDBRANCH  17  22
ENDBRANCH  11  12
ENDBRANCH  10  11
TORSDOF 5
ENDMDL
MODEL 4
REMARK VINA RESULT:      -8.3      3.027      6.051
REMARK  5 active torsions:
REMARK  status: ('A' for Active; 'I' for Inactive)
REMARK    1  A    between atoms: C10_10  and  O11_11 
REMARK    2  A    between atoms: O11_11  and  C12_12 
REMARK    3  A    between atoms: C14_14  and  N15_15 
REMARK    4  A    between atoms: N15_15  and  C16_16 
REMARK    5  A    between atoms: C25_25  and  N26_26 
ROOT
ATOM      1  C1  ZIN A   1      16.631   0.466  12.391  0.00  0.00     0.051 C 
ATOM      2  C2  ZIN A   1      17.628  -0.531  12.924  0.00  0.00    -0.026 A 
ATOM      3  C3  ZIN A   1      18.208  -1.445  12.074  0.00  0.00     0.032 A 
ATOM      4  C4  ZIN A   1      19.132  -2.370  12.569  0.00  0.00     0.045 A 
ATOM      5  C5  ZIN A   1      19.736  -3.322  11.687  0.00  0.00     0.099 C 
ATOM      6  N6  ZIN A   1      20.217  -4.079  10.988  0.00  0.00    -0.191 NA
ATOM      7  C7  ZIN A   1      19.465  -2.360  13.925  0.00  0.00     0.032 A 
ATOM      8  C8  ZIN A   1      18.881  -1.442  14.769  0.00  0.00    -0.026 A 
ATOM      9  C9  ZIN A   1      19.239  -1.431  16.233  0.00  0.00     0.051 C 
ATOM     10  C10 ZIN A   1      17.966  -0.522  14.272  0.00  0.00     0.089 A 
ENDROOT
BRANCH  10  11
ATOM     11  O11 ZIN A   1      17.393   0.383  15.107  0.00  0.00    -0.289 OA
BRANCH  11  12
ATOM     12  C12 ZIN A   1      18.011   1.578  15.273  0.00  0.00     0.210 A 
ATOM     13  C27 ZIN A   1      18.261   2.070  16.548  0.00  0.00     0.110 A 
ATOM     14  C25 ZIN A   1      18.904   3.300  16.669  0.00  0.00     0.162 A 
ATOM     15 Br28 ZIN A   1      17.757   1.087  18.082  0.00  0.00    -0.042 Br
ATOM     16  N24 ZIN A   1      19.244   3.964  15.567  0.00  0.00    -0.044 NA
ATOM     17  C14 ZIN A   1      18.984   3.466  14.369  0.00  0.00     0.731 A 
ATOM     18  N13 ZIN A   1      18.380   2.297  14.217  0.00  0.00    -0.036 NA
BRANCH  14  19
ATOM     19  N26 ZIN A   1      19.179   3.830  17.921  0.00  0.00    -0.382 N 
ATOM     20  H42 ZIN A   1      18.690   3.516  18.698  0.00  0.00     0.157 HD
ATOM     21  H43 ZIN A   1      19.858   4.515  18.020  0.00  0.00     0.157 HD
ENDBRANCH  14  19
BRANCH  17  22
ATOM     22  N15 ZIN A   1      19.354   4.185  13.243  0.00  0.00    -0.188 N 
ATOM     23  H37 ZIN A   1      19.687   5.092  13.335  0.00  0.00     0.184 HD
BRANCH  22  24
ATOM     24  C16 ZIN A   1      19.250   3.605  11.981  0.00  0.00     0.049 A 
ATOM     25  C23 ZIN A   1      20.030   2.498  11.658  0.00  0.00     0.031 A 
ATOM     26  C22 ZIN A   1      19.927   1.920  10.413  0.00  0.00     0.025 A 
ATOM     27  C19 ZIN A   1      19.044   2.452   9.469  0.00  0.00     0.044 A 
ATOM     28  C18 ZIN A   1      18.266   3.567   9.794  0.00  0.00     0.025 A 
ATOM     29  C20 ZIN A   1      18.939   1.857   8.170  0.00  0.00     0.099 C 
ATOM     30  C17 ZIN A   1      18.370   4.137  11.043  0.00  0.00     0.031 A 
ATOM     31  N21 ZIN A   1      18.855   1.385   7.140  0.00  0.00    -0.191 NA
ENDBRANCH  22  24
ENDBRANCH  17  22
ENDBRANCH  11  12
ENDBRANCH  10  11
TORSDOF 5
ENDMDL
MODEL 5
REMARK VINA RESULT:      -8.3      2.966      7.349
REMARK  5 active torsions:
REMARK  status: ('A' for Active; 'I' for Inactive)
REMARK    1  A    between atoms: C10_10  and  O11_11 
REMARK    2  A    between atoms: O11_11  and  C12_12 
REMARK    3  A    between atoms: C14_14  and  N15_15 
REMARK    4  A    between atoms: N15_15  and  C16_16 
REMARK    5  A    between atoms: C25_25  and  N26_26 
ROOT
ATOM      1  C1  ZIN A   1      16.964  -1.339   9.873  0.00  0.00     0.051 C 
ATOM      2  C2  ZIN A   1      17.659  -0.271   9.067  0.00  0.00    -0.026 A 
ATOM      3  C3  ZIN A   1      18.101  -0.551   7.793  0.00  0.00     0.032 A 
ATOM      4  C4  ZIN A   1      18.746   0.439   7.046  0.00  0.00     0.045 A 
ATOM      5  C5  ZIN A   1      19.207   0.152   5.721  0.00  0.00     0.099 C 
ATOM      6  N6  ZIN A   1      19.573  -0.075   4.669  0.00  0.00    -0.191 NA
ATOM      7  C7  ZIN A   1      18.938   1.709   7.594  0.00  0.00     0.032 A 
ATOM      8  C8  ZIN A   1      18.492   1.981   8.869  0.00  0.00    -0.026 A 
ATOM      9  C9  ZIN A   1      18.699   3.350   9.463  0.00  0.00     0.051 C 
ATOM     10  C10 ZIN A   1      17.848   0.995   9.607  0.00  0.00     0.089 A 
ENDROOT
BRANCH  10  11
ATOM     11  O11 ZIN A   1      17.409   1.267  10.863  0.00  0.00    -0.289 OA
BRANCH  11  12
ATOM     12  C12 ZIN A   1      18.187   0.885  11.906  0.00  0.00     0.210 A 
ATOM     13  C27 ZIN A   1      18.462   1.771  12.940  0.00  0.00     0.110 A 
ATOM     14  C25 ZIN A   1      19.262   1.334  13.994  0.00  0.00     0.162 A 
ATOM     15 Br28 ZIN A   1      17.755   3.525  12.926  0.00  0.00    -0.042 Br
ATOM     16  N24 ZIN A   1      19.742   0.093  13.969  0.00  0.00    -0.044 NA
ATOM     17  C14 ZIN A   1      19.463  -0.722  12.964  0.00  0.00     0.731 A 
ATOM     18  N13 ZIN A   1      18.701  -0.340  11.949  0.00  0.00    -0.036 NA
BRANCH  14  19
ATOM     19  N26 ZIN A   1      19.560   2.181  15.050  0.00  0.00    -0.382 N 
ATOM     20  H42 ZIN A   1      20.167   2.926  14.918  0.00  0.00     0.157 HD
ATOM     21  H43 ZIN A   1      19.162   2.028  15.921  0.00  0.00     0.157 HD
ENDBRANCH  14  19
BRANCH  17  22
ATOM     22  N15 ZIN A   1      19.979  -2.008  12.973  0.00  0.00    -0.188 N 
ATOM     23  H37 ZIN A   1      20.755  -2.216  13.519  0.00  0.00     0.184 HD
BRANCH  22  24
ATOM     24  C16 ZIN A   1      19.384  -3.003  12.200  0.00  0.00     0.049 A 
ATOM     25  C23 ZIN A   1      18.102  -3.448  12.508  0.00  0.00     0.031 A 
ATOM     26  C22 ZIN A   1      17.510  -4.428  11.744  0.00  0.00     0.025 A 
ATOM     27  C19 ZIN A   1      18.201  -4.983  10.664  0.00  0.00     0.044 A 
ATOM     28  C18 ZIN A   1      19.492  -4.538  10.361  0.00  0.00     0.025 A 
ATOM     29  C20 ZIN A   1      17.591  -6.008   9.871  0.00  0.00     0.099 C 
ATOM     30  C17 ZIN A   1      20.076  -3.554  11.125  0.00  0.00     0.031 A 
ATOM     31  N21 ZIN A   1      17.106  -6.820   9.241  0.00  0.00    -0.191 NA
ENDBRANCH  22  24
ENDBRANCH  17  22
ENDBRANCH  11  12
ENDBRANCH  10  11
TORSDOF 5
ENDMDL
MODEL 6
REMARK VINA RESULT:      -8.2      2.946      7.264
REMARK  5 active torsions:
REMARK  status: ('A' for Active; 'I' for Inactive)
REMARK    1  A    between atoms: C10_10  and  O11_11 
REMARK    2  A    between atoms: O11_11  and  C12_12 
REMARK    3  A    between atoms: C14_14  and  N15_15 
REMARK    4  A    between atoms: N15_15  and  C16_16 
REMARK    5  A    between atoms: C25_25  and  N26_26 
ROOT
ATOM      1  C1  ZIN A   1      18.834   4.024  10.474  0.00  0.00     0.051 C 
ATOM      2  C2  ZIN A   1      18.485   2.721   9.800  0.00  0.00    -0.026 A 
ATOM      3  C3  ZIN A   1      18.904   2.481   8.511  0.00  0.00     0.032 A 
ATOM      4  C4  ZIN A   1      18.580   1.273   7.886  0.00  0.00     0.045 A 
ATOM      5  C5  ZIN A   1      19.013   1.019   6.546  0.00  0.00     0.099 C 
ATOM      6  N6  ZIN A   1      19.358   0.817   5.481  0.00  0.00    -0.191 NA
ATOM      7  C7  ZIN A   1      17.832   0.314   8.574  0.00  0.00     0.032 A 
ATOM      8  C8  ZIN A   1      17.417   0.563   9.864  0.00  0.00    -0.026 A 
ATOM      9  C9  ZIN A   1      16.611  -0.471  10.608  0.00  0.00     0.051 C 
ATOM     10  C10 ZIN A   1      17.746   1.763  10.482  0.00  0.00     0.089 A 
ENDROOT
BRANCH  10  11
ATOM     11  O11 ZIN A   1      17.336   2.004  11.754  0.00  0.00    -0.289 OA
BRANCH  11  12
ATOM     12  C12 ZIN A   1      18.082   1.504  12.770  0.00  0.00     0.210 A 
ATOM     13  C27 ZIN A   1      18.385   2.291  13.874  0.00  0.00     0.110 A 
ATOM     14  C25 ZIN A   1      19.151   1.733  14.896  0.00  0.00     0.162 A 
ATOM     15 Br28 ZIN A   1      17.761   4.071  13.995  0.00  0.00    -0.042 Br
ATOM     16  N24 ZIN A   1      19.573   0.477  14.776  0.00  0.00    -0.044 NA
ATOM     17  C14 ZIN A   1      19.268  -0.241  13.706  0.00  0.00     0.731 A 
ATOM     18  N13 ZIN A   1      18.538   0.256  12.718  0.00  0.00    -0.036 NA
BRANCH  14  19
ATOM     19  N26 ZIN A   1      19.475   2.479  16.019  0.00  0.00    -0.382 N 
ATOM     20  H42 ZIN A   1      20.404   2.626  16.252  0.00  0.00     0.157 HD
ATOM     21  H43 ZIN A   1      18.771   2.852  16.573  0.00  0.00     0.157 HD
ENDBRANCH  14  19
BRANCH  17  22
ATOM     22  N15 ZIN A   1      19.725  -1.547  13.616  0.00  0.00    -0.188 N 
ATOM     23  H37 ZIN A   1      20.351  -1.888  14.274  0.00  0.00     0.184 HD
BRANCH  22  24
ATOM     24  C16 ZIN A   1      19.281  -2.370  12.582  0.00  0.00     0.049 A 
ATOM     25  C23 ZIN A   1      19.993  -2.430  11.388  0.00  0.00     0.031 A 
ATOM     26  C22 ZIN A   1      19.560  -3.244  10.367  0.00  0.00     0.025 A 
ATOM     27  C19 ZIN A   1      18.398  -4.004  10.526  0.00  0.00     0.044 A 
ATOM     28  C18 ZIN A   1      17.682  -3.937  11.725  0.00  0.00     0.025 A 
ATOM     29  C20 ZIN A   1      17.941  -4.848   9.463  0.00  0.00     0.099 C 
ATOM     30  C17 ZIN A   1      18.124  -3.124  12.744  0.00  0.00     0.031 A 
ATOM     31  N21 ZIN A   1      17.579  -5.518   8.620  0.00  0.00    -0.191 NA
ENDBRANCH  22  24
ENDBRANCH  17  22
ENDBRANCH  11  12
ENDBRANCH  10  11
TORSDOF 5
ENDMDL
MODEL 7
REMARK VINA RESULT:      -8.1      3.978      8.688
REMARK  5 active torsions:
REMARK  status: ('A' for Active; 'I' for Inactive)
REMARK    1  A    between atoms: C10_10  and  O11_11 
REMARK    2  A    between atoms: O11_11  and  C12_12 
REMARK    3  A    between atoms: C14_14  and  N15_15 
REMARK    4  A    between atoms: N15_15  and  C16_16 
REMARK    5  A    between atoms: C25_25  and  N26_26 
ROOT
ATOM      1  C1  ZIN A   1      20.003  -3.771   6.628  0.00  0.00     0.051 C 
ATOM      2  C2  ZIN A   1      18.954  -3.038   5.831  0.00  0.00    -0.026 A 
ATOM      3  C3  ZIN A   1      18.291  -3.682   4.811  0.00  0.00     0.032 A 
ATOM      4  C4  ZIN A   1      17.318  -3.002   4.072  0.00  0.00     0.045 A 
ATOM      5  C5  ZIN A   1      16.627  -3.669   3.010  0.00  0.00     0.099 C 
ATOM      6  N6  ZIN A   1      16.077  -4.198   2.168  0.00  0.00    -0.191 NA
ATOM      7  C7  ZIN A   1      17.023  -1.670   4.373  0.00  0.00     0.032 A 
ATOM      8  C8  ZIN A   1      17.691  -1.033   5.395  0.00  0.00    -0.026 A 
ATOM      9  C9  ZIN A   1      17.373   0.404   5.721  0.00  0.00     0.051 C 
ATOM     10  C10 ZIN A   1      18.654  -1.715   6.130  0.00  0.00     0.089 A 
ENDROOT
BRANCH  10  11
ATOM     11  O11 ZIN A   1      19.309  -1.083   7.138  0.00  0.00    -0.289 OA
BRANCH  11  12
ATOM     12  C12 ZIN A   1      18.768  -1.134   8.380  0.00  0.00     0.210 A 
ATOM     13  C27 ZIN A   1      18.659   0.019   9.148  0.00  0.00     0.110 A 
ATOM     14  C25 ZIN A   1      18.092  -0.081  10.417  0.00  0.00     0.162 A 
ATOM     15 Br28 ZIN A   1      19.252   1.686   8.482  0.00  0.00    -0.042 Br
ATOM     16  N24 ZIN A   1      17.687  -1.271  10.852  0.00  0.00    -0.044 NA
ATOM     17  C14 ZIN A   1      17.812  -2.349  10.094  0.00  0.00     0.731 A 
ATOM     18  N13 ZIN A   1      18.341  -2.289   8.881  0.00  0.00    -0.036 NA
BRANCH  14  19
ATOM     19  N26 ZIN A   1      17.959   1.044  11.218  0.00  0.00    -0.382 N 
ATOM     20  H42 ZIN A   1      18.176   0.995  12.161  0.00  0.00     0.157 HD
ATOM     21  H43 ZIN A   1      17.647   1.878  10.834  0.00  0.00     0.157 HD
ENDBRANCH  14  19
BRANCH  17  22
ATOM     22  N15 ZIN A   1      17.377  -3.571  10.581  0.00  0.00    -0.188 N 
ATOM     23  H37 ZIN A   1      17.017  -3.636  11.480  0.00  0.00     0.184 HD
BRANCH  22  24
ATOM     24  C16 ZIN A   1      17.455  -4.708   9.778  0.00  0.00     0.049 A 
ATOM     25  C23 ZIN A   1      18.663  -5.385   9.647  0.00  0.00     0.031 A 
ATOM     26  C22 ZIN A   1      18.742  -6.510   8.858  0.00  0.00     0.025 A 
ATOM     27  C19 ZIN A   1      17.609  -6.966   8.179  0.00  0.00     0.044 A 
ATOM     28  C18 ZIN A   1      16.397  -6.280   8.308  0.00  0.00     0.025 A 
ATOM     29  C20 ZIN A   1      17.689  -8.132   7.352  0.00  0.00     0.099 C 
ATOM     30  C17 ZIN A   1      16.324  -5.159   9.103  0.00  0.00     0.031 A 
ATOM     31  N21 ZIN A   1      17.752  -9.058   6.696  0.00  0.00    -0.191 NA
ENDBRANCH  22  24
ENDBRANCH  17  22
ENDBRANCH  11  12
ENDBRANCH  10  11
TORSDOF 5
ENDMDL
MODEL 8
REMARK VINA RESULT:      -7.8      2.719      5.879
REMARK  5 active torsions:
REMARK  status: ('A' for Active; 'I' for Inactive)
REMARK    1  A    between atoms: C10_10  and  O11_11 
REMARK    2  A    between atoms: O11_11  and  C12_12 
REMARK    3  A    between atoms: C14_14  and  N15_15 
REMARK    4  A    between atoms: N15_15  and  C16_16 
REMARK    5  A    between atoms: C25_25  and  N26_26 
ROOT
ATOM      1  C1  ZIN A   1      16.267  -0.021  10.965  0.00  0.00     0.051 C 
ATOM      2  C2  ZIN A   1      17.225  -0.999  11.595  0.00  0.00    -0.026 A 
ATOM      3  C3  ZIN A   1      17.377  -2.257  11.055  0.00  0.00     0.032 A 
ATOM      4  C4  ZIN A   1      18.265  -3.164  11.639  0.00  0.00     0.045 A 
ATOM      5  C5  ZIN A   1      18.426  -4.472  11.081  0.00  0.00     0.099 C 
ATOM      6  N6  ZIN A   1      18.554  -5.511  10.638  0.00  0.00    -0.191 NA
ATOM      7  C7  ZIN A   1      18.997  -2.789  12.768  0.00  0.00     0.032 A 
ATOM      8  C8  ZIN A   1      18.840  -1.529  13.302  0.00  0.00    -0.026 A 
ATOM      9  C9  ZIN A   1      19.628  -1.123  14.521  0.00  0.00     0.051 C 
ATOM     10  C10 ZIN A   1      17.958  -0.629  12.715  0.00  0.00     0.089 A 
ENDROOT
BRANCH  10  11
ATOM     11  O11 ZIN A   1      17.807   0.613  13.244  0.00  0.00    -0.289 OA
BRANCH  11  12
ATOM     12  C12 ZIN A   1      18.524   1.627  12.703  0.00  0.00     0.210 A 
ATOM     13  C27 ZIN A   1      18.877   2.729  13.472  0.00  0.00     0.110 A 
ATOM     14  C25 ZIN A   1      19.620   3.746  12.875  0.00  0.00     0.162 A 
ATOM     15 Br28 ZIN A   1      18.375   2.839  15.292  0.00  0.00    -0.042 Br
ATOM     16  N24 ZIN A   1      19.955   3.633  11.592  0.00  0.00    -0.044 NA
ATOM     17  C14 ZIN A   1      19.596   2.571  10.888  0.00  0.00     0.731 A 
ATOM     18  N13 ZIN A   1      18.895   1.584  11.426  0.00  0.00    -0.036 NA
BRANCH  14  19
ATOM     19  N26 ZIN A   1      19.998   4.862  13.605  0.00  0.00    -0.382 N 
ATOM     20  H42 ZIN A   1      20.728   4.802  14.240  0.00  0.00     0.157 HD
ATOM     21  H43 ZIN A   1      19.531   5.703  13.482  0.00  0.00     0.157 HD
ENDBRANCH  14  19
BRANCH  17  22
ATOM     22  N15 ZIN A   1      19.964   2.488   9.555  0.00  0.00    -0.188 N 
ATOM     23  H37 ZIN A   1      20.471   3.207   9.146  0.00  0.00     0.184 HD
BRANCH  22  24
ATOM     24  C16 ZIN A   1      19.607   1.371   8.802  0.00  0.00     0.049 A 
ATOM     25  C23 ZIN A   1      18.875   1.529   7.629  0.00  0.00     0.031 A 
ATOM     26  C22 ZIN A   1      18.524   0.428   6.881  0.00  0.00     0.025 A 
ATOM     27  C19 ZIN A   1      18.895  -0.851   7.306  0.00  0.00     0.044 A 
ATOM     28  C18 ZIN A   1      19.625  -1.006   8.489  0.00  0.00     0.025 A 
ATOM     29  C20 ZIN A   1      18.526  -1.999   6.534  0.00  0.00     0.099 C 
ATOM     30  C17 ZIN A   1      19.977   0.100   9.229  0.00  0.00     0.031 A 
ATOM     31  N21 ZIN A   1      18.233  -2.910   5.921  0.00  0.00    -0.191 NA
ENDBRANCH  22  24
ENDBRANCH  17  22
ENDBRANCH  11  12
ENDBRANCH  10  11
TORSDOF 5
ENDMDL
MODEL 9
REMARK VINA RESULT:      -7.8      2.258      4.573
REMARK  5 active torsions:
REMARK  status: ('A' for Active; 'I' for Inactive)
REMARK    1  A    between atoms: C10_10  and  O11_11 
REMARK    2  A    between atoms: O11_11  and  C12_12 
REMARK    3  A    between atoms: C14_14  and  N15_15 
REMARK    4  A    between atoms: N15_15  and  C16_16 
REMARK    5  A    between atoms: C25_25  and  N26_26 
ROOT
ATOM      1  C1  ZIN A   1      16.546  -0.415  11.633  0.00  0.00     0.051 C 
ATOM      2  C2  ZIN A   1      17.294   0.571  10.772  0.00  0.00    -0.026 A 
ATOM      3  C3  ZIN A   1      17.378   1.892  11.155  0.00  0.00     0.032 A 
ATOM      4  C4  ZIN A   1      18.071   2.806  10.357  0.00  0.00     0.045 A 
ATOM      5  C5  ZIN A   1      18.160   4.179  10.751  0.00  0.00     0.099 C 
ATOM      6  N6  ZIN A   1      18.232   5.270  11.064  0.00  0.00    -0.191 NA
ATOM      7  C7  ZIN A   1      18.677   2.376   9.174  0.00  0.00     0.032 A 
ATOM      8  C8  ZIN A   1      18.588   1.054   8.799  0.00  0.00    -0.026 A 
ATOM      9  C9  ZIN A   1      19.241   0.588   7.523  0.00  0.00     0.051 C 
ATOM     10  C10 ZIN A   1      17.902   0.147   9.598  0.00  0.00     0.089 A 
ENDROOT
BRANCH  10  11
ATOM     11  O11 ZIN A   1      17.818  -1.156   9.225  0.00  0.00    -0.289 OA
BRANCH  11  12
ATOM     12  C12 ZIN A   1      18.538  -2.067   9.924  0.00  0.00     0.210 A 
ATOM     13  C27 ZIN A   1      18.883  -3.284   9.349  0.00  0.00     0.110 A 
ATOM     14  C25 ZIN A   1      19.628  -4.187  10.104  0.00  0.00     0.162 A 
ATOM     15 Br28 ZIN A   1      18.366  -3.699   7.579  0.00  0.00    -0.042 Br
ATOM     16  N24 ZIN A   1      19.974  -3.860  11.347  0.00  0.00    -0.044 NA
ATOM     17  C14 ZIN A   1      19.623  -2.693  11.864  0.00  0.00     0.731 A 
ATOM     18  N13 ZIN A   1      18.919  -1.809  11.172  0.00  0.00    -0.036 NA
BRANCH  14  19
ATOM     19  N26 ZIN A   1      19.999  -5.412   9.571  0.00  0.00    -0.382 N 
ATOM     20  H42 ZIN A   1      19.356  -5.937   9.069  0.00  0.00     0.157 HD
ATOM     21  H43 ZIN A   1      20.901  -5.745   9.702  0.00  0.00     0.157 HD
ENDBRANCH  14  19
BRANCH  17  22
ATOM     22  N15 ZIN A   1      20.002  -2.387  13.161  0.00  0.00    -0.188 N 
ATOM     23  H37 ZIN A   1      20.528  -3.020  13.675  0.00  0.00     0.184 HD
BRANCH  22  24
ATOM     24  C16 ZIN A   1      19.629  -1.169  13.726  0.00  0.00     0.049 A 
ATOM     25  C23 ZIN A   1      18.695  -1.139  14.757  0.00  0.00     0.031 A 
ATOM     26  C22 ZIN A   1      18.327   0.062  15.321  0.00  0.00     0.025 A 
ATOM     27  C19 ZIN A   1      18.885   1.253  14.849  0.00  0.00     0.044 A 
ATOM     28  C18 ZIN A   1      19.819   1.220  13.808  0.00  0.00     0.025 A 
ATOM     29  C20 ZIN A   1      18.500   2.505  15.428  0.00  0.00     0.099 C 
ATOM     30  C17 ZIN A   1      20.186   0.015  13.253  0.00  0.00     0.031 A 
ATOM     31  N21 ZIN A   1      18.195   3.499  15.888  0.00  0.00    -0.191 NA
ENDBRANCH  22  24
ENDBRANCH  17  22
ENDBRANCH  11  12
ENDBRANCH  10  11
TORSDOF 5
ENDMDL
