MODEL 1
REMARK VINA RESULT:      -3.9      0.000      0.000
REMARK  4 active torsions:
REMARK  status: ('A' for Active; 'I' for Inactive)
REMARK    1  A    between atoms: N2_2  and  C5_5 
REMARK    2  A    between atoms: C5_5  and  C6_6 
REMARK    3  A    between atoms: C6_6  and  O7_7 
REMARK    4  A    between atoms: O7_7  and  C8_8 
REMARK       I    between atoms: C8_8  and  N9_9 
ROOT
ATOM      1  C6  ZIN A   1      19.280  -1.133  10.030  0.00  0.00     0.208 C 
ENDROOT
BRANCH   1   2
ATOM      2  C5  ZIN A   1      19.684  -0.628   8.643  0.00  0.00     0.262 C 
BRANCH   2   3
ATOM      3  N2  ZIN A   1      18.751   0.422   8.214  0.00  0.00    -0.077 N 
ATOM      4  C1  ZIN A   1      18.493   0.289   6.774  0.00  0.00     0.271 C 
ATOM      5  C3  ZIN A   1      19.339   1.741   8.486  0.00  0.00     0.271 C 
ATOM      6  C4  ZIN A   1      17.488   0.289   8.951  0.00  0.00     0.271 C 
ENDBRANCH   2   3
ENDBRANCH   1   2
BRANCH   1   7
ATOM      7  O7  ZIN A   1      20.396  -0.975  10.946  0.00  0.00    -0.303 OA
BRANCH   7   8
ATOM      8  C8  ZIN A   1      20.418   0.143  11.695  0.00  0.00     0.358 C 
ATOM      9  N9  ZIN A   1      21.590   0.624  12.154  0.00  0.00    -0.346 N 
ATOM     10  H24 ZIN A   1      22.419   0.164  11.945  0.00  0.00     0.161 HD
ATOM     11  H25 ZIN A   1      21.606   1.429  12.694  0.00  0.00     0.161 HD
ATOM     12  O10 ZIN A   1      19.380   0.719  11.958  0.00  0.00    -0.239 OA
ENDBRANCH   7   8
ENDBRANCH   1   7
TORSDOF 4
ENDMDL
MODEL 2
REMARK VINA RESULT:      -3.8      3.197      4.885
REMARK  4 active torsions:
REMARK  status: ('A' for Active; 'I' for Inactive)
REMARK    1  A    between atoms: N2_2  and  C5_5 
REMARK    2  A    between atoms: C5_5  and  C6_6 
REMARK    3  A    between atoms: C6_6  and  O7_7 
REMARK    4  A    between atoms: O7_7  and  C8_8 
REMARK       I    between atoms: C8_8  and  N9_9 
ROOT
ATOM      1  C6  ZIN A   1      17.767   0.185   6.624  0.00  0.00     0.208 C 
ENDROOT
BRANCH   1   2
ATOM      2  C5  ZIN A   1      17.634  -0.191   8.101  0.00  0.00     0.262 C 
BRANCH   2   3
ATOM      3  N2  ZIN A   1      18.625   0.555   8.888  0.00  0.00    -0.077 N 
ATOM      4  C1  ZIN A   1      17.992   1.070  10.110  0.00  0.00     0.271 C 
ATOM      5  C3  ZIN A   1      19.138   1.679   8.092  0.00  0.00     0.271 C 
ATOM      6  C4  ZIN A   1      19.735  -0.335   9.250  0.00  0.00     0.271 C 
ENDBRANCH   2   3
ENDBRANCH   1   2
BRANCH   1   7
ATOM      7  O7  ZIN A   1      18.205  -0.974   5.868  0.00  0.00    -0.303 OA
BRANCH   7   8
ATOM      8  C8  ZIN A   1      19.202  -0.785   4.983  0.00  0.00     0.358 C 
ATOM      9  N9  ZIN A   1      19.630   0.463   4.705  0.00  0.00    -0.346 N 
ATOM     10  H24 ZIN A   1      19.218   1.225   5.143  0.00  0.00     0.161 HD
ATOM     11  H25 ZIN A   1      20.349   0.599   4.068  0.00  0.00     0.161 HD
ATOM     12  O10 ZIN A   1      19.718  -1.740   4.435  0.00  0.00    -0.239 OA
ENDBRANCH   7   8
ENDBRANCH   1   7
TORSDOF 4
ENDMDL
MODEL 3
REMARK VINA RESULT:      -3.8      2.444      3.338
REMARK  4 active torsions:
REMARK  status: ('A' for Active; 'I' for Inactive)
REMARK    1  A    between atoms: N2_2  and  C5_5 
REMARK    2  A    between atoms: C5_5  and  C6_6 
REMARK    3  A    between atoms: C6_6  and  O7_7 
REMARK    4  A    between atoms: O7_7  and  C8_8 
REMARK       I    between atoms: C8_8  and  N9_9 
ROOT
ATOM      1  C6  ZIN A   1      18.807   1.373  12.645  0.00  0.00     0.208 C 
ENDROOT
BRANCH   1   2
ATOM      2  C5  ZIN A   1      17.801   1.857  11.598  0.00  0.00     0.262 C 
BRANCH   2   3
ATOM      3  N2  ZIN A   1      18.341   3.036  10.908  0.00  0.00    -0.077 N 
ATOM      4  C1  ZIN A   1      17.300   4.069  10.817  0.00  0.00     0.271 C 
ATOM      5  C3  ZIN A   1      18.774   2.658   9.557  0.00  0.00     0.271 C 
ATOM      6  C4  ZIN A   1      19.487   3.563  11.660  0.00  0.00     0.271 C 
ENDBRANCH   2   3
ENDBRANCH   1   2
BRANCH   1   7
ATOM      7  O7  ZIN A   1      19.312   0.067  12.262  0.00  0.00    -0.303 OA
BRANCH   7   8
ATOM      8  C8  ZIN A   1      20.482   0.035  11.596  0.00  0.00     0.358 C 
ATOM      9  N9  ZIN A   1      21.584   0.587  12.142  0.00  0.00    -0.346 N 
ATOM     10  H24 ZIN A   1      21.533   1.009  13.015  0.00  0.00     0.161 HD
ATOM     11  H25 ZIN A   1      22.426   0.564  11.662  0.00  0.00     0.161 HD
ATOM     12  O10 ZIN A   1      20.545  -0.493  10.503  0.00  0.00    -0.239 OA
ENDBRANCH   7   8
ENDBRANCH   1   7
TORSDOF 4
ENDMDL
MODEL 4
REMARK VINA RESULT:      -3.8      4.120      6.530
REMARK  4 active torsions:
REMARK  status: ('A' for Active; 'I' for Inactive)
REMARK    1  A    between atoms: N2_2  and  C5_5 
REMARK    2  A    between atoms: C5_5  and  C6_6 
REMARK    3  A    between atoms: C6_6  and  O7_7 
REMARK    4  A    between atoms: O7_7  and  C8_8 
REMARK       I    between atoms: C8_8  and  N9_9 
ROOT
ATOM      1  C6  ZIN A   1      19.371   0.053  14.479  0.00  0.00     0.208 C 
ENDROOT
BRANCH   1   2
ATOM      2  C5  ZIN A   1      19.011   0.786  15.773  0.00  0.00     0.262 C 
BRANCH   2   3
ATOM      3  N2  ZIN A   1      18.616  -0.192  16.796  0.00  0.00    -0.077 N 
ATOM      4  C1  ZIN A   1      19.222   0.174  18.083  0.00  0.00     0.271 C 
ATOM      5  C3  ZIN A   1      19.079  -1.529  16.400  0.00  0.00     0.271 C 
ATOM      6  C4  ZIN A   1      17.154  -0.200  16.928  0.00  0.00     0.271 C 
ENDBRANCH   2   3
ENDBRANCH   1   2
BRANCH   1   7
ATOM      7  O7  ZIN A   1      19.698   1.024  13.449  0.00  0.00    -0.303 OA
BRANCH   7   8
ATOM      8  C8  ZIN A   1      20.257   0.551  12.319  0.00  0.00     0.358 C 
ATOM      9  N9  ZIN A   1      21.594   0.600  12.156  0.00  0.00    -0.346 N 
ATOM     10  H24 ZIN A   1      22.154   0.977  12.854  0.00  0.00     0.161 HD
ATOM     11  H25 ZIN A   1      21.996   0.260  11.343  0.00  0.00     0.161 HD
ATOM     12  O10 ZIN A   1      19.556   0.079  11.445  0.00  0.00    -0.239 OA
ENDBRANCH   7   8
ENDBRANCH   1   7
TORSDOF 4
ENDMDL
MODEL 5
REMARK VINA RESULT:      -3.7      2.859      3.994
REMARK  4 active torsions:
REMARK  status: ('A' for Active; 'I' for Inactive)
REMARK    1  A    between atoms: N2_2  and  C5_5 
REMARK    2  A    between atoms: C5_5  and  C6_6 
REMARK    3  A    between atoms: C6_6  and  O7_7 
REMARK    4  A    between atoms: O7_7  and  C8_8 
REMARK       I    between atoms: C8_8  and  N9_9 
ROOT
ATOM      1  C6  ZIN A   1      18.378  -1.111  11.469  0.00  0.00     0.208 C 
ENDROOT
BRANCH   1   2
ATOM      2  C5  ZIN A   1      18.270  -2.436  12.226  0.00  0.00     0.262 C 
BRANCH   2   3
ATOM      3  N2  ZIN A   1      18.711  -3.535  11.356  0.00  0.00    -0.077 N 
ATOM      4  C1  ZIN A   1      17.971  -4.757  11.699  0.00  0.00     0.271 C 
ATOM      5  C3  ZIN A   1      20.150  -3.764  11.547  0.00  0.00     0.271 C 
ATOM      6  C4  ZIN A   1      18.453  -3.184   9.954  0.00  0.00     0.271 C 
ENDBRANCH   2   3
ENDBRANCH   1   2
BRANCH   1   7
ATOM      7  O7  ZIN A   1      19.349  -0.255  12.127  0.00  0.00    -0.303 OA
BRANCH   7   8
ATOM      8  C8  ZIN A   1      20.518  -0.055  11.489  0.00  0.00     0.358 C 
ATOM      9  N9  ZIN A   1      21.532   0.569  12.121  0.00  0.00    -0.346 N 
ATOM     10  H24 ZIN A   1      21.419   0.875  13.035  0.00  0.00     0.161 HD
ATOM     11  H25 ZIN A   1      22.374   0.713  11.662  0.00  0.00     0.161 HD
ATOM     12  O10 ZIN A   1      20.660  -0.438  10.344  0.00  0.00    -0.239 OA
ENDBRANCH   7   8
ENDBRANCH   1   7
TORSDOF 4
ENDMDL
MODEL 6
REMARK VINA RESULT:      -3.7      2.404      3.105
REMARK  4 active torsions:
REMARK  status: ('A' for Active; 'I' for Inactive)
REMARK    1  A    between atoms: N2_2  and  C5_5 
REMARK    2  A    between atoms: C5_5  and  C6_6 
REMARK    3  A    between atoms: C6_6  and  O7_7 
REMARK    4  A    between atoms: O7_7  and  C8_8 
REMARK       I    between atoms: C8_8  and  N9_9 
ROOT
ATOM      1  C6  ZIN A   1      19.408   1.043   9.533  0.00  0.00     0.208 C 
ENDROOT
BRANCH   1   2
ATOM      2  C5  ZIN A   1      18.046   1.627   9.911  0.00  0.00     0.262 C 
BRANCH   2   3
ATOM      3  N2  ZIN A   1      18.212   2.589  11.009  0.00  0.00    -0.077 N 
ATOM      4  C1  ZIN A   1      19.630   2.957  11.126  0.00  0.00     0.271 C 
ATOM      5  C3  ZIN A   1      17.759   1.979  12.267  0.00  0.00     0.271 C 
ATOM      6  C4  ZIN A   1      17.416   3.791  10.733  0.00  0.00     0.271 C 
ENDBRANCH   2   3
ENDBRANCH   1   2
BRANCH   1   7
ATOM      7  O7  ZIN A   1      19.459  -0.356   9.918  0.00  0.00    -0.303 OA
BRANCH   7   8
ATOM      8  C8  ZIN A   1      20.206  -0.667  10.994  0.00  0.00     0.358 C 
ATOM      9  N9  ZIN A   1      21.549  -0.573  10.933  0.00  0.00    -0.346 N 
ATOM     10  H24 ZIN A   1      21.978  -0.281  10.112  0.00  0.00     0.161 HD
ATOM     11  H25 ZIN A   1      22.087  -0.797  11.708  0.00  0.00     0.161 HD
ATOM     12  O10 ZIN A   1      19.669  -1.033  12.022  0.00  0.00    -0.239 OA
ENDBRANCH   7   8
ENDBRANCH   1   7
TORSDOF 4
ENDMDL
MODEL 7
REMARK VINA RESULT:      -3.6      1.484      2.364
REMARK  4 active torsions:
REMARK  status: ('A' for Active; 'I' for Inactive)
REMARK    1  A    between atoms: N2_2  and  C5_5 
REMARK    2  A    between atoms: C5_5  and  C6_6 
REMARK    3  A    between atoms: C6_6  and  O7_7 
REMARK    4  A    between atoms: O7_7  and  C8_8 
REMARK       I    between atoms: C8_8  and  N9_9 
ROOT
ATOM      1  C6  ZIN A   1      18.235   1.095  11.623  0.00  0.00     0.208 C 
ENDROOT
BRANCH   1   2
ATOM      2  C5  ZIN A   1      18.419   1.205  10.108  0.00  0.00     0.262 C 
BRANCH   2   3
ATOM      3  N2  ZIN A   1      18.326  -0.131   9.504  0.00  0.00    -0.077 N 
ATOM      4  C1  ZIN A   1      17.402  -0.089   8.363  0.00  0.00     0.271 C 
ATOM      5  C3  ZIN A   1      17.827  -1.086  10.503  0.00  0.00     0.271 C 
ATOM      6  C4  ZIN A   1      19.654  -0.554   9.043  0.00  0.00     0.271 C 
ENDBRANCH   2   3
ENDBRANCH   1   2
BRANCH   1   7
ATOM      7  O7  ZIN A   1      19.427   1.583  12.292  0.00  0.00    -0.303 OA
BRANCH   7   8
ATOM      8  C8  ZIN A   1      20.321   0.662  12.698  0.00  0.00     0.358 C 
ATOM      9  N9  ZIN A   1      21.524   0.578  12.097  0.00  0.00    -0.346 N 
ATOM     10  H24 ZIN A   1      21.746   1.182  11.371  0.00  0.00     0.161 HD
ATOM     11  H25 ZIN A   1      22.168  -0.086  12.390  0.00  0.00     0.161 HD
ATOM     12  O10 ZIN A   1      20.043  -0.095  13.608  0.00  0.00    -0.239 OA
ENDBRANCH   7   8
ENDBRANCH   1   7
TORSDOF 4
ENDMDL
MODEL 8
REMARK VINA RESULT:      -3.4      3.240      4.201
REMARK  4 active torsions:
REMARK  status: ('A' for Active; 'I' for Inactive)
REMARK    1  A    between atoms: N2_2  and  C5_5 
REMARK    2  A    between atoms: C5_5  and  C6_6 
REMARK    3  A    between atoms: C6_6  and  O7_7 
REMARK    4  A    between atoms: O7_7  and  C8_8 
REMARK       I    between atoms: C8_8  and  N9_9 
ROOT
ATOM      1  C6  ZIN A   1      18.434  -2.362   7.823  0.00  0.00     0.208 C 
ENDROOT
BRANCH   1   2
ATOM      2  C5  ZIN A   1      19.169  -1.153   8.406  0.00  0.00     0.262 C 
BRANCH   2   3
ATOM      3  N2  ZIN A   1      18.327   0.044   8.273  0.00  0.00    -0.077 N 
ATOM      4  C1  ZIN A   1      17.351  -0.162   7.195  0.00  0.00     0.271 C 
ATOM      5  C3  ZIN A   1      19.171   1.203   7.954  0.00  0.00     0.271 C 
ATOM      6  C4  ZIN A   1      17.618   0.287   9.535  0.00  0.00     0.271 C 
ENDBRANCH   2   3
ENDBRANCH   1   2
BRANCH   1   7
ATOM      7  O7  ZIN A   1      19.270  -3.542   7.947  0.00  0.00    -0.303 OA
BRANCH   7   8
ATOM      8  C8  ZIN A   1      20.041  -3.858   6.890  0.00  0.00     0.358 C 
ATOM      9  N9  ZIN A   1      21.078  -4.707   7.041  0.00  0.00    -0.346 N 
ATOM     10  H24 ZIN A   1      21.268  -5.089   7.913  0.00  0.00     0.161 HD
ATOM     11  H25 ZIN A   1      21.633  -4.934   6.280  0.00  0.00     0.161 HD
ATOM     12  O10 ZIN A   1      19.803  -3.379   5.799  0.00  0.00    -0.239 OA
ENDBRANCH   7   8
ENDBRANCH   1   7
TORSDOF 4
ENDMDL
MODEL 9
REMARK VINA RESULT:      -3.4      4.907      6.322
REMARK  4 active torsions:
REMARK  status: ('A' for Active; 'I' for Inactive)
REMARK    1  A    between atoms: N2_2  and  C5_5 
REMARK    2  A    between atoms: C5_5  and  C6_6 
REMARK    3  A    between atoms: C6_6  and  O7_7 
REMARK    4  A    between atoms: O7_7  and  C8_8 
REMARK       I    between atoms: C8_8  and  N9_9 
ROOT
ATOM      1  C6  ZIN A   1      18.712   0.597  15.808  0.00  0.00     0.208 C 
ENDROOT
BRANCH   1   2
ATOM      2  C5  ZIN A   1      18.623  -0.766  15.120  0.00  0.00     0.262 C 
BRANCH   2   3
ATOM      3  N2  ZIN A   1      18.850  -0.603  13.678  0.00  0.00    -0.077 N 
ATOM      4  C1  ZIN A   1      17.639  -0.057  13.051  0.00  0.00     0.271 C 
ATOM      5  C3  ZIN A   1      19.165  -1.908  13.081  0.00  0.00     0.271 C 
ATOM      6  C4  ZIN A   1      19.972   0.318  13.459  0.00  0.00     0.271 C 
ENDBRANCH   2   3
ENDBRANCH   1   2
BRANCH   1   7
ATOM      7  O7  ZIN A   1      19.202   0.424  17.164  0.00  0.00    -0.303 OA
BRANCH   7   8
ATOM      8  C8  ZIN A   1      18.874   1.374  18.059  0.00  0.00     0.358 C 
ATOM      9  N9  ZIN A   1      17.590   1.761  18.192  0.00  0.00    -0.346 N 
ATOM     10  H24 ZIN A   1      16.901   1.353  17.642  0.00  0.00     0.161 HD
ATOM     11  H25 ZIN A   1      17.354   2.446  18.837  0.00  0.00     0.161 HD
ATOM     12  O10 ZIN A   1      19.736   1.885  18.748  0.00  0.00    -0.239 OA
ENDBRANCH   7   8
ENDBRANCH   1   7
TORSDOF 4
ENDMDL
