MODEL 1
REMARK VINA RESULT:      -5.3      0.000      0.000
REMARK  1 active torsions:
REMARK  status: ('A' for Active; 'I' for Inactive)
REMARK    1  A    between atoms: C7_7  and  C9_8 
ROOT
ATOM      1  C1  ZIN A   1      20.128  -0.276  10.060  0.00  0.00     0.270 C 
ATOM      2  N2  ZIN A   1      19.262   0.455  10.993  0.00  0.00    -0.067 N 
ATOM      3  H3  ZIN A   1      18.662  -0.195  11.480  0.00  0.00     0.280 HD
ATOM      4  C4  ZIN A   1      20.088   1.192  11.966  0.00  0.00     0.235 C 
ATOM      5  C5  ZIN A   1      19.771   2.692  11.792  0.00  0.00     0.030 C 
ATOM      6  C6  ZIN A   1      19.207   2.765  10.349  0.00  0.00     0.040 C 
ATOM      7  C7  ZIN A   1      18.437   1.429  10.248  0.00  0.00     0.222 C 
ENDROOT
BRANCH   7   8
ATOM      8  C9  ZIN A   1      18.302   1.010   8.806  0.00  0.00    -0.010 A 
ATOM      9  C14 ZIN A   1      17.399   0.028   8.444  0.00  0.00     0.125 A 
ATOM     10  N13 ZIN A   1      17.272  -0.341   7.185  0.00  0.00    -0.273 NA
ATOM     11  C12 ZIN A   1      18.002   0.198   6.228  0.00  0.00     0.116 A 
ATOM     12  C11 ZIN A   1      18.929   1.182   6.515  0.00  0.00     0.020 A 
ATOM     13  C10 ZIN A   1      19.087   1.599   7.827  0.00  0.00     0.012 A 
ENDBRANCH   7   8
TORSDOF 1
ENDMDL
MODEL 2
REMARK VINA RESULT:      -5.1      1.461      1.786
REMARK  1 active torsions:
REMARK  status: ('A' for Active; 'I' for Inactive)
REMARK    1  A    between atoms: C7_7  and  C9_8 
ROOT
ATOM      1  C1  ZIN A   1      19.757   1.426  11.679  0.00  0.00     0.270 C 
ATOM      2  N2  ZIN A   1      18.563   2.139  12.149  0.00  0.00    -0.067 N 
ATOM      3  H3  ZIN A   1      18.008   1.527  12.728  0.00  0.00     0.280 HD
ATOM      4  C4  ZIN A   1      18.966   3.326  12.924  0.00  0.00     0.235 C 
ATOM      5  C5  ZIN A   1      18.404   4.562  12.192  0.00  0.00     0.030 C 
ATOM      6  C6  ZIN A   1      18.200   4.048  10.742  0.00  0.00     0.040 C 
ATOM      7  C7  ZIN A   1      17.762   2.587  10.990  0.00  0.00     0.222 C 
ENDROOT
BRANCH   7   8
ATOM      8  C9  ZIN A   1      18.064   1.737   9.782  0.00  0.00    -0.010 A 
ATOM      9  C14 ZIN A   1      17.488   0.488   9.642  0.00  0.00     0.125 A 
ATOM     10  N13 ZIN A   1      17.744  -0.258   8.587  0.00  0.00    -0.273 NA
ATOM     11  C12 ZIN A   1      18.561   0.145   7.634  0.00  0.00     0.116 A 
ATOM     12  C11 ZIN A   1      19.177   1.380   7.707  0.00  0.00     0.020 A 
ATOM     13  C10 ZIN A   1      18.928   2.195   8.800  0.00  0.00     0.012 A 
ENDBRANCH   7   8
TORSDOF 1
ENDMDL
MODEL 3
REMARK VINA RESULT:      -5.1      1.635      4.389
REMARK  1 active torsions:
REMARK  status: ('A' for Active; 'I' for Inactive)
REMARK    1  A    between atoms: C7_7  and  C9_8 
ROOT
ATOM      1  C1  ZIN A   1      17.423   0.627  10.465  0.00  0.00     0.270 C 
ATOM      2  N2  ZIN A   1      18.625   0.218   9.728  0.00  0.00    -0.067 N 
ATOM      3  H3  ZIN A   1      19.183  -0.396  10.303  0.00  0.00     0.280 HD
ATOM      4  C4  ZIN A   1      18.236  -0.479   8.489  0.00  0.00     0.235 C 
ATOM      5  C5  ZIN A   1      18.796   0.340   7.308  0.00  0.00     0.030 C 
ATOM      6  C6  ZIN A   1      18.983   1.754   7.920  0.00  0.00     0.040 C 
ATOM      7  C7  ZIN A   1      19.416   1.413   9.364  0.00  0.00     0.222 C 
ENDROOT
BRANCH   7   8
ATOM      8  C9  ZIN A   1      19.097   2.558  10.291  0.00  0.00    -0.010 A 
ATOM      9  C14 ZIN A   1      19.715   2.653  11.524  0.00  0.00     0.125 A 
ATOM     10  N13 ZIN A   1      19.445   3.653  12.338  0.00  0.00    -0.273 NA
ATOM     11  C12 ZIN A   1      18.574   4.591  12.019  0.00  0.00     0.116 A 
ATOM     12  C11 ZIN A   1      17.914   4.560  10.806  0.00  0.00     0.020 A 
ATOM     13  C10 ZIN A   1      18.176   3.525   9.921  0.00  0.00     0.012 A 
ENDBRANCH   7   8
TORSDOF 1
ENDMDL
MODEL 4
REMARK VINA RESULT:      -5.1      2.303      3.934
REMARK  1 active torsions:
REMARK  status: ('A' for Active; 'I' for Inactive)
REMARK    1  A    between atoms: C7_7  and  C9_8 
ROOT
ATOM      1  C1  ZIN A   1      19.440  -0.705   8.553  0.00  0.00     0.270 C 
ATOM      2  N2  ZIN A   1      19.938   0.508   9.214  0.00  0.00    -0.067 N 
ATOM      3  H3  ZIN A   1      20.944   0.471   9.278  0.00  0.00     0.280 HD
ATOM      4  C4  ZIN A   1      19.533   1.697   8.442  0.00  0.00     0.235 C 
ATOM      5  C5  ZIN A   1      18.642   2.557   9.363  0.00  0.00     0.030 C 
ATOM      6  C6  ZIN A   1      18.129   1.534  10.410  0.00  0.00     0.040 C 
ATOM      7  C7  ZIN A   1      19.358   0.610  10.570  0.00  0.00     0.222 C 
ENDROOT
BRANCH   7   8
ATOM      8  C9  ZIN A   1      18.931  -0.749  11.063  0.00  0.00    -0.010 A 
ATOM      9  C14 ZIN A   1      17.591  -1.079  11.134  0.00  0.00     0.125 A 
ATOM     10  N13 ZIN A   1      17.211  -2.267  11.560  0.00  0.00    -0.273 NA
ATOM     11  C12 ZIN A   1      18.084  -3.178  11.943  0.00  0.00     0.116 A 
ATOM     12  C11 ZIN A   1      19.441  -2.918  11.905  0.00  0.00     0.020 A 
ATOM     13  C10 ZIN A   1      19.879  -1.681  11.457  0.00  0.00     0.012 A 
ENDBRANCH   7   8
TORSDOF 1
ENDMDL
MODEL 5
REMARK VINA RESULT:      -5.1      1.775      4.644
REMARK  1 active torsions:
REMARK  status: ('A' for Active; 'I' for Inactive)
REMARK    1  A    between atoms: C7_7  and  C9_8 
ROOT
ATOM      1  C1  ZIN A   1      19.366  -1.822   7.463  0.00  0.00     0.270 C 
ATOM      2  N2  ZIN A   1      19.375  -1.191   6.137  0.00  0.00    -0.067 N 
ATOM      3  H3  ZIN A   1      20.321  -0.956   5.879  0.00  0.00     0.280 HD
ATOM      4  C4  ZIN A   1      18.803  -2.116   5.142  0.00  0.00     0.235 C 
ATOM      5  C5  ZIN A   1      17.554  -1.434   4.547  0.00  0.00     0.030 C 
ATOM      6  C6  ZIN A   1      17.163  -0.405   5.640  0.00  0.00     0.040 C 
ATOM      7  C7  ZIN A   1      18.549   0.035   6.163  0.00  0.00     0.222 C 
ENDROOT
BRANCH   7   8
ATOM      8  C9  ZIN A   1      18.435   0.562   7.571  0.00  0.00    -0.010 A 
ATOM      9  C14 ZIN A   1      17.440   0.103   8.413  0.00  0.00     0.125 A 
ATOM     10  N13 ZIN A   1      17.337   0.556   9.646  0.00  0.00    -0.273 NA
ATOM     11  C12 ZIN A   1      18.165   1.466  10.121  0.00  0.00     0.116 A 
ATOM     12  C11 ZIN A   1      19.182   1.976   9.337  0.00  0.00     0.020 A 
ATOM     13  C10 ZIN A   1      19.324   1.520   8.036  0.00  0.00     0.012 A 
ENDBRANCH   7   8
TORSDOF 1
ENDMDL
MODEL 6
REMARK VINA RESULT:      -5.1      2.419      4.731
REMARK  1 active torsions:
REMARK  status: ('A' for Active; 'I' for Inactive)
REMARK    1  A    between atoms: C7_7  and  C9_8 
ROOT
ATOM      1  C1  ZIN A   1      17.614   1.128  11.472  0.00  0.00     0.270 C 
ATOM      2  N2  ZIN A   1      18.972   1.148  10.914  0.00  0.00    -0.067 N 
ATOM      3  H3  ZIN A   1      19.633   0.857  11.619  0.00  0.00     0.280 HD
ATOM      4  C4  ZIN A   1      19.047   0.239   9.757  0.00  0.00     0.235 C 
ATOM      5  C5  ZIN A   1      19.419   1.093   8.527  0.00  0.00     0.030 C 
ATOM      6  C6  ZIN A   1      18.979   2.520   8.946  0.00  0.00     0.040 C 
ATOM      7  C7  ZIN A   1      19.303   2.514  10.458  0.00  0.00     0.222 C 
ENDROOT
BRANCH   7   8
ATOM      8  C9  ZIN A   1      18.455   3.530  11.180  0.00  0.00    -0.010 A 
ATOM      9  C14 ZIN A   1      18.719   3.853  12.497  0.00  0.00     0.125 A 
ATOM     10  N13 ZIN A   1      17.985   4.744  13.134  0.00  0.00    -0.273 NA
ATOM     11  C12 ZIN A   1      16.970   5.350  12.550  0.00  0.00     0.116 A 
ATOM     12  C11 ZIN A   1      16.643   5.075  11.236  0.00  0.00     0.020 A 
ATOM     13  C10 ZIN A   1      17.396   4.148  10.533  0.00  0.00     0.012 A 
ENDBRANCH   7   8
TORSDOF 1
ENDMDL
MODEL 7
REMARK VINA RESULT:      -4.9      2.211      3.587
REMARK  1 active torsions:
REMARK  status: ('A' for Active; 'I' for Inactive)
REMARK    1  A    between atoms: C7_7  and  C9_8 
ROOT
ATOM      1  C1  ZIN A   1      20.434  -0.570  10.909  0.00  0.00     0.270 C 
ATOM      2  N2  ZIN A   1      19.576  -1.614  10.334  0.00  0.00    -0.067 N 
ATOM      3  H3  ZIN A   1      19.926  -1.879   9.426  0.00  0.00     0.280 HD
ATOM      4  C4  ZIN A   1      19.560  -2.789  11.223  0.00  0.00     0.235 C 
ATOM      5  C5  ZIN A   1      18.100  -2.998  11.678  0.00  0.00     0.030 C 
ATOM      6  C6  ZIN A   1      17.467  -1.596  11.477  0.00  0.00     0.040 C 
ATOM      7  C7  ZIN A   1      18.194  -1.106  10.204  0.00  0.00     0.222 C 
ENDROOT
BRANCH   7   8
ATOM      8  C9  ZIN A   1      18.190   0.400  10.145  0.00  0.00    -0.010 A 
ATOM      9  C14 ZIN A   1      17.461   1.135  11.061  0.00  0.00     0.125 A 
ATOM     10  N13 ZIN A   1      17.457   2.452  11.018  0.00  0.00    -0.273 NA
ATOM     11  C12 ZIN A   1      18.133   3.118  10.102  0.00  0.00     0.116 A 
ATOM     12  C11 ZIN A   1      18.881   2.452   9.151  0.00  0.00     0.020 A 
ATOM     13  C10 ZIN A   1      18.913   1.066   9.167  0.00  0.00     0.012 A 
ENDBRANCH   7   8
TORSDOF 1
ENDMDL
MODEL 8
REMARK VINA RESULT:      -4.9      1.991      2.416
REMARK  1 active torsions:
REMARK  status: ('A' for Active; 'I' for Inactive)
REMARK    1  A    between atoms: C7_7  and  C9_8 
ROOT
ATOM      1  C1  ZIN A   1      19.011  -1.534  10.309  0.00  0.00     0.270 C 
ATOM      2  N2  ZIN A   1      17.699  -1.327  10.934  0.00  0.00    -0.067 N 
ATOM      3  H3  ZIN A   1      17.071  -2.068  10.660  0.00  0.00     0.280 HD
ATOM      4  C4  ZIN A   1      17.844  -1.316  12.401  0.00  0.00     0.235 C 
ATOM      5  C5  ZIN A   1      17.377   0.068  12.896  0.00  0.00     0.030 C 
ATOM      6  C6  ZIN A   1      17.530   0.961  11.637  0.00  0.00     0.040 C 
ATOM      7  C7  ZIN A   1      17.145  -0.024  10.509  0.00  0.00     0.222 C 
ENDROOT
BRANCH   7   8
ATOM      8  C9  ZIN A   1      17.760   0.408   9.202  0.00  0.00    -0.010 A 
ATOM      9  C14 ZIN A   1      18.708   1.413   9.173  0.00  0.00     0.125 A 
ATOM     10  N13 ZIN A   1      19.253   1.793   8.035  0.00  0.00    -0.273 NA
ATOM     11  C12 ZIN A   1      18.913   1.243   6.886  0.00  0.00     0.116 A 
ATOM     12  C11 ZIN A   1      17.969   0.235   6.836  0.00  0.00     0.020 A 
ATOM     13  C10 ZIN A   1      17.377  -0.194   8.014  0.00  0.00     0.012 A 
ENDBRANCH   7   8
TORSDOF 1
ENDMDL
MODEL 9
REMARK VINA RESULT:      -4.9      3.511      4.617
REMARK  1 active torsions:
REMARK  status: ('A' for Active; 'I' for Inactive)
REMARK    1  A    between atoms: C7_7  and  C9_8 
ROOT
ATOM      1  C1  ZIN A   1      20.104  -0.664  10.959  0.00  0.00     0.270 C 
ATOM      2  N2  ZIN A   1      20.280  -0.731  12.415  0.00  0.00    -0.067 N 
ATOM      3  H3  ZIN A   1      21.242  -0.946  12.631  0.00  0.00     0.280 HD
ATOM      4  C4  ZIN A   1      19.911   0.561  13.021  0.00  0.00     0.235 C 
ATOM      5  C5  ZIN A   1      18.733   0.296  13.981  0.00  0.00     0.030 C 
ATOM      6  C6  ZIN A   1      18.131  -1.028  13.440  0.00  0.00     0.040 C 
ATOM      7  C7  ZIN A   1      19.400  -1.779  12.975  0.00  0.00     0.222 C 
ENDROOT
BRANCH   7   8
ATOM      8  C9  ZIN A   1      19.050  -2.793  11.916  0.00  0.00    -0.010 A 
ATOM      9  C14 ZIN A   1      17.785  -2.820  11.362  0.00  0.00     0.125 A 
ATOM     10  N13 ZIN A   1      17.473  -3.701  10.433  0.00  0.00    -0.273 NA
ATOM     11  C12 ZIN A   1      18.344  -4.593  10.004  0.00  0.00     0.116 A 
ATOM     12  C11 ZIN A   1      19.627  -4.631  10.515  0.00  0.00     0.020 A 
ATOM     13  C10 ZIN A   1      19.993  -3.717  11.490  0.00  0.00     0.012 A 
ENDBRANCH   7   8
TORSDOF 1
ENDMDL
