MODEL 1
REMARK VINA RESULT:      -5.9      0.000      0.000
REMARK  5 active torsions:
REMARK  status: ('A' for Active; 'I' for Inactive)
REMARK       I    between atoms: C3_3  and  N4_4 
REMARK       I    between atoms: C3_3  and  N7_7 
REMARK    1  A    between atoms: N7_7  and  C8_8 
REMARK    2  A    between atoms: C8_8  and  C9_9 
REMARK    3  A    between atoms: C9_9  and  S10_10 
REMARK    4  A    between atoms: S10_10  and  C11_11 
REMARK    5  A    between atoms: C11_11  and  C12_12 
ROOT
ATOM      1  C1  <0> d   1      19.246   1.364   7.772  0.00  0.00     0.198 C 
ATOM      2  N2  <0> d   1      18.855   2.459   8.662  0.00  0.00    -0.112 NA
ATOM      3  C3  <0> d   1      19.136   2.398   9.933  0.00  0.00     0.704 C 
ATOM      4  N4  <0> d   1      18.677   3.377  10.788  0.00  0.00    -0.125 N 
ATOM      5  C5  <0> d   1      17.933   4.403  10.309  0.00  0.00     0.196 C 
ATOM      6  N6  <0> d   1      17.309   5.263   9.905  0.00  0.00    -0.171 NA
ATOM      7  N7  <0> d   1      19.891   1.358  10.420  0.00  0.00    -0.223 N 
ATOM      8  H21 <0> d   1      18.885   3.332  11.735  0.00  0.00     0.197 HD
ATOM      9  H22 <0> d   1      20.277   0.710   9.809  0.00  0.00     0.177 HD
ENDROOT
BRANCH   7  10
ATOM     10  C8  <0> d   1      20.110   1.225  11.862  0.00  0.00     0.148 C 
BRANCH  10  11
ATOM     11  C9  <0> d   1      19.095   0.239  12.445  0.00  0.00     0.094 C 
BRANCH  11  12
ATOM     12  S10 <0> d   1      19.554  -0.163  14.153  0.00  0.00    -0.161 SA
BRANCH  12  13
ATOM     13  C11 <0> d   1      18.276   0.678  15.128  0.00  0.00     0.133 C 
BRANCH  13  14
ATOM     14  C12 <0> d   1      18.900   1.805  15.908  0.00  0.00     0.044 A 
ATOM     15  N17 <0> d   1      19.226   3.046  15.431  0.00  0.00    -0.352 N 
ATOM     16  C16 <0> d   1      19.757   3.744  16.459  0.00  0.00     0.207 A 
ATOM     17  H33 <0> d   1      19.097   3.367  14.525  0.00  0.00     0.166 HD
ATOM     18  N15 <0> d   1      19.769   2.981  17.518  0.00  0.00    -0.247 NA
ATOM     19  C13 <0> d   1      19.249   1.784  17.209  0.00  0.00     0.055 A 
ATOM     20  C14 <0> d   1      19.084   0.621  18.151  0.00  0.00     0.072 C 
ENDBRANCH  13  14
ENDBRANCH  12  13
ENDBRANCH  11  12
ENDBRANCH  10  11
ENDBRANCH   7  10
TORSDOF 5
ENDMDL
MODEL 2
REMARK VINA RESULT:      -5.8      5.512      9.125
REMARK  5 active torsions:
REMARK  status: ('A' for Active; 'I' for Inactive)
REMARK       I    between atoms: C3_3  and  N4_4 
REMARK       I    between atoms: C3_3  and  N7_7 
REMARK    1  A    between atoms: N7_7  and  C8_8 
REMARK    2  A    between atoms: C8_8  and  C9_9 
REMARK    3  A    between atoms: C9_9  and  S10_10 
REMARK    4  A    between atoms: S10_10  and  C11_11 
REMARK    5  A    between atoms: C11_11  and  C12_12 
ROOT
ATOM      1  C1  <0> d   1      16.871  -4.978  11.848  0.00  0.00     0.198 C 
ATOM      2  N2  <0> d   1      18.050  -5.135  10.993  0.00  0.00    -0.112 NA
ATOM      3  C3  <0> d   1      18.929  -4.177  10.914  0.00  0.00     0.704 C 
ATOM      4  N4  <0> d   1      19.982  -4.281  10.029  0.00  0.00    -0.125 N 
ATOM      5  C5  <0> d   1      20.103  -5.378   9.243  0.00  0.00     0.196 C 
ATOM      6  N6  <0> d   1      20.203  -6.298   8.584  0.00  0.00    -0.171 NA
ATOM      7  N7  <0> d   1      18.807  -3.064  11.710  0.00  0.00    -0.223 N 
ATOM      8  H21 <0> d   1      20.637  -3.568   9.969  0.00  0.00     0.197 HD
ATOM      9  H22 <0> d   1      18.111  -3.024  12.385  0.00  0.00     0.177 HD
ENDROOT
BRANCH   7  10
ATOM     10  C8  <0> d   1      19.728  -1.938  11.541  0.00  0.00     0.148 C 
BRANCH  10  11
ATOM     11  C9  <0> d   1      19.005  -0.789  10.834  0.00  0.00     0.094 C 
BRANCH  11  12
ATOM     12  S10 <0> d   1      19.729  -0.540   9.190  0.00  0.00    -0.161 SA
BRANCH  12  13
ATOM     13  C11 <0> d   1      18.364  -0.963   8.073  0.00  0.00     0.133 C 
BRANCH  13  14
ATOM     14  C12 <0> d   1      18.819  -0.814   6.645  0.00  0.00     0.044 A 
ATOM     15  N17 <0> d   1      18.801   0.333   5.898  0.00  0.00    -0.352 N 
ATOM     16  C16 <0> d   1      19.296   0.024   4.680  0.00  0.00     0.207 A 
ATOM     17  H33 <0> d   1      18.494   1.205   6.189  0.00  0.00     0.166 HD
ATOM     18  N15 <0> d   1      19.601  -1.245   4.662  0.00  0.00    -0.247 NA
ATOM     19  C13 <0> d   1      19.317  -1.785   5.856  0.00  0.00     0.055 A 
ATOM     20  C14 <0> d   1      19.522  -3.226   6.247  0.00  0.00     0.072 C 
ENDBRANCH  13  14
ENDBRANCH  12  13
ENDBRANCH  11  12
ENDBRANCH  10  11
ENDBRANCH   7  10
TORSDOF 5
ENDMDL
MODEL 3
REMARK VINA RESULT:      -5.8      1.435      2.684
REMARK  5 active torsions:
REMARK  status: ('A' for Active; 'I' for Inactive)
REMARK       I    between atoms: C3_3  and  N4_4 
REMARK       I    between atoms: C3_3  and  N7_7 
REMARK    1  A    between atoms: N7_7  and  C8_8 
REMARK    2  A    between atoms: C8_8  and  C9_9 
REMARK    3  A    between atoms: C9_9  and  S10_10 
REMARK    4  A    between atoms: S10_10  and  C11_11 
REMARK    5  A    between atoms: C11_11  and  C12_12 
ROOT
ATOM      1  C1  <0> d   1      17.797   3.817  11.005  0.00  0.00     0.198 C 
ATOM      2  N2  <0> d   1      18.287   2.867  10.004  0.00  0.00    -0.112 NA
ATOM      3  C3  <0> d   1      19.097   1.910  10.357  0.00  0.00     0.704 C 
ATOM      4  N4  <0> d   1      19.642   1.080   9.399  0.00  0.00    -0.125 N 
ATOM      5  C5  <0> d   1      19.337   1.261   8.092  0.00  0.00     0.196 C 
ATOM      6  N6  <0> d   1      19.080   1.414   6.995  0.00  0.00    -0.171 NA
ATOM      7  N7  <0> d   1      19.408   1.725  11.683  0.00  0.00    -0.223 N 
ATOM      8  H21 <0> d   1      20.246   0.367   9.661  0.00  0.00     0.197 HD
ATOM      9  H22 <0> d   1      18.967   2.259  12.364  0.00  0.00     0.177 HD
ENDROOT
BRANCH   7  10
ATOM     10  C8  <0> d   1      20.406   0.725  12.070  0.00  0.00     0.148 C 
BRANCH  10  11
ATOM     11  C9  <0> d   1      20.195   0.334  13.534  0.00  0.00     0.094 C 
BRANCH  11  12
ATOM     12  S10 <0> d   1      18.419   0.224  13.881  0.00  0.00    -0.161 SA
BRANCH  12  13
ATOM     13  C11 <0> d   1      18.150   1.570  15.067  0.00  0.00     0.133 C 
BRANCH  13  14
ATOM     14  C12 <0> d   1      18.720   1.181  16.406  0.00  0.00     0.044 A 
ATOM     15  N17 <0> d   1      18.804  -0.084  16.921  0.00  0.00    -0.352 N 
ATOM     16  C16 <0> d   1      19.381   0.017  18.139  0.00  0.00     0.207 A 
ATOM     17  H33 <0> d   1      18.509  -0.901  16.491  0.00  0.00     0.166 HD
ATOM     18  N15 <0> d   1      19.637   1.275  18.376  0.00  0.00    -0.247 NA
ATOM     19  C13 <0> d   1      19.241   2.013  17.328  0.00  0.00     0.055 A 
ATOM     20  C14 <0> d   1      19.359   3.510  17.205  0.00  0.00     0.072 C 
ENDBRANCH  13  14
ENDBRANCH  12  13
ENDBRANCH  11  12
ENDBRANCH  10  11
ENDBRANCH   7  10
TORSDOF 5
ENDMDL
MODEL 4
REMARK VINA RESULT:      -5.7      4.245      6.021
REMARK  5 active torsions:
REMARK  status: ('A' for Active; 'I' for Inactive)
REMARK       I    between atoms: C3_3  and  N4_4 
REMARK       I    between atoms: C3_3  and  N7_7 
REMARK    1  A    between atoms: N7_7  and  C8_8 
REMARK    2  A    between atoms: C8_8  and  C9_9 
REMARK    3  A    between atoms: C9_9  and  S10_10 
REMARK    4  A    between atoms: S10_10  and  C11_11 
REMARK    5  A    between atoms: C11_11  and  C12_12 
ROOT
ATOM      1  C1  <0> d   1      17.476  -0.106   8.867  0.00  0.00     0.198 C 
ATOM      2  N2  <0> d   1      18.079  -0.604   7.629  0.00  0.00    -0.112 NA
ATOM      3  C3  <0> d   1      18.264  -1.883   7.464  0.00  0.00     0.704 C 
ATOM      4  N4  <0> d   1      18.927  -2.344   6.345  0.00  0.00    -0.125 N 
ATOM      5  C5  <0> d   1      19.386  -1.468   5.419  0.00  0.00     0.196 C 
ATOM      6  N6  <0> d   1      19.771  -0.733   4.643  0.00  0.00    -0.171 NA
ATOM      7  N7  <0> d   1      17.799  -2.772   8.402  0.00  0.00    -0.223 N 
ATOM      8  H21 <0> d   1      19.066  -3.296   6.222  0.00  0.00     0.197 HD
ATOM      9  H22 <0> d   1      17.267  -2.455   9.150  0.00  0.00     0.177 HD
ENDROOT
BRANCH   7  10
ATOM     10  C8  <0> d   1      18.106  -4.199   8.276  0.00  0.00     0.148 C 
BRANCH  10  11
ATOM     11  C9  <0> d   1      17.920  -4.883   9.632  0.00  0.00     0.094 C 
BRANCH  11  12
ATOM     12  S10 <0> d   1      19.361  -4.548  10.681  0.00  0.00    -0.161 SA
BRANCH  12  13
ATOM     13  C11 <0> d   1      18.715  -3.368  11.898  0.00  0.00     0.133 C 
BRANCH  13  14
ATOM     14  C12 <0> d   1      19.369  -2.027  11.693  0.00  0.00     0.044 A 
ATOM     15  N17 <0> d   1      20.436  -1.755  10.880  0.00  0.00    -0.352 N 
ATOM     16  C16 <0> d   1      20.697  -0.434  10.992  0.00  0.00     0.207 A 
ATOM     17  H33 <0> d   1      20.912  -2.390  10.324  0.00  0.00     0.166 HD
ATOM     18  N15 <0> d   1      19.848   0.090  11.833  0.00  0.00    -0.247 NA
ATOM     19  C13 <0> d   1      19.020  -0.865  12.280  0.00  0.00     0.055 A 
ATOM     20  C14 <0> d   1      17.897  -0.674  13.265  0.00  0.00     0.072 C 
ENDBRANCH  13  14
ENDBRANCH  12  13
ENDBRANCH  11  12
ENDBRANCH  10  11
ENDBRANCH   7  10
TORSDOF 5
ENDMDL
MODEL 5
REMARK VINA RESULT:      -5.7      3.785      5.017
REMARK  5 active torsions:
REMARK  status: ('A' for Active; 'I' for Inactive)
REMARK       I    between atoms: C3_3  and  N4_4 
REMARK       I    between atoms: C3_3  and  N7_7 
REMARK    1  A    between atoms: N7_7  and  C8_8 
REMARK    2  A    between atoms: C8_8  and  C9_9 
REMARK    3  A    between atoms: C9_9  and  S10_10 
REMARK    4  A    between atoms: S10_10  and  C11_11 
REMARK    5  A    between atoms: C11_11  and  C12_12 
ROOT
ATOM      1  C1  <0> d   1      20.396  -5.062   7.051  0.00  0.00     0.198 C 
ATOM      2  N2  <0> d   1      20.109  -3.722   6.533  0.00  0.00    -0.112 NA
ATOM      3  C3  <0> d   1      19.531  -2.839   7.296  0.00  0.00     0.704 C 
ATOM      4  N4  <0> d   1      19.166  -1.614   6.778  0.00  0.00    -0.125 N 
ATOM      5  C5  <0> d   1      19.407  -1.329   5.476  0.00  0.00     0.196 C 
ATOM      6  N6  <0> d   1      19.609  -1.091   4.383  0.00  0.00    -0.171 NA
ATOM      7  N7  <0> d   1      19.286  -3.127   8.618  0.00  0.00    -0.223 N 
ATOM      8  H21 <0> d   1      18.735  -0.956   7.346  0.00  0.00     0.197 HD
ATOM      9  H22 <0> d   1      19.611  -3.957   9.002  0.00  0.00     0.177 HD
ENDROOT
BRANCH   7  10
ATOM     10  C8  <0> d   1      18.535  -2.182   9.447  0.00  0.00     0.148 C 
BRANCH  10  11
ATOM     11  C9  <0> d   1      19.401  -1.739  10.629  0.00  0.00     0.094 C 
BRANCH  11  12
ATOM     12  S10 <0> d   1      19.132   0.025  10.948  0.00  0.00    -0.161 SA
BRANCH  12  13
ATOM     13  C11 <0> d   1      20.426   0.424  12.154  0.00  0.00     0.133 C 
BRANCH  13  14
ATOM     14  C12 <0> d   1      19.790   0.854  13.450  0.00  0.00     0.044 A 
ATOM     15  N17 <0> d   1      19.525   2.138  13.843  0.00  0.00    -0.352 N 
ATOM     16  C16 <0> d   1      18.952   2.072  15.065  0.00  0.00     0.207 A 
ATOM     17  H33 <0> d   1      19.709   2.944  13.337  0.00  0.00     0.166 HD
ATOM     18  N15 <0> d   1      18.870   0.818  15.421  0.00  0.00    -0.247 NA
ATOM     19  C13 <0> d   1      19.378   0.048  14.448  0.00  0.00     0.055 A 
ATOM     20  C14 <0> d   1      19.471  -1.456  14.468  0.00  0.00     0.072 C 
ENDBRANCH  13  14
ENDBRANCH  12  13
ENDBRANCH  11  12
ENDBRANCH  10  11
ENDBRANCH   7  10
TORSDOF 5
ENDMDL
MODEL 6
REMARK VINA RESULT:      -5.7      5.306      7.087
REMARK  5 active torsions:
REMARK  status: ('A' for Active; 'I' for Inactive)
REMARK       I    between atoms: C3_3  and  N4_4 
REMARK       I    between atoms: C3_3  and  N7_7 
REMARK    1  A    between atoms: N7_7  and  C8_8 
REMARK    2  A    between atoms: C8_8  and  C9_9 
REMARK    3  A    between atoms: C9_9  and  S10_10 
REMARK    4  A    between atoms: S10_10  and  C11_11 
REMARK    5  A    between atoms: C11_11  and  C12_12 
ROOT
ATOM      1  C1  <0> d   1      19.255  -1.707   4.724  0.00  0.00     0.198 C 
ATOM      2  N2  <0> d   1      19.397  -2.751   5.742  0.00  0.00    -0.112 NA
ATOM      3  C3  <0> d   1      19.413  -2.431   7.005  0.00  0.00     0.704 C 
ATOM      4  N4  <0> d   1      19.652  -3.399   7.958  0.00  0.00    -0.125 N 
ATOM      5  C5  <0> d   1      19.871  -4.682   7.581  0.00  0.00     0.196 C 
ATOM      6  N6  <0> d   1      20.054  -5.758   7.264  0.00  0.00    -0.171 NA
ATOM      7  N7  <0> d   1      19.191  -1.130   7.388  0.00  0.00    -0.223 N 
ATOM      8  H21 <0> d   1      19.665  -3.162   8.898  0.00  0.00     0.197 HD
ATOM      9  H22 <0> d   1      18.948  -0.463   6.725  0.00  0.00     0.177 HD
ENDROOT
BRANCH   7  10
ATOM     10  C8  <0> d   1      19.323  -0.748   8.796  0.00  0.00     0.148 C 
BRANCH  10  11
ATOM     11  C9  <0> d   1      17.932  -0.590   9.414  0.00  0.00     0.094 C 
BRANCH  11  12
ATOM     12  S10 <0> d   1      18.096  -0.116  11.157  0.00  0.00    -0.161 SA
BRANCH  12  13
ATOM     13  C11 <0> d   1      17.576  -1.614  12.038  0.00  0.00     0.133 C 
BRANCH  13  14
ATOM     14  C12 <0> d   1      18.548  -2.728  11.750  0.00  0.00     0.044 A 
ATOM     15  N17 <0> d   1      19.911  -2.668  11.845  0.00  0.00    -0.352 N 
ATOM     16  C16 <0> d   1      20.391  -3.883  11.502  0.00  0.00     0.207 A 
ATOM     17  H33 <0> d   1      20.436  -1.898  12.114  0.00  0.00     0.166 HD
ATOM     18  N15 <0> d   1      19.385  -4.659  11.201  0.00  0.00    -0.247 NA
ATOM     19  C13 <0> d   1      18.241  -3.976  11.344  0.00  0.00     0.055 A 
ATOM     20  C14 <0> d   1      16.854  -4.510  11.096  0.00  0.00     0.072 C 
ENDBRANCH  13  14
ENDBRANCH  12  13
ENDBRANCH  11  12
ENDBRANCH  10  11
ENDBRANCH   7  10
TORSDOF 5
ENDMDL
MODEL 7
REMARK VINA RESULT:      -5.7      3.626      5.509
REMARK  5 active torsions:
REMARK  status: ('A' for Active; 'I' for Inactive)
REMARK       I    between atoms: C3_3  and  N4_4 
REMARK       I    between atoms: C3_3  and  N7_7 
REMARK    1  A    between atoms: N7_7  and  C8_8 
REMARK    2  A    between atoms: C8_8  and  C9_9 
REMARK    3  A    between atoms: C9_9  and  S10_10 
REMARK    4  A    between atoms: S10_10  and  C11_11 
REMARK    5  A    between atoms: C11_11  and  C12_12 
ROOT
ATOM      1  C1  <0> d   1      20.332   0.996  12.207  0.00  0.00     0.198 C 
ATOM      2  N2  <0> d   1      19.259   1.875  11.738  0.00  0.00    -0.112 NA
ATOM      3  C3  <0> d   1      19.019   1.988  10.463  0.00  0.00     0.704 C 
ATOM      4  N4  <0> d   1      18.081   2.895  10.015  0.00  0.00    -0.125 N 
ATOM      5  C5  <0> d   1      17.409   3.669  10.901  0.00  0.00     0.196 C 
ATOM      6  N6  <0> d   1      16.846   4.318  11.644  0.00  0.00    -0.171 NA
ATOM      7  N7  <0> d   1      19.700   1.203   9.563  0.00  0.00    -0.223 N 
ATOM      8  H21 <0> d   1      17.903   2.979   9.065  0.00  0.00     0.197 HD
ATOM      9  H22 <0> d   1      20.304   0.513   9.881  0.00  0.00     0.177 HD
ENDROOT
BRANCH   7  10
ATOM     10  C8  <0> d   1      19.516   1.408   8.125  0.00  0.00     0.148 C 
BRANCH  10  11
ATOM     11  C9  <0> d   1      18.514   0.384   7.587  0.00  0.00     0.094 C 
BRANCH  11  12
ATOM     12  S10 <0> d   1      19.180  -1.288   7.809  0.00  0.00    -0.161 SA
BRANCH  12  13
ATOM     13  C11 <0> d   1      18.007  -2.044   8.967  0.00  0.00     0.133 C 
BRANCH  13  14
ATOM     14  C12 <0> d   1      18.743  -2.506  10.198  0.00  0.00     0.044 A 
ATOM     15  N17 <0> d   1      19.818  -3.352  10.236  0.00  0.00    -0.352 N 
ATOM     16  C16 <0> d   1      20.167  -3.498  11.533  0.00  0.00     0.207 A 
ATOM     17  H33 <0> d   1      20.252  -3.767   9.474  0.00  0.00     0.166 HD
ATOM     18  N15 <0> d   1      19.352  -2.789  12.266  0.00  0.00    -0.247 NA
ATOM     19  C13 <0> d   1      18.467  -2.169  11.472  0.00  0.00     0.055 A 
ATOM     20  C14 <0> d   1      17.358  -1.256  11.926  0.00  0.00     0.072 C 
ENDBRANCH  13  14
ENDBRANCH  12  13
ENDBRANCH  11  12
ENDBRANCH  10  11
ENDBRANCH   7  10
TORSDOF 5
ENDMDL
MODEL 8
REMARK VINA RESULT:      -5.5      2.374      7.179
REMARK  5 active torsions:
REMARK  status: ('A' for Active; 'I' for Inactive)
REMARK       I    between atoms: C3_3  and  N4_4 
REMARK       I    between atoms: C3_3  and  N7_7 
REMARK    1  A    between atoms: N7_7  and  C8_8 
REMARK    2  A    between atoms: C8_8  and  C9_9 
REMARK    3  A    between atoms: C9_9  and  S10_10 
REMARK    4  A    between atoms: S10_10  and  C11_11 
REMARK    5  A    between atoms: C11_11  and  C12_12 
ROOT
ATOM      1  C1  <0> d   1      20.728   5.589  15.941  0.00  0.00     0.198 C 
ATOM      2  N2  <0> d   1      20.251   4.273  16.373  0.00  0.00    -0.112 NA
ATOM      3  C3  <0> d   1      19.319   3.664  15.697  0.00  0.00     0.704 C 
ATOM      4  N4  <0> d   1      18.795   2.476  16.162  0.00  0.00    -0.125 N 
ATOM      5  C5  <0> d   1      19.248   1.942  17.322  0.00  0.00     0.196 C 
ATOM      6  N6  <0> d   1      19.629   1.496  18.295  0.00  0.00    -0.171 NA
ATOM      7  N7  <0> d   1      18.858   4.204  14.520  0.00  0.00    -0.223 N 
ATOM      8  H21 <0> d   1      18.101   2.022  15.659  0.00  0.00     0.197 HD
ATOM      9  H22 <0> d   1      19.278   4.999  14.154  0.00  0.00     0.177 HD
ENDROOT
BRANCH   7  10
ATOM     10  C8  <0> d   1      17.733   3.582  13.819  0.00  0.00     0.148 C 
BRANCH  10  11
ATOM     11  C9  <0> d   1      17.749   4.007  12.349  0.00  0.00     0.094 C 
BRANCH  11  12
ATOM     12  S10 <0> d   1      19.305   3.477  11.584  0.00  0.00    -0.161 SA
BRANCH  12  13
ATOM     13  C11 <0> d   1      18.771   2.834   9.974  0.00  0.00     0.133 C 
BRANCH  13  14
ATOM     14  C12 <0> d   1      19.336   1.452   9.772  0.00  0.00     0.044 A 
ATOM     15  N17 <0> d   1      19.904   0.655  10.729  0.00  0.00    -0.352 N 
ATOM     16  C16 <0> d   1      20.273  -0.495  10.124  0.00  0.00     0.207 A 
ATOM     17  H33 <0> d   1      20.017   0.873  11.667  0.00  0.00     0.166 HD
ATOM     18  N15 <0> d   1      19.960  -0.420   8.859  0.00  0.00    -0.247 NA
ATOM     19  C13 <0> d   1      19.383   0.766   8.615  0.00  0.00     0.055 A 
ATOM     20  C14 <0> d   1      18.877   1.245   7.279  0.00  0.00     0.072 C 
ENDBRANCH  13  14
ENDBRANCH  12  13
ENDBRANCH  11  12
ENDBRANCH  10  11
ENDBRANCH   7  10
TORSDOF 5
ENDMDL
MODEL 9
REMARK VINA RESULT:      -5.5      5.499      7.609
REMARK  5 active torsions:
REMARK  status: ('A' for Active; 'I' for Inactive)
REMARK       I    between atoms: C3_3  and  N4_4 
REMARK       I    between atoms: C3_3  and  N7_7 
REMARK    1  A    between atoms: N7_7  and  C8_8 
REMARK    2  A    between atoms: C8_8  and  C9_9 
REMARK    3  A    between atoms: C9_9  and  S10_10 
REMARK    4  A    between atoms: S10_10  and  C11_11 
REMARK    5  A    between atoms: C11_11  and  C12_12 
ROOT
ATOM      1  C1  <0> d   1      19.179   1.965   8.129  0.00  0.00     0.198 C 
ATOM      2  N2  <0> d   1      19.122   0.860   7.168  0.00  0.00    -0.112 NA
ATOM      3  C3  <0> d   1      18.711  -0.315   7.551  0.00  0.00     0.704 C 
ATOM      4  N4  <0> d   1      18.758  -1.381   6.676  0.00  0.00    -0.125 N 
ATOM      5  C5  <0> d   1      19.231  -1.205   5.418  0.00  0.00     0.196 C 
ATOM      6  N6  <0> d   1      19.628  -1.057   4.364  0.00  0.00    -0.171 NA
ATOM      7  N7  <0> d   1      18.232  -0.495   8.827  0.00  0.00    -0.223 N 
ATOM      8  H21 <0> d   1      18.453  -2.256   6.960  0.00  0.00     0.197 HD
ATOM      9  H22 <0> d   1      18.128   0.268   9.418  0.00  0.00     0.177 HD
ENDROOT
BRANCH   7  10
ATOM     10  C8  <0> d   1      17.878  -1.837   9.295  0.00  0.00     0.148 C 
BRANCH  10  11
ATOM     11  C9  <0> d   1      18.125  -1.933  10.802  0.00  0.00     0.094 C 
BRANCH  11  12
ATOM     12  S10 <0> d   1      19.877  -2.289  11.106  0.00  0.00    -0.161 SA
BRANCH  12  13
ATOM     13  C11 <0> d   1      19.873  -4.064  11.484  0.00  0.00     0.133 C 
BRANCH  13  14
ATOM     14  C12 <0> d   1      19.570  -4.844  10.232  0.00  0.00     0.044 A 
ATOM     15  N17 <0> d   1      20.374  -4.965   9.131  0.00  0.00    -0.352 N 
ATOM     16  C16 <0> d   1      19.724  -5.751   8.245  0.00  0.00     0.207 A 
ATOM     17  H33 <0> d   1      21.250  -4.566   9.010  0.00  0.00     0.166 HD
ATOM     18  N15 <0> d   1      18.574  -6.096   8.758  0.00  0.00    -0.247 NA
ATOM     19  C13 <0> d   1      18.454  -5.553   9.978  0.00  0.00     0.055 A 
ATOM     20  C14 <0> d   1      17.275  -5.709  10.904  0.00  0.00     0.072 C 
ENDBRANCH  13  14
ENDBRANCH  12  13
ENDBRANCH  11  12
ENDBRANCH  10  11
ENDBRANCH   7  10
TORSDOF 5
ENDMDL
