MODEL 1
REMARK VINA RESULT:      -6.6      0.000      0.000
REMARK  2 active torsions:
REMARK  status: ('A' for Active; 'I' for Inactive)
REMARK    1  A    between atoms: C2_2  and  N3_3 
REMARK    2  A    between atoms: C7_7  and  C9_8 
ROOT
ATOM      1  N3  ZIN A   1      18.301  -2.754  11.514  0.00  0.00    -0.268 N 
ATOM      2  C4  ZIN A   1      19.586  -2.925  11.847  0.00  0.00     0.326 A 
ATOM      3  O5  ZIN A   1      20.248  -3.889  11.513  0.00  0.00    -0.247 OA
ATOM      4  N6  ZIN A   1      20.064  -1.912  12.591  0.00  0.00    -0.325 N 
ATOM      5  C7  ZIN A   1      18.953  -0.960  12.768  0.00  0.00     0.212 A 
ATOM      6  C15 ZIN A   1      17.809  -1.601  12.009  0.00  0.00     0.255 A 
ATOM      7  O16 ZIN A   1      16.684  -1.169  11.878  0.00  0.00    -0.270 OA
ATOM      8  H22 ZIN A   1      20.963  -1.825  12.943  0.00  0.00     0.165 HD
ENDROOT
BRANCH   5   9
ATOM      9  C9  ZIN A   1      18.612  -0.810  14.229  0.00  0.00    -0.026 A 
ATOM     10  C14 ZIN A   1      17.699   0.147  14.630  0.00  0.00     0.010 A 
ATOM     11  C13 ZIN A   1      17.383   0.281  15.970  0.00  0.00     0.001 A 
ATOM     12  C12 ZIN A   1      17.986  -0.535  16.907  0.00  0.00     0.000 A 
ATOM     13  C11 ZIN A   1      18.903  -1.488  16.506  0.00  0.00     0.001 A 
ATOM     14  C10 ZIN A   1      19.216  -1.625  15.167  0.00  0.00     0.010 A 
ENDBRANCH   5   9
BRANCH   1  15
ATOM     15  C2  ZIN A   1      17.526  -3.701  10.708  0.00  0.00     0.132 C 
ATOM     16  C1  ZIN A   1      16.908  -4.762  11.622  0.00  0.00     0.027 C 
ENDBRANCH   1  15
TORSDOF 2
ENDMDL
MODEL 2
REMARK VINA RESULT:      -6.5      4.644      6.969
REMARK  2 active torsions:
REMARK  status: ('A' for Active; 'I' for Inactive)
REMARK    1  A    between atoms: C2_2  and  N3_3 
REMARK    2  A    between atoms: C7_7  and  C9_8 
ROOT
ATOM      1  N3  ZIN A   1      18.353   2.597  11.664  0.00  0.00    -0.268 N 
ATOM      2  C4  ZIN A   1      19.649   2.700  11.344  0.00  0.00     0.326 A 
ATOM      3  O5  ZIN A   1      20.362   3.617  11.704  0.00  0.00    -0.247 OA
ATOM      4  N6  ZIN A   1      20.074   1.677  10.582  0.00  0.00    -0.325 N 
ATOM      5  C7  ZIN A   1      18.912   0.795  10.376  0.00  0.00     0.212 A 
ATOM      6  C15 ZIN A   1      17.801   1.484  11.140  0.00  0.00     0.255 A 
ATOM      7  O16 ZIN A   1      16.651   1.115  11.253  0.00  0.00    -0.270 OA
ATOM      8  H22 ZIN A   1      20.970   1.546  10.235  0.00  0.00     0.165 HD
ENDROOT
BRANCH   5   9
ATOM      9  C9  ZIN A   1      18.577   0.695   8.910  0.00  0.00    -0.026 A 
ATOM     10  C14 ZIN A   1      19.249   1.481   7.993  0.00  0.00     0.010 A 
ATOM     11  C13 ZIN A   1      18.945   1.386   6.647  0.00  0.00     0.001 A 
ATOM     12  C12 ZIN A   1      17.964   0.512   6.221  0.00  0.00     0.000 A 
ATOM     13  C11 ZIN A   1      17.288  -0.271   7.138  0.00  0.00     0.001 A 
ATOM     14  C10 ZIN A   1      17.595  -0.179   8.483  0.00  0.00     0.010 A 
ENDBRANCH   5   9
BRANCH   1  15
ATOM     15  C2  ZIN A   1      17.627   3.569  12.484  0.00  0.00     0.132 C 
ATOM     16  C1  ZIN A   1      16.975   4.615  11.577  0.00  0.00     0.027 C 
ENDBRANCH   1  15
TORSDOF 2
ENDMDL
MODEL 3
REMARK VINA RESULT:      -6.4      2.854      3.163
REMARK  2 active torsions:
REMARK  status: ('A' for Active; 'I' for Inactive)
REMARK    1  A    between atoms: C2_2  and  N3_3 
REMARK    2  A    between atoms: C7_7  and  C9_8 
ROOT
ATOM      1  N3  ZIN A   1      19.268   0.737  11.425  0.00  0.00    -0.268 N 
ATOM      2  C4  ZIN A   1      20.429   0.167  11.772  0.00  0.00     0.326 A 
ATOM      3  O5  ZIN A   1      21.152  -0.423  10.993  0.00  0.00    -0.247 OA
ATOM      4  N6  ZIN A   1      20.707   0.322  13.079  0.00  0.00    -0.325 N 
ATOM      5  C7  ZIN A   1      19.589   1.087  13.659  0.00  0.00     0.212 A 
ATOM      6  C15 ZIN A   1      18.671   1.327  12.479  0.00  0.00     0.255 A 
ATOM      7  O16 ZIN A   1      17.615   1.923  12.482  0.00  0.00    -0.270 OA
ATOM      8  H22 ZIN A   1      21.490  -0.006  13.548  0.00  0.00     0.165 HD
ENDROOT
BRANCH   5   9
ATOM      9  C9  ZIN A   1      18.894   0.280  14.727  0.00  0.00    -0.026 A 
ATOM     10  C14 ZIN A   1      17.951   0.879  15.540  0.00  0.00     0.010 A 
ATOM     11  C13 ZIN A   1      17.310   0.138  16.516  0.00  0.00     0.001 A 
ATOM     12  C12 ZIN A   1      17.618  -1.198  16.683  0.00  0.00     0.000 A 
ATOM     13  C11 ZIN A   1      18.565  -1.796  15.872  0.00  0.00     0.001 A 
ATOM     14  C10 ZIN A   1      19.202  -1.057  14.894  0.00  0.00     0.010 A 
ENDBRANCH   5   9
BRANCH   1  15
ATOM     15  C2  ZIN A   1      18.719   0.723  10.067  0.00  0.00     0.132 C 
ATOM     16  C1  ZIN A   1      19.158   1.988   9.327  0.00  0.00     0.027 C 
ENDBRANCH   1  15
TORSDOF 2
ENDMDL
MODEL 4
REMARK VINA RESULT:      -6.4      4.952      6.182
REMARK  2 active torsions:
REMARK  status: ('A' for Active; 'I' for Inactive)
REMARK    1  A    between atoms: C2_2  and  N3_3 
REMARK    2  A    between atoms: C7_7  and  C9_8 
ROOT
ATOM      1  N3  ZIN A   1      19.088  -2.179   6.617  0.00  0.00    -0.268 N 
ATOM      2  C4  ZIN A   1      19.159  -1.210   5.695  0.00  0.00     0.326 A 
ATOM      3  O5  ZIN A   1      19.869  -1.267   4.710  0.00  0.00    -0.247 OA
ATOM      4  N6  ZIN A   1      18.358  -0.169   5.981  0.00  0.00    -0.325 N 
ATOM      5  C7  ZIN A   1      17.678  -0.496   7.247  0.00  0.00     0.212 A 
ATOM      6  C15 ZIN A   1      18.223  -1.864   7.601  0.00  0.00     0.255 A 
ATOM      7  O16 ZIN A   1      17.943  -2.535   8.571  0.00  0.00    -0.270 OA
ATOM      8  H22 ZIN A   1      18.249   0.639   5.457  0.00  0.00     0.165 HD
ENDROOT
BRANCH   5   9
ATOM      9  C9  ZIN A   1      18.026   0.514   8.310  0.00  0.00    -0.026 A 
ATOM     10  C14 ZIN A   1      17.390   0.473   9.537  0.00  0.00     0.010 A 
ATOM     11  C13 ZIN A   1      17.713   1.396  10.514  0.00  0.00     0.001 A 
ATOM     12  C12 ZIN A   1      18.665   2.365  10.262  0.00  0.00     0.000 A 
ATOM     13  C11 ZIN A   1      19.298   2.409   9.034  0.00  0.00     0.001 A 
ATOM     14  C10 ZIN A   1      18.979   1.484   8.059  0.00  0.00     0.010 A 
ENDBRANCH   5   9
BRANCH   1  15
ATOM     15  C2  ZIN A   1      19.852  -3.427   6.559  0.00  0.00     0.132 C 
ATOM     16  C1  ZIN A   1      18.982  -4.529   5.950  0.00  0.00     0.027 C 
ENDBRANCH   1  15
TORSDOF 2
ENDMDL
MODEL 5
REMARK VINA RESULT:      -6.4      3.975      6.340
REMARK  2 active torsions:
REMARK  status: ('A' for Active; 'I' for Inactive)
REMARK    1  A    between atoms: C2_2  and  N3_3 
REMARK    2  A    between atoms: C7_7  and  C9_8 
ROOT
ATOM      1  N3  ZIN A   1      18.168  -0.705  11.475  0.00  0.00    -0.268 N 
ATOM      2  C4  ZIN A   1      17.124   0.133  11.487  0.00  0.00     0.326 A 
ATOM      3  O5  ZIN A   1      16.153  -0.008  12.205  0.00  0.00    -0.247 OA
ATOM      4  N6  ZIN A   1      17.269   1.147  10.617  0.00  0.00    -0.325 N 
ATOM      5  C7  ZIN A   1      18.569   0.949   9.951  0.00  0.00     0.212 A 
ATOM      6  C15 ZIN A   1      19.107  -0.315  10.590  0.00  0.00     0.255 A 
ATOM      7  O16 ZIN A   1      20.162  -0.864  10.353  0.00  0.00    -0.270 OA
ATOM      8  H22 ZIN A   1      16.641   1.868  10.457  0.00  0.00     0.165 HD
ENDROOT
BRANCH   5   9
ATOM      9  C9  ZIN A   1      18.381   0.763   8.467  0.00  0.00    -0.026 A 
ATOM     10  C14 ZIN A   1      19.221   1.408   7.579  0.00  0.00     0.010 A 
ATOM     11  C13 ZIN A   1      19.052   1.234   6.217  0.00  0.00     0.001 A 
ATOM     12  C12 ZIN A   1      18.039   0.422   5.745  0.00  0.00     0.000 A 
ATOM     13  C11 ZIN A   1      17.196  -0.219   6.634  0.00  0.00     0.001 A 
ATOM     14  C10 ZIN A   1      17.367  -0.048   7.994  0.00  0.00     0.010 A 
ENDBRANCH   5   9
BRANCH   1  15
ATOM     15  C2  ZIN A   1      18.277  -1.896  12.321  0.00  0.00     0.132 C 
ATOM     16  C1  ZIN A   1      19.005  -1.534  13.618  0.00  0.00     0.027 C 
ENDBRANCH   1  15
TORSDOF 2
ENDMDL
MODEL 6
REMARK VINA RESULT:      -6.3      2.880      4.366
REMARK  2 active torsions:
REMARK  status: ('A' for Active; 'I' for Inactive)
REMARK    1  A    between atoms: C2_2  and  N3_3 
REMARK    2  A    between atoms: C7_7  and  C9_8 
ROOT
ATOM      1  N3  ZIN A   1      19.056   1.893  11.797  0.00  0.00    -0.268 N 
ATOM      2  C4  ZIN A   1      17.729   1.751  11.691  0.00  0.00     0.326 A 
ATOM      3  O5  ZIN A   1      16.999   2.584  11.189  0.00  0.00    -0.247 OA
ATOM      4  N6  ZIN A   1      17.295   0.585  12.200  0.00  0.00    -0.325 N 
ATOM      5  C7  ZIN A   1      18.485  -0.125  12.702  0.00  0.00     0.212 A 
ATOM      6  C15 ZIN A   1      19.624   0.823  12.387  0.00  0.00     0.255 A 
ATOM      7  O16 ZIN A   1      20.802   0.655  12.621  0.00  0.00    -0.270 OA
ATOM      8  H22 ZIN A   1      16.378   0.272  12.231  0.00  0.00     0.165 HD
ENDROOT
BRANCH   5   9
ATOM      9  C9  ZIN A   1      18.374  -0.358  14.188  0.00  0.00    -0.026 A 
ATOM     10  C14 ZIN A   1      17.532   0.430  14.949  0.00  0.00     0.010 A 
ATOM     11  C13 ZIN A   1      17.427   0.213  16.311  0.00  0.00     0.001 A 
ATOM     12  C12 ZIN A   1      18.169  -0.787  16.911  0.00  0.00     0.000 A 
ATOM     13  C11 ZIN A   1      19.014  -1.572  16.149  0.00  0.00     0.001 A 
ATOM     14  C10 ZIN A   1      19.117  -1.357  14.788  0.00  0.00     0.010 A 
ENDBRANCH   5   9
BRANCH   1  15
ATOM     15  C2  ZIN A   1      19.799   3.064  11.325  0.00  0.00     0.132 C 
ATOM     16  C1  ZIN A   1      19.730   4.170  12.380  0.00  0.00     0.027 C 
ENDBRANCH   1  15
TORSDOF 2
ENDMDL
MODEL 7
REMARK VINA RESULT:      -6.2      3.841      6.140
REMARK  2 active torsions:
REMARK  status: ('A' for Active; 'I' for Inactive)
REMARK    1  A    between atoms: C2_2  and  N3_3 
REMARK    2  A    between atoms: C7_7  and  C9_8 
ROOT
ATOM      1  N3  ZIN A   1      19.180  -0.312  11.752  0.00  0.00    -0.268 N 
ATOM      2  C4  ZIN A   1      20.463  -0.004  11.527  0.00  0.00     0.326 A 
ATOM      3  O5  ZIN A   1      21.157   0.612  12.312  0.00  0.00    -0.247 OA
ATOM      4  N6  ZIN A   1      20.899  -0.453  10.337  0.00  0.00    -0.325 N 
ATOM      5  C7  ZIN A   1      19.759  -1.140   9.703  0.00  0.00     0.212 A 
ATOM      6  C15 ZIN A   1      18.647  -1.001  10.723  0.00  0.00     0.255 A 
ATOM      7  O16 ZIN A   1      17.513  -1.420  10.631  0.00  0.00    -0.270 OA
ATOM      8  H22 ZIN A   1      21.789  -0.346   9.967  0.00  0.00     0.165 HD
ENDROOT
BRANCH   5   9
ATOM      9  C9  ZIN A   1      19.388  -0.464   8.407  0.00  0.00    -0.026 A 
ATOM     10  C14 ZIN A   1      19.136  -1.223   7.280  0.00  0.00     0.010 A 
ATOM     11  C13 ZIN A   1      18.790  -0.603   6.093  0.00  0.00     0.001 A 
ATOM     12  C12 ZIN A   1      18.706   0.774   6.032  0.00  0.00     0.000 A 
ATOM     13  C11 ZIN A   1      18.963   1.534   7.158  0.00  0.00     0.001 A 
ATOM     14  C10 ZIN A   1      19.304   0.914   8.345  0.00  0.00     0.010 A 
ENDBRANCH   5   9
BRANCH   1  15
ATOM     15  C2  ZIN A   1      18.447   0.052  12.966  0.00  0.00     0.132 C 
ATOM     16  C1  ZIN A   1      18.539  -1.092  13.979  0.00  0.00     0.027 C 
ENDBRANCH   1  15
TORSDOF 2
ENDMDL
MODEL 8
REMARK VINA RESULT:      -6.2      2.196      2.689
REMARK  2 active torsions:
REMARK  status: ('A' for Active; 'I' for Inactive)
REMARK    1  A    between atoms: C2_2  and  N3_3 
REMARK    2  A    between atoms: C7_7  and  C9_8 
ROOT
ATOM      1  N3  ZIN A   1      18.216  -0.363  10.729  0.00  0.00    -0.268 N 
ATOM      2  C4  ZIN A   1      19.496  -0.069  10.987  0.00  0.00     0.326 A 
ATOM      3  O5  ZIN A   1      20.420  -0.375  10.259  0.00  0.00    -0.247 OA
ATOM      4  N6  ZIN A   1      19.646   0.605  12.141  0.00  0.00    -0.325 N 
ATOM      5  C7  ZIN A   1      18.297   0.771  12.710  0.00  0.00     0.212 A 
ATOM      6  C15 ZIN A   1      17.397   0.096  11.696  0.00  0.00     0.255 A 
ATOM      7  O16 ZIN A   1      16.190  -0.012  11.745  0.00  0.00    -0.270 OA
ATOM      8  H22 ZIN A   1      20.479   0.919  12.525  0.00  0.00     0.165 HD
ENDROOT
BRANCH   5   9
ATOM      9  C9  ZIN A   1      18.201   0.091  14.052  0.00  0.00    -0.026 A 
ATOM     10  C14 ZIN A   1      18.915  -1.067  14.292  0.00  0.00     0.010 A 
ATOM     11  C13 ZIN A   1      18.830  -1.688  15.525  0.00  0.00     0.001 A 
ATOM     12  C12 ZIN A   1      18.026  -1.155  16.513  0.00  0.00     0.000 A 
ATOM     13  C11 ZIN A   1      17.308   0.001  16.271  0.00  0.00     0.001 A 
ATOM     14  C10 ZIN A   1      17.395   0.624  15.041  0.00  0.00     0.010 A 
ENDBRANCH   5   9
BRANCH   1  15
ATOM     15  C2  ZIN A   1      17.762  -1.089   9.541  0.00  0.00     0.132 C 
ATOM     16  C1  ZIN A   1      17.373  -0.089   8.450  0.00  0.00     0.027 C 
ENDBRANCH   1  15
TORSDOF 2
ENDMDL
MODEL 9
REMARK VINA RESULT:      -6.0      3.596      4.604
REMARK  2 active torsions:
REMARK  status: ('A' for Active; 'I' for Inactive)
REMARK    1  A    between atoms: C2_2  and  N3_3 
REMARK    2  A    between atoms: C7_7  and  C9_8 
ROOT
ATOM      1  N3  ZIN A   1      17.776  -1.066  10.357  0.00  0.00    -0.268 N 
ATOM      2  C4  ZIN A   1      18.670  -0.838   9.387  0.00  0.00     0.326 A 
ATOM      3  O5  ZIN A   1      19.427  -1.685   8.953  0.00  0.00    -0.247 OA
ATOM      4  N6  ZIN A   1      18.638   0.432   8.946  0.00  0.00    -0.325 N 
ATOM      5  C7  ZIN A   1      17.594   1.122   9.724  0.00  0.00     0.212 A 
ATOM      6  C15 ZIN A   1      17.063   0.042  10.645  0.00  0.00     0.255 A 
ATOM      7  O16 ZIN A   1      16.183   0.151  11.471  0.00  0.00    -0.270 OA
ATOM      8  H22 ZIN A   1      19.194   0.819   8.253  0.00  0.00     0.165 HD
ENDROOT
BRANCH   5   9
ATOM      9  C9  ZIN A   1      18.188   2.259  10.516  0.00  0.00    -0.026 A 
ATOM     10  C14 ZIN A   1      19.465   2.148  11.033  0.00  0.00     0.010 A 
ATOM     11  C13 ZIN A   1      20.011   3.194  11.754  0.00  0.00     0.001 A 
ATOM     12  C12 ZIN A   1      19.278   4.345  11.965  0.00  0.00     0.000 A 
ATOM     13  C11 ZIN A   1      17.999   4.454  11.453  0.00  0.00     0.001 A 
ATOM     14  C10 ZIN A   1      17.454   3.411  10.728  0.00  0.00     0.010 A 
ENDBRANCH   5   9
BRANCH   1  15
ATOM     15  C2  ZIN A   1      17.591  -2.359  11.019  0.00  0.00     0.132 C 
ATOM     16  C1  ZIN A   1      18.369  -2.372  12.337  0.00  0.00     0.027 C 
ENDBRANCH   1  15
TORSDOF 2
ENDMDL
