MODEL 1
REMARK VINA RESULT:      -9.9      0.000      0.000
REMARK  7 active torsions:
REMARK  status: ('A' for Active; 'I' for Inactive)
REMARK    1  A    between atoms: N10_10  and  C11_11 
REMARK    2  A    between atoms: N14_14  and  C15_15 
REMARK    3  A    between atoms: C15_15  and  C16_16 
REMARK    4  A    between atoms: C16_16  and  C17_17 
REMARK    5  A    between atoms: C17_17  and  C18_18 
REMARK    6  A    between atoms: C18_18  and  C19_19 
REMARK    7  A    between atoms: C18_18  and  C26_26 
ROOT
ATOM      1  C15 <0> d   1      18.630   4.617  11.200  0.00  0.00     0.272 C 
ENDROOT
BRANCH   1   2
ATOM      2  N14 <0> d   1      18.793   3.924  12.485  0.00  0.00     0.088 N 
ATOM      3  C13 <0> d   1      19.275   4.844  13.522  0.00  0.00     0.274 C 
ATOM      4  C12 <0> d   1      19.572   4.060  14.803  0.00  0.00     0.056 C 
ATOM      5  C11 <0> d   1      18.295   3.357  15.272  0.00  0.00     0.098 C 
ATOM      6  C34 <0> d   1      17.786   2.442  14.155  0.00  0.00     0.056 C 
ATOM      7  C33 <0> d   1      17.542   3.272  12.893  0.00  0.00     0.274 C 
BRANCH   5   8
ATOM      8  N10 <0> d   1      18.586   2.558  16.466  0.00  0.00    -0.293 N 
ATOM      9  C2  <0> d   1      18.670   3.025  17.725  0.00  0.00     0.328 A 
ATOM     10  O1  <0> d   1      18.514   4.185  18.054  0.00  0.00    -0.246 OA
ATOM     11  N3  <0> d   1      18.945   2.011  18.567  0.00  0.00    -0.306 N 
ATOM     12  C4  <0> d   1      19.051   0.838  17.822  0.00  0.00     0.063 A 
ATOM     13  H35 <0> d   1      19.054   2.084  19.528  0.00  0.00     0.171 HD
ATOM     14  C9  <0> d   1      18.826   1.186  16.488  0.00  0.00     0.066 A 
ATOM     15  C5  <0> d   1      19.316  -0.481  18.156  0.00  0.00     0.032 A 
ATOM     16  C8  <0> d   1      18.869   0.211  15.503  0.00  0.00     0.032 A 
ATOM     17  C7  <0> d   1      19.133  -1.100  15.847  0.00  0.00     0.002 A 
ATOM     18  C6  <0> d   1      19.356  -1.446  17.168  0.00  0.00     0.002 A 
ENDBRANCH   5   8
ENDBRANCH   1   2
BRANCH   1  19
ATOM     19  C16 <0> d   1      17.864   3.718  10.229  0.00  0.00     0.031 C 
BRANCH  19  20
ATOM     20  C17 <0> d   1      18.774   2.581   9.758  0.00  0.00     0.016 C 
BRANCH  20  21
ATOM     21  C18 <0> d   1      17.939   1.321   9.528  0.00  0.00     0.051 C 
BRANCH  21  22
ATOM     22  C19 <0> d   1      18.094   0.869   8.100  0.00  0.00    -0.049 A 
ATOM     23  C25 <0> d   1      17.283  -0.133   7.600  0.00  0.00     0.011 A 
ATOM     24  C24 <0> d   1      17.420  -0.546   6.289  0.00  0.00     0.043 A 
ATOM     25  C22 <0> d   1      18.378   0.039   5.476  0.00  0.00     0.116 A 
ATOM     26  C21 <0> d   1      19.193   1.039   5.979  0.00  0.00     0.043 A 
ATOM     27  F23 <0> d   1      18.517  -0.367   4.195  0.00  0.00    -0.206 F 
ATOM     28  C20 <0> d   1      19.050   1.453   7.290  0.00  0.00     0.011 A 
ENDBRANCH  21  22
BRANCH  21  29
ATOM     29  C26 <0> d   1      18.412   0.229  10.454  0.00  0.00    -0.049 A 
ATOM     30  C32 <0> d   1      19.718  -0.217  10.385  0.00  0.00     0.011 A 
ATOM     31  C31 <0> d   1      20.154  -1.215  11.236  0.00  0.00     0.043 A 
ATOM     32  C29 <0> d   1      19.278  -1.774  12.152  0.00  0.00     0.116 A 
ATOM     33  C28 <0> d   1      17.968  -1.330  12.217  0.00  0.00     0.043 A 
ATOM     34  F30 <0> d   1      19.701  -2.753  12.982  0.00  0.00    -0.206 F 
ATOM     35  C27 <0> d   1      17.537  -0.329  11.368  0.00  0.00     0.011 A 
ENDBRANCH  21  29
ENDBRANCH  20  21
ENDBRANCH  19  20
ENDBRANCH   1  19
TORSDOF 7
ENDMDL
MODEL 2
REMARK VINA RESULT:      -9.7      2.090      4.959
REMARK  7 active torsions:
REMARK  status: ('A' for Active; 'I' for Inactive)
REMARK    1  A    between atoms: N10_10  and  C11_11 
REMARK    2  A    between atoms: N14_14  and  C15_15 
REMARK    3  A    between atoms: C15_15  and  C16_16 
REMARK    4  A    between atoms: C16_16  and  C17_17 
REMARK    5  A    between atoms: C17_17  and  C18_18 
REMARK    6  A    between atoms: C18_18  and  C19_19 
REMARK    7  A    between atoms: C18_18  and  C26_26 
ROOT
ATOM      1  C15 <0> d   1      18.554  -2.115  12.874  0.00  0.00     0.272 C 
ENDROOT
BRANCH   1   2
ATOM      2  N14 <0> d   1      18.479  -0.887  13.676  0.00  0.00     0.088 N 
ATOM      3  C13 <0> d   1      18.080  -1.185  15.058  0.00  0.00     0.274 C 
ATOM      4  C12 <0> d   1      17.871   0.124  15.823  0.00  0.00     0.056 C 
ATOM      5  C11 <0> d   1      19.173   0.930  15.811  0.00  0.00     0.098 C 
ATOM      6  C34 <0> d   1      19.592   1.185  14.360  0.00  0.00     0.056 C 
ATOM      7  C33 <0> d   1      19.751  -0.155  13.638  0.00  0.00     0.274 C 
BRANCH   5   8
ATOM      8  N10 <0> d   1      18.962   2.210  16.491  0.00  0.00    -0.293 N 
ATOM      9  C2  <0> d   1      19.257   2.477  17.777  0.00  0.00     0.328 A 
ATOM     10  O1  <0> d   1      19.744   1.686  18.563  0.00  0.00    -0.246 OA
ATOM     11  N3  <0> d   1      18.937   3.753  18.061  0.00  0.00    -0.306 N 
ATOM     12  C4  <0> d   1      18.407   4.339  16.913  0.00  0.00     0.063 A 
ATOM     13  H35 <0> d   1      19.054   4.191  18.919  0.00  0.00     0.171 HD
ATOM     14  C9  <0> d   1      18.420   3.359  15.918  0.00  0.00     0.066 A 
ATOM     15  C5  <0> d   1      17.920   5.604  16.628  0.00  0.00     0.032 A 
ATOM     16  C8  <0> d   1      17.945   3.655  14.650  0.00  0.00     0.032 A 
ATOM     17  C7  <0> d   1      17.461   4.920  14.376  0.00  0.00     0.002 A 
ATOM     18  C6  <0> d   1      17.449   5.891  15.361  0.00  0.00     0.002 A 
ENDBRANCH   5   8
ENDBRANCH   1   2
BRANCH   1  19
ATOM     19  C16 <0> d   1      17.576  -2.019  11.701  0.00  0.00     0.031 C 
BRANCH  19  20
ATOM     20  C17 <0> d   1      18.353  -1.768  10.407  0.00  0.00     0.016 C 
BRANCH  20  21
ATOM     21  C18 <0> d   1      17.684  -0.641   9.620  0.00  0.00     0.051 C 
BRANCH  21  22
ATOM     22  C19 <0> d   1      18.140   0.689  10.159  0.00  0.00    -0.049 A 
ATOM     23  C25 <0> d   1      17.217   1.577  10.679  0.00  0.00     0.011 A 
ATOM     24  C24 <0> d   1      17.633   2.796  11.178  0.00  0.00     0.043 A 
ATOM     25  C22 <0> d   1      18.977   3.132  11.150  0.00  0.00     0.116 A 
ATOM     26  C21 <0> d   1      19.900   2.244  10.626  0.00  0.00     0.043 A 
ATOM     27  F23 <0> d   1      19.385   4.326  11.634  0.00  0.00    -0.206 F 
ATOM     28  C20 <0> d   1      19.481   1.024  10.131  0.00  0.00     0.011 A 
ENDBRANCH  21  22
BRANCH  21  29
ATOM     29  C26 <0> d   1      18.064  -0.750   8.165  0.00  0.00    -0.049 A 
ATOM     30  C32 <0> d   1      19.005  -1.681   7.765  0.00  0.00     0.011 A 
ATOM     31  C31 <0> d   1      19.352  -1.785   6.431  0.00  0.00     0.043 A 
ATOM     32  C29 <0> d   1      18.763  -0.950   5.497  0.00  0.00     0.116 A 
ATOM     33  C28 <0> d   1      17.825  -0.014   5.899  0.00  0.00     0.043 A 
ATOM     34  F30 <0> d   1      19.104  -1.046   4.193  0.00  0.00    -0.206 F 
ATOM     35  C27 <0> d   1      17.477   0.085   7.233  0.00  0.00     0.011 A 
ENDBRANCH  21  29
ENDBRANCH  20  21
ENDBRANCH  19  20
ENDBRANCH   1  19
TORSDOF 7
ENDMDL
MODEL 3
REMARK VINA RESULT:      -9.7      4.435      8.355
REMARK  7 active torsions:
REMARK  status: ('A' for Active; 'I' for Inactive)
REMARK    1  A    between atoms: N10_10  and  C11_11 
REMARK    2  A    between atoms: N14_14  and  C15_15 
REMARK    3  A    between atoms: C15_15  and  C16_16 
REMARK    4  A    between atoms: C16_16  and  C17_17 
REMARK    5  A    between atoms: C17_17  and  C18_18 
REMARK    6  A    between atoms: C18_18  and  C19_19 
REMARK    7  A    between atoms: C18_18  and  C26_26 
ROOT
ATOM      1  C15 <0> d   1      18.704   1.801  10.174  0.00  0.00     0.272 C 
ENDROOT
BRANCH   1   2
ATOM      2  N14 <0> d   1      18.573   0.619   9.312  0.00  0.00     0.088 N 
ATOM      3  C13 <0> d   1      18.224   1.005   7.939  0.00  0.00     0.274 C 
ATOM      4  C12 <0> d   1      17.953  -0.252   7.108  0.00  0.00     0.056 C 
ATOM      5  C11 <0> d   1      19.204  -1.135   7.107  0.00  0.00     0.098 C 
ATOM      6  C34 <0> d   1      19.575  -1.482   8.551  0.00  0.00     0.056 C 
ATOM      7  C33 <0> d   1      19.798  -0.190   9.340  0.00  0.00     0.274 C 
BRANCH   5   8
ATOM      8  N10 <0> d   1      18.932  -2.367   6.361  0.00  0.00    -0.293 N 
ATOM      9  C2  <0> d   1      19.181  -2.568   5.054  0.00  0.00     0.328 A 
ATOM     10  O1  <0> d   1      19.671  -1.749   4.300  0.00  0.00    -0.246 OA
ATOM     11  N3  <0> d   1      18.812  -3.816   4.708  0.00  0.00    -0.306 N 
ATOM     12  C4  <0> d   1      18.296  -4.449   5.838  0.00  0.00     0.063 A 
ATOM     13  H35 <0> d   1      18.889  -4.206   3.824  0.00  0.00     0.171 HD
ATOM     14  C9  <0> d   1      18.370  -3.529   6.885  0.00  0.00     0.066 A 
ATOM     15  C5  <0> d   1      17.776  -5.714   6.065  0.00  0.00     0.032 A 
ATOM     16  C8  <0> d   1      17.922  -3.883   8.149  0.00  0.00     0.032 A 
ATOM     17  C7  <0> d   1      17.406  -5.146   8.365  0.00  0.00     0.002 A 
ATOM     18  C6  <0> d   1      17.333  -6.058   7.327  0.00  0.00     0.002 A 
ENDBRANCH   5   8
ENDBRANCH   1   2
BRANCH   1  19
ATOM     19  C16 <0> d   1      17.704   1.705  11.327  0.00  0.00     0.031 C 
BRANCH  19  20
ATOM     20  C17 <0> d   1      18.447   1.367  12.621  0.00  0.00     0.016 C 
BRANCH  20  21
ATOM     21  C18 <0> d   1      17.726   0.227  13.341  0.00  0.00     0.051 C 
BRANCH  21  22
ATOM     22  C19 <0> d   1      18.152  -1.091  12.748  0.00  0.00    -0.049 A 
ATOM     23  C25 <0> d   1      19.461  -1.516  12.877  0.00  0.00     0.011 A 
ATOM     24  C24 <0> d   1      19.853  -2.726  12.338  0.00  0.00     0.043 A 
ATOM     25  C22 <0> d   1      18.935  -3.510  11.659  0.00  0.00     0.116 A 
ATOM     26  C21 <0> d   1      17.625  -3.082  11.526  0.00  0.00     0.043 A 
ATOM     27  F23 <0> d   1      19.318  -4.691  11.127  0.00  0.00    -0.206 F 
ATOM     28  C20 <0> d   1      17.236  -1.873  12.070  0.00  0.00     0.011 A 
ENDBRANCH  21  22
BRANCH  21  29
ATOM     29  C26 <0> d   1      18.078   0.255  14.807  0.00  0.00    -0.049 A 
ATOM     30  C32 <0> d   1      18.809   1.310  15.321  0.00  0.00     0.011 A 
ATOM     31  C31 <0> d   1      19.128   1.340  16.665  0.00  0.00     0.043 A 
ATOM     32  C29 <0> d   1      18.724   0.308  17.495  0.00  0.00     0.116 A 
ATOM     33  C28 <0> d   1      17.997  -0.751  16.977  0.00  0.00     0.043 A 
ATOM     34  F30 <0> d   1      19.039   0.333  18.808  0.00  0.00    -0.206 F 
ATOM     35  C27 <0> d   1      17.674  -0.776  15.634  0.00  0.00     0.011 A 
ENDBRANCH  21  29
ENDBRANCH  20  21
ENDBRANCH  19  20
ENDBRANCH   1  19
TORSDOF 7
ENDMDL
MODEL 4
REMARK VINA RESULT:      -9.6      1.486      4.111
REMARK  7 active torsions:
REMARK  status: ('A' for Active; 'I' for Inactive)
REMARK    1  A    between atoms: N10_10  and  C11_11 
REMARK    2  A    between atoms: N14_14  and  C15_15 
REMARK    3  A    between atoms: C15_15  and  C16_16 
REMARK    4  A    between atoms: C16_16  and  C17_17 
REMARK    5  A    between atoms: C17_17  and  C18_18 
REMARK    6  A    between atoms: C18_18  and  C19_19 
REMARK    7  A    between atoms: C18_18  and  C26_26 
ROOT
ATOM      1  C15 <0> d   1      18.110   3.204   9.947  0.00  0.00     0.272 C 
ENDROOT
BRANCH   1   2
ATOM      2  N14 <0> d   1      18.170   2.889  11.380  0.00  0.00     0.088 N 
ATOM      3  C13 <0> d   1      19.498   2.387  11.754  0.00  0.00     0.274 C 
ATOM      4  C12 <0> d   1      19.479   1.933  13.215  0.00  0.00     0.056 C 
ATOM      5  C11 <0> d   1      19.092   3.116  14.107  0.00  0.00     0.098 C 
ATOM      6  C34 <0> d   1      17.727   3.651  13.665  0.00  0.00     0.056 C 
ATOM      7  C33 <0> d   1      17.796   4.055  12.191  0.00  0.00     0.274 C 
BRANCH   5   8
ATOM      8  N10 <0> d   1      19.016   2.673  15.502  0.00  0.00    -0.293 N 
ATOM      9  C2  <0> d   1      19.428   3.375  16.574  0.00  0.00     0.328 A 
ATOM     10  O1  <0> d   1      19.925   4.484  16.537  0.00  0.00    -0.246 OA
ATOM     11  N3  <0> d   1      19.200   2.665  17.695  0.00  0.00    -0.306 N 
ATOM     12  C4  <0> d   1      18.622   1.449  17.335  0.00  0.00     0.063 A 
ATOM     13  H35 <0> d   1      19.405   2.949  18.599  0.00  0.00     0.171 HD
ATOM     14  C9  <0> d   1      18.508   1.453  15.943  0.00  0.00     0.066 A 
ATOM     15  C5  <0> d   1      18.186   0.351  18.060  0.00  0.00     0.032 A 
ATOM     16  C8  <0> d   1      17.961   0.359  15.291  0.00  0.00     0.032 A 
ATOM     17  C7  <0> d   1      17.530  -0.731  16.022  0.00  0.00     0.002 A 
ATOM     18  C6  <0> d   1      17.642  -0.735  17.402  0.00  0.00     0.002 A 
ENDBRANCH   5   8
ENDBRANCH   1   2
BRANCH   1  19
ATOM     19  C16 <0> d   1      19.255   2.497   9.220  0.00  0.00     0.031 C 
BRANCH  19  20
ATOM     20  C17 <0> d   1      18.684   1.586   8.132  0.00  0.00     0.016 C 
BRANCH  20  21
ATOM     21  C18 <0> d   1      19.366   0.219   8.200  0.00  0.00     0.051 C 
BRANCH  21  22
ATOM     22  C19 <0> d   1      19.034  -0.443   9.512  0.00  0.00    -0.049 A 
ATOM     23  C25 <0> d   1      20.048  -0.922  10.320  0.00  0.00     0.011 A 
ATOM     24  C24 <0> d   1      19.746  -1.526  11.526  0.00  0.00     0.043 A 
ATOM     25  C22 <0> d   1      18.425  -1.660  11.920  0.00  0.00     0.116 A 
ATOM     26  C21 <0> d   1      17.410  -1.184  11.108  0.00  0.00     0.043 A 
ATOM     27  F23 <0> d   1      18.127  -2.254  13.096  0.00  0.00    -0.206 F 
ATOM     28  C20 <0> d   1      17.715  -0.576   9.905  0.00  0.00     0.011 A 
ENDBRANCH  21  22
BRANCH  21  29
ATOM     29  C26 <0> d   1      18.878  -0.644   7.064  0.00  0.00    -0.049 A 
ATOM     30  C32 <0> d   1      17.934  -0.153   6.181  0.00  0.00     0.011 A 
ATOM     31  C31 <0> d   1      17.490  -0.941   5.137  0.00  0.00     0.043 A 
ATOM     32  C29 <0> d   1      17.983  -2.226   4.981  0.00  0.00     0.116 A 
ATOM     33  C28 <0> d   1      18.924  -2.718   5.870  0.00  0.00     0.043 A 
ATOM     34  F30 <0> d   1      17.546  -2.999   3.964  0.00  0.00    -0.206 F 
ATOM     35  C27 <0> d   1      19.371  -1.926   6.910  0.00  0.00     0.011 A 
ENDBRANCH  21  29
ENDBRANCH  20  21
ENDBRANCH  19  20
ENDBRANCH   1  19
TORSDOF 7
ENDMDL
MODEL 5
REMARK VINA RESULT:      -9.4      2.125      4.132
REMARK  7 active torsions:
REMARK  status: ('A' for Active; 'I' for Inactive)
REMARK    1  A    between atoms: N10_10  and  C11_11 
REMARK    2  A    between atoms: N14_14  and  C15_15 
REMARK    3  A    between atoms: C15_15  and  C16_16 
REMARK    4  A    between atoms: C16_16  and  C17_17 
REMARK    5  A    between atoms: C17_17  and  C18_18 
REMARK    6  A    between atoms: C18_18  and  C19_19 
REMARK    7  A    between atoms: C18_18  and  C26_26 
ROOT
ATOM      1  C15 <0> d   1      18.765  -1.653  12.088  0.00  0.00     0.272 C 
ENDROOT
BRANCH   1   2
ATOM      2  N14 <0> d   1      18.670  -0.684  13.187  0.00  0.00     0.088 N 
ATOM      3  C13 <0> d   1      18.002  -1.275  14.354  0.00  0.00     0.274 C 
ATOM      4  C12 <0> d   1      17.791  -0.198  15.421  0.00  0.00     0.056 C 
ATOM      5  C11 <0> d   1      19.147   0.384  15.828  0.00  0.00     0.098 C 
ATOM      6  C34 <0> d   1      19.843   0.949  14.586  0.00  0.00     0.056 C 
ATOM      7  C33 <0> d   1      19.995  -0.160  13.544  0.00  0.00     0.274 C 
BRANCH   5   8
ATOM      8  N10 <0> d   1      18.947   1.456  16.807  0.00  0.00    -0.293 N 
ATOM      9  C2  <0> d   1      19.107   1.346  18.138  0.00  0.00     0.328 A 
ATOM     10  O1  <0> d   1      19.444   0.334  18.723  0.00  0.00    -0.246 OA
ATOM     11  N3  <0> d   1      18.844   2.529  18.726  0.00  0.00    -0.306 N 
ATOM     12  C4  <0> d   1      18.493   3.443  17.734  0.00  0.00     0.063 A 
ATOM     13  H35 <0> d   1      18.889   2.713  19.677  0.00  0.00     0.171 HD
ATOM     14  C9  <0> d   1      18.555   2.761  16.517  0.00  0.00     0.066 A 
ATOM     15  C5  <0> d   1      18.130   4.780  17.758  0.00  0.00     0.032 A 
ATOM     16  C8  <0> d   1      18.253   3.424  15.337  0.00  0.00     0.032 A 
ATOM     17  C7  <0> d   1      17.892   4.757  15.372  0.00  0.00     0.002 A 
ATOM     18  C6  <0> d   1      17.831   5.433  16.578  0.00  0.00     0.002 A 
ENDBRANCH   5   8
ENDBRANCH   1   2
BRANCH   1  19
ATOM     19  C16 <0> d   1      17.437  -1.698  11.331  0.00  0.00     0.031 C 
BRANCH  19  20
ATOM     20  C17 <0> d   1      17.105  -0.303  10.799  0.00  0.00     0.016 C 
BRANCH  20  21
ATOM     21  C18 <0> d   1      18.368   0.337  10.219  0.00  0.00     0.051 C 
BRANCH  21  22
ATOM     22  C19 <0> d   1      18.265   0.383   8.717  0.00  0.00    -0.049 A 
ATOM     23  C25 <0> d   1      19.218   1.058   7.979  0.00  0.00     0.011 A 
ATOM     24  C24 <0> d   1      19.128   1.098   6.601  0.00  0.00     0.043 A 
ATOM     25  C22 <0> d   1      18.075   0.468   5.959  0.00  0.00     0.116 A 
ATOM     26  C21 <0> d   1      17.118  -0.205   6.699  0.00  0.00     0.043 A 
ATOM     27  F23 <0> d   1      17.983   0.509   4.612  0.00  0.00    -0.206 F 
ATOM     28  C20 <0> d   1      17.213  -0.246   8.077  0.00  0.00     0.011 A 
ENDBRANCH  21  22
BRANCH  21  29
ATOM     29  C26 <0> d   1      18.513   1.739  10.756  0.00  0.00    -0.049 A 
ATOM     30  C32 <0> d   1      17.410   2.570  10.822  0.00  0.00     0.011 A 
ATOM     31  C31 <0> d   1      17.541   3.853  11.318  0.00  0.00     0.043 A 
ATOM     32  C29 <0> d   1      18.779   4.309  11.739  0.00  0.00     0.116 A 
ATOM     33  C28 <0> d   1      19.884   3.477  11.667  0.00  0.00     0.043 A 
ATOM     34  F30 <0> d   1      18.910   5.565  12.219  0.00  0.00    -0.206 F 
ATOM     35  C27 <0> d   1      19.749   2.193  11.175  0.00  0.00     0.011 A 
ENDBRANCH  21  29
ENDBRANCH  20  21
ENDBRANCH  19  20
ENDBRANCH   1  19
TORSDOF 7
ENDMDL
MODEL 6
REMARK VINA RESULT:      -9.4      4.447      7.858
REMARK  7 active torsions:
REMARK  status: ('A' for Active; 'I' for Inactive)
REMARK    1  A    between atoms: N10_10  and  C11_11 
REMARK    2  A    between atoms: N14_14  and  C15_15 
REMARK    3  A    between atoms: C15_15  and  C16_16 
REMARK    4  A    between atoms: C16_16  and  C17_17 
REMARK    5  A    between atoms: C17_17  and  C18_18 
REMARK    6  A    between atoms: C18_18  and  C19_19 
REMARK    7  A    between atoms: C18_18  and  C26_26 
ROOT
ATOM      1  C15 <0> d   1      19.021   2.284   8.916  0.00  0.00     0.272 C 
ENDROOT
BRANCH   1   2
ATOM      2  N14 <0> d   1      18.797   0.832   8.914  0.00  0.00     0.088 N 
ATOM      3  C13 <0> d   1      18.273   0.383   7.618  0.00  0.00     0.274 C 
ATOM      4  C12 <0> d   1      17.915  -1.104   7.700  0.00  0.00     0.056 C 
ATOM      5  C11 <0> d   1      19.166  -1.905   8.070  0.00  0.00     0.098 C 
ATOM      6  C34 <0> d   1      19.720  -1.384   9.400  0.00  0.00     0.056 C 
ATOM      7  C33 <0> d   1      20.025   0.110   9.269  0.00  0.00     0.274 C 
BRANCH   5   8
ATOM      8  N10 <0> d   1      18.817  -3.322   8.207  0.00  0.00    -0.293 N 
ATOM      9  C2  <0> d   1      19.044  -4.280   7.291  0.00  0.00     0.328 A 
ATOM     10  O1  <0> d   1      19.576  -4.106   6.210  0.00  0.00    -0.246 OA
ATOM     11  N3  <0> d   1      18.600  -5.464   7.753  0.00  0.00    -0.306 N 
ATOM     12  C4  <0> d   1      18.057  -5.264   9.021  0.00  0.00     0.063 A 
ATOM     13  H35 <0> d   1      18.648  -6.312   7.284  0.00  0.00     0.171 HD
ATOM     14  C9  <0> d   1      18.192  -3.904   9.308  0.00  0.00     0.066 A 
ATOM     15  C5  <0> d   1      17.466  -6.109   9.947  0.00  0.00     0.032 A 
ATOM     16  C8  <0> d   1      17.733  -3.404  10.517  0.00  0.00     0.032 A 
ATOM     17  C7  <0> d   1      17.146  -4.254  11.433  0.00  0.00     0.002 A 
ATOM     18  C6  <0> d   1      17.013  -5.602  11.150  0.00  0.00     0.002 A 
ENDBRANCH   5   8
ENDBRANCH   1   2
BRANCH   1  19
ATOM     19  C16 <0> d   1      18.003   2.956   9.839  0.00  0.00     0.031 C 
BRANCH  19  20
ATOM     20  C17 <0> d   1      18.728   3.574  11.036  0.00  0.00     0.016 C 
BRANCH  20  21
ATOM     21  C18 <0> d   1      18.054   3.120  12.331  0.00  0.00     0.051 C 
BRANCH  21  22
ATOM     22  C19 <0> d   1      18.389   1.674  12.592  0.00  0.00    -0.049 A 
ATOM     23  C25 <0> d   1      19.708   1.282  12.719  0.00  0.00     0.011 A 
ATOM     24  C24 <0> d   1      20.016  -0.042  12.963  0.00  0.00     0.043 A 
ATOM     25  C22 <0> d   1      19.002  -0.980  13.070  0.00  0.00     0.116 A 
ATOM     26  C21 <0> d   1      17.681  -0.587  12.937  0.00  0.00     0.043 A 
ATOM     27  F23 <0> d   1      19.303  -2.277  13.303  0.00  0.00    -0.206 F 
ATOM     28  C20 <0> d   1      17.376   0.739  12.698  0.00  0.00     0.011 A 
ENDBRANCH  21  22
BRANCH  21  29
ATOM     29  C26 <0> d   1      18.549   3.965  13.478  0.00  0.00    -0.049 A 
ATOM     30  C32 <0> d   1      19.524   4.920  13.261  0.00  0.00     0.011 A 
ATOM     31  C31 <0> d   1      19.975   5.698  14.311  0.00  0.00     0.043 A 
ATOM     32  C29 <0> d   1      19.456   5.513  15.581  0.00  0.00     0.116 A 
ATOM     33  C28 <0> d   1      18.483   4.552  15.798  0.00  0.00     0.043 A 
ATOM     34  F30 <0> d   1      19.899   6.269  16.609  0.00  0.00    -0.206 F 
ATOM     35  C27 <0> d   1      18.030   3.779  14.746  0.00  0.00     0.011 A 
ENDBRANCH  21  29
ENDBRANCH  20  21
ENDBRANCH  19  20
ENDBRANCH   1  19
TORSDOF 7
ENDMDL
MODEL 7
REMARK VINA RESULT:      -9.2      1.626      3.158
REMARK  7 active torsions:
REMARK  status: ('A' for Active; 'I' for Inactive)
REMARK    1  A    between atoms: N10_10  and  C11_11 
REMARK    2  A    between atoms: N14_14  and  C15_15 
REMARK    3  A    between atoms: C15_15  and  C16_16 
REMARK    4  A    between atoms: C16_16  and  C17_17 
REMARK    5  A    between atoms: C17_17  and  C18_18 
REMARK    6  A    between atoms: C18_18  and  C19_19 
REMARK    7  A    between atoms: C18_18  and  C26_26 
ROOT
ATOM      1  C15 <0> d   1      19.033   4.339  11.713  0.00  0.00     0.272 C 
ENDROOT
BRANCH   1   2
ATOM      2  N14 <0> d   1      18.705   4.277  13.143  0.00  0.00     0.088 N 
ATOM      3  C13 <0> d   1      18.649   2.886  13.610  0.00  0.00     0.274 C 
ATOM      4  C12 <0> d   1      18.163   2.854  15.061  0.00  0.00     0.056 C 
ATOM      5  C11 <0> d   1      19.125   3.665  15.934  0.00  0.00     0.098 C 
ATOM      6  C34 <0> d   1      19.203   5.097  15.396  0.00  0.00     0.056 C 
ATOM      7  C33 <0> d   1      19.658   5.064  13.936  0.00  0.00     0.274 C 
BRANCH   5   8
ATOM      8  N10 <0> d   1      18.634   3.687  17.314  0.00  0.00    -0.293 N 
ATOM      9  C2  <0> d   1      19.019   2.856  18.300  0.00  0.00     0.328 A 
ATOM     10  O1  <0> d   1      19.837   1.963  18.185  0.00  0.00    -0.246 OA
ATOM     11  N3  <0> d   1      18.368   3.167  19.437  0.00  0.00    -0.306 N 
ATOM     12  C4  <0> d   1      17.519   4.242  19.176  0.00  0.00     0.063 A 
ATOM     13  H35 <0> d   1      18.470   2.720  20.291  0.00  0.00     0.171 HD
ATOM     14  C9  <0> d   1      17.686   4.569  17.828  0.00  0.00     0.066 A 
ATOM     15  C5  <0> d   1      16.630   4.963  19.956  0.00  0.00     0.032 A 
ATOM     16  C8  <0> d   1      16.960   5.613  17.276  0.00  0.00     0.032 A 
ATOM     17  C7  <0> d   1      16.076   6.326  18.063  0.00  0.00     0.002 A 
ATOM     18  C6  <0> d   1      15.911   6.002  19.398  0.00  0.00     0.002 A 
ENDBRANCH   5   8
ENDBRANCH   1   2
BRANCH   1  19
ATOM     19  C16 <0> d   1      17.940   3.636  10.907  0.00  0.00     0.031 C 
BRANCH  19  20
ATOM     20  C17 <0> d   1      18.581   2.795   9.802  0.00  0.00     0.016 C 
BRANCH  20  21
ATOM     21  C18 <0> d   1      17.795   1.495   9.629  0.00  0.00     0.051 C 
BRANCH  21  22
ATOM     22  C19 <0> d   1      18.074   0.916   8.266  0.00  0.00    -0.049 A 
ATOM     23  C25 <0> d   1      19.034   1.491   7.455  0.00  0.00     0.011 A 
ATOM     24  C24 <0> d   1      19.295   0.960   6.206  0.00  0.00     0.043 A 
ATOM     25  C22 <0> d   1      18.585  -0.145   5.763  0.00  0.00     0.116 A 
ATOM     26  C21 <0> d   1      17.620  -0.717   6.575  0.00  0.00     0.043 A 
ATOM     27  F23 <0> d   1      18.835  -0.663   4.541  0.00  0.00    -0.206 F 
ATOM     28  C20 <0> d   1      17.365  -0.185   7.824  0.00  0.00     0.011 A 
ENDBRANCH  21  22
BRANCH  21  29
ATOM     29  C26 <0> d   1      18.215   0.508  10.689  0.00  0.00    -0.049 A 
ATOM     30  C32 <0> d   1      17.264  -0.077  11.502  0.00  0.00     0.011 A 
ATOM     31  C31 <0> d   1      17.647  -0.985  12.472  0.00  0.00     0.043 A 
ATOM     32  C29 <0> d   1      18.986  -1.300  12.633  0.00  0.00     0.116 A 
ATOM     33  C28 <0> d   1      19.938  -0.708  11.820  0.00  0.00     0.043 A 
ATOM     34  F30 <0> d   1      19.363  -2.183  13.583  0.00  0.00    -0.206 F 
ATOM     35  C27 <0> d   1      19.552   0.195  10.849  0.00  0.00     0.011 A 
ENDBRANCH  21  29
ENDBRANCH  20  21
ENDBRANCH  19  20
ENDBRANCH   1  19
TORSDOF 7
ENDMDL
MODEL 8
REMARK VINA RESULT:      -9.0      4.849      8.263
REMARK  7 active torsions:
REMARK  status: ('A' for Active; 'I' for Inactive)
REMARK    1  A    between atoms: N10_10  and  C11_11 
REMARK    2  A    between atoms: N14_14  and  C15_15 
REMARK    3  A    between atoms: C15_15  and  C16_16 
REMARK    4  A    between atoms: C16_16  and  C17_17 
REMARK    5  A    between atoms: C17_17  and  C18_18 
REMARK    6  A    between atoms: C18_18  and  C19_19 
REMARK    7  A    between atoms: C18_18  and  C26_26 
ROOT
ATOM      1  C15 <0> d   1      19.430  -1.858  12.886  0.00  0.00     0.272 C 
ENDROOT
BRANCH   1   2
ATOM      2  N14 <0> d   1      19.107  -2.555  11.635  0.00  0.00     0.088 N 
ATOM      3  C13 <0> d   1      19.959  -3.737  11.455  0.00  0.00     0.274 C 
ATOM      4  C12 <0> d   1      19.695  -4.351  10.078  0.00  0.00     0.056 C 
ATOM      5  C11 <0> d   1      18.219  -4.743   9.973  0.00  0.00     0.098 C 
ATOM      6  C34 <0> d   1      17.352  -3.504  10.214  0.00  0.00     0.056 C 
ATOM      7  C33 <0> d   1      17.683  -2.914  11.586  0.00  0.00     0.274 C 
BRANCH   5   8
ATOM      8  N10 <0> d   1      17.948  -5.279   8.637  0.00  0.00    -0.293 N 
ATOM      9  C2  <0> d   1      17.384  -6.470   8.365  0.00  0.00     0.328 A 
ATOM     10  O1  <0> d   1      17.016  -7.277   9.197  0.00  0.00    -0.246 OA
ATOM     11  N3  <0> d   1      17.282  -6.630   7.032  0.00  0.00    -0.306 N 
ATOM     12  C4  <0> d   1      17.807  -5.498   6.412  0.00  0.00     0.063 A 
ATOM     13  H35 <0> d   1      16.909  -7.402   6.579  0.00  0.00     0.171 HD
ATOM     14  C9  <0> d   1      18.233  -4.642   7.431  0.00  0.00     0.066 A 
ATOM     15  C5  <0> d   1      17.960  -5.123   5.087  0.00  0.00     0.032 A 
ATOM     16  C8  <0> d   1      18.807  -3.421   7.112  0.00  0.00     0.032 A 
ATOM     17  C7  <0> d   1      18.954  -3.056   5.788  0.00  0.00     0.002 A 
ATOM     18  C6  <0> d   1      18.532  -3.904   4.779  0.00  0.00     0.002 A 
ENDBRANCH   5   8
ENDBRANCH   1   2
BRANCH   1  19
ATOM     19  C16 <0> d   1      19.808  -0.408  12.581  0.00  0.00     0.031 C 
BRANCH  19  20
ATOM     20  C17 <0> d   1      18.634   0.292  11.893  0.00  0.00     0.016 C 
BRANCH  20  21
ATOM     21  C18 <0> d   1      19.164   1.382  10.961  0.00  0.00     0.051 C 
BRANCH  21  22
ATOM     22  C19 <0> d   1      18.780   1.059   9.540  0.00  0.00    -0.049 A 
ATOM     23  C25 <0> d   1      17.760   0.161   9.287  0.00  0.00     0.011 A 
ATOM     24  C24 <0> d   1      17.403  -0.133   7.986  0.00  0.00     0.043 A 
ATOM     25  C22 <0> d   1      18.074   0.467   6.932  0.00  0.00     0.116 A 
ATOM     26  C21 <0> d   1      19.098   1.363   7.187  0.00  0.00     0.043 A 
ATOM     27  F23 <0> d   1      17.729   0.177   5.659  0.00  0.00    -0.206 F 
ATOM     28  C20 <0> d   1      19.450   1.658   8.490  0.00  0.00     0.011 A 
ENDBRANCH  21  22
BRANCH  21  29
ATOM     29  C26 <0> d   1      18.570   2.711  11.353  0.00  0.00    -0.049 A 
ATOM     30  C32 <0> d   1      17.390   3.138  10.772  0.00  0.00     0.011 A 
ATOM     31  C31 <0> d   1      16.843   4.354  11.133  0.00  0.00     0.043 A 
ATOM     32  C29 <0> d   1      17.481   5.149  12.071  0.00  0.00     0.116 A 
ATOM     33  C28 <0> d   1      18.666   4.723  12.647  0.00  0.00     0.043 A 
ATOM     34  F30 <0> d   1      16.949   6.340  12.421  0.00  0.00    -0.206 F 
ATOM     35  C27 <0> d   1      19.209   3.504  12.288  0.00  0.00     0.011 A 
ENDBRANCH  21  29
ENDBRANCH  20  21
ENDBRANCH  19  20
ENDBRANCH   1  19
TORSDOF 7
ENDMDL
MODEL 9
REMARK VINA RESULT:      -9.0      3.868      8.748
REMARK  7 active torsions:
REMARK  status: ('A' for Active; 'I' for Inactive)
REMARK    1  A    between atoms: N10_10  and  C11_11 
REMARK    2  A    between atoms: N14_14  and  C15_15 
REMARK    3  A    between atoms: C15_15  and  C16_16 
REMARK    4  A    between atoms: C16_16  and  C17_17 
REMARK    5  A    between atoms: C17_17  and  C18_18 
REMARK    6  A    between atoms: C18_18  and  C19_19 
REMARK    7  A    between atoms: C18_18  and  C26_26 
ROOT
ATOM      1  C15 <0> d   1      18.088   2.743  10.647  0.00  0.00     0.272 C 
ENDROOT
BRANCH   1   2
ATOM      2  N14 <0> d   1      18.161   1.923   9.431  0.00  0.00     0.088 N 
ATOM      3  C13 <0> d   1      19.556   1.698   9.031  0.00  0.00     0.274 C 
ATOM      4  C12 <0> d   1      19.591   0.967   7.686  0.00  0.00     0.056 C 
ATOM      5  C11 <0> d   1      18.857  -0.370   7.819  0.00  0.00     0.098 C 
ATOM      6  C34 <0> d   1      17.421  -0.111   8.284  0.00  0.00     0.056 C 
ATOM      7  C33 <0> d   1      17.449   0.651   9.610  0.00  0.00     0.274 C 
BRANCH   5   8
ATOM      8  N10 <0> d   1      18.836  -1.048   6.520  0.00  0.00    -0.293 N 
ATOM      9  C2  <0> d   1      19.030  -0.464   5.324  0.00  0.00     0.328 A 
ATOM     10  O1  <0> d   1      19.252   0.719   5.149  0.00  0.00    -0.246 OA
ATOM     11  N3  <0> d   1      18.948  -1.389   4.349  0.00  0.00    -0.306 N 
ATOM     12  C4  <0> d   1      18.684  -2.625   4.937  0.00  0.00     0.063 A 
ATOM     13  H35 <0> d   1      19.052  -1.224   3.399  0.00  0.00     0.171 HD
ATOM     14  C9  <0> d   1      18.610  -2.408   6.315  0.00  0.00     0.066 A 
ATOM     15  C5  <0> d   1      18.501  -3.901   4.428  0.00  0.00     0.032 A 
ATOM     16  C8  <0> d   1      18.354  -3.470   7.168  0.00  0.00     0.032 A 
ATOM     17  C7  <0> d   1      18.174  -4.738   6.652  0.00  0.00     0.002 A 
ATOM     18  C6  <0> d   1      18.248  -4.953   5.287  0.00  0.00     0.002 A 
ENDBRANCH   5   8
ENDBRANCH   1   2
BRANCH   1  19
ATOM     19  C16 <0> d   1      19.198   2.327  11.612  0.00  0.00     0.031 C 
BRANCH  19  20
ATOM     20  C17 <0> d   1      18.578   1.704  12.864  0.00  0.00     0.016 C 
BRANCH  20  21
ATOM     21  C18 <0> d   1      19.416   0.502  13.305  0.00  0.00     0.051 C 
BRANCH  21  22
ATOM     22  C19 <0> d   1      19.176   0.231  14.767  0.00  0.00    -0.049 A 
ATOM     23  C25 <0> d   1      18.881   1.274  15.624  0.00  0.00     0.011 A 
ATOM     24  C24 <0> d   1      18.656   1.027  16.965  0.00  0.00     0.043 A 
ATOM     25  C22 <0> d   1      18.736  -0.267  17.452  0.00  0.00     0.116 A 
ATOM     26  C21 <0> d   1      19.036  -1.311  16.594  0.00  0.00     0.043 A 
ATOM     27  F23 <0> d   1      18.521  -0.510  18.764  0.00  0.00    -0.206 F 
ATOM     28  C20 <0> d   1      19.256  -1.061  15.253  0.00  0.00     0.011 A 
ENDBRANCH  21  22
BRANCH  21  29
ATOM     29  C26 <0> d   1      19.021  -0.709  12.498  0.00  0.00    -0.049 A 
ATOM     30  C32 <0> d   1      17.741  -1.220  12.601  0.00  0.00     0.011 A 
ATOM     31  C31 <0> d   1      17.377  -2.327  11.859  0.00  0.00     0.043 A 
ATOM     32  C29 <0> d   1      18.298  -2.930  11.018  0.00  0.00     0.116 A 
ATOM     33  C28 <0> d   1      19.582  -2.420  10.920  0.00  0.00     0.043 A 
ATOM     34  F30 <0> d   1      17.945  -4.015  10.295  0.00  0.00    -0.206 F 
ATOM     35  C27 <0> d   1      19.942  -1.310  11.660  0.00  0.00     0.011 A 
ENDBRANCH  21  29
ENDBRANCH  20  21
ENDBRANCH  19  20
ENDBRANCH   1  19
TORSDOF 7
ENDMDL
