MODEL 1
REMARK VINA RESULT:      -7.9      0.000      0.000
REMARK  8 active torsions:
REMARK  status: ('A' for Active; 'I' for Inactive)
REMARK    1  A    between atoms: C2_2  and  N4_3 
REMARK    2  A    between atoms: C2_2  and  C18_16 
REMARK    3  A    between atoms: N4_3  and  C5_4 
REMARK    4  A    between atoms: C5_4  and  C7_5 
REMARK    5  A    between atoms: C5_4  and  C15_13 
REMARK    6  A    between atoms: C7_5  and  C8_6 
REMARK    7  A    between atoms: C8_6  and  C9_7 
REMARK       I    between atoms: C18_16  and  N20_18 
REMARK    8  A    between atoms: C24_22  and  C26_23 
ROOT
ATOM      1  N4  ZIN A   1      18.037   3.479  12.789  0.00  0.00     0.111 N 
ATOM      2  H32 ZIN A   1      17.756   2.522  12.641  0.00  0.00     0.318 HD
ENDROOT
BRANCH   1   3
ATOM      3  C2  ZIN A   1      19.050   3.572  13.849  0.00  0.00     0.308 C 
ATOM      4  C1  ZIN A   1      19.464   5.033  14.033  0.00  0.00     0.053 C 
BRANCH   3   5
ATOM      5  C18 ZIN A   1      18.478   3.046  15.140  0.00  0.00     0.253 C 
ATOM      6  O19 ZIN A   1      17.880   3.792  15.886  0.00  0.00    -0.271 OA
ATOM      7  N20 ZIN A   1      18.630   1.747  15.465  0.00  0.00    -0.336 N 
ATOM      8  C24 ZIN A   1      18.124   1.105  16.688  0.00  0.00     0.188 C 
ATOM      9  C21 ZIN A   1      19.337   0.737  14.658  0.00  0.00     0.127 C 
ATOM     10  C23 ZIN A   1      18.510  -0.387  16.613  0.00  0.00     0.038 C 
ATOM     11  C22 ZIN A   1      18.725  -0.618  15.094  0.00  0.00     0.022 C 
BRANCH   8  12
ATOM     12  C26 ZIN A   1      18.748   1.736  17.905  0.00  0.00     0.196 C 
ATOM     13  O27 ZIN A   1      19.908   1.493  18.192  0.00  0.00    -0.646 OA
ATOM     14  O28 ZIN A   1      18.092   2.490  18.604  0.00  0.00    -0.646 OA
ENDBRANCH   8  12
ENDBRANCH   3   5
ENDBRANCH   1   3
BRANCH   1  15
ATOM     15  C5  ZIN A   1      18.523   4.086  11.542  0.00  0.00     0.321 C 
BRANCH  15  16
ATOM     16  C7  ZIN A   1      19.194   3.013  10.683  0.00  0.00     0.051 C 
BRANCH  16  17
ATOM     17  C8  ZIN A   1      18.288   1.783  10.601  0.00  0.00     0.041 C 
BRANCH  17  18
ATOM     18  C9  ZIN A   1      18.261   1.273   9.182  0.00  0.00    -0.058 A 
ATOM     19  C14 ZIN A   1      17.449   0.206   8.847  0.00  0.00     0.007 A 
ATOM     20  C13 ZIN A   1      17.421  -0.259   7.546  0.00  0.00     0.001 A 
ATOM     21  C12 ZIN A   1      18.213   0.337   6.582  0.00  0.00     0.000 A 
ATOM     22  C11 ZIN A   1      19.029   1.400   6.918  0.00  0.00     0.001 A 
ATOM     23  C10 ZIN A   1      19.053   1.868   8.219  0.00  0.00     0.007 A 
ENDBRANCH  17  18
ENDBRANCH  16  17
ENDBRANCH  15  16
BRANCH  15  24
ATOM     24  C15 ZIN A   1      17.362   4.680  10.787  0.00  0.00     0.207 C 
ATOM     25  O16 ZIN A   1      16.251   4.692  11.289  0.00  0.00    -0.646 OA
ATOM     26  O17 ZIN A   1      17.535   5.148   9.675  0.00  0.00    -0.646 OA
ENDBRANCH  15  24
ENDBRANCH   1  15
TORSDOF 8
ENDMDL
MODEL 2
REMARK VINA RESULT:      -7.7      4.144      8.437
REMARK  8 active torsions:
REMARK  status: ('A' for Active; 'I' for Inactive)
REMARK    1  A    between atoms: C2_2  and  N4_3 
REMARK    2  A    between atoms: C2_2  and  C18_16 
REMARK    3  A    between atoms: N4_3  and  C5_4 
REMARK    4  A    between atoms: C5_4  and  C7_5 
REMARK    5  A    between atoms: C5_4  and  C15_13 
REMARK    6  A    between atoms: C7_5  and  C8_6 
REMARK    7  A    between atoms: C8_6  and  C9_7 
REMARK       I    between atoms: C18_16  and  N20_18 
REMARK    8  A    between atoms: C24_22  and  C26_23 
ROOT
ATOM      1  N4  ZIN A   1      17.517  -2.324  11.549  0.00  0.00     0.111 N 
ATOM      2  H32 ZIN A   1      16.667  -2.242  11.013  0.00  0.00     0.318 HD
ENDROOT
BRANCH   1   3
ATOM      3  C2  ZIN A   1      18.684  -2.465  10.667  0.00  0.00     0.308 C 
ATOM      4  C1  ZIN A   1      19.355  -3.817  10.920  0.00  0.00     0.053 C 
BRANCH   3   5
ATOM      5  C18 ZIN A   1      18.238  -2.387   9.229  0.00  0.00     0.253 C 
ATOM      6  O19 ZIN A   1      17.543  -3.264   8.761  0.00  0.00    -0.271 OA
ATOM      7  N20 ZIN A   1      18.613  -1.344   8.463  0.00  0.00    -0.336 N 
ATOM      8  C24 ZIN A   1      18.252  -1.144   7.051  0.00  0.00     0.188 C 
ATOM      9  C21 ZIN A   1      19.459  -0.218   8.899  0.00  0.00     0.127 C 
ATOM     10  C23 ZIN A   1      18.879   0.193   6.604  0.00  0.00     0.038 C 
ATOM     11  C22 ZIN A   1      19.093   0.945   7.944  0.00  0.00     0.022 C 
BRANCH   8  12
ATOM     12  C26 ZIN A   1      18.792  -2.271   6.209  0.00  0.00     0.196 C 
ATOM     13  O27 ZIN A   1      18.054  -2.871   5.447  0.00  0.00    -0.646 OA
ATOM     14  O28 ZIN A   1      19.968  -2.582   6.291  0.00  0.00    -0.646 OA
ENDBRANCH   8  12
ENDBRANCH   3   5
ENDBRANCH   1   3
BRANCH   1  15
ATOM     15  C5  ZIN A   1      17.681  -1.181  12.458  0.00  0.00     0.321 C 
BRANCH  15  16
ATOM     16  C7  ZIN A   1      19.171  -0.932  12.699  0.00  0.00     0.051 C 
BRANCH  16  17
ATOM     17  C8  ZIN A   1      19.581  -1.551  14.037  0.00  0.00     0.041 C 
BRANCH  17  18
ATOM     18  C9  ZIN A   1      18.920  -0.796  15.163  0.00  0.00    -0.058 A 
ATOM     19  C14 ZIN A   1      18.147  -1.471  16.087  0.00  0.00     0.007 A 
ATOM     20  C13 ZIN A   1      17.545  -0.780  17.122  0.00  0.00     0.001 A 
ATOM     21  C12 ZIN A   1      17.709   0.589  17.226  0.00  0.00     0.000 A 
ATOM     22  C11 ZIN A   1      18.479   1.265  16.299  0.00  0.00     0.001 A 
ATOM     23  C10 ZIN A   1      19.085   0.573  15.266  0.00  0.00     0.007 A 
ENDBRANCH  17  18
ENDBRANCH  16  17
ENDBRANCH  15  16
BRANCH  15  24
ATOM     24  C15 ZIN A   1      17.061   0.045  11.839  0.00  0.00     0.207 C 
ATOM     25  O16 ZIN A   1      15.903   0.016  11.457  0.00  0.00    -0.646 OA
ATOM     26  O17 ZIN A   1      17.716   1.066  11.720  0.00  0.00    -0.646 OA
ENDBRANCH  15  24
ENDBRANCH   1  15
TORSDOF 8
ENDMDL
MODEL 3
REMARK VINA RESULT:      -7.5      1.931      2.418
REMARK  8 active torsions:
REMARK  status: ('A' for Active; 'I' for Inactive)
REMARK    1  A    between atoms: C2_2  and  N4_3 
REMARK    2  A    between atoms: C2_2  and  C18_16 
REMARK    3  A    between atoms: N4_3  and  C5_4 
REMARK    4  A    between atoms: C5_4  and  C7_5 
REMARK    5  A    between atoms: C5_4  and  C15_13 
REMARK    6  A    between atoms: C7_5  and  C8_6 
REMARK    7  A    between atoms: C8_6  and  C9_7 
REMARK       I    between atoms: C18_16  and  N20_18 
REMARK    8  A    between atoms: C24_22  and  C26_23 
ROOT
ATOM      1  N4  ZIN A   1      17.513   2.608  11.556  0.00  0.00     0.111 N 
ATOM      2  H32 ZIN A   1      16.671   2.544  12.106  0.00  0.00     0.318 HD
ENDROOT
BRANCH   1   3
ATOM      3  C2  ZIN A   1      18.701   2.667  12.418  0.00  0.00     0.308 C 
ATOM      4  C1  ZIN A   1      19.446   3.981  12.172  0.00  0.00     0.053 C 
BRANCH   3   5
ATOM      5  C18 ZIN A   1      18.278   2.593  13.862  0.00  0.00     0.253 C 
ATOM      6  O19 ZIN A   1      17.605   3.480  14.343  0.00  0.00    -0.271 OA
ATOM      7  N20 ZIN A   1      18.647   1.541  14.620  0.00  0.00    -0.336 N 
ATOM      8  C24 ZIN A   1      18.304   1.343  16.036  0.00  0.00     0.188 C 
ATOM      9  C21 ZIN A   1      19.466   0.402  14.168  0.00  0.00     0.127 C 
ATOM     10  C23 ZIN A   1      18.916  -0.005  16.470  0.00  0.00     0.038 C 
ATOM     11  C22 ZIN A   1      19.095  -0.757  15.126  0.00  0.00     0.022 C 
BRANCH   8  12
ATOM     12  C26 ZIN A   1      18.877   2.459  16.873  0.00  0.00     0.196 C 
ATOM     13  O27 ZIN A   1      20.057   2.748  16.779  0.00  0.00    -0.646 OA
ATOM     14  O28 ZIN A   1      18.157   3.072  17.643  0.00  0.00    -0.646 OA
ENDBRANCH   8  12
ENDBRANCH   3   5
ENDBRANCH   1   3
BRANCH   1  15
ATOM     15  C5  ZIN A   1      17.609   1.491  10.605  0.00  0.00     0.321 C 
BRANCH  15  16
ATOM     16  C7  ZIN A   1      19.063   1.324  10.161  0.00  0.00     0.051 C 
BRANCH  16  17
ATOM     17  C8  ZIN A   1      19.246   1.939   8.772  0.00  0.00     0.041 C 
BRANCH  17  18
ATOM     18  C9  ZIN A   1      19.155   0.856   7.727  0.00  0.00    -0.058 A 
ATOM     19  C14 ZIN A   1      19.334  -0.466   8.084  0.00  0.00     0.007 A 
ATOM     20  C13 ZIN A   1      19.247  -1.459   7.127  0.00  0.00     0.001 A 
ATOM     21  C12 ZIN A   1      18.989  -1.128   5.809  0.00  0.00     0.000 A 
ATOM     22  C11 ZIN A   1      18.815   0.195   5.451  0.00  0.00     0.001 A 
ATOM     23  C10 ZIN A   1      18.898   1.188   6.410  0.00  0.00     0.007 A 
ENDBRANCH  17  18
ENDBRANCH  16  17
ENDBRANCH  15  16
BRANCH  15  24
ATOM     24  C15 ZIN A   1      17.139   0.224  11.271  0.00  0.00     0.207 C 
ATOM     25  O16 ZIN A   1      17.870  -0.752  11.311  0.00  0.00    -0.646 OA
ATOM     26  O17 ZIN A   1      16.027   0.173  11.768  0.00  0.00    -0.646 OA
ENDBRANCH  15  24
ENDBRANCH   1  15
TORSDOF 8
ENDMDL
MODEL 4
REMARK VINA RESULT:      -7.5      1.987      2.524
REMARK  8 active torsions:
REMARK  status: ('A' for Active; 'I' for Inactive)
REMARK    1  A    between atoms: C2_2  and  N4_3 
REMARK    2  A    between atoms: C2_2  and  C18_16 
REMARK    3  A    between atoms: N4_3  and  C5_4 
REMARK    4  A    between atoms: C5_4  and  C7_5 
REMARK    5  A    between atoms: C5_4  and  C15_13 
REMARK    6  A    between atoms: C7_5  and  C8_6 
REMARK    7  A    between atoms: C8_6  and  C9_7 
REMARK       I    between atoms: C18_16  and  N20_18 
REMARK    8  A    between atoms: C24_22  and  C26_23 
ROOT
ATOM      1  N4  ZIN A   1      17.640   2.680  11.869  0.00  0.00     0.111 N 
ATOM      2  H32 ZIN A   1      17.380   1.822  11.407  0.00  0.00     0.318 HD
ENDROOT
BRANCH   1   3
ATOM      3  C2  ZIN A   1      18.505   2.412  13.027  0.00  0.00     0.308 C 
ATOM      4  C1  ZIN A   1      18.341   3.532  14.057  0.00  0.00     0.053 C 
BRANCH   3   5
ATOM      5  C18 ZIN A   1      18.117   1.096  13.650  0.00  0.00     0.253 C 
ATOM      6  O19 ZIN A   1      17.277   1.064  14.525  0.00  0.00    -0.271 OA
ATOM      7  N20 ZIN A   1      18.702  -0.045  13.236  0.00  0.00    -0.336 N 
ATOM      8  C24 ZIN A   1      18.419  -1.391  13.756  0.00  0.00     0.188 C 
ATOM      9  C21 ZIN A   1      19.737  -0.149  12.191  0.00  0.00     0.127 C 
ATOM     10  C23 ZIN A   1      19.301  -2.380  12.966  0.00  0.00     0.038 C 
ATOM     11  C22 ZIN A   1      19.623  -1.601  11.664  0.00  0.00     0.022 C 
BRANCH   8  12
ATOM     12  C26 ZIN A   1      18.753  -1.465  15.223  0.00  0.00     0.196 C 
ATOM     13  O27 ZIN A   1      19.897  -1.279  15.599  0.00  0.00    -0.646 OA
ATOM     14  O28 ZIN A   1      17.877  -1.711  16.035  0.00  0.00    -0.646 OA
ENDBRANCH   8  12
ENDBRANCH   3   5
ENDBRANCH   1   3
BRANCH   1  15
ATOM     15  C5  ZIN A   1      18.288   3.609  10.933  0.00  0.00     0.321 C 
BRANCH  15  16
ATOM     16  C7  ZIN A   1      18.774   2.836   9.705  0.00  0.00     0.051 C 
BRANCH  16  17
ATOM     17  C8  ZIN A   1      18.036   1.499   9.618  0.00  0.00     0.041 C 
BRANCH  17  18
ATOM     18  C9  ZIN A   1      18.127   0.964   8.212  0.00  0.00    -0.058 A 
ATOM     19  C14 ZIN A   1      17.279  -0.045   7.800  0.00  0.00     0.007 A 
ATOM     20  C13 ZIN A   1      17.359  -0.532   6.509  0.00  0.00     0.001 A 
ATOM     21  C12 ZIN A   1      18.295  -0.015   5.632  0.00  0.00     0.000 A 
ATOM     22  C11 ZIN A   1      19.147   0.991   6.046  0.00  0.00     0.001 A 
ATOM     23  C10 ZIN A   1      19.063   1.481   7.336  0.00  0.00     0.007 A 
ENDBRANCH  17  18
ENDBRANCH  16  17
ENDBRANCH  15  16
BRANCH  15  24
ATOM     24  C15 ZIN A   1      17.300   4.662  10.505  0.00  0.00     0.207 C 
ATOM     25  O16 ZIN A   1      17.589   5.446   9.617  0.00  0.00    -0.646 OA
ATOM     26  O17 ZIN A   1      16.210   4.731  11.048  0.00  0.00    -0.646 OA
ENDBRANCH  15  24
ENDBRANCH   1  15
TORSDOF 8
ENDMDL
MODEL 5
REMARK VINA RESULT:      -7.5      4.209      8.536
REMARK  8 active torsions:
REMARK  status: ('A' for Active; 'I' for Inactive)
REMARK    1  A    between atoms: C2_2  and  N4_3 
REMARK    2  A    between atoms: C2_2  and  C18_16 
REMARK    3  A    between atoms: N4_3  and  C5_4 
REMARK    4  A    between atoms: C5_4  and  C7_5 
REMARK    5  A    between atoms: C5_4  and  C15_13 
REMARK    6  A    between atoms: C7_5  and  C8_6 
REMARK    7  A    between atoms: C8_6  and  C9_7 
REMARK       I    between atoms: C18_16  and  N20_18 
REMARK    8  A    between atoms: C24_22  and  C26_23 
ROOT
ATOM      1  N4  ZIN A   1      18.252   0.692   9.956  0.00  0.00     0.111 N 
ATOM      2  H32 ZIN A   1      18.336   1.697   9.941  0.00  0.00     0.318 HD
ENDROOT
BRANCH   1   3
ATOM      3  C2  ZIN A   1      19.306   0.063   9.149  0.00  0.00     0.308 C 
ATOM      4  C1  ZIN A   1      20.357  -0.555  10.074  0.00  0.00     0.053 C 
BRANCH   3   5
ATOM      5  C18 ZIN A   1      18.702  -1.013   8.284  0.00  0.00     0.253 C 
ATOM      6  O19 ZIN A   1      18.185  -1.983   8.796  0.00  0.00    -0.271 OA
ATOM      7  N20 ZIN A   1      18.739  -0.899   6.942  0.00  0.00    -0.336 N 
ATOM      8  C24 ZIN A   1      18.190  -1.870   5.984  0.00  0.00     0.188 C 
ATOM      9  C21 ZIN A   1      19.339   0.218   6.191  0.00  0.00     0.127 C 
ATOM     10  C23 ZIN A   1      18.436  -1.306   4.569  0.00  0.00     0.038 C 
ATOM     11  C22 ZIN A   1      18.611   0.214   4.824  0.00  0.00     0.022 C 
BRANCH   8  12
ATOM     12  C26 ZIN A   1      18.884  -3.199   6.134  0.00  0.00     0.196 C 
ATOM     13  O27 ZIN A   1      20.097  -3.269   6.037  0.00  0.00    -0.646 OA
ATOM     14  O28 ZIN A   1      18.230  -4.206   6.352  0.00  0.00    -0.646 OA
ENDBRANCH   8  12
ENDBRANCH   3   5
ENDBRANCH   1   3
BRANCH   1  15
ATOM     15  C5  ZIN A   1      18.269   0.182  11.334  0.00  0.00     0.321 C 
BRANCH  15  16
ATOM     16  C7  ZIN A   1      18.448   1.349  12.306  0.00  0.00     0.051 C 
BRANCH  16  17
ATOM     17  C8  ZIN A   1      19.523   0.995  13.336  0.00  0.00     0.041 C 
BRANCH  17  18
ATOM     18  C9  ZIN A   1      18.896   0.233  14.476  0.00  0.00    -0.058 A 
ATOM     19  C14 ZIN A   1      19.413  -0.990  14.857  0.00  0.00     0.007 A 
ATOM     20  C13 ZIN A   1      18.840  -1.686  15.905  0.00  0.00     0.001 A 
ATOM     21  C12 ZIN A   1      17.744  -1.163  16.565  0.00  0.00     0.000 A 
ATOM     22  C11 ZIN A   1      17.224   0.058  16.181  0.00  0.00     0.001 A 
ATOM     23  C10 ZIN A   1      17.799   0.757  15.135  0.00  0.00     0.007 A 
ENDBRANCH  17  18
ENDBRANCH  16  17
ENDBRANCH  15  16
BRANCH  15  24
ATOM     24  C15 ZIN A   1      16.969  -0.521  11.625  0.00  0.00     0.207 C 
ATOM     25  O16 ZIN A   1      16.968  -1.704  11.922  0.00  0.00    -0.646 OA
ATOM     26  O17 ZIN A   1      15.917   0.093  11.564  0.00  0.00    -0.646 OA
ENDBRANCH  15  24
ENDBRANCH   1  15
TORSDOF 8
ENDMDL
MODEL 6
REMARK VINA RESULT:      -7.5      1.523      2.112
REMARK  8 active torsions:
REMARK  status: ('A' for Active; 'I' for Inactive)
REMARK    1  A    between atoms: C2_2  and  N4_3 
REMARK    2  A    between atoms: C2_2  and  C18_16 
REMARK    3  A    between atoms: N4_3  and  C5_4 
REMARK    4  A    between atoms: C5_4  and  C7_5 
REMARK    5  A    between atoms: C5_4  and  C15_13 
REMARK    6  A    between atoms: C7_5  and  C8_6 
REMARK    7  A    between atoms: C8_6  and  C9_7 
REMARK       I    between atoms: C18_16  and  N20_18 
REMARK    8  A    between atoms: C24_22  and  C26_23 
ROOT
ATOM      1  N4  ZIN A   1      17.927   3.374  12.764  0.00  0.00     0.111 N 
ATOM      2  H32 ZIN A   1      17.606   2.424  12.662  0.00  0.00     0.318 HD
ENDROOT
BRANCH   1   3
ATOM      3  C2  ZIN A   1      18.980   3.467  13.785  0.00  0.00     0.308 C 
ATOM      4  C1  ZIN A   1      19.450   4.918  13.904  0.00  0.00     0.053 C 
BRANCH   3   5
ATOM      5  C18 ZIN A   1      18.435   3.005  15.112  0.00  0.00     0.253 C 
ATOM      6  O19 ZIN A   1      17.887   3.796  15.850  0.00  0.00    -0.271 OA
ATOM      7  N20 ZIN A   1      18.558   1.714  15.479  0.00  0.00    -0.336 N 
ATOM      8  C24 ZIN A   1      18.074   1.132  16.740  0.00  0.00     0.188 C 
ATOM      9  C21 ZIN A   1      19.205   0.654  14.686  0.00  0.00     0.127 C 
ATOM     10  C23 ZIN A   1      18.411  -0.373  16.707  0.00  0.00     0.038 C 
ATOM     11  C22 ZIN A   1      18.567  -0.664  15.191  0.00  0.00     0.022 C 
BRANCH   8  12
ATOM     12  C26 ZIN A   1      18.759   1.785  17.913  0.00  0.00     0.196 C 
ATOM     13  O27 ZIN A   1      19.914   1.502  18.180  0.00  0.00    -0.646 OA
ATOM     14  O28 ZIN A   1      18.156   2.597  18.594  0.00  0.00    -0.646 OA
ENDBRANCH   8  12
ENDBRANCH   3   5
ENDBRANCH   1   3
BRANCH   1  15
ATOM     15  C5  ZIN A   1      18.392   3.915  11.479  0.00  0.00     0.321 C 
BRANCH  15  16
ATOM     16  C7  ZIN A   1      18.809   2.763  10.563  0.00  0.00     0.051 C 
BRANCH  16  17
ATOM     17  C8  ZIN A   1      17.652   1.771  10.432  0.00  0.00     0.041 C 
BRANCH  17  18
ATOM     18  C9  ZIN A   1      18.098   0.412  10.910  0.00  0.00    -0.058 A 
ATOM     19  C14 ZIN A   1      17.165  -0.510  11.341  0.00  0.00     0.007 A 
ATOM     20  C13 ZIN A   1      17.574  -1.757  11.775  0.00  0.00     0.001 A 
ATOM     21  C12 ZIN A   1      18.919  -2.078  11.786  0.00  0.00     0.000 A 
ATOM     22  C11 ZIN A   1      19.853  -1.153  11.360  0.00  0.00     0.001 A 
ATOM     23  C10 ZIN A   1      19.443   0.092  10.922  0.00  0.00     0.007 A 
ENDBRANCH  17  18
ENDBRANCH  16  17
ENDBRANCH  15  16
BRANCH  15  24
ATOM     24  C15 ZIN A   1      17.278   4.695  10.830  0.00  0.00     0.207 C 
ATOM     25  O16 ZIN A   1      17.460   5.237   9.753  0.00  0.00    -0.646 OA
ATOM     26  O17 ZIN A   1      16.194   4.784  11.382  0.00  0.00    -0.646 OA
ENDBRANCH  15  24
ENDBRANCH   1  15
TORSDOF 8
ENDMDL
MODEL 7
REMARK VINA RESULT:      -7.4      4.504      7.467
REMARK  8 active torsions:
REMARK  status: ('A' for Active; 'I' for Inactive)
REMARK    1  A    between atoms: C2_2  and  N4_3 
REMARK    2  A    between atoms: C2_2  and  C18_16 
REMARK    3  A    between atoms: N4_3  and  C5_4 
REMARK    4  A    between atoms: C5_4  and  C7_5 
REMARK    5  A    between atoms: C5_4  and  C15_13 
REMARK    6  A    between atoms: C7_5  and  C8_6 
REMARK    7  A    between atoms: C8_6  and  C9_7 
REMARK       I    between atoms: C18_16  and  N20_18 
REMARK    8  A    between atoms: C24_22  and  C26_23 
ROOT
ATOM      1  N4  ZIN A   1      18.314   0.319   9.808  0.00  0.00     0.111 N 
ATOM      2  H32 ZIN A   1      18.966  -0.099  10.453  0.00  0.00     0.318 HD
ENDROOT
BRANCH   1   3
ATOM      3  C2  ZIN A   1      17.664  -0.705   8.979  0.00  0.00     0.308 C 
ATOM      4  C1  ZIN A   1      17.424  -0.147   7.574  0.00  0.00     0.053 C 
BRANCH   3   5
ATOM      5  C18 ZIN A   1      18.552  -1.919   8.893  0.00  0.00     0.253 C 
ATOM      6  O19 ZIN A   1      19.341  -2.029   7.978  0.00  0.00    -0.271 OA
ATOM      7  N20 ZIN A   1      18.469  -2.884   9.830  0.00  0.00    -0.336 N 
ATOM      8  C24 ZIN A   1      19.272  -4.115   9.867  0.00  0.00     0.188 C 
ATOM      9  C21 ZIN A   1      17.554  -2.881  10.986  0.00  0.00     0.127 C 
ATOM     10  C23 ZIN A   1      18.853  -4.896  11.130  0.00  0.00     0.038 C 
ATOM     11  C22 ZIN A   1      18.236  -3.797  12.033  0.00  0.00     0.022 C 
BRANCH   8  12
ATOM     12  C26 ZIN A   1      19.008  -4.947   8.638  0.00  0.00     0.196 C 
ATOM     13  O27 ZIN A   1      17.869  -5.283   8.362  0.00  0.00    -0.646 OA
ATOM     14  O28 ZIN A   1      19.934  -5.283   7.920  0.00  0.00    -0.646 OA
ENDBRANCH   8  12
ENDBRANCH   3   5
ENDBRANCH   1   3
BRANCH   1  15
ATOM     15  C5  ZIN A   1      17.317   1.131  10.519  0.00  0.00     0.321 C 
BRANCH  15  16
ATOM     16  C7  ZIN A   1      17.168   0.615  11.952  0.00  0.00     0.051 C 
BRANCH  16  17
ATOM     17  C8  ZIN A   1      18.550   0.294  12.525  0.00  0.00     0.041 C 
BRANCH  17  18
ATOM     18  C9  ZIN A   1      18.408  -0.158  13.956  0.00  0.00    -0.058 A 
ATOM     19  C14 ZIN A   1      17.482   0.446  14.783  0.00  0.00     0.007 A 
ATOM     20  C13 ZIN A   1      17.349   0.029  16.094  0.00  0.00     0.001 A 
ATOM     21  C12 ZIN A   1      18.150  -0.988  16.580  0.00  0.00     0.000 A 
ATOM     22  C11 ZIN A   1      19.080  -1.589  15.754  0.00  0.00     0.001 A 
ATOM     23  C10 ZIN A   1      19.210  -1.174  14.441  0.00  0.00     0.007 A 
ENDBRANCH  17  18
ENDBRANCH  16  17
ENDBRANCH  15  16
BRANCH  15  24
ATOM     24  C15 ZIN A   1      17.767   2.568  10.547  0.00  0.00     0.207 C 
ATOM     25  O16 ZIN A   1      17.092   3.408  11.120  0.00  0.00    -0.646 OA
ATOM     26  O17 ZIN A   1      18.805   2.893   9.997  0.00  0.00    -0.646 OA
ENDBRANCH  15  24
ENDBRANCH   1  15
TORSDOF 8
ENDMDL
MODEL 8
REMARK VINA RESULT:      -7.4      2.614      4.777
REMARK  8 active torsions:
REMARK  status: ('A' for Active; 'I' for Inactive)
REMARK    1  A    between atoms: C2_2  and  N4_3 
REMARK    2  A    between atoms: C2_2  and  C18_16 
REMARK    3  A    between atoms: N4_3  and  C5_4 
REMARK    4  A    between atoms: C5_4  and  C7_5 
REMARK    5  A    between atoms: C5_4  and  C15_13 
REMARK    6  A    between atoms: C7_5  and  C8_6 
REMARK    7  A    between atoms: C8_6  and  C9_7 
REMARK       I    between atoms: C18_16  and  N20_18 
REMARK    8  A    between atoms: C24_22  and  C26_23 
ROOT
ATOM      1  N4  ZIN A   1      19.015   0.884  11.468  0.00  0.00     0.111 N 
ATOM      2  H32 ZIN A   1      19.693   1.489  11.904  0.00  0.00     0.318 HD
ENDROOT
BRANCH   1   3
ATOM      3  C2  ZIN A   1      17.825   0.729  12.316  0.00  0.00     0.308 C 
ATOM      4  C1  ZIN A   1      16.758  -0.064  11.559  0.00  0.00     0.053 C 
BRANCH   3   5
ATOM      5  C18 ZIN A   1      18.199  -0.007  13.576  0.00  0.00     0.253 C 
ATOM      6  O19 ZIN A   1      18.292  -1.217  13.566  0.00  0.00    -0.271 OA
ATOM      7  N20 ZIN A   1      18.429   0.677  14.714  0.00  0.00    -0.336 N 
ATOM      8  C24 ZIN A   1      18.800   0.086  16.009  0.00  0.00     0.188 C 
ATOM      9  C21 ZIN A   1      18.345   2.140  14.868  0.00  0.00     0.127 C 
ATOM     10  C23 ZIN A   1      18.987   1.250  17.005  0.00  0.00     0.038 C 
ATOM     11  C22 ZIN A   1      19.256   2.464  16.078  0.00  0.00     0.022 C 
BRANCH   8  12
ATOM     12  C26 ZIN A   1      17.710  -0.834  16.494  0.00  0.00     0.196 C 
ATOM     13  O27 ZIN A   1      16.624  -0.381  16.809  0.00  0.00    -0.646 OA
ATOM     14  O28 ZIN A   1      17.916  -2.034  16.571  0.00  0.00    -0.646 OA
ENDBRANCH   8  12
ENDBRANCH   3   5
ENDBRANCH   1   3
BRANCH   1  15
ATOM     15  C5  ZIN A   1      18.648   1.379  10.133  0.00  0.00     0.321 C 
BRANCH  15  16
ATOM     16  C7  ZIN A   1      19.007   2.862  10.024  0.00  0.00     0.051 C 
BRANCH  16  17
ATOM     17  C8  ZIN A   1      17.780   3.710  10.366  0.00  0.00     0.041 C 
BRANCH  17  18
ATOM     18  C9  ZIN A   1      18.012   4.427  11.671  0.00  0.00    -0.058 A 
ATOM     19  C14 ZIN A   1      16.947   4.981  12.355  0.00  0.00     0.007 A 
ATOM     20  C13 ZIN A   1      17.160   5.635  13.553  0.00  0.00     0.001 A 
ATOM     21  C12 ZIN A   1      18.440   5.744  14.064  0.00  0.00     0.000 A 
ATOM     22  C11 ZIN A   1      19.506   5.195  13.377  0.00  0.00     0.001 A 
ATOM     23  C10 ZIN A   1      19.293   4.536  12.180  0.00  0.00     0.007 A 
ENDBRANCH  17  18
ENDBRANCH  16  17
ENDBRANCH  15  16
BRANCH  15  24
ATOM     24  C15 ZIN A   1      19.401   0.601   9.085  0.00  0.00     0.207 C 
ATOM     25  O16 ZIN A   1      19.290   0.899   7.908  0.00  0.00    -0.646 OA
ATOM     26  O17 ZIN A   1      20.121  -0.326   9.414  0.00  0.00    -0.646 OA
ENDBRANCH  15  24
ENDBRANCH   1  15
TORSDOF 8
ENDMDL
MODEL 9
REMARK VINA RESULT:      -7.3      5.250      8.166
REMARK  8 active torsions:
REMARK  status: ('A' for Active; 'I' for Inactive)
REMARK    1  A    between atoms: C2_2  and  N4_3 
REMARK    2  A    between atoms: C2_2  and  C18_16 
REMARK    3  A    between atoms: N4_3  and  C5_4 
REMARK    4  A    between atoms: C5_4  and  C7_5 
REMARK    5  A    between atoms: C5_4  and  C15_13 
REMARK    6  A    between atoms: C7_5  and  C8_6 
REMARK    7  A    between atoms: C8_6  and  C9_7 
REMARK       I    between atoms: C18_16  and  N20_18 
REMARK    8  A    between atoms: C24_22  and  C26_23 
ROOT
ATOM      1  N4  ZIN A   1      17.858  -2.026  10.855  0.00  0.00     0.111 N 
ATOM      2  H32 ZIN A   1      17.069  -2.184  10.249  0.00  0.00     0.318 HD
ENDROOT
BRANCH   1   3
ATOM      3  C2  ZIN A   1      19.065  -2.680  10.331  0.00  0.00     0.308 C 
ATOM      4  C1  ZIN A   1      19.839  -3.324  11.483  0.00  0.00     0.053 C 
BRANCH   3   5
ATOM      5  C18 ZIN A   1      18.669  -3.741   9.337  0.00  0.00     0.253 C 
ATOM      6  O19 ZIN A   1      18.181  -4.782   9.724  0.00  0.00    -0.271 OA
ATOM      7  N20 ZIN A   1      18.857  -3.535   8.019  0.00  0.00    -0.336 N 
ATOM      8  C24 ZIN A   1      18.518  -4.482   6.946  0.00  0.00     0.188 C 
ATOM      9  C21 ZIN A   1      19.443  -2.325   7.414  0.00  0.00     0.127 C 
ATOM     10  C23 ZIN A   1      18.882  -3.806   5.608  0.00  0.00     0.038 C 
ATOM     11  C22 ZIN A   1      18.889  -2.297   5.968  0.00  0.00     0.022 C 
BRANCH   8  12
ATOM     12  C26 ZIN A   1      19.303  -5.757   7.107  0.00  0.00     0.196 C 
ATOM     13  O27 ZIN A   1      18.726  -6.831   7.133  0.00  0.00    -0.646 OA
ATOM     14  O28 ZIN A   1      20.518  -5.715   7.212  0.00  0.00    -0.646 OA
ENDBRANCH   8  12
ENDBRANCH   3   5
ENDBRANCH   1   3
BRANCH   1  15
ATOM     15  C5  ZIN A   1      18.087  -0.588  11.059  0.00  0.00     0.321 C 
BRANCH  15  16
ATOM     16  C7  ZIN A   1      18.074   0.126   9.706  0.00  0.00     0.051 C 
BRANCH  16  17
ATOM     17  C8  ZIN A   1      19.287   1.053   9.607  0.00  0.00     0.041 C 
BRANCH  17  18
ATOM     18  C9  ZIN A   1      19.015   2.320  10.377  0.00  0.00    -0.058 A 
ATOM     19  C14 ZIN A   1      19.810   2.657  11.456  0.00  0.00     0.007 A 
ATOM     20  C13 ZIN A   1      19.563   3.821  12.160  0.00  0.00     0.001 A 
ATOM     21  C12 ZIN A   1      18.515   4.643  11.790  0.00  0.00     0.000 A 
ATOM     22  C11 ZIN A   1      17.717   4.304  10.714  0.00  0.00     0.001 A 
ATOM     23  C10 ZIN A   1      17.967   3.142  10.008  0.00  0.00     0.007 A 
ENDBRANCH  17  18
ENDBRANCH  16  17
ENDBRANCH  15  16
BRANCH  15  24
ATOM     24  C15 ZIN A   1      16.997  -0.026  11.934  0.00  0.00     0.207 C 
ATOM     25  O16 ZIN A   1      17.233   0.255  13.098  0.00  0.00    -0.646 OA
ATOM     26  O17 ZIN A   1      15.879   0.148  11.480  0.00  0.00    -0.646 OA
ENDBRANCH  15  24
ENDBRANCH   1  15
TORSDOF 8
ENDMDL
