MODEL 1
REMARK VINA RESULT:      -8.2      0.000      0.000
REMARK  10 active torsions:
REMARK  status: ('A' for Active; 'I' for Inactive)
REMARK    1  A    between atoms: O2_2  and  C3_3 
REMARK    2  A    between atoms: C8_8  and  O9_9 
REMARK    3  A    between atoms: O9_9  and  C10_10 
REMARK    4  A    between atoms: C10_10  and  C11_11 
REMARK    5  A    between atoms: C11_11  and  O13_12 
REMARK    6  A    between atoms: C11_11  and  C14_13 
REMARK    7  A    between atoms: C14_13  and  N15_14 
REMARK    8  A    between atoms: N19_18  and  C20_19 
REMARK    9  A    between atoms: C20_19  and  C21_20 
REMARK       I    between atoms: C21_20  and  N23_22 
REMARK   10  A    between atoms: N23_22  and  C24_23 
ROOT
ATOM      1  N15 ZIN A   1      17.828   2.790  10.750  0.00  0.00    -0.065 N 
ATOM      2  H16 ZIN A   1      17.296   3.102   9.952  0.00  0.00     0.280 HD
ATOM      3  C17 ZIN A   1      17.419   1.425  11.107  0.00  0.00     0.265 C 
ATOM      4  C18 ZIN A   1      17.662   0.493   9.918  0.00  0.00     0.300 C 
ATOM      5  N19 ZIN A   1      19.088   0.518   9.563  0.00  0.00     0.100 N 
ATOM      6  C32 ZIN A   1      19.518   1.884   9.228  0.00  0.00     0.300 C 
ATOM      7  C33 ZIN A   1      19.259   2.804  10.422  0.00  0.00     0.265 C 
ENDROOT
BRANCH   1   8
ATOM      8  C14 ZIN A   1      17.577   3.688  11.886  0.00  0.00     0.268 C 
BRANCH   8   9
ATOM      9  C11 ZIN A   1      18.704   3.543  12.909  0.00  0.00     0.168 C 
BRANCH   9  10
ATOM     10  C10 ZIN A   1      18.125   3.063  14.241  0.00  0.00     0.209 C 
BRANCH  10  11
ATOM     11  O9  ZIN A   1      19.166   2.487  15.033  0.00  0.00    -0.346 OA
BRANCH  11  12
ATOM     12  C8  ZIN A   1      18.941   1.245  15.541  0.00  0.00     0.102 A 
ATOM     13  C3  ZIN A   1      19.166   0.992  16.890  0.00  0.00     0.101 A 
ATOM     14  C4  ZIN A   1      18.936  -0.275  17.403  0.00  0.00     0.039 A 
ATOM     15  C5  ZIN A   1      18.486  -1.284  16.573  0.00  0.00     0.003 A 
ATOM     16  C6  ZIN A   1      18.267  -1.034  15.231  0.00  0.00     0.003 A 
ATOM     17  C7  ZIN A   1      18.496   0.227  14.713  0.00  0.00     0.039 A 
BRANCH  13  18
ATOM     18  O2  ZIN A   1      19.609   1.987  17.706  0.00  0.00    -0.353 OA
ATOM     19  C1  ZIN A   1      18.618   2.719  18.431  0.00  0.00     0.210 C 
ENDBRANCH  13  18
ENDBRANCH  11  12
ENDBRANCH  10  11
ENDBRANCH   9  10
BRANCH   9  20
ATOM     20  O13 ZIN A   1      19.345   4.806  13.095  0.00  0.00    -0.392 OA
ATOM     21  H43 ZIN A   1      18.982   5.327  13.825  0.00  0.00     0.210 HD
ENDBRANCH   9  20
ENDBRANCH   8   9
ENDBRANCH   1   8
BRANCH   5  22
ATOM     22  C20 ZIN A   1      19.373  -0.409   8.460  0.00  0.00     0.375 C 
BRANCH  22  23
ATOM     23  C21 ZIN A   1      18.721  -1.738   8.739  0.00  0.00     0.250 C 
ATOM     24  O22 ZIN A   1      17.692  -2.040   8.171  0.00  0.00    -0.271 OA
ATOM     25  N23 ZIN A   1      19.281  -2.593   9.617  0.00  0.00    -0.325 N 
ATOM     26  H52 ZIN A   1      20.138  -2.383  10.020  0.00  0.00     0.169 HD
BRANCH  25  27
ATOM     27  C24 ZIN A   1      18.626  -3.784   9.949  0.00  0.00     0.046 A 
ATOM     28  C30 ZIN A   1      17.783  -3.831  11.051  0.00  0.00    -0.035 A 
ATOM     29  C29 ZIN A   1      17.134  -5.006  11.373  0.00  0.00     0.009 A 
ATOM     30  C31 ZIN A   1      17.567  -2.597  11.888  0.00  0.00     0.050 C 
ATOM     31  C28 ZIN A   1      17.333  -6.140  10.606  0.00  0.00     0.001 A 
ATOM     32  C27 ZIN A   1      18.177  -6.099   9.511  0.00  0.00     0.009 A 
ATOM     33  C25 ZIN A   1      18.824  -4.924   9.180  0.00  0.00    -0.035 A 
ATOM     34  C26 ZIN A   1      19.743  -4.880   7.987  0.00  0.00     0.050 C 
ENDBRANCH  25  27
ENDBRANCH  22  23
ENDBRANCH   5  22
TORSDOF 10
ENDMDL
MODEL 2
REMARK VINA RESULT:      -8.1      2.326      8.992
REMARK  10 active torsions:
REMARK  status: ('A' for Active; 'I' for Inactive)
REMARK    1  A    between atoms: O2_2  and  C3_3 
REMARK    2  A    between atoms: C8_8  and  O9_9 
REMARK    3  A    between atoms: O9_9  and  C10_10 
REMARK    4  A    between atoms: C10_10  and  C11_11 
REMARK    5  A    between atoms: C11_11  and  O13_12 
REMARK    6  A    between atoms: C11_11  and  C14_13 
REMARK    7  A    between atoms: C14_13  and  N15_14 
REMARK    8  A    between atoms: N19_18  and  C20_19 
REMARK    9  A    between atoms: C20_19  and  C21_20 
REMARK       I    between atoms: C21_20  and  N23_22 
REMARK   10  A    between atoms: N23_22  and  C24_23 
ROOT
ATOM      1  N15 ZIN A   1      18.777  -3.522  10.257  0.00  0.00    -0.065 N 
ATOM      2  H16 ZIN A   1      18.700  -3.042   9.374  0.00  0.00     0.280 HD
ATOM      3  C17 ZIN A   1      19.957  -3.027  10.981  0.00  0.00     0.265 C 
ATOM      4  C18 ZIN A   1      19.817  -1.522  11.212  0.00  0.00     0.300 C 
ATOM      5  N19 ZIN A   1      18.598  -1.259  11.990  0.00  0.00     0.100 N 
ATOM      6  C32 ZIN A   1      17.411  -1.772  11.289  0.00  0.00     0.300 C 
ATOM      7  C33 ZIN A   1      17.571  -3.275  11.056  0.00  0.00     0.265 C 
ENDROOT
BRANCH   1   8
ATOM      8  C14 ZIN A   1      18.920  -4.965  10.018  0.00  0.00     0.268 C 
BRANCH   8   9
ATOM      9  C11 ZIN A   1      19.401  -5.199   8.585  0.00  0.00     0.168 C 
BRANCH   9  10
ATOM     10  C10 ZIN A   1      18.753  -4.171   7.656  0.00  0.00     0.209 C 
BRANCH  10  11
ATOM     11  O9  ZIN A   1      19.674  -3.107   7.406  0.00  0.00    -0.346 OA
BRANCH  11  12
ATOM     12  C8  ZIN A   1      19.162  -1.955   6.897  0.00  0.00     0.102 A 
ATOM     13  C3  ZIN A   1      19.081  -1.777   5.518  0.00  0.00     0.101 A 
ATOM     14  C4  ZIN A   1      18.560  -0.601   5.004  0.00  0.00     0.039 A 
ATOM     15  C5  ZIN A   1      18.124   0.394   5.859  0.00  0.00     0.003 A 
ATOM     16  C6  ZIN A   1      18.209   0.220   7.227  0.00  0.00     0.003 A 
ATOM     17  C7  ZIN A   1      18.730  -0.951   7.747  0.00  0.00     0.039 A 
BRANCH  13  18
ATOM     18  O2  ZIN A   1      19.510  -2.758   4.679  0.00  0.00    -0.353 OA
ATOM     19  C1  ZIN A   1      18.506  -3.504   3.987  0.00  0.00     0.210 C 
ENDBRANCH  13  18
ENDBRANCH  11  12
ENDBRANCH  10  11
ENDBRANCH   9  10
BRANCH   9  20
ATOM     20  O13 ZIN A   1      19.034  -6.516   8.169  0.00  0.00    -0.392 OA
ATOM     21  H43 ZIN A   1      18.505  -7.000   8.817  0.00  0.00     0.210 HD
ENDBRANCH   9  20
ENDBRANCH   8   9
ENDBRANCH   1   8
BRANCH   5  22
ATOM     22  C20 ZIN A   1      18.458   0.174  12.283  0.00  0.00     0.375 C 
BRANCH  22  23
ATOM     23  C21 ZIN A   1      18.914   0.446  13.693  0.00  0.00     0.250 C 
ATOM     24  O22 ZIN A   1      20.098   0.448  13.958  0.00  0.00    -0.271 OA
ATOM     25  N23 ZIN A   1      18.007   0.689  14.659  0.00  0.00    -0.325 N 
ATOM     26  H52 ZIN A   1      17.065   0.755  14.436  0.00  0.00     0.169 HD
BRANCH  25  27
ATOM     27  C24 ZIN A   1      18.423   0.845  15.986  0.00  0.00     0.046 A 
ATOM     28  C30 ZIN A   1      18.792   2.098  16.457  0.00  0.00    -0.035 A 
ATOM     29  C29 ZIN A   1      19.197   2.250  17.769  0.00  0.00     0.009 A 
ATOM     30  C31 ZIN A   1      18.739   3.293  15.541  0.00  0.00     0.050 C 
ATOM     31  C28 ZIN A   1      19.246   1.153  18.609  0.00  0.00     0.001 A 
ATOM     32  C27 ZIN A   1      18.885  -0.098  18.142  0.00  0.00     0.009 A 
ATOM     33  C25 ZIN A   1      18.473  -0.255  16.833  0.00  0.00    -0.035 A 
ATOM     34  C26 ZIN A   1      18.080  -1.617  16.325  0.00  0.00     0.050 C 
ENDBRANCH  25  27
ENDBRANCH  22  23
ENDBRANCH   5  22
TORSDOF 10
ENDMDL
MODEL 3
REMARK VINA RESULT:      -8.1      2.334      9.035
REMARK  10 active torsions:
REMARK  status: ('A' for Active; 'I' for Inactive)
REMARK    1  A    between atoms: O2_2  and  C3_3 
REMARK    2  A    between atoms: C8_8  and  O9_9 
REMARK    3  A    between atoms: O9_9  and  C10_10 
REMARK    4  A    between atoms: C10_10  and  C11_11 
REMARK    5  A    between atoms: C11_11  and  O13_12 
REMARK    6  A    between atoms: C11_11  and  C14_13 
REMARK    7  A    between atoms: C14_13  and  N15_14 
REMARK    8  A    between atoms: N19_18  and  C20_19 
REMARK    9  A    between atoms: C20_19  and  C21_20 
REMARK       I    between atoms: C21_20  and  N23_22 
REMARK   10  A    between atoms: N23_22  and  C24_23 
ROOT
ATOM      1  N15 ZIN A   1      18.682  -3.453  10.256  0.00  0.00    -0.065 N 
ATOM      2  H16 ZIN A   1      18.571  -2.987   9.368  0.00  0.00     0.280 HD
ATOM      3  C17 ZIN A   1      19.907  -2.972  10.910  0.00  0.00     0.265 C 
ATOM      4  C18 ZIN A   1      19.813  -1.459  11.119  0.00  0.00     0.300 C 
ATOM      5  N19 ZIN A   1      18.641  -1.154  11.951  0.00  0.00     0.100 N 
ATOM      6  C32 ZIN A   1      17.410  -1.652  11.321  0.00  0.00     0.300 C 
ATOM      7  C33 ZIN A   1      17.523  -3.163  11.110  0.00  0.00     0.265 C 
ENDROOT
BRANCH   1   8
ATOM      8  C14 ZIN A   1      18.781  -4.903  10.039  0.00  0.00     0.268 C 
BRANCH   8   9
ATOM      9  C11 ZIN A   1      19.315  -5.172   8.631  0.00  0.00     0.168 C 
BRANCH   9  10
ATOM     10  C10 ZIN A   1      18.624  -4.237   7.636  0.00  0.00     0.209 C 
BRANCH  10  11
ATOM     11  O9  ZIN A   1      19.505  -3.164   7.299  0.00  0.00    -0.346 OA
BRANCH  11  12
ATOM     12  C8  ZIN A   1      18.933  -2.016   6.843  0.00  0.00     0.102 A 
ATOM     13  C3  ZIN A   1      18.880  -1.760   5.476  0.00  0.00     0.101 A 
ATOM     14  C4  ZIN A   1      18.298  -0.590   5.016  0.00  0.00     0.039 A 
ATOM     15  C5  ZIN A   1      17.775   0.321   5.914  0.00  0.00     0.003 A 
ATOM     16  C6  ZIN A   1      17.833   0.070   7.272  0.00  0.00     0.003 A 
ATOM     17  C7  ZIN A   1      18.414  -1.096   7.738  0.00  0.00     0.039 A 
BRANCH  13  18
ATOM     18  O2  ZIN A   1      19.394  -2.659   4.594  0.00  0.00    -0.353 OA
ATOM     19  C1  ZIN A   1      18.470  -3.547   3.960  0.00  0.00     0.210 C 
ENDBRANCH  13  18
ENDBRANCH  11  12
ENDBRANCH  10  11
ENDBRANCH   9  10
BRANCH   9  20
ATOM     20  O13 ZIN A   1      19.050  -6.529   8.272  0.00  0.00    -0.392 OA
ATOM     21  H43 ZIN A   1      19.741  -6.934   7.729  0.00  0.00     0.210 HD
ENDBRANCH   9  20
ENDBRANCH   8   9
ENDBRANCH   1   8
BRANCH   5  22
ATOM     22  C20 ZIN A   1      18.548   0.286  12.223  0.00  0.00     0.375 C 
BRANCH  22  23
ATOM     23  C21 ZIN A   1      18.972   0.559  13.642  0.00  0.00     0.250 C 
ATOM     24  O22 ZIN A   1      20.150   0.561  13.934  0.00  0.00    -0.271 OA
ATOM     25  N23 ZIN A   1      18.044   0.802  14.588  0.00  0.00    -0.325 N 
ATOM     26  H52 ZIN A   1      17.108   0.869  14.344  0.00  0.00     0.169 HD
BRANCH  25  27
ATOM     27  C24 ZIN A   1      18.431   0.959  15.924  0.00  0.00     0.046 A 
ATOM     28  C30 ZIN A   1      18.515  -0.147  16.759  0.00  0.00    -0.035 A 
ATOM     29  C29 ZIN A   1      18.903   0.011  18.075  0.00  0.00     0.009 A 
ATOM     30  C31 ZIN A   1      18.197  -1.520  16.225  0.00  0.00     0.050 C 
ATOM     31  C28 ZIN A   1      19.194   1.270  18.565  0.00  0.00     0.001 A 
ATOM     32  C27 ZIN A   1      19.105   2.376  17.738  0.00  0.00     0.009 A 
ATOM     33  C25 ZIN A   1      18.724   2.224  16.419  0.00  0.00    -0.035 A 
ATOM     34  C26 ZIN A   1      18.627   3.428  15.519  0.00  0.00     0.050 C 
ENDBRANCH  25  27
ENDBRANCH  22  23
ENDBRANCH   5  22
TORSDOF 10
ENDMDL
MODEL 4
REMARK VINA RESULT:      -8.1      0.972      1.686
REMARK  10 active torsions:
REMARK  status: ('A' for Active; 'I' for Inactive)
REMARK    1  A    between atoms: O2_2  and  C3_3 
REMARK    2  A    between atoms: C8_8  and  O9_9 
REMARK    3  A    between atoms: O9_9  and  C10_10 
REMARK    4  A    between atoms: C10_10  and  C11_11 
REMARK    5  A    between atoms: C11_11  and  O13_12 
REMARK    6  A    between atoms: C11_11  and  C14_13 
REMARK    7  A    between atoms: C14_13  and  N15_14 
REMARK    8  A    between atoms: N19_18  and  C20_19 
REMARK    9  A    between atoms: C20_19  and  C21_20 
REMARK       I    between atoms: C21_20  and  N23_22 
REMARK   10  A    between atoms: N23_22  and  C24_23 
ROOT
ATOM      1  N15 ZIN A   1      17.842   2.793  10.467  0.00  0.00    -0.065 N 
ATOM      2  H16 ZIN A   1      17.307   3.159   9.694  0.00  0.00     0.280 HD
ATOM      3  C17 ZIN A   1      17.381   1.433  10.779  0.00  0.00     0.265 C 
ATOM      4  C18 ZIN A   1      17.558   0.540   9.549  0.00  0.00     0.300 C 
ATOM      5  N19 ZIN A   1      18.976   0.519   9.162  0.00  0.00     0.100 N 
ATOM      6  C32 ZIN A   1      19.458   1.877   8.871  0.00  0.00     0.300 C 
ATOM      7  C33 ZIN A   1      19.264   2.759  10.106  0.00  0.00     0.265 C 
ENDROOT
BRANCH   1   8
ATOM      8  C14 ZIN A   1      17.654   3.654  11.642  0.00  0.00     0.268 C 
BRANCH   8   9
ATOM      9  C11 ZIN A   1      18.668   3.271  12.721  0.00  0.00     0.168 C 
BRANCH   9  10
ATOM     10  C10 ZIN A   1      17.930   2.915  14.013  0.00  0.00     0.209 C 
BRANCH  10  11
ATOM     11  O9  ZIN A   1      18.849   2.344  14.945  0.00  0.00    -0.346 OA
BRANCH  11  12
ATOM     12  C8  ZIN A   1      18.667   1.035  15.269  0.00  0.00     0.102 A 
ATOM     13  C3  ZIN A   1      19.429   0.051  14.646  0.00  0.00     0.101 A 
ATOM     14  C4  ZIN A   1      19.240  -1.281  14.978  0.00  0.00     0.039 A 
ATOM     15  C5  ZIN A   1      18.293  -1.630  15.923  0.00  0.00     0.003 A 
ATOM     16  C6  ZIN A   1      17.532  -0.653  16.537  0.00  0.00     0.003 A 
ATOM     17  C7  ZIN A   1      17.716   0.678  16.210  0.00  0.00     0.039 A 
BRANCH  13  18
ATOM     18  O2  ZIN A   1      20.361   0.396  13.717  0.00  0.00    -0.353 OA
ATOM     19  C1  ZIN A   1      20.181  -0.120  12.396  0.00  0.00     0.210 C 
ENDBRANCH  13  18
ENDBRANCH  11  12
ENDBRANCH  10  11
ENDBRANCH   9  10
BRANCH   9  20
ATOM     20  O13 ZIN A   1      19.546   4.372  12.963  0.00  0.00    -0.392 OA
ATOM     21  H43 ZIN A   1      19.091   5.209  13.127  0.00  0.00     0.210 HD
ENDBRANCH   9  20
ENDBRANCH   8   9
ENDBRANCH   1   8
BRANCH   5  22
ATOM     22  C20 ZIN A   1      19.197  -0.375   8.017  0.00  0.00     0.375 C 
BRANCH  22  23
ATOM     23  C21 ZIN A   1      18.633  -1.737   8.326  0.00  0.00     0.250 C 
ATOM     24  O22 ZIN A   1      17.672  -2.149   7.711  0.00  0.00    -0.271 OA
ATOM     25  N23 ZIN A   1      19.197  -2.499   9.284  0.00  0.00    -0.325 N 
ATOM     26  H52 ZIN A   1      20.006  -2.199   9.729  0.00  0.00     0.169 HD
BRANCH  25  27
ATOM     27  C24 ZIN A   1      18.616  -3.721   9.639  0.00  0.00     0.046 A 
ATOM     28  C30 ZIN A   1      17.735  -3.789  10.709  0.00  0.00    -0.035 A 
ATOM     29  C29 ZIN A   1      17.159  -4.996  11.053  0.00  0.00     0.009 A 
ATOM     30  C31 ZIN A   1      17.397  -2.543  11.488  0.00  0.00     0.050 C 
ATOM     31  C28 ZIN A   1      17.469  -6.139  10.340  0.00  0.00     0.001 A 
ATOM     32  C27 ZIN A   1      18.351  -6.077   9.276  0.00  0.00     0.009 A 
ATOM     33  C25 ZIN A   1      18.926  -4.872   8.924  0.00  0.00    -0.035 A 
ATOM     34  C26 ZIN A   1      19.886  -4.805   7.766  0.00  0.00     0.050 C 
ENDBRANCH  25  27
ENDBRANCH  22  23
ENDBRANCH   5  22
TORSDOF 10
ENDMDL
MODEL 5
REMARK VINA RESULT:      -8.1      1.723      7.419
REMARK  10 active torsions:
REMARK  status: ('A' for Active; 'I' for Inactive)
REMARK    1  A    between atoms: O2_2  and  C3_3 
REMARK    2  A    between atoms: C8_8  and  O9_9 
REMARK    3  A    between atoms: O9_9  and  C10_10 
REMARK    4  A    between atoms: C10_10  and  C11_11 
REMARK    5  A    between atoms: C11_11  and  O13_12 
REMARK    6  A    between atoms: C11_11  and  C14_13 
REMARK    7  A    between atoms: C14_13  and  N15_14 
REMARK    8  A    between atoms: N19_18  and  C20_19 
REMARK    9  A    between atoms: C20_19  and  C21_20 
REMARK       I    between atoms: C21_20  and  N23_22 
REMARK   10  A    between atoms: N23_22  and  C24_23 
ROOT
ATOM      1  N15 ZIN A   1      19.586   0.779   8.780  0.00  0.00    -0.065 N 
ATOM      2  H16 ZIN A   1      20.546   1.073   8.687  0.00  0.00     0.280 HD
ATOM      3  C17 ZIN A   1      19.437  -0.028   9.999  0.00  0.00     0.265 C 
ATOM      4  C18 ZIN A   1      19.851   0.804  11.215  0.00  0.00     0.300 C 
ATOM      5  N19 ZIN A   1      19.005   2.004  11.295  0.00  0.00     0.100 N 
ATOM      6  C32 ZIN A   1      19.124   2.809  10.070  0.00  0.00     0.300 C 
ATOM      7  C33 ZIN A   1      18.717   1.960   8.864  0.00  0.00     0.265 C 
ENDROOT
BRANCH   1   8
ATOM      8  C14 ZIN A   1      19.206  -0.027   7.611  0.00  0.00     0.268 C 
BRANCH   8   9
ATOM      9  C11 ZIN A   1      18.131  -1.037   8.017  0.00  0.00     0.168 C 
BRANCH   9  10
ATOM     10  C10 ZIN A   1      18.454  -2.400   7.402  0.00  0.00     0.209 C 
BRANCH  10  11
ATOM     11  O9  ZIN A   1      19.174  -3.192   8.349  0.00  0.00    -0.346 OA
BRANCH  11  12
ATOM     12  C8  ZIN A   1      18.498  -4.216   8.937  0.00  0.00     0.102 A 
ATOM     13  C3  ZIN A   1      18.385  -4.271  10.323  0.00  0.00     0.101 A 
ATOM     14  C4  ZIN A   1      17.697  -5.316  10.918  0.00  0.00     0.039 A 
ATOM     15  C5  ZIN A   1      17.127  -6.303  10.135  0.00  0.00     0.003 A 
ATOM     16  C6  ZIN A   1      17.244  -6.251   8.758  0.00  0.00     0.003 A 
ATOM     17  C7  ZIN A   1      17.931  -5.211   8.159  0.00  0.00     0.039 A 
BRANCH  13  18
ATOM     18  O2  ZIN A   1      18.945  -3.299  11.092  0.00  0.00    -0.353 OA
ATOM     19  C1  ZIN A   1      20.192  -3.608  11.721  0.00  0.00     0.210 C 
ENDBRANCH  13  18
ENDBRANCH  11  12
ENDBRANCH  10  11
ENDBRANCH   9  10
BRANCH   9  20
ATOM     20  O13 ZIN A   1      16.858  -0.592   7.547  0.00  0.00    -0.392 OA
ATOM     21  H43 ZIN A   1      16.178  -0.551   8.233  0.00  0.00     0.210 HD
ENDBRANCH   9  20
ENDBRANCH   8   9
ENDBRANCH   1   8
BRANCH   5  22
ATOM     22  C20 ZIN A   1      19.334   2.802  12.483  0.00  0.00     0.375 C 
BRANCH  22  23
ATOM     23  C21 ZIN A   1      18.819   2.105  13.715  0.00  0.00     0.250 C 
ATOM     24  O22 ZIN A   1      17.624   2.023  13.911  0.00  0.00    -0.271 OA
ATOM     25  N23 ZIN A   1      19.684   1.570  14.599  0.00  0.00    -0.325 N 
ATOM     26  H52 ZIN A   1      20.636   1.575  14.410  0.00  0.00     0.169 HD
BRANCH  25  27
ATOM     27  C24 ZIN A   1      19.211   1.009  15.791  0.00  0.00     0.046 A 
ATOM     28  C30 ZIN A   1      18.869  -0.336  15.839  0.00  0.00    -0.035 A 
ATOM     29  C29 ZIN A   1      18.408  -0.888  17.018  0.00  0.00     0.009 A 
ATOM     30  C31 ZIN A   1      19.014  -1.195  14.610  0.00  0.00     0.050 C 
ATOM     31  C28 ZIN A   1      18.274  -0.099  18.146  0.00  0.00     0.001 A 
ATOM     32  C27 ZIN A   1      18.607   1.242  18.100  0.00  0.00     0.009 A 
ATOM     33  C25 ZIN A   1      19.075   1.799  16.926  0.00  0.00    -0.035 A 
ATOM     34  C26 ZIN A   1      19.438   3.260  16.876  0.00  0.00     0.050 C 
ENDBRANCH  25  27
ENDBRANCH  22  23
ENDBRANCH   5  22
TORSDOF 10
ENDMDL
MODEL 6
REMARK VINA RESULT:      -8.1      2.270      8.758
REMARK  10 active torsions:
REMARK  status: ('A' for Active; 'I' for Inactive)
REMARK    1  A    between atoms: O2_2  and  C3_3 
REMARK    2  A    between atoms: C8_8  and  O9_9 
REMARK    3  A    between atoms: O9_9  and  C10_10 
REMARK    4  A    between atoms: C10_10  and  C11_11 
REMARK    5  A    between atoms: C11_11  and  O13_12 
REMARK    6  A    between atoms: C11_11  and  C14_13 
REMARK    7  A    between atoms: C14_13  and  N15_14 
REMARK    8  A    between atoms: N19_18  and  C20_19 
REMARK    9  A    between atoms: C20_19  and  C21_20 
REMARK       I    between atoms: C21_20  and  N23_22 
REMARK   10  A    between atoms: N23_22  and  C24_23 
ROOT
ATOM      1  N15 ZIN A   1      18.825  -3.570  10.352  0.00  0.00    -0.065 N 
ATOM      2  H16 ZIN A   1      18.875  -3.120   9.452  0.00  0.00     0.280 HD
ATOM      3  C17 ZIN A   1      19.961  -3.139  11.179  0.00  0.00     0.265 C 
ATOM      4  C18 ZIN A   1      19.919  -1.619  11.349  0.00  0.00     0.300 C 
ATOM      5  N19 ZIN A   1      18.653  -1.235  11.988  0.00  0.00     0.100 N 
ATOM      6  C32 ZIN A   1      17.506  -1.683  11.185  0.00  0.00     0.300 C 
ATOM      7  C33 ZIN A   1      17.568  -3.202  11.015  0.00  0.00     0.265 C 
ENDROOT
BRANCH   1   8
ATOM      8  C14 ZIN A   1      18.877  -5.028  10.173  0.00  0.00     0.268 C 
BRANCH   8   9
ATOM      9  C11 ZIN A   1      19.398  -5.351   8.772  0.00  0.00     0.168 C 
BRANCH   9  10
ATOM     10  C10 ZIN A   1      18.762  -4.399   7.759  0.00  0.00     0.209 C 
BRANCH  10  11
ATOM     11  O9  ZIN A   1      19.556  -3.215   7.652  0.00  0.00    -0.346 OA
BRANCH  11  12
ATOM     12  C8  ZIN A   1      19.255  -2.359   6.639  0.00  0.00     0.102 A 
ATOM     13  C3  ZIN A   1      18.917  -1.038   6.920  0.00  0.00     0.101 A 
ATOM     14  C4  ZIN A   1      18.610  -0.170   5.885  0.00  0.00     0.039 A 
ATOM     15  C5  ZIN A   1      18.636  -0.616   4.577  0.00  0.00     0.003 A 
ATOM     16  C6  ZIN A   1      18.966  -1.929   4.298  0.00  0.00     0.003 A 
ATOM     17  C7  ZIN A   1      19.272  -2.802   5.327  0.00  0.00     0.039 A 
BRANCH  13  18
ATOM     18  O2  ZIN A   1      18.892  -0.601   8.208  0.00  0.00    -0.353 OA
ATOM     19  C1  ZIN A   1      19.354   0.731   8.449  0.00  0.00     0.210 C 
ENDBRANCH  13  18
ENDBRANCH  11  12
ENDBRANCH  10  11
ENDBRANCH   9  10
BRANCH   9  20
ATOM     20  O13 ZIN A   1      19.061  -6.698   8.437  0.00  0.00    -0.392 OA
ATOM     21  H43 ZIN A   1      19.492  -7.361   8.994  0.00  0.00     0.210 HD
ENDBRANCH   9  20
ENDBRANCH   8   9
ENDBRANCH   1   8
BRANCH   5  22
ATOM     22  C20 ZIN A   1      18.598   0.214  12.222  0.00  0.00     0.375 C 
BRANCH  22  23
ATOM     23  C21 ZIN A   1      19.010   0.511  13.640  0.00  0.00     0.250 C 
ATOM     24  O22 ZIN A   1      20.185   0.521  13.941  0.00  0.00    -0.271 OA
ATOM     25  N23 ZIN A   1      18.073   0.766  14.575  0.00  0.00    -0.325 N 
ATOM     26  H52 ZIN A   1      17.138   0.826  14.322  0.00  0.00     0.169 HD
BRANCH  25  27
ATOM     27  C24 ZIN A   1      18.448   0.946  15.911  0.00  0.00     0.046 A 
ATOM     28  C30 ZIN A   1      18.567  -0.151  16.754  0.00  0.00    -0.035 A 
ATOM     29  C29 ZIN A   1      18.943   0.029  18.070  0.00  0.00     0.009 A 
ATOM     30  C31 ZIN A   1      18.300  -1.538  16.228  0.00  0.00     0.050 C 
ATOM     31  C28 ZIN A   1      19.187   1.302  18.553  0.00  0.00     0.001 A 
ATOM     32  C27 ZIN A   1      19.063   2.397  17.718  0.00  0.00     0.009 A 
ATOM     33  C25 ZIN A   1      18.694   2.223  16.398  0.00  0.00    -0.035 A 
ATOM     34  C26 ZIN A   1      18.559   3.417  15.490  0.00  0.00     0.050 C 
ENDBRANCH  25  27
ENDBRANCH  22  23
ENDBRANCH   5  22
TORSDOF 10
ENDMDL
MODEL 7
REMARK VINA RESULT:      -8.1      1.736      7.560
REMARK  10 active torsions:
REMARK  status: ('A' for Active; 'I' for Inactive)
REMARK    1  A    between atoms: O2_2  and  C3_3 
REMARK    2  A    between atoms: C8_8  and  O9_9 
REMARK    3  A    between atoms: O9_9  and  C10_10 
REMARK    4  A    between atoms: C10_10  and  C11_11 
REMARK    5  A    between atoms: C11_11  and  O13_12 
REMARK    6  A    between atoms: C11_11  and  C14_13 
REMARK    7  A    between atoms: C14_13  and  N15_14 
REMARK    8  A    between atoms: N19_18  and  C20_19 
REMARK    9  A    between atoms: C20_19  and  C21_20 
REMARK       I    between atoms: C21_20  and  N23_22 
REMARK   10  A    between atoms: N23_22  and  C24_23 
ROOT
ATOM      1  N15 ZIN A   1      19.587   0.882   8.930  0.00  0.00    -0.065 N 
ATOM      2  H16 ZIN A   1      20.540   1.200   8.850  0.00  0.00     0.280 HD
ATOM      3  C17 ZIN A   1      19.439   0.083  10.154  0.00  0.00     0.265 C 
ATOM      4  C18 ZIN A   1      19.812   0.936  11.368  0.00  0.00     0.300 C 
ATOM      5  N19 ZIN A   1      18.936   2.115  11.424  0.00  0.00     0.100 N 
ATOM      6  C32 ZIN A   1      19.054   2.911  10.193  0.00  0.00     0.300 C 
ATOM      7  C33 ZIN A   1      18.688   2.042   8.989  0.00  0.00     0.265 C 
ENDROOT
BRANCH   1   8
ATOM      8  C14 ZIN A   1      19.246   0.057   7.763  0.00  0.00     0.268 C 
BRANCH   8   9
ATOM      9  C11 ZIN A   1      18.310  -1.073   8.195  0.00  0.00     0.168 C 
BRANCH   9  10
ATOM     10  C10 ZIN A   1      18.969  -2.422   7.901  0.00  0.00     0.209 C 
BRANCH  10  11
ATOM     11  O9  ZIN A   1      18.020  -3.471   8.103  0.00  0.00    -0.346 OA
BRANCH  11  12
ATOM     12  C8  ZIN A   1      17.968  -4.026   9.344  0.00  0.00     0.102 A 
ATOM     13  C3  ZIN A   1      16.910  -4.861   9.690  0.00  0.00     0.101 A 
ATOM     14  C4  ZIN A   1      16.861  -5.423  10.955  0.00  0.00     0.039 A 
ATOM     15  C5  ZIN A   1      17.860  -5.152  11.872  0.00  0.00     0.003 A 
ATOM     16  C6  ZIN A   1      18.909  -4.319  11.529  0.00  0.00     0.003 A 
ATOM     17  C7  ZIN A   1      18.962  -3.753  10.268  0.00  0.00     0.039 A 
BRANCH  13  18
ATOM     18  O2  ZIN A   1      15.928  -5.127   8.788  0.00  0.00    -0.353 OA
ATOM     19  C1  ZIN A   1      15.859  -6.461   8.278  0.00  0.00     0.210 C 
ENDBRANCH  13  18
ENDBRANCH  11  12
ENDBRANCH  10  11
ENDBRANCH   9  10
BRANCH   9  20
ATOM     20  O13 ZIN A   1      17.081  -0.976   7.473  0.00  0.00    -0.392 OA
ATOM     21  H43 ZIN A   1      16.325  -1.371   7.929  0.00  0.00     0.210 HD
ENDBRANCH   9  20
ENDBRANCH   8   9
ENDBRANCH   1   8
BRANCH   5  22
ATOM     22  C20 ZIN A   1      19.225   2.932  12.609  0.00  0.00     0.375 C 
BRANCH  22  23
ATOM     23  C21 ZIN A   1      18.753   2.210  13.845  0.00  0.00     0.250 C 
ATOM     24  O22 ZIN A   1      17.566   2.055  14.041  0.00  0.00    -0.271 OA
ATOM     25  N23 ZIN A   1      19.650   1.733  14.731  0.00  0.00    -0.325 N 
ATOM     26  H52 ZIN A   1      20.600   1.796  14.541  0.00  0.00     0.169 HD
BRANCH  25  27
ATOM     27  C24 ZIN A   1      19.212   1.149  15.925  0.00  0.00     0.046 A 
ATOM     28  C30 ZIN A   1      19.095   1.919  17.074  0.00  0.00    -0.035 A 
ATOM     29  C29 ZIN A   1      18.657   1.341  18.249  0.00  0.00     0.009 A 
ATOM     30  C31 ZIN A   1      19.433   3.387  17.036  0.00  0.00     0.050 C 
ATOM     31  C28 ZIN A   1      18.348  -0.007  18.284  0.00  0.00     0.001 A 
ATOM     32  C27 ZIN A   1      18.469  -0.778  17.143  0.00  0.00     0.009 A 
ATOM     33  C25 ZIN A   1      18.900  -0.204  15.963  0.00  0.00    -0.035 A 
ATOM     34  C26 ZIN A   1      19.032  -1.045  14.720  0.00  0.00     0.050 C 
ENDBRANCH  25  27
ENDBRANCH  22  23
ENDBRANCH   5  22
TORSDOF 10
ENDMDL
MODEL 8
REMARK VINA RESULT:      -8.1      2.344      8.494
REMARK  10 active torsions:
REMARK  status: ('A' for Active; 'I' for Inactive)
REMARK    1  A    between atoms: O2_2  and  C3_3 
REMARK    2  A    between atoms: C8_8  and  O9_9 
REMARK    3  A    between atoms: O9_9  and  C10_10 
REMARK    4  A    between atoms: C10_10  and  C11_11 
REMARK    5  A    between atoms: C11_11  and  O13_12 
REMARK    6  A    between atoms: C11_11  and  C14_13 
REMARK    7  A    between atoms: C14_13  and  N15_14 
REMARK    8  A    between atoms: N19_18  and  C20_19 
REMARK    9  A    between atoms: C20_19  and  C21_20 
REMARK       I    between atoms: C21_20  and  N23_22 
REMARK   10  A    between atoms: N23_22  and  C24_23 
ROOT
ATOM      1  N15 ZIN A   1      18.606  -3.484  10.261  0.00  0.00    -0.065 N 
ATOM      2  H16 ZIN A   1      18.901  -2.672   9.742  0.00  0.00     0.280 HD
ATOM      3  C17 ZIN A   1      19.671  -3.883  11.192  0.00  0.00     0.265 C 
ATOM      4  C18 ZIN A   1      19.969  -2.728  12.150  0.00  0.00     0.300 C 
ATOM      5  N19 ZIN A   1      18.748  -2.385  12.894  0.00  0.00     0.100 N 
ATOM      6  C32 ZIN A   1      17.665  -2.008  11.973  0.00  0.00     0.300 C 
ATOM      7  C33 ZIN A   1      17.387  -3.168  11.016  0.00  0.00     0.265 C 
ENDROOT
BRANCH   1   8
ATOM      8  C14 ZIN A   1      18.333  -4.587   9.329  0.00  0.00     0.268 C 
BRANCH   8   9
ATOM      9  C11 ZIN A   1      19.516  -4.751   8.374  0.00  0.00     0.168 C 
BRANCH   9  10
ATOM     10  C10 ZIN A   1      19.138  -4.207   6.995  0.00  0.00     0.209 C 
BRANCH  10  11
ATOM     11  O9  ZIN A   1      19.998  -3.116   6.660  0.00  0.00    -0.346 OA
BRANCH  11  12
ATOM     12  C8  ZIN A   1      19.401  -1.952   6.287  0.00  0.00     0.102 A 
ATOM     13  C3  ZIN A   1      19.033  -1.017   7.250  0.00  0.00     0.101 A 
ATOM     14  C4  ZIN A   1      18.424   0.166   6.866  0.00  0.00     0.039 A 
ATOM     15  C5  ZIN A   1      18.181   0.416   5.528  0.00  0.00     0.003 A 
ATOM     16  C6  ZIN A   1      18.542  -0.515   4.571  0.00  0.00     0.003 A 
ATOM     17  C7  ZIN A   1      19.149  -1.699   4.949  0.00  0.00     0.039 A 
BRANCH  13  18
ATOM     18  O2  ZIN A   1      19.273  -1.264   8.566  0.00  0.00    -0.353 OA
ATOM     19  C1  ZIN A   1      20.198  -0.400   9.230  0.00  0.00     0.210 C 
ENDBRANCH  13  18
ENDBRANCH  11  12
ENDBRANCH  10  11
ENDBRANCH   9  10
BRANCH   9  20
ATOM     20  O13 ZIN A   1      19.853  -6.135   8.264  0.00  0.00    -0.392 OA
ATOM     21  H43 ZIN A   1      20.750  -6.298   7.942  0.00  0.00     0.210 HD
ENDBRANCH   9  20
ENDBRANCH   8   9
ENDBRANCH   1   8
BRANCH   5  22
ATOM     22  C20 ZIN A   1      19.007  -1.316  13.867  0.00  0.00     0.375 C 
BRANCH  22  23
ATOM     23  C21 ZIN A   1      19.055   0.011  13.157  0.00  0.00     0.250 C 
ATOM     24  O22 ZIN A   1      20.083   0.379  12.627  0.00  0.00    -0.271 OA
ATOM     25  N23 ZIN A   1      17.956   0.790  13.107  0.00  0.00    -0.325 N 
ATOM     26  H52 ZIN A   1      17.116   0.467  13.469  0.00  0.00     0.169 HD
BRANCH  25  27
ATOM     27  C24 ZIN A   1      18.026   2.064  12.532  0.00  0.00     0.046 A 
ATOM     28  C30 ZIN A   1      17.754   2.234  11.181  0.00  0.00    -0.035 A 
ATOM     29  C29 ZIN A   1      17.818   3.493  10.619  0.00  0.00     0.009 A 
ATOM     30  C31 ZIN A   1      17.377   1.047  10.333  0.00  0.00     0.050 C 
ATOM     31  C28 ZIN A   1      18.165   4.582  11.397  0.00  0.00     0.001 A 
ATOM     32  C27 ZIN A   1      18.443   4.416  12.741  0.00  0.00     0.009 A 
ATOM     33  C25 ZIN A   1      18.374   3.160  13.312  0.00  0.00    -0.035 A 
ATOM     34  C26 ZIN A   1      18.676   2.979  14.776  0.00  0.00     0.050 C 
ENDBRANCH  25  27
ENDBRANCH  22  23
ENDBRANCH   5  22
TORSDOF 10
ENDMDL
MODEL 9
REMARK VINA RESULT:      -8.1      2.191      5.167
REMARK  10 active torsions:
REMARK  status: ('A' for Active; 'I' for Inactive)
REMARK    1  A    between atoms: O2_2  and  C3_3 
REMARK    2  A    between atoms: C8_8  and  O9_9 
REMARK    3  A    between atoms: O9_9  and  C10_10 
REMARK    4  A    between atoms: C10_10  and  C11_11 
REMARK    5  A    between atoms: C11_11  and  O13_12 
REMARK    6  A    between atoms: C11_11  and  C14_13 
REMARK    7  A    between atoms: C14_13  and  N15_14 
REMARK    8  A    between atoms: N19_18  and  C20_19 
REMARK    9  A    between atoms: C20_19  and  C21_20 
REMARK       I    between atoms: C21_20  and  N23_22 
REMARK   10  A    between atoms: N23_22  and  C24_23 
ROOT
ATOM      1  N15 ZIN A   1      18.464  -0.147  13.515  0.00  0.00    -0.065 N 
ATOM      2  H16 ZIN A   1      19.403   0.210  13.427  0.00  0.00     0.280 HD
ATOM      3  C17 ZIN A   1      17.750   0.039  12.244  0.00  0.00     0.265 C 
ATOM      4  C18 ZIN A   1      18.491  -0.704  11.130  0.00  0.00     0.300 C 
ATOM      5  N19 ZIN A   1      18.568  -2.133  11.464  0.00  0.00     0.100 N 
ATOM      6  C32 ZIN A   1      19.258  -2.332  12.747  0.00  0.00     0.300 C 
ATOM      7  C33 ZIN A   1      18.511  -1.576  13.847  0.00  0.00     0.265 C 
ENDROOT
BRANCH   1   8
ATOM      8  C14 ZIN A   1      17.763   0.582  14.581  0.00  0.00     0.268 C 
BRANCH   8   9
ATOM      9  C11 ZIN A   1      18.695   1.639  15.174  0.00  0.00     0.168 C 
BRANCH   9  10
ATOM     10  C10 ZIN A   1      18.107   3.031  14.933  0.00  0.00     0.209 C 
BRANCH  10  11
ATOM     11  O9  ZIN A   1      18.931   3.744  14.009  0.00  0.00    -0.346 OA
BRANCH  11  12
ATOM     12  C8  ZIN A   1      18.373   4.078  12.814  0.00  0.00     0.102 A 
ATOM     13  C3  ZIN A   1      17.409   5.079  12.752  0.00  0.00     0.101 A 
ATOM     14  C4  ZIN A   1      16.842   5.416  11.533  0.00  0.00     0.039 A 
ATOM     15  C5  ZIN A   1      17.232   4.755  10.383  0.00  0.00     0.003 A 
ATOM     16  C6  ZIN A   1      18.186   3.757  10.446  0.00  0.00     0.003 A 
ATOM     17  C7  ZIN A   1      18.755   3.415  11.660  0.00  0.00     0.039 A 
BRANCH  13  18
ATOM     18  O2  ZIN A   1      17.026   5.729  13.884  0.00  0.00    -0.353 OA
ATOM     19  C1  ZIN A   1      15.622   5.915  14.082  0.00  0.00     0.210 C 
ENDBRANCH  13  18
ENDBRANCH  11  12
ENDBRANCH  10  11
ENDBRANCH   9  10
BRANCH   9  20
ATOM     20  O13 ZIN A   1      19.976   1.550  14.549  0.00  0.00    -0.392 OA
ATOM     21  H43 ZIN A   1      19.988   1.851  13.630  0.00  0.00     0.210 HD
ENDBRANCH   9  20
ENDBRANCH   8   9
ENDBRANCH   1   8
BRANCH   5  22
ATOM     22  C20 ZIN A   1      19.223  -2.891  10.390  0.00  0.00     0.375 C 
BRANCH  22  23
ATOM     23  C21 ZIN A   1      18.767  -2.366   9.054  0.00  0.00     0.250 C 
ATOM     24  O22 ZIN A   1      17.612  -2.506   8.709  0.00  0.00    -0.271 OA
ATOM     25  N23 ZIN A   1      19.641  -1.740   8.241  0.00  0.00    -0.325 N 
ATOM     26  H52 ZIN A   1      20.546  -1.567   8.544  0.00  0.00     0.169 HD
BRANCH  25  27
ATOM     27  C24 ZIN A   1      19.243  -1.339   6.961  0.00  0.00     0.046 A 
ATOM     28  C30 ZIN A   1      19.243  -2.252   5.915  0.00  0.00    -0.035 A 
ATOM     29  C29 ZIN A   1      18.844  -1.854   4.654  0.00  0.00     0.009 A 
ATOM     30  C31 ZIN A   1      19.666  -3.677   6.158  0.00  0.00     0.050 C 
ATOM     31  C28 ZIN A   1      18.457  -0.546   4.430  0.00  0.00     0.001 A 
ATOM     32  C27 ZIN A   1      18.461   0.367   5.468  0.00  0.00     0.009 A 
ATOM     33  C25 ZIN A   1      18.852  -0.025   6.733  0.00  0.00    -0.035 A 
ATOM     34  C26 ZIN A   1      18.857   0.970   7.864  0.00  0.00     0.050 C 
ENDBRANCH  25  27
ENDBRANCH  22  23
ENDBRANCH   5  22
TORSDOF 10
ENDMDL
