MODEL 1
REMARK VINA RESULT:      -5.0      0.000      0.000
REMARK  12 active torsions:
REMARK  status: ('A' for Active; 'I' for Inactive)
REMARK    1  A    between atoms: C2_2  and  C3_3 
REMARK    2  A    between atoms: C15_15  and  O16_16 
REMARK    3  A    between atoms: C18_18  and  C19_19 
REMARK    4  A    between atoms: C19_19  and  C20_20 
REMARK    5  A    between atoms: C20_20  and  O22_22 
REMARK    6  A    between atoms: C31_30  and  O32_31 
REMARK    7  A    between atoms: C31_30  and  C33_32 
REMARK    8  A    between atoms: C52_50  and  O53_51 
REMARK    9  A    between atoms: C52_50  and  C54_52 
REMARK   10  A    between atoms: C54_52  and  O56_54 
REMARK   11  A    between atoms: C58_56  and  O60_57 
REMARK   12  A    between atoms: O60_57  and  C61_58 
ROOT
ATOM      1  C3  ZIN A   1      17.411   0.093  12.203  0.00  0.00     0.037 C 
ATOM      2  C4  ZIN A   1      17.199   0.548  13.615  0.00  0.00    -0.015 C 
ATOM      3  C5  ZIN A   1      17.792  -0.012  14.626  0.00  0.00    -0.003 C 
ATOM      4  C6  ZIN A   1      18.753  -1.149  14.440  0.00  0.00     0.262 C 
ATOM      5  N7  ZIN A   1      18.389  -1.957  13.273  0.00  0.00    -0.061 N 
ATOM      6  H8  ZIN A   1      17.554  -2.491  13.460  0.00  0.00     0.280 HD
ATOM      7  C9  ZIN A   1      19.535  -2.868  12.989  0.00  0.00     0.237 C 
ATOM      8  C10 ZIN A   1      20.477  -2.023  12.098  0.00  0.00     0.046 C 
ATOM      9  C11 ZIN A   1      19.486  -1.167  11.259  0.00  0.00     0.040 C 
ATOM     10  C12 ZIN A   1      19.302  -1.840   9.927  0.00  0.00    -0.024 A 
ATOM     11  C13 ZIN A   1      19.595  -0.910   8.925  0.00  0.00     0.020 A 
ATOM     12  C14 ZIN A   1      19.524  -1.275   7.578  0.00  0.00     0.061 A 
ATOM     13  C15 ZIN A   1      19.141  -2.581   7.293  0.00  0.00     0.077 A 
ATOM     14  C18 ZIN A   1      18.842  -3.489   8.296  0.00  0.00     0.000 A 
ATOM     15  C47 ZIN A   1      18.918  -3.136   9.638  0.00  0.00     0.021 A 
ATOM     16  N48 ZIN A   1      19.910   0.327   9.465  0.00  0.00    -0.278 NA
ATOM     17  C49 ZIN A   1      21.087   0.905   8.802  0.00  0.00     0.117 C 
ATOM     18  C50 ZIN A   1      20.146   0.165  10.924  0.00  0.00     0.125 C 
ATOM     19  C52 ZIN A   1      19.483   1.345  11.627  0.00  0.00     0.190 C 
ATOM     20  C58 ZIN A   1      17.965   1.255  11.375  0.00  0.00     0.192 C 
ATOM     21  C64 ZIN A   1      18.236  -1.134  12.084  0.00  0.00     0.218 C 
ENDROOT
BRANCH  14  22
ATOM     22  C19 ZIN A   1      18.423  -4.904   7.921  0.00  0.00     0.121 C 
ATOM     23  C39 ZIN A   1      17.876  -4.896   6.508  0.00  0.00     0.040 A 
ATOM     24  C38 ZIN A   1      17.811  -5.847   5.554  0.00  0.00    -0.020 A 
ATOM     25  N40 ZIN A   1      17.297  -3.735   6.008  0.00  0.00    -0.357 N 
ATOM     26  C37 ZIN A   1      18.224  -7.308   5.559  0.00  0.00     0.069 C 
ATOM     27  C46 ZIN A   1      17.241  -5.225   4.359  0.00  0.00    -0.001 A 
ATOM     28  C36 ZIN A   1      16.924  -8.196   5.525  0.00  0.00     0.239 C 
ATOM     29  N28 ZIN A   1      15.988  -7.435   6.360  0.00  0.00    -0.068 N 
ATOM     30  C27 ZIN A   1      16.704  -7.348   7.676  0.00  0.00     0.239 C 
ATOM     31  H29 ZIN A   1      15.850  -6.516   5.960  0.00  0.00     0.280 HD
ATOM     32  C30 ZIN A   1      14.694  -7.965   6.744  0.00  0.00     0.272 C 
ATOM     33  C25 ZIN A   1      16.204  -5.908   8.025  0.00  0.00     0.016 C 
ATOM     34  C24 ZIN A   1      17.309  -5.363   8.926  0.00  0.00     0.037 C 
ATOM     35  C35 ZIN A   1      14.842  -6.194   8.643  0.00  0.00     0.045 C 
ATOM     36  C31 ZIN A   1      13.961  -6.967   7.652  0.00  0.00     0.082 C 
ATOM     37  C41 ZIN A   1      16.941  -3.890   4.707  0.00  0.00     0.043 A 
ATOM     38  C45 ZIN A   1      16.987  -5.723   3.078  0.00  0.00     0.014 A 
ATOM     39  C42 ZIN A   1      16.389  -3.019   3.768  0.00  0.00     0.030 A 
ATOM     40  C43 ZIN A   1      16.148  -3.533   2.505  0.00  0.00     0.002 A 
ATOM     41  C44 ZIN A   1      16.438  -4.845   2.174  0.00  0.00     0.001 A 
ATOM     42 4H10 ZIN A   1      17.138  -2.922   6.510  0.00  0.00     0.166 HD
BRANCH  36  43
ATOM     43  O32 ZIN A   1      12.986  -7.702   8.411  0.00  0.00    -0.388 OA
ATOM     44  H92 ZIN A   1      12.648  -7.226   9.183  0.00  0.00     0.210 HD
ENDBRANCH  36  43
BRANCH  36  45
ATOM     45  C33 ZIN A   1      13.203  -5.965   6.774  0.00  0.00     0.035 C 
ATOM     46  C34 ZIN A   1      13.479  -6.267   5.300  0.00  0.00     0.008 C 
ENDBRANCH  36  45
BRANCH  22  47
ATOM     47  C20 ZIN A   1      19.652  -5.770   8.041  0.00  0.00     0.278 C 
ATOM     48  O21 ZIN A   1      19.721  -6.601   8.915  0.00  0.00    -0.264 OA
BRANCH  47  49
ATOM     49  O22 ZIN A   1      20.668  -5.616   7.179  0.00  0.00    -0.325 OA
ATOM     50  C23 ZIN A   1      22.010  -5.628   7.732  0.00  0.00     0.213 C 
ENDBRANCH  47  49
ENDBRANCH  22  47
ENDBRANCH  14  22
BRANCH  13  51
ATOM     51  O16 ZIN A   1      19.060  -2.978   5.996  0.00  0.00    -0.355 OA
ATOM     52  C17 ZIN A   1      19.607  -2.098   5.014  0.00  0.00     0.210 C 
ENDBRANCH  13  51
BRANCH  19  53
ATOM     53  O53 ZIN A   1      19.740   1.273  13.031  0.00  0.00    -0.376 OA
ATOM     54 3H11 ZIN A   1      20.571   1.689  13.300  0.00  0.00     0.211 HD
ENDBRANCH  19  53
BRANCH  19  55
ATOM     55  C54 ZIN A   1      20.031   2.637  11.077  0.00  0.00     0.297 C 
ATOM     56  O55 ZIN A   1      19.828   2.938   9.925  0.00  0.00    -0.262 OA
BRANCH  55  57
ATOM     57  O56 ZIN A   1      20.745   3.453  11.868  0.00  0.00    -0.324 OA
ATOM     58  C57 ZIN A   1      20.057   4.608  12.416  0.00  0.00     0.213 C 
ENDBRANCH  55  57
ENDBRANCH  19  55
BRANCH   1  59
ATOM     59  C2  ZIN A   1      16.031  -0.238  11.631  0.00  0.00     0.014 C 
ATOM     60  C1  ZIN A   1      16.100  -0.243  10.103  0.00  0.00     0.006 C 
ENDBRANCH   1  59
BRANCH  20  61
ATOM     61  O60 ZIN A   1      17.326   2.495  11.777  0.00  0.00    -0.311 OA
BRANCH  61  62
ATOM     62  C61 ZIN A   1      17.111   3.409  10.816  0.00  0.00     0.255 C 
ATOM     63  C62 ZIN A   1      16.648   4.795  11.185  0.00  0.00     0.126 C 
ATOM     64  O63 ZIN A   1      17.288   3.119   9.657  0.00  0.00    -0.266 OA
ENDBRANCH  61  62
ENDBRANCH  20  61
TORSDOF 12
ENDMDL
MODEL 2
REMARK VINA RESULT:      -4.0      4.502     11.978
REMARK  12 active torsions:
REMARK  status: ('A' for Active; 'I' for Inactive)
REMARK    1  A    between atoms: C2_2  and  C3_3 
REMARK    2  A    between atoms: C15_15  and  O16_16 
REMARK    3  A    between atoms: C18_18  and  C19_19 
REMARK    4  A    between atoms: C19_19  and  C20_20 
REMARK    5  A    between atoms: C20_20  and  O22_22 
REMARK    6  A    between atoms: C31_30  and  O32_31 
REMARK    7  A    between atoms: C31_30  and  C33_32 
REMARK    8  A    between atoms: C52_50  and  O53_51 
REMARK    9  A    between atoms: C52_50  and  C54_52 
REMARK   10  A    between atoms: C54_52  and  O56_54 
REMARK   11  A    between atoms: C58_56  and  O60_57 
REMARK   12  A    between atoms: O60_57  and  C61_58 
ROOT
ATOM      1  C3  ZIN A   1      17.303   0.124  10.845  0.00  0.00     0.037 C 
ATOM      2  C4  ZIN A   1      17.037  -0.320   9.438  0.00  0.00    -0.015 C 
ATOM      3  C5  ZIN A   1      17.557   0.276   8.408  0.00  0.00    -0.003 C 
ATOM      4  C6  ZIN A   1      18.482   1.446   8.563  0.00  0.00     0.262 C 
ATOM      5  N7  ZIN A   1      18.147   2.224   9.759  0.00  0.00    -0.061 N 
ATOM      6  H8  ZIN A   1      17.284   2.728   9.621  0.00  0.00     0.280 HD
ATOM      7  C9  ZIN A   1      19.271   3.174   9.998  0.00  0.00     0.237 C 
ATOM      8  C10 ZIN A   1      20.288   2.354  10.828  0.00  0.00     0.046 C 
ATOM      9  C11 ZIN A   1      19.373   1.450  11.703  0.00  0.00     0.040 C 
ATOM     10  C12 ZIN A   1      19.232   2.098  13.053  0.00  0.00    -0.024 A 
ATOM     11  C13 ZIN A   1      19.610   1.167  14.024  0.00  0.00     0.020 A 
ATOM     12  C14 ZIN A   1      19.593   1.511  15.378  0.00  0.00     0.061 A 
ATOM     13  C15 ZIN A   1      19.177   2.797  15.702  0.00  0.00     0.077 A 
ATOM     14  C18 ZIN A   1      18.794   3.707  14.729  0.00  0.00     0.000 A 
ATOM     15  C47 ZIN A   1      18.814   3.374  13.380  0.00  0.00     0.021 A 
ATOM     16  N48 ZIN A   1      19.944  -0.050  13.450  0.00  0.00    -0.278 NA
ATOM     17  C49 ZIN A   1      21.174  -0.592  14.044  0.00  0.00     0.117 C 
ATOM     18  C50 ZIN A   1      20.099   0.140  11.984  0.00  0.00     0.125 C 
ATOM     19  C52 ZIN A   1      19.447  -1.055  11.297  0.00  0.00     0.190 C 
ATOM     20  C58 ZIN A   1      17.941  -1.027  11.626  0.00  0.00     0.192 C 
ATOM     21  C64 ZIN A   1      18.086   1.380  10.941  0.00  0.00     0.218 C 
ENDROOT
BRANCH  14  22
ATOM     22  C19 ZIN A   1      18.341   5.099  15.146  0.00  0.00     0.121 C 
ATOM     23  C39 ZIN A   1      17.804   5.038  16.561  0.00  0.00     0.040 A 
ATOM     24  C38 ZIN A   1      17.720   5.959  17.542  0.00  0.00    -0.020 A 
ATOM     25  N40 ZIN A   1      17.258   3.848  17.032  0.00  0.00    -0.357 N 
ATOM     26  C37 ZIN A   1      18.096   7.430  17.575  0.00  0.00     0.069 C 
ATOM     27  C46 ZIN A   1      17.174   5.290  18.722  0.00  0.00    -0.001 A 
ATOM     28  C36 ZIN A   1      16.774   8.283  17.641  0.00  0.00     0.239 C 
ATOM     29  N28 ZIN A   1      15.852   7.522  16.791  0.00  0.00    -0.068 N 
ATOM     30  C27 ZIN A   1      16.562   7.490  15.469  0.00  0.00     0.239 C 
ATOM     31  H29 ZIN A   1      15.741   6.589  17.166  0.00  0.00     0.280 HD
ATOM     32  C30 ZIN A   1      14.543   8.029  16.430  0.00  0.00     0.272 C 
ATOM     33  C25 ZIN A   1      16.096   6.048  15.082  0.00  0.00     0.016 C 
ATOM     34  C24 ZIN A   1      17.209   5.557  14.161  0.00  0.00     0.037 C 
ATOM     35  C35 ZIN A   1      14.724   6.316  14.481  0.00  0.00     0.045 C 
ATOM     36  C31 ZIN A   1      13.829   7.038  15.498  0.00  0.00     0.082 C 
ATOM     37  C41 ZIN A   1      16.906   3.958  18.339  0.00  0.00     0.043 A 
ATOM     38  C45 ZIN A   1      16.916   5.745  20.018  0.00  0.00     0.014 A 
ATOM     39  C42 ZIN A   1      16.382   3.047  19.256  0.00  0.00     0.030 A 
ATOM     40  C43 ZIN A   1      16.137   3.519  20.534  0.00  0.00     0.002 A 
ATOM     41  C44 ZIN A   1      16.395   4.829  20.900  0.00  0.00     0.001 A 
ATOM     42 4H10 ZIN A   1      17.116   3.046  16.508  0.00  0.00     0.166 HD
BRANCH  36  43
ATOM     43  O32 ZIN A   1      12.831   7.769  14.766  0.00  0.00    -0.388 OA
ATOM     44  H92 ZIN A   1      12.729   7.482  13.847  0.00  0.00     0.210 HD
ENDBRANCH  36  43
BRANCH  36  45
ATOM     45  C33 ZIN A   1      13.103   5.994  16.352  0.00  0.00     0.035 C 
ATOM     46  C34 ZIN A   1      12.396   6.688  17.517  0.00  0.00     0.008 C 
ENDBRANCH  36  45
BRANCH  22  47
ATOM     47  C20 ZIN A   1      19.546   5.999  15.043  0.00  0.00     0.278 C 
ATOM     48  O21 ZIN A   1      19.589   6.856  14.192  0.00  0.00    -0.264 OA
BRANCH  47  49
ATOM     49  O22 ZIN A   1      20.572   5.848  15.896  0.00  0.00    -0.325 OA
ATOM     50  C23 ZIN A   1      21.909   5.904  15.335  0.00  0.00     0.213 C 
ENDBRANCH  47  49
ENDBRANCH  22  47
ENDBRANCH  14  22
BRANCH  13  51
ATOM     51  O16 ZIN A   1      19.147   3.174  17.007  0.00  0.00    -0.355 OA
ATOM     52  C17 ZIN A   1      19.636   2.233  17.964  0.00  0.00     0.210 C 
ENDBRANCH  13  51
BRANCH  19  53
ATOM     53  O53 ZIN A   1      19.630  -0.955   9.883  0.00  0.00    -0.376 OA
ATOM     54 3H11 ZIN A   1      19.098  -1.581   9.373  0.00  0.00     0.211 HD
ENDBRANCH  19  53
BRANCH  19  55
ATOM     55  C54 ZIN A   1      20.071  -2.332  11.799  0.00  0.00     0.297 C 
ATOM     56  O55 ZIN A   1      20.021  -2.608  12.974  0.00  0.00    -0.262 OA
BRANCH  55  57
ATOM     57  O56 ZIN A   1      20.681  -3.163  10.941  0.00  0.00    -0.324 OA
ATOM     58  C57 ZIN A   1      20.081  -4.472  10.750  0.00  0.00     0.213 C 
ENDBRANCH  55  57
ENDBRANCH  19  55
BRANCH   1  59
ATOM     59  C2  ZIN A   1      15.942   0.394  11.490  0.00  0.00     0.014 C 
ATOM     60  C1  ZIN A   1      16.085   0.368  13.013  0.00  0.00     0.006 C 
ENDBRANCH   1  59
BRANCH  20  61
ATOM     61  O60 ZIN A   1      17.330  -2.285  11.238  0.00  0.00    -0.311 OA
BRANCH  61  62
ATOM     62  C61 ZIN A   1      17.141  -3.196  12.207  0.00  0.00     0.255 C 
ATOM     63  C62 ZIN A   1      16.699  -4.592  11.854  0.00  0.00     0.126 C 
ATOM     64  O63 ZIN A   1      17.326  -2.894  13.363  0.00  0.00    -0.266 OA
ENDBRANCH  61  62
ENDBRANCH  20  61
TORSDOF 12
ENDMDL
MODEL 3
REMARK VINA RESULT:      -3.8      2.608      4.322
REMARK  12 active torsions:
REMARK  status: ('A' for Active; 'I' for Inactive)
REMARK    1  A    between atoms: C2_2  and  C3_3 
REMARK    2  A    between atoms: C15_15  and  O16_16 
REMARK    3  A    between atoms: C18_18  and  C19_19 
REMARK    4  A    between atoms: C19_19  and  C20_20 
REMARK    5  A    between atoms: C20_20  and  O22_22 
REMARK    6  A    between atoms: C31_30  and  O32_31 
REMARK    7  A    between atoms: C31_30  and  C33_32 
REMARK    8  A    between atoms: C52_50  and  O53_51 
REMARK    9  A    between atoms: C52_50  and  C54_52 
REMARK   10  A    between atoms: C54_52  and  O56_54 
REMARK   11  A    between atoms: C58_56  and  O60_57 
REMARK   12  A    between atoms: O60_57  and  C61_58 
ROOT
ATOM      1  C3  ZIN A   1      18.361  -2.077  10.085  0.00  0.00     0.037 C 
ATOM      2  C4  ZIN A   1      19.134  -1.768  11.331  0.00  0.00    -0.015 C 
ATOM      3  C5  ZIN A   1      20.230  -2.392  11.646  0.00  0.00    -0.003 C 
ATOM      4  C6  ZIN A   1      20.806  -3.458  10.762  0.00  0.00     0.262 C 
ATOM      5  N7  ZIN A   1      19.748  -4.169  10.039  0.00  0.00    -0.061 N 
ATOM      6  H8  ZIN A   1      19.226  -4.758  10.670  0.00  0.00     0.280 HD
ATOM      7  C9  ZIN A   1      20.407  -4.992   8.985  0.00  0.00     0.237 C 
ATOM      8  C10 ZIN A   1      20.558  -4.022   7.789  0.00  0.00     0.046 C 
ATOM      9  C11 ZIN A   1      19.282  -3.140   7.893  0.00  0.00     0.040 C 
ATOM     10  C12 ZIN A   1      18.255  -3.692   6.943  0.00  0.00    -0.024 A 
ATOM     11  C13 ZIN A   1      17.845  -2.659   6.096  0.00  0.00     0.020 A 
ATOM     12  C14 ZIN A   1      16.902  -2.898   5.094  0.00  0.00     0.061 A 
ATOM     13  C15 ZIN A   1      16.394  -4.189   4.994  0.00  0.00     0.077 A 
ATOM     14  C18 ZIN A   1      16.801  -5.201   5.848  0.00  0.00     0.000 A 
ATOM     15  C47 ZIN A   1      17.743  -4.972   6.843  0.00  0.00     0.021 A 
ATOM     16  N48 ZIN A   1      18.467  -1.464   6.424  0.00  0.00    -0.278 NA
ATOM     17  C49 ZIN A   1      18.939  -0.769   5.218  0.00  0.00     0.117 C 
ATOM     18  C50 ZIN A   1      19.595  -1.751   7.349  0.00  0.00     0.125 C 
ATOM     19  C52 ZIN A   1      19.583  -0.677   8.431  0.00  0.00     0.190 C 
ATOM     20  C58 ZIN A   1      18.267  -0.816   9.223  0.00  0.00     0.192 C 
ATOM     21  C64 ZIN A   1      18.876  -3.246   9.332  0.00  0.00     0.218 C 
ENDROOT
BRANCH  14  22
ATOM     22  C19 ZIN A   1      16.203  -6.593   5.694  0.00  0.00     0.121 C 
ATOM     23  C39 ZIN A   1      16.946  -7.328   4.598  0.00  0.00     0.040 A 
ATOM     24  C38 ZIN A   1      17.163  -8.639   4.369  0.00  0.00    -0.020 A 
ATOM     25  N40 ZIN A   1      17.546  -6.601   3.575  0.00  0.00    -0.357 N 
ATOM     26  C37 ZIN A   1      16.697  -9.880   5.108  0.00  0.00     0.069 C 
ATOM     27  C46 ZIN A   1      18.020  -8.738   3.187  0.00  0.00    -0.001 A 
ATOM     28  C36 ZIN A   1      15.643 -10.631   4.212  0.00  0.00     0.239 C 
ATOM     29  N28 ZIN A   1      14.909  -9.530   3.579  0.00  0.00    -0.068 N 
ATOM     30  C27 ZIN A   1      14.367  -8.767   4.753  0.00  0.00     0.239 C 
ATOM     31  H29 ZIN A   1      15.552  -8.961   3.043  0.00  0.00     0.280 HD
ATOM     32  C30 ZIN A   1      13.721  -9.755   2.779  0.00  0.00     0.272 C 
ATOM     33  C25 ZIN A   1      14.522  -7.355   4.101  0.00  0.00     0.016 C 
ATOM     34  C24 ZIN A   1      14.691  -6.431   5.304  0.00  0.00     0.037 C 
ATOM     35  C35 ZIN A   1      13.243  -7.248   3.282  0.00  0.00     0.045 C 
ATOM     36  C31 ZIN A   1      13.148  -8.416   2.290  0.00  0.00     0.082 C 
ATOM     37  C41 ZIN A   1      18.231  -7.418   2.734  0.00  0.00     0.043 A 
ATOM     38  C45 ZIN A   1      18.585  -9.836   2.533  0.00  0.00     0.014 A 
ATOM     39  C42 ZIN A   1      19.027  -7.170   1.616  0.00  0.00     0.030 A 
ATOM     40  C43 ZIN A   1      19.579  -8.272   0.986  0.00  0.00     0.002 A 
ATOM     41  C44 ZIN A   1      19.361  -9.565   1.433  0.00  0.00     0.001 A 
ATOM     42 4H10 ZIN A   1      17.476  -5.643   3.447  0.00  0.00     0.166 HD
BRANCH  36  43
ATOM     43  O32 ZIN A   1      11.759  -8.622   1.983  0.00  0.00    -0.388 OA
ATOM     44  H92 ZIN A   1      11.292  -9.172   2.628  0.00  0.00     0.210 HD
ENDBRANCH  36  43
BRANCH  36  45
ATOM     45  C33 ZIN A   1      13.856  -8.023   0.989  0.00  0.00     0.035 C 
ATOM     46  C34 ZIN A   1      14.677  -6.753   1.218  0.00  0.00     0.008 C 
ENDBRANCH  36  45
BRANCH  22  47
ATOM     47  C20 ZIN A   1      16.348  -7.280   7.028  0.00  0.00     0.278 C 
ATOM     48  O21 ZIN A   1      17.388  -7.823   7.316  0.00  0.00    -0.264 OA
BRANCH  47  49
ATOM     49  O22 ZIN A   1      15.323  -7.289   7.894  0.00  0.00    -0.325 OA
ATOM     50  C23 ZIN A   1      15.145  -6.107   8.718  0.00  0.00     0.213 C 
ENDBRANCH  47  49
ENDBRANCH  22  47
ENDBRANCH  14  22
BRANCH  13  51
ATOM     51  O16 ZIN A   1      15.475  -4.465   4.032  0.00  0.00    -0.355 OA
ATOM     52  C17 ZIN A   1      15.760  -4.001   2.711  0.00  0.00     0.210 C 
ENDBRANCH  13  51
BRANCH  19  53
ATOM     53  O53 ZIN A   1      20.693  -0.868   9.310  0.00  0.00    -0.376 OA
ATOM     54 3H11 ZIN A   1      20.480  -1.371  10.108  0.00  0.00     0.211 HD
ENDBRANCH  19  53
BRANCH  19  55
ATOM     55  C54 ZIN A   1      19.671   0.686   7.794  0.00  0.00     0.297 C 
ATOM     56  O55 ZIN A   1      20.653   0.996   7.163  0.00  0.00    -0.262 OA
BRANCH  55  57
ATOM     57  O56 ZIN A   1      18.656   1.555   7.925  0.00  0.00    -0.324 OA
ATOM     58  C57 ZIN A   1      18.718   2.767   7.128  0.00  0.00     0.213 C 
ENDBRANCH  55  57
ENDBRANCH  19  55
BRANCH   1  59
ATOM     59  C2  ZIN A   1      16.935  -2.420  10.522  0.00  0.00     0.014 C 
ATOM     60  C1  ZIN A   1      16.974  -3.556  11.546  0.00  0.00     0.006 C 
ENDBRANCH   1  59
BRANCH  20  61
ATOM     61  O60 ZIN A   1      18.078   0.348  10.070  0.00  0.00    -0.311 OA
BRANCH  61  62
ATOM     62  C61 ZIN A   1      16.976   0.369  10.838  0.00  0.00     0.255 C 
ATOM     63  C62 ZIN A   1      17.089   0.682  12.307  0.00  0.00     0.126 C 
ATOM     64  O63 ZIN A   1      15.895   0.136  10.350  0.00  0.00    -0.266 OA
ENDBRANCH  61  62
ENDBRANCH  20  61
TORSDOF 12
ENDMDL
MODEL 4
REMARK VINA RESULT:      -3.4      3.154     10.458
REMARK  12 active torsions:
REMARK  status: ('A' for Active; 'I' for Inactive)
REMARK    1  A    between atoms: C2_2  and  C3_3 
REMARK    2  A    between atoms: C15_15  and  O16_16 
REMARK    3  A    between atoms: C18_18  and  C19_19 
REMARK    4  A    between atoms: C19_19  and  C20_20 
REMARK    5  A    between atoms: C20_20  and  O22_22 
REMARK    6  A    between atoms: C31_30  and  O32_31 
REMARK    7  A    between atoms: C31_30  and  C33_32 
REMARK    8  A    between atoms: C52_50  and  O53_51 
REMARK    9  A    between atoms: C52_50  and  C54_52 
REMARK   10  A    between atoms: C54_52  and  O56_54 
REMARK   11  A    between atoms: C58_56  and  O60_57 
REMARK   12  A    between atoms: O60_57  and  C61_58 
ROOT
ATOM      1  C3  ZIN A   1      17.596  -1.316   9.232  0.00  0.00     0.037 C 
ATOM      2  C4  ZIN A   1      17.473  -1.202   7.742  0.00  0.00    -0.015 C 
ATOM      3  C5  ZIN A   1      18.206  -0.390   7.041  0.00  0.00    -0.003 C 
ATOM      4  C6  ZIN A   1      19.245   0.480   7.682  0.00  0.00     0.262 C 
ATOM      5  N7  ZIN A   1      18.852   0.851   9.044  0.00  0.00    -0.061 N 
ATOM      6  H8  ZIN A   1      18.090   1.511   9.023  0.00  0.00     0.280 HD
ATOM      7  C9  ZIN A   1      20.046   1.454   9.702  0.00  0.00     0.237 C 
ATOM      8  C10 ZIN A   1      20.821   0.239  10.266  0.00  0.00     0.046 C 
ATOM      9  C11 ZIN A   1      19.683  -0.737  10.679  0.00  0.00     0.040 C 
ATOM     10  C12 ZIN A   1      19.440  -0.573  12.154  0.00  0.00    -0.024 A 
ATOM     11  C13 ZIN A   1      19.553  -1.829  12.756  0.00  0.00     0.020 A 
ATOM     12  C14 ZIN A   1      19.393  -1.968  14.137  0.00  0.00     0.061 A 
ATOM     13  C15 ZIN A   1      19.108  -0.817  14.863  0.00  0.00     0.077 A 
ATOM     14  C18 ZIN A   1      18.987   0.420  14.251  0.00  0.00     0.000 A 
ATOM     15  C47 ZIN A   1      19.152   0.568  12.880  0.00  0.00     0.021 A 
ATOM     16  N48 ZIN A   1      19.802  -2.816  11.816  0.00  0.00    -0.278 NA
ATOM     17  C49 ZIN A   1      20.855  -3.731  12.278  0.00  0.00     0.117 C 
ATOM     18  C50 ZIN A   1      20.184  -2.169  10.533  0.00  0.00     0.125 C 
ATOM     19  C52 ZIN A   1      19.482  -2.928   9.412  0.00  0.00     0.190 C 
ATOM     20  C58 ZIN A   1      17.962  -2.755   9.600  0.00  0.00     0.192 C 
ATOM     21  C64 ZIN A   1      18.516  -0.321   9.836  0.00  0.00     0.218 C 
ENDROOT
BRANCH  14  22
ATOM     22  C19 ZIN A   1      18.667   1.643  15.099  0.00  0.00     0.121 C 
ATOM     23  C39 ZIN A   1      18.148   2.744  14.197  0.00  0.00     0.040 A 
ATOM     24  C38 ZIN A   1      17.325   3.789  14.420  0.00  0.00    -0.020 A 
ATOM     25  N40 ZIN A   1      18.550   2.781  12.866  0.00  0.00    -0.357 N 
ATOM     26  C37 ZIN A   1      16.643   4.281  15.684  0.00  0.00     0.069 C 
ATOM     27  C46 ZIN A   1      17.128   4.468  13.139  0.00  0.00    -0.001 A 
ATOM     28  C36 ZIN A   1      17.314   5.636  16.121  0.00  0.00     0.239 C 
ATOM     29  N28 ZIN A   1      18.726   5.425  15.784  0.00  0.00    -0.068 N 
ATOM     30  C27 ZIN A   1      19.086   4.210  16.589  0.00  0.00     0.239 C 
ATOM     31  H29 ZIN A   1      18.811   5.241  14.792  0.00  0.00     0.280 HD
ATOM     32  C30 ZIN A   1      19.758   6.369  16.165  0.00  0.00     0.272 C 
ATOM     33  C25 ZIN A   1      20.054   3.603  15.522  0.00  0.00     0.016 C 
ATOM     34  C24 ZIN A   1      19.990   2.105  15.805  0.00  0.00     0.037 C 
ATOM     35  C35 ZIN A   1      21.351   4.341  15.823  0.00  0.00     0.045 C 
ATOM     36  C31 ZIN A   1      21.136   5.858  15.718  0.00  0.00     0.082 C 
ATOM     37  C41 ZIN A   1      17.924   3.783  12.196  0.00  0.00     0.043 A 
ATOM     38  C45 ZIN A   1      16.350   5.571  12.777  0.00  0.00     0.014 A 
ATOM     39  C42 ZIN A   1      17.946   4.183  10.861  0.00  0.00     0.030 A 
ATOM     40  C43 ZIN A   1      17.166   5.277  10.525  0.00  0.00     0.002 A 
ATOM     41  C44 ZIN A   1      16.394   5.948  11.457  0.00  0.00     0.001 A 
ATOM     42 4H10 ZIN A   1      19.206   2.196  12.458  0.00  0.00     0.166 HD
BRANCH  36  43
ATOM     43  O32 ZIN A   1      22.126   6.500  16.537  0.00  0.00    -0.388 OA
ATOM     44  H92 ZIN A   1      23.016   6.131  16.441  0.00  0.00     0.210 HD
ENDBRANCH  36  43
BRANCH  36  45
ATOM     45  C33 ZIN A   1      21.378   6.296  14.270  0.00  0.00     0.035 C 
ATOM     46  C34 ZIN A   1      20.038   6.582  13.591  0.00  0.00     0.008 C 
ENDBRANCH  36  45
BRANCH  22  47
ATOM     47  C20 ZIN A   1      17.634   1.215  16.111  0.00  0.00     0.278 C 
ATOM     48  O21 ZIN A   1      16.585   0.743  15.740  0.00  0.00    -0.264 OA
BRANCH  47  49
ATOM     49  O22 ZIN A   1      17.879   1.358  17.422  0.00  0.00    -0.325 OA
ATOM     50  C23 ZIN A   1      16.730   1.376  18.309  0.00  0.00     0.213 C 
ENDBRANCH  47  49
ENDBRANCH  22  47
ENDBRANCH  14  22
BRANCH  13  51
ATOM     51  O16 ZIN A   1      18.945  -0.908  16.209  0.00  0.00    -0.355 OA
ATOM     52  C17 ZIN A   1      18.363  -2.111  16.712  0.00  0.00     0.210 C 
ENDBRANCH  13  51
BRANCH  19  53
ATOM     53  O53 ZIN A   1      19.873  -2.386   8.148  0.00  0.00    -0.376 OA
ATOM     54 3H11 ZIN A   1      19.888  -3.035   7.431  0.00  0.00     0.211 HD
ENDBRANCH  19  53
BRANCH  19  55
ATOM     55  C54 ZIN A   1      19.858  -4.386   9.475  0.00  0.00     0.297 C 
ATOM     56  O55 ZIN A   1      19.560  -5.046  10.442  0.00  0.00    -0.262 OA
BRANCH  55  57
ATOM     57  O56 ZIN A   1      20.521  -4.953   8.455  0.00  0.00    -0.324 OA
ATOM     58  C57 ZIN A   1      19.735  -5.707   7.494  0.00  0.00     0.213 C 
ENDBRANCH  55  57
ENDBRANCH  19  55
BRANCH   1  59
ATOM     59  C2  ZIN A   1      16.206  -1.051   9.813  0.00  0.00     0.014 C 
ATOM     60  C1  ZIN A   1      16.325  -0.103  11.008  0.00  0.00     0.006 C 
ENDBRANCH   1  59
BRANCH  20  61
ATOM     61  O60 ZIN A   1      17.252  -3.681   8.737  0.00  0.00    -0.311 OA
BRANCH  61  62
ATOM     62  C61 ZIN A   1      16.556  -4.661   9.338  0.00  0.00     0.255 C 
ATOM     63  C62 ZIN A   1      15.905  -5.738   8.509  0.00  0.00     0.126 C 
ATOM     64  O63 ZIN A   1      16.452  -4.678  10.541  0.00  0.00    -0.266 OA
ENDBRANCH  61  62
ENDBRANCH  20  61
TORSDOF 12
ENDMDL
MODEL 5
REMARK VINA RESULT:      -2.4      3.350     10.860
REMARK  12 active torsions:
REMARK  status: ('A' for Active; 'I' for Inactive)
REMARK    1  A    between atoms: C2_2  and  C3_3 
REMARK    2  A    between atoms: C15_15  and  O16_16 
REMARK    3  A    between atoms: C18_18  and  C19_19 
REMARK    4  A    between atoms: C19_19  and  C20_20 
REMARK    5  A    between atoms: C20_20  and  O22_22 
REMARK    6  A    between atoms: C31_30  and  O32_31 
REMARK    7  A    between atoms: C31_30  and  C33_32 
REMARK    8  A    between atoms: C52_50  and  O53_51 
REMARK    9  A    between atoms: C52_50  and  C54_52 
REMARK   10  A    between atoms: C54_52  and  O56_54 
REMARK   11  A    between atoms: C58_56  and  O60_57 
REMARK   12  A    between atoms: O60_57  and  C61_58 
ROOT
ATOM      1  C3  ZIN A   1      20.235  -1.764  11.042  0.00  0.00     0.037 C 
ATOM      2  C4  ZIN A   1      20.802  -3.123  11.319  0.00  0.00    -0.015 C 
ATOM      3  C5  ZIN A   1      20.541  -3.779  12.410  0.00  0.00    -0.003 C 
ATOM      4  C6  ZIN A   1      19.631  -3.221  13.462  0.00  0.00     0.262 C 
ATOM      5  N7  ZIN A   1      19.704  -1.757  13.496  0.00  0.00    -0.061 N 
ATOM      6  H8  ZIN A   1      20.587  -1.458  13.881  0.00  0.00     0.280 HD
ATOM      7  C9  ZIN A   1      18.577  -1.277  14.345  0.00  0.00     0.237 C 
ATOM      8  C10 ZIN A   1      17.381  -1.185  13.367  0.00  0.00     0.046 C 
ATOM      9  C11 ZIN A   1      18.054  -0.744  12.036  0.00  0.00     0.040 C 
ATOM     10  C12 ZIN A   1      17.902   0.746  11.907  0.00  0.00    -0.024 A 
ATOM     11  C13 ZIN A   1      17.294   1.017  10.678  0.00  0.00     0.020 A 
ATOM     12  C14 ZIN A   1      17.012   2.334  10.304  0.00  0.00     0.061 A 
ATOM     13  C15 ZIN A   1      17.373   3.339  11.194  0.00  0.00     0.077 A 
ATOM     14  C18 ZIN A   1      17.986   3.056  12.404  0.00  0.00     0.000 A 
ATOM     15  C47 ZIN A   1      18.263   1.750  12.787  0.00  0.00     0.021 A 
ATOM     16  N48 ZIN A   1      17.071  -0.147   9.961  0.00  0.00    -0.278 NA
ATOM     17  C49 ZIN A   1      15.727  -0.150   9.367  0.00  0.00     0.117 C 
ATOM     18  C50 ZIN A   1      17.255  -1.310  10.868  0.00  0.00     0.125 C 
ATOM     19  C52 ZIN A   1      18.019  -2.378  10.093  0.00  0.00     0.190 C 
ATOM     20  C58 ZIN A   1      19.412  -1.812   9.753  0.00  0.00     0.192 C 
ATOM     21  C64 ZIN A   1      19.479  -1.184  12.179  0.00  0.00     0.218 C 
ENDROOT
BRANCH  14  22
ATOM     22  C19 ZIN A   1      18.364   4.201  13.334  0.00  0.00     0.121 C 
ATOM     23  C39 ZIN A   1      18.472   3.670  14.749  0.00  0.00     0.040 A 
ATOM     24  C38 ZIN A   1      19.183   4.076  15.820  0.00  0.00    -0.020 A 
ATOM     25  N40 ZIN A   1      17.723   2.558  15.118  0.00  0.00    -0.357 N 
ATOM     26  C37 ZIN A   1      20.113   5.259  16.020  0.00  0.00     0.069 C 
ATOM     27  C46 ZIN A   1      18.935   3.116  16.895  0.00  0.00    -0.001 A 
ATOM     28  C36 ZIN A   1      19.417   6.286  16.990  0.00  0.00     0.239 C 
ATOM     29  N28 ZIN A   1      18.006   6.200  16.598  0.00  0.00    -0.068 N 
ATOM     30  C27 ZIN A   1      18.038   6.569  15.143  0.00  0.00     0.239 C 
ATOM     31  H29 ZIN A   1      17.679   5.250  16.724  0.00  0.00     0.280 HD
ATOM     32  C30 ZIN A   1      17.003   7.103  17.127  0.00  0.00     0.272 C 
ATOM     33  C25 ZIN A   1      16.903   5.583  14.712  0.00  0.00     0.016 C 
ATOM     34  C24 ZIN A   1      17.234   5.287  13.252  0.00  0.00     0.037 C 
ATOM     35  C35 ZIN A   1      15.652   6.395  15.020  0.00  0.00     0.045 C 
ATOM     36  C31 ZIN A   1      15.634   6.802  16.500  0.00  0.00     0.082 C 
ATOM     37  C41 ZIN A   1      18.009   2.179  16.390  0.00  0.00     0.043 A 
ATOM     38  C45 ZIN A   1      19.438   3.022  18.197  0.00  0.00     0.014 A 
ATOM     39  C42 ZIN A   1      17.573   1.115  17.179  0.00  0.00     0.030 A 
ATOM     40  C43 ZIN A   1      18.086   1.040  18.464  0.00  0.00     0.002 A 
ATOM     41  C44 ZIN A   1      18.989   1.967  18.954  0.00  0.00     0.001 A 
ATOM     42 4H10 ZIN A   1      17.062   2.114  14.566  0.00  0.00     0.166 HD
BRANCH  36  43
ATOM     43  O32 ZIN A   1      14.828   7.986  16.621  0.00  0.00    -0.388 OA
ATOM     44  H92 ZIN A   1      14.235   8.137  15.871  0.00  0.00     0.210 HD
ENDBRANCH  36  43
BRANCH  36  45
ATOM     45  C33 ZIN A   1      14.953   5.695  17.312  0.00  0.00     0.035 C 
ATOM     46  C34 ZIN A   1      15.060   6.016  18.803  0.00  0.00     0.008 C 
ENDBRANCH  36  45
BRANCH  22  47
ATOM     47  C20 ZIN A   1      19.679   4.749  12.840  0.00  0.00     0.278 C 
ATOM     48  O21 ZIN A   1      19.801   5.934  12.637  0.00  0.00    -0.264 OA
BRANCH  47  49
ATOM     49  O22 ZIN A   1      20.713   3.921  12.624  0.00  0.00    -0.325 OA
ATOM     50  C23 ZIN A   1      21.047   3.629  11.242  0.00  0.00     0.213 C 
ENDBRANCH  47  49
ENDBRANCH  22  47
ENDBRANCH  14  22
BRANCH  13  51
ATOM     51  O16 ZIN A   1      17.116   4.633  10.869  0.00  0.00    -0.355 OA
ATOM     52  C17 ZIN A   1      17.722   5.134   9.677  0.00  0.00     0.210 C 
ENDBRANCH  13  51
BRANCH  19  53
ATOM     53  O53 ZIN A   1      18.162  -3.548  10.901  0.00  0.00    -0.376 OA
ATOM     54 3H11 ZIN A   1      18.225  -3.366  11.848  0.00  0.00     0.211 HD
ENDBRANCH  19  53
BRANCH  19  55
ATOM     55  C54 ZIN A   1      17.269  -2.723   8.832  0.00  0.00     0.297 C 
ATOM     56  O55 ZIN A   1      17.219  -1.929   7.922  0.00  0.00    -0.262 OA
BRANCH  55  57
ATOM     57  O56 ZIN A   1      16.659  -3.913   8.718  0.00  0.00    -0.324 OA
ATOM     58  C57 ZIN A   1      17.338  -4.931   7.937  0.00  0.00     0.213 C 
ENDBRANCH  55  57
ENDBRANCH  19  55
BRANCH   1  59
ATOM     59  C2  ZIN A   1      21.421  -0.835  10.774  0.00  0.00     0.014 C 
ATOM     60  C1  ZIN A   1      21.366   0.354  11.737  0.00  0.00     0.006 C 
ENDBRANCH   1  59
BRANCH  20  61
ATOM     61  O60 ZIN A   1      20.067  -2.669   8.781  0.00  0.00    -0.311 OA
BRANCH  61  62
ATOM     62  C61 ZIN A   1      19.953  -2.322   7.489  0.00  0.00     0.255 C 
ATOM     63  C62 ZIN A   1      20.012  -3.380   6.417  0.00  0.00     0.126 C 
ATOM     64  O63 ZIN A   1      19.804  -1.162   7.186  0.00  0.00    -0.266 OA
ENDBRANCH  61  62
ENDBRANCH  20  61
TORSDOF 12
ENDMDL
