MODEL 1
REMARK VINA RESULT:     -10.8      0.000      0.000
REMARK  14 active torsions:
REMARK  status: ('A' for Active; 'I' for Inactive)
REMARK    1  A    between atoms: C2_2  and  N5_5 
REMARK       I    between atoms: N5_5  and  C6_6 
REMARK    2  A    between atoms: C6_6  and  C8_8 
REMARK    3  A    between atoms: N20_17  and  C21_18 
REMARK    4  A    between atoms: C21_18  and  C22_19 
REMARK    5  A    between atoms: C22_19  and  O24_20 
REMARK    6  A    between atoms: C22_19  and  C25_21 
REMARK    7  A    between atoms: C25_21  and  C27_22 
REMARK    8  A    between atoms: C25_21  and  N34_29 
REMARK    9  A    between atoms: C27_22  and  C28_23 
REMARK       I    between atoms: N34_29  and  C35_30 
REMARK   10  A    between atoms: C35_30  and  C37_32 
REMARK   11  A    between atoms: C37_32  and  C39_33 
REMARK   12  A    between atoms: C37_32  and  N43_37 
REMARK   13  A    between atoms: C39_33  and  C40_34 
REMARK       I    between atoms: C40_34  and  N41_35 
REMARK       I    between atoms: N43_37  and  C44_38 
REMARK   14  A    between atoms: C44_38  and  C46_40 
ROOT
ATOM      1  C25 ZIN A   1      18.371  -1.860  12.820  0.00  0.00     0.119 C 
ENDROOT
BRANCH   1   2
ATOM      2  C22 ZIN A   1      18.061  -0.583  12.036  0.00  0.00     0.169 C 
BRANCH   2   3
ATOM      3  C21 ZIN A   1      19.002  -0.482  10.834  0.00  0.00     0.307 C 
BRANCH   3   4
ATOM      4  N20 ZIN A   1      19.195   0.931  10.481  0.00  0.00     0.105 N 
ATOM      5  C8  ZIN A   1      18.087   1.412   9.647  0.00  0.00     0.314 C 
ATOM      6  C10 ZIN A   1      18.375   2.843   9.187  0.00  0.00     0.050 C 
ATOM      7  C11 ZIN A   1      18.542   3.743  10.416  0.00  0.00    -0.006 C 
ATOM      8  C17 ZIN A   1      19.676   3.193  11.284  0.00  0.00     0.018 C 
ATOM      9  C13 ZIN A   1      17.234   3.752  11.211  0.00  0.00     0.005 C 
ATOM     10  C16 ZIN A   1      19.826   4.049  12.542  0.00  0.00     0.007 C 
ATOM     11  C19 ZIN A   1      19.337   1.753  11.675  0.00  0.00     0.278 C 
ATOM     12  C15 ZIN A   1      18.516   4.054  13.333  0.00  0.00     0.000 C 
ATOM     13  C14 ZIN A   1      17.398   4.623  12.458  0.00  0.00     0.000 C 
BRANCH   5  14
ATOM     14  C6  ZIN A   1      17.939   0.519   8.443  0.00  0.00     0.252 C 
ATOM     15  N5  ZIN A   1      18.778   0.655   7.396  0.00  0.00    -0.351 N 
ATOM     16  H65 ZIN A   1      19.475   1.328   7.419  0.00  0.00     0.163 HD
ATOM     17  O7  ZIN A   1      17.066  -0.323   8.416  0.00  0.00    -0.271 OA
BRANCH  15  18
ATOM     18  C2  ZIN A   1      18.634  -0.213   6.225  0.00  0.00     0.022 C 
ATOM     19  C1  ZIN A   1      19.470   0.344   5.072  0.00  0.00     0.037 C 
ATOM     20  C3  ZIN A   1      17.163  -0.269   5.809  0.00  0.00     0.037 C 
ATOM     21  C4  ZIN A   1      19.120  -1.622   6.572  0.00  0.00     0.037 C 
ENDBRANCH  15  18
ENDBRANCH   5  14
ENDBRANCH   3   4
ENDBRANCH   2   3
BRANCH   2  22
ATOM     22  O24 ZIN A   1      16.708  -0.620  11.581  0.00  0.00    -0.392 OA
ATOM     23  H80 ZIN A   1      16.617  -0.638  10.618  0.00  0.00     0.210 HD
ENDBRANCH   2  22
ENDBRANCH   1   2
BRANCH   1  24
ATOM     24  C27 ZIN A   1      19.471  -1.576  13.844  0.00  0.00     0.066 C 
BRANCH  24  25
ATOM     25  C28 ZIN A   1      18.888  -0.831  15.016  0.00  0.00    -0.056 A 
ATOM     26  C33 ZIN A   1      18.079  -1.492  15.922  0.00  0.00     0.007 A 
ATOM     27  C32 ZIN A   1      17.547  -0.808  17.000  0.00  0.00     0.001 A 
ATOM     28  C31 ZIN A   1      17.815   0.537  17.166  0.00  0.00     0.000 A 
ATOM     29  C30 ZIN A   1      18.620   1.199  16.257  0.00  0.00     0.001 A 
ATOM     30  C29 ZIN A   1      19.156   0.515  15.182  0.00  0.00     0.007 A 
ENDBRANCH  24  25
ENDBRANCH   1  24
BRANCH   1  31
ATOM     31  N34 ZIN A   1      18.821  -2.903  11.896  0.00  0.00    -0.352 N 
ATOM     32  C35 ZIN A   1      17.928  -3.757  11.357  0.00  0.00     0.241 C 
ATOM     33  O36 ZIN A   1      16.753  -3.662  11.637  0.00  0.00    -0.271 OA
ATOM     34  H88 ZIN A   1      19.762  -2.979  11.671  0.00  0.00     0.163 HD
BRANCH  32  35
ATOM     35  C37 ZIN A   1      18.392  -4.831  10.406  0.00  0.00     0.185 C 
BRANCH  35  36
ATOM     36  C39 ZIN A   1      19.819  -4.524   9.947  0.00  0.00     0.137 C 
BRANCH  36  37
ATOM     37  C40 ZIN A   1      20.183  -5.429   8.798  0.00  0.00     0.217 C 
ATOM     38  N41 ZIN A   1      20.595  -4.901   7.629  0.00  0.00    -0.370 N 
ATOM     39  H91 ZIN A   1      20.657  -3.938   7.525  0.00  0.00     0.159 HD
ATOM     40  H92 ZIN A   1      20.829  -5.484   6.889  0.00  0.00     0.159 HD
ATOM     41  O42 ZIN A   1      20.106  -6.633   8.926  0.00  0.00    -0.274 OA
ENDBRANCH  36  37
ENDBRANCH  35  36
BRANCH  35  42
ATOM     42  N43 ZIN A   1      17.502  -4.870   9.243  0.00  0.00    -0.342 N 
ATOM     43  C44 ZIN A   1      16.756  -5.966   9.002  0.00  0.00     0.271 C 
ATOM     44  O45 ZIN A   1      16.751  -6.885   9.798  0.00  0.00    -0.266 OA
ATOM     45  H93 ZIN A   1      17.450  -4.108   8.646  0.00  0.00     0.163 HD
BRANCH  43  46
ATOM     46  C46 ZIN A   1      15.940  -6.052   7.768  0.00  0.00     0.125 A 
ATOM     47  N55 ZIN A   1      16.509  -5.816   6.602  0.00  0.00    -0.243 NA
ATOM     48  C54 ZIN A   1      15.816  -5.886   5.466  0.00  0.00     0.068 A 
ATOM     49  C49 ZIN A   1      14.434  -6.210   5.497  0.00  0.00    -0.007 A 
ATOM     50  C53 ZIN A   1      16.432  -5.637   4.223  0.00  0.00     0.032 A 
ATOM     51  C48 ZIN A   1      13.817  -6.458   6.736  0.00  0.00     0.016 A 
ATOM     52  C50 ZIN A   1      13.711  -6.276   4.295  0.00  0.00     0.014 A 
ATOM     53  C47 ZIN A   1      14.580  -6.378   7.866  0.00  0.00     0.038 A 
ATOM     54  C51 ZIN A   1      14.342  -6.028   3.115  0.00  0.00     0.001 A 
ATOM     55  C52 ZIN A   1      15.699  -5.710   3.081  0.00  0.00     0.002 A 
ENDBRANCH  43  46
ENDBRANCH  35  42
ENDBRANCH  32  35
ENDBRANCH   1  31
TORSDOF 14
ENDMDL
MODEL 2
REMARK VINA RESULT:      -9.7      1.730      5.608
REMARK  14 active torsions:
REMARK  status: ('A' for Active; 'I' for Inactive)
REMARK    1  A    between atoms: C2_2  and  N5_5 
REMARK       I    between atoms: N5_5  and  C6_6 
REMARK    2  A    between atoms: C6_6  and  C8_8 
REMARK    3  A    between atoms: N20_17  and  C21_18 
REMARK    4  A    between atoms: C21_18  and  C22_19 
REMARK    5  A    between atoms: C22_19  and  O24_20 
REMARK    6  A    between atoms: C22_19  and  C25_21 
REMARK    7  A    between atoms: C25_21  and  C27_22 
REMARK    8  A    between atoms: C25_21  and  N34_29 
REMARK    9  A    between atoms: C27_22  and  C28_23 
REMARK       I    between atoms: N34_29  and  C35_30 
REMARK   10  A    between atoms: C35_30  and  C37_32 
REMARK   11  A    between atoms: C37_32  and  C39_33 
REMARK   12  A    between atoms: C37_32  and  N43_37 
REMARK   13  A    between atoms: C39_33  and  C40_34 
REMARK       I    between atoms: C40_34  and  N41_35 
REMARK       I    between atoms: N43_37  and  C44_38 
REMARK   14  A    between atoms: C44_38  and  C46_40 
ROOT
ATOM      1  C25 ZIN A   1      17.997  -0.579  10.916  0.00  0.00     0.119 C 
ENDROOT
BRANCH   1   2
ATOM      2  C22 ZIN A   1      17.776  -0.006  12.317  0.00  0.00     0.169 C 
BRANCH   2   3
ATOM      3  C21 ZIN A   1      18.945   0.911  12.683  0.00  0.00     0.307 C 
BRANCH   3   4
ATOM      4  N20 ZIN A   1      19.150   0.886  14.138  0.00  0.00     0.105 N 
ATOM      5  C8  ZIN A   1      18.255   1.842  14.802  0.00  0.00     0.314 C 
ATOM      6  C10 ZIN A   1      18.578   1.891  16.298  0.00  0.00     0.050 C 
ATOM      7  C11 ZIN A   1      18.397   0.493  16.898  0.00  0.00    -0.006 C 
ATOM      8  C17 ZIN A   1      19.310  -0.486  16.158  0.00  0.00     0.018 C 
ATOM      9  C13 ZIN A   1      16.936   0.065  16.738  0.00  0.00     0.005 C 
ATOM     10  C16 ZIN A   1      19.109  -1.898  16.709  0.00  0.00     0.007 C 
ATOM     11  C19 ZIN A   1      18.957  -0.456  14.669  0.00  0.00     0.278 C 
ATOM     12  C15 ZIN A   1      17.647  -2.321  16.546  0.00  0.00     0.000 C 
ATOM     13  C14 ZIN A   1      16.749  -1.344  17.306  0.00  0.00     0.000 C 
BRANCH   5  14
ATOM     14  C6  ZIN A   1      18.448   3.211  14.203  0.00  0.00     0.252 C 
ATOM     15  N5  ZIN A   1      19.367   4.050  14.722  0.00  0.00    -0.351 N 
ATOM     16  H65 ZIN A   1      19.902   3.773  15.481  0.00  0.00     0.163 HD
ATOM     17  O7  ZIN A   1      17.778   3.557  13.253  0.00  0.00    -0.271 OA
BRANCH  15  18
ATOM     18  C2  ZIN A   1      19.554   5.381  14.139  0.00  0.00     0.022 C 
ATOM     19  C1  ZIN A   1      18.293   6.218  14.363  0.00  0.00     0.037 C 
ATOM     20  C3  ZIN A   1      19.820   5.248  12.638  0.00  0.00     0.037 C 
ATOM     21  C4  ZIN A   1      20.746   6.068  14.809  0.00  0.00     0.037 C 
ENDBRANCH  15  18
ENDBRANCH   5  14
ENDBRANCH   3   4
ENDBRANCH   2   3
BRANCH   2  22
ATOM     22  O24 ZIN A   1      16.559   0.741  12.340  0.00  0.00    -0.392 OA
ATOM     23  H80 ZIN A   1      16.684   1.699  12.299  0.00  0.00     0.210 HD
ENDBRANCH   2  22
ENDBRANCH   1   2
BRANCH   1  24
ATOM     24  C27 ZIN A   1      16.975   0.026   9.951  0.00  0.00     0.066 C 
BRANCH  24  25
ATOM     25  C28 ZIN A   1      17.664   0.419   8.670  0.00  0.00    -0.056 A 
ATOM     26  C33 ZIN A   1      18.691   1.344   8.694  0.00  0.00     0.007 A 
ATOM     27  C32 ZIN A   1      19.327   1.702   7.520  0.00  0.00     0.001 A 
ATOM     28  C31 ZIN A   1      18.929   1.141   6.320  0.00  0.00     0.000 A 
ATOM     29  C30 ZIN A   1      17.900   0.219   6.296  0.00  0.00     0.001 A 
ATOM     30  C29 ZIN A   1      17.267  -0.142   7.471  0.00  0.00     0.007 A 
ENDBRANCH  24  25
ENDBRANCH   1  24
BRANCH   1  31
ATOM     31  N34 ZIN A   1      17.834  -2.034  10.951  0.00  0.00    -0.352 N 
ATOM     32  C35 ZIN A   1      18.614  -2.818  10.183  0.00  0.00     0.241 C 
ATOM     33  O36 ZIN A   1      19.452  -2.321   9.461  0.00  0.00    -0.271 OA
ATOM     34  H88 ZIN A   1      17.163  -2.433  11.529  0.00  0.00     0.163 HD
BRANCH  32  35
ATOM     35  C37 ZIN A   1      18.446  -4.316  10.219  0.00  0.00     0.185 C 
BRANCH  35  36
ATOM     36  C39 ZIN A   1      19.819  -4.985  10.127  0.00  0.00     0.137 C 
BRANCH  36  37
ATOM     37  C40 ZIN A   1      19.996  -5.581   8.754  0.00  0.00     0.217 C 
ATOM     38  N41 ZIN A   1      20.602  -4.870   7.783  0.00  0.00    -0.370 N 
ATOM     39  H91 ZIN A   1      20.924  -3.974   7.967  0.00  0.00     0.159 HD
ATOM     40  H92 ZIN A   1      20.716  -5.254   6.899  0.00  0.00     0.159 HD
ATOM     41  O42 ZIN A   1      19.593  -6.702   8.523  0.00  0.00    -0.274 OA
ENDBRANCH  36  37
ENDBRANCH  35  36
BRANCH  35  42
ATOM     42  N43 ZIN A   1      17.617  -4.742   9.089  0.00  0.00    -0.342 N 
ATOM     43  C44 ZIN A   1      16.385  -5.241   9.307  0.00  0.00     0.271 C 
ATOM     44  O45 ZIN A   1      15.925  -5.253  10.432  0.00  0.00    -0.266 OA
ATOM     45  H93 ZIN A   1      17.955  -4.665   8.183  0.00  0.00     0.163 HD
BRANCH  43  46
ATOM     46  C46 ZIN A   1      15.590  -5.774   8.176  0.00  0.00     0.125 A 
ATOM     47  N55 ZIN A   1      16.182  -5.995   7.019  0.00  0.00    -0.243 NA
ATOM     48  C54 ZIN A   1      15.508  -6.478   5.976  0.00  0.00     0.068 A 
ATOM     49  C49 ZIN A   1      14.121  -6.757   6.095  0.00  0.00    -0.007 A 
ATOM     50  C53 ZIN A   1      16.150  -6.717   4.745  0.00  0.00     0.032 A 
ATOM     51  C48 ZIN A   1      13.478  -6.519   7.324  0.00  0.00     0.016 A 
ATOM     52  C50 ZIN A   1      13.418  -7.261   4.989  0.00  0.00     0.014 A 
ATOM     53  C47 ZIN A   1      14.223  -6.029   8.359  0.00  0.00     0.038 A 
ATOM     54  C51 ZIN A   1      14.073  -7.476   3.816  0.00  0.00     0.001 A 
ATOM     55  C52 ZIN A   1      15.435  -7.205   3.696  0.00  0.00     0.002 A 
ENDBRANCH  43  46
ENDBRANCH  35  42
ENDBRANCH  32  35
ENDBRANCH   1  31
TORSDOF 14
ENDMDL
MODEL 3
REMARK VINA RESULT:      -9.5      4.015      8.336
REMARK  14 active torsions:
REMARK  status: ('A' for Active; 'I' for Inactive)
REMARK    1  A    between atoms: C2_2  and  N5_5 
REMARK       I    between atoms: N5_5  and  C6_6 
REMARK    2  A    between atoms: C6_6  and  C8_8 
REMARK    3  A    between atoms: N20_17  and  C21_18 
REMARK    4  A    between atoms: C21_18  and  C22_19 
REMARK    5  A    between atoms: C22_19  and  O24_20 
REMARK    6  A    between atoms: C22_19  and  C25_21 
REMARK    7  A    between atoms: C25_21  and  C27_22 
REMARK    8  A    between atoms: C25_21  and  N34_29 
REMARK    9  A    between atoms: C27_22  and  C28_23 
REMARK       I    between atoms: N34_29  and  C35_30 
REMARK   10  A    between atoms: C35_30  and  C37_32 
REMARK   11  A    between atoms: C37_32  and  C39_33 
REMARK   12  A    between atoms: C37_32  and  N43_37 
REMARK   13  A    between atoms: C39_33  and  C40_34 
REMARK       I    between atoms: C40_34  and  N41_35 
REMARK       I    between atoms: N43_37  and  C44_38 
REMARK   14  A    between atoms: C44_38  and  C46_40 
ROOT
ATOM      1  C25 ZIN A   1      19.682   5.319  14.418  0.00  0.00     0.119 C 
ENDROOT
BRANCH   1   2
ATOM      2  C22 ZIN A   1      19.472   5.562  15.914  0.00  0.00     0.169 C 
BRANCH   2   3
ATOM      3  C21 ZIN A   1      19.280   4.221  16.626  0.00  0.00     0.307 C 
BRANCH   3   4
ATOM      4  N20 ZIN A   1      18.055   4.268  17.437  0.00  0.00     0.105 N 
ATOM      5  C8  ZIN A   1      18.216   3.476  18.663  0.00  0.00     0.314 C 
ATOM      6  C10 ZIN A   1      16.888   3.435  19.423  0.00  0.00     0.050 C 
ATOM      7  C11 ZIN A   1      16.462   4.865  19.770  0.00  0.00    -0.006 C 
ATOM      8  C17 ZIN A   1      16.344   5.675  18.477  0.00  0.00     0.018 C 
ATOM      9  C13 ZIN A   1      17.516   5.494  20.684  0.00  0.00     0.005 C 
ATOM     10  C16 ZIN A   1      15.967   7.119  18.804  0.00  0.00     0.007 C 
ATOM     11  C19 ZIN A   1      17.692   5.642  17.754  0.00  0.00     0.278 C 
ATOM     12  C15 ZIN A   1      17.024   7.744  19.718  0.00  0.00     0.000 C 
ATOM     13  C14 ZIN A   1      17.117   6.935  21.012  0.00  0.00     0.000 C 
BRANCH   5  14
ATOM     14  C6  ZIN A   1      18.632   2.073  18.304  0.00  0.00     0.252 C 
ATOM     15  N5  ZIN A   1      17.756   1.244  17.702  0.00  0.00    -0.351 N 
ATOM     16  H65 ZIN A   1      16.858   1.551  17.501  0.00  0.00     0.163 HD
ATOM     17  O7  ZIN A   1      19.755   1.690  18.555  0.00  0.00    -0.271 OA
BRANCH  15  18
ATOM     18  C2  ZIN A   1      18.160  -0.120  17.353  0.00  0.00     0.022 C 
ATOM     19  C1  ZIN A   1      16.922  -0.939  16.980  0.00  0.00     0.037 C 
ATOM     20  C3  ZIN A   1      18.859  -0.767  18.550  0.00  0.00     0.037 C 
ATOM     21  C4  ZIN A   1      19.121  -0.079  16.163  0.00  0.00     0.037 C 
ENDBRANCH  15  18
ENDBRANCH   5  14
ENDBRANCH   3   4
ENDBRANCH   2   3
BRANCH   2  22
ATOM     22  O24 ZIN A   1      20.614   6.229  16.453  0.00  0.00    -0.392 OA
ATOM     23  H80 ZIN A   1      20.610   6.299  17.418  0.00  0.00     0.210 HD
ENDBRANCH   2  22
ENDBRANCH   1   2
BRANCH   1  24
ATOM     24  C27 ZIN A   1      18.984   6.421  13.619  0.00  0.00     0.066 C 
BRANCH  24  25
ATOM     25  C28 ZIN A   1      17.610   6.662  14.187  0.00  0.00    -0.056 A 
ATOM     26  C33 ZIN A   1      16.637   5.686  14.078  0.00  0.00     0.007 A 
ATOM     27  C32 ZIN A   1      15.377   5.905  14.604  0.00  0.00     0.001 A 
ATOM     28  C31 ZIN A   1      15.088   7.103  15.230  0.00  0.00     0.000 A 
ATOM     29  C30 ZIN A   1      16.060   8.080  15.336  0.00  0.00     0.001 A 
ATOM     30  C29 ZIN A   1      17.321   7.860  14.814  0.00  0.00     0.007 A 
ENDBRANCH  24  25
ENDBRANCH   1  24
BRANCH   1  31
ATOM     31  N34 ZIN A   1      19.118   4.018  14.050  0.00  0.00    -0.352 N 
ATOM     32  C35 ZIN A   1      19.350   3.504  12.826  0.00  0.00     0.241 C 
ATOM     33  O36 ZIN A   1      20.025   4.119  12.029  0.00  0.00    -0.271 OA
ATOM     34  H88 ZIN A   1      18.578   3.526  14.689  0.00  0.00     0.163 HD
BRANCH  32  35
ATOM     35  C37 ZIN A   1      18.769   2.166  12.448  0.00  0.00     0.185 C 
BRANCH  35  36
ATOM     36  C39 ZIN A   1      19.410   1.072  13.306  0.00  0.00     0.137 C 
BRANCH  36  37
ATOM     37  C40 ZIN A   1      20.357   0.260  12.460  0.00  0.00     0.217 C 
ATOM     38  N41 ZIN A   1      21.620   0.686  12.266  0.00  0.00    -0.370 N 
ATOM     39  H91 ZIN A   1      21.921   1.515  12.670  0.00  0.00     0.159 HD
ATOM     40  H92 ZIN A   1      22.230   0.163  11.721  0.00  0.00     0.159 HD
ATOM     41  O42 ZIN A   1      19.982  -0.777  11.955  0.00  0.00    -0.274 OA
ENDBRANCH  36  37
ENDBRANCH  35  36
BRANCH  35  42
ATOM     42  N43 ZIN A   1      19.039   1.899  11.034  0.00  0.00    -0.342 N 
ATOM     43  C44 ZIN A   1      18.096   1.320  10.265  0.00  0.00     0.271 C 
ATOM     44  O45 ZIN A   1      16.990   1.104  10.720  0.00  0.00    -0.266 OA
ATOM     45  H93 ZIN A   1      19.897   2.138  10.650  0.00  0.00     0.163 HD
BRANCH  43  46
ATOM     46  C46 ZIN A   1      18.406   0.948   8.864  0.00  0.00     0.125 A 
ATOM     47  N55 ZIN A   1      18.317  -0.315   8.498  0.00  0.00    -0.243 NA
ATOM     48  C54 ZIN A   1      18.582  -0.695   7.248  0.00  0.00     0.068 A 
ATOM     49  C49 ZIN A   1      18.978   0.268   6.283  0.00  0.00    -0.007 A 
ATOM     50  C53 ZIN A   1      18.480  -2.046   6.863  0.00  0.00     0.032 A 
ATOM     51  C48 ZIN A   1      19.081   1.618   6.665  0.00  0.00     0.016 A 
ATOM     52  C50 ZIN A   1      19.261  -0.142   4.970  0.00  0.00     0.014 A 
ATOM     53  C47 ZIN A   1      18.791   1.948   7.959  0.00  0.00     0.038 A 
ATOM     54  C51 ZIN A   1      19.152  -1.457   4.638  0.00  0.00     0.001 A 
ATOM     55  C52 ZIN A   1      18.762  -2.406   5.582  0.00  0.00     0.002 A 
ENDBRANCH  43  46
ENDBRANCH  35  42
ENDBRANCH  32  35
ENDBRANCH   1  31
TORSDOF 14
ENDMDL
MODEL 4
REMARK VINA RESULT:      -9.5      1.908      5.405
REMARK  14 active torsions:
REMARK  status: ('A' for Active; 'I' for Inactive)
REMARK    1  A    between atoms: C2_2  and  N5_5 
REMARK       I    between atoms: N5_5  and  C6_6 
REMARK    2  A    between atoms: C6_6  and  C8_8 
REMARK    3  A    between atoms: N20_17  and  C21_18 
REMARK    4  A    between atoms: C21_18  and  C22_19 
REMARK    5  A    between atoms: C22_19  and  O24_20 
REMARK    6  A    between atoms: C22_19  and  C25_21 
REMARK    7  A    between atoms: C25_21  and  C27_22 
REMARK    8  A    between atoms: C25_21  and  N34_29 
REMARK    9  A    between atoms: C27_22  and  C28_23 
REMARK       I    between atoms: N34_29  and  C35_30 
REMARK   10  A    between atoms: C35_30  and  C37_32 
REMARK   11  A    between atoms: C37_32  and  C39_33 
REMARK   12  A    between atoms: C37_32  and  N43_37 
REMARK   13  A    between atoms: C39_33  and  C40_34 
REMARK       I    between atoms: C40_34  and  N41_35 
REMARK       I    between atoms: N43_37  and  C44_38 
REMARK   14  A    between atoms: C44_38  and  C46_40 
ROOT
ATOM      1  C25 ZIN A   1      18.474   1.117  10.366  0.00  0.00     0.119 C 
ENDROOT
BRANCH   1   2
ATOM      2  C22 ZIN A   1      17.939   0.248  11.506  0.00  0.00     0.169 C 
BRANCH   2   3
ATOM      3  C21 ZIN A   1      18.808   0.447  12.749  0.00  0.00     0.307 C 
BRANCH   3   4
ATOM      4  N20 ZIN A   1      18.179  -0.220  13.898  0.00  0.00     0.105 N 
ATOM      5  C8  ZIN A   1      18.910  -1.445  14.248  0.00  0.00     0.314 C 
ATOM      6  C10 ZIN A   1      18.164  -2.187  15.359  0.00  0.00     0.050 C 
ATOM      7  C11 ZIN A   1      18.046  -1.274  16.583  0.00  0.00    -0.006 C 
ATOM      8  C17 ZIN A   1      17.318   0.009  16.177  0.00  0.00     0.018 C 
ATOM      9  C13 ZIN A   1      19.449  -0.937  17.094  0.00  0.00     0.005 C 
ATOM     10  C16 ZIN A   1      17.233   0.957  17.374  0.00  0.00     0.007 C 
ATOM     11  C19 ZIN A   1      18.098   0.677  15.043  0.00  0.00     0.278 C 
ATOM     12  C15 ZIN A   1      18.638   1.291  17.879  0.00  0.00     0.000 C 
ATOM     13  C14 ZIN A   1      19.346   0.001  18.298  0.00  0.00     0.000 C 
BRANCH   5  14
ATOM     14  C6  ZIN A   1      19.014  -2.332  13.034  0.00  0.00     0.252 C 
ATOM     15  N5  ZIN A   1      18.036  -3.219  12.763  0.00  0.00    -0.351 N 
ATOM     16  H65 ZIN A   1      17.267  -3.287  13.349  0.00  0.00     0.163 HD
ATOM     17  O7  ZIN A   1      19.977  -2.247  12.301  0.00  0.00    -0.271 OA
BRANCH  15  18
ATOM     18  C2  ZIN A   1      18.137  -4.082  11.583  0.00  0.00     0.022 C 
ATOM     19  C1  ZIN A   1      17.408  -5.400  11.852  0.00  0.00     0.037 C 
ATOM     20  C3  ZIN A   1      19.610  -4.365  11.283  0.00  0.00     0.037 C 
ATOM     21  C4  ZIN A   1      17.497  -3.382  10.383  0.00  0.00     0.037 C 
ENDBRANCH  15  18
ENDBRANCH   5  14
ENDBRANCH   3   4
ENDBRANCH   2   3
BRANCH   2  22
ATOM     22  O24 ZIN A   1      16.592   0.626  11.800  0.00  0.00    -0.392 OA
ATOM     23  H80 ZIN A   1      15.951  -0.091  11.691  0.00  0.00     0.210 HD
ENDBRANCH   2  22
ENDBRANCH   1   2
BRANCH   1  24
ATOM     24  C27 ZIN A   1      17.660   2.410  10.283  0.00  0.00     0.066 C 
BRANCH  24  25
ATOM     25  C28 ZIN A   1      18.185   3.399  11.290  0.00  0.00    -0.056 A 
ATOM     26  C33 ZIN A   1      17.304   4.137  12.059  0.00  0.00     0.007 A 
ATOM     27  C32 ZIN A   1      17.785   5.041  12.986  0.00  0.00     0.001 A 
ATOM     28  C31 ZIN A   1      19.148   5.216  13.139  0.00  0.00     0.000 A 
ATOM     29  C30 ZIN A   1      20.030   4.481  12.367  0.00  0.00     0.001 A 
ATOM     30  C29 ZIN A   1      19.548   3.573  11.442  0.00  0.00     0.007 A 
ENDBRANCH  24  25
ENDBRANCH   1  24
BRANCH   1  31
ATOM     31  N34 ZIN A   1      18.361   0.387   9.101  0.00  0.00    -0.352 N 
ATOM     32  C35 ZIN A   1      19.410  -0.319   8.634  0.00  0.00     0.241 C 
ATOM     33  O36 ZIN A   1      20.448  -0.349   9.260  0.00  0.00    -0.271 OA
ATOM     34  H88 ZIN A   1      17.530   0.411   8.600  0.00  0.00     0.163 HD
BRANCH  32  35
ATOM     35  C37 ZIN A   1      19.294  -1.070   7.332  0.00  0.00     0.185 C 
BRANCH  35  36
ATOM     36  C39 ZIN A   1      18.478  -0.241   6.337  0.00  0.00     0.137 C 
BRANCH  36  37
ATOM     37  C40 ZIN A   1      18.866  -0.621   4.932  0.00  0.00     0.217 C 
ATOM     38  N41 ZIN A   1      17.912  -0.899   4.021  0.00  0.00    -0.370 N 
ATOM     39  H91 ZIN A   1      16.975  -0.856   4.270  0.00  0.00     0.159 HD
ATOM     40  H92 ZIN A   1      18.162  -1.143   3.116  0.00  0.00     0.159 HD
ATOM     41  O42 ZIN A   1      20.037  -0.675   4.619  0.00  0.00    -0.274 OA
ENDBRANCH  36  37
ENDBRANCH  35  36
BRANCH  35  42
ATOM     42  N43 ZIN A   1      18.624  -2.351   7.566  0.00  0.00    -0.342 N 
ATOM     43  C44 ZIN A   1      19.136  -3.484   7.046  0.00  0.00     0.271 C 
ATOM     44  O45 ZIN A   1      20.201  -3.457   6.460  0.00  0.00    -0.266 OA
ATOM     45  H93 ZIN A   1      17.813  -2.385   8.096  0.00  0.00     0.163 HD
BRANCH  43  46
ATOM     46  C46 ZIN A   1      18.401  -4.763   7.187  0.00  0.00     0.125 A 
ATOM     47  N55 ZIN A   1      17.296  -4.952   6.494  0.00  0.00    -0.243 NA
ATOM     48  C54 ZIN A   1      16.606  -6.088   6.586  0.00  0.00     0.068 A 
ATOM     49  C49 ZIN A   1      17.051  -7.121   7.452  0.00  0.00    -0.007 A 
ATOM     50  C53 ZIN A   1      15.428  -6.284   5.838  0.00  0.00     0.032 A 
ATOM     51  C48 ZIN A   1      18.227  -6.927   8.200  0.00  0.00     0.016 A 
ATOM     52  C50 ZIN A   1      16.314  -8.312   7.547  0.00  0.00     0.014 A 
ATOM     53  C47 ZIN A   1      18.895  -5.744   8.060  0.00  0.00     0.038 A 
ATOM     54  C51 ZIN A   1      15.181  -8.463   6.808  0.00  0.00     0.001 A 
ATOM     55  C52 ZIN A   1      14.740  -7.452   5.956  0.00  0.00     0.002 A 
ENDBRANCH  43  46
ENDBRANCH  35  42
ENDBRANCH  32  35
ENDBRANCH   1  31
TORSDOF 14
ENDMDL
MODEL 5
REMARK VINA RESULT:      -9.5      2.095      6.122
REMARK  14 active torsions:
REMARK  status: ('A' for Active; 'I' for Inactive)
REMARK    1  A    between atoms: C2_2  and  N5_5 
REMARK       I    between atoms: N5_5  and  C6_6 
REMARK    2  A    between atoms: C6_6  and  C8_8 
REMARK    3  A    between atoms: N20_17  and  C21_18 
REMARK    4  A    between atoms: C21_18  and  C22_19 
REMARK    5  A    between atoms: C22_19  and  O24_20 
REMARK    6  A    between atoms: C22_19  and  C25_21 
REMARK    7  A    between atoms: C25_21  and  C27_22 
REMARK    8  A    between atoms: C25_21  and  N34_29 
REMARK    9  A    between atoms: C27_22  and  C28_23 
REMARK       I    between atoms: N34_29  and  C35_30 
REMARK   10  A    between atoms: C35_30  and  C37_32 
REMARK   11  A    between atoms: C37_32  and  C39_33 
REMARK   12  A    between atoms: C37_32  and  N43_37 
REMARK   13  A    between atoms: C39_33  and  C40_34 
REMARK       I    between atoms: C40_34  and  N41_35 
REMARK       I    between atoms: N43_37  and  C44_38 
REMARK   14  A    between atoms: C44_38  and  C46_40 
ROOT
ATOM      1  C25 ZIN A   1      18.837  -3.104  10.473  0.00  0.00     0.119 C 
ENDROOT
BRANCH   1   2
ATOM      2  C22 ZIN A   1      19.829  -2.345  11.356  0.00  0.00     0.169 C 
BRANCH   2   3
ATOM      3  C21 ZIN A   1      19.154  -1.973  12.678  0.00  0.00     0.307 C 
BRANCH   3   4
ATOM      4  N20 ZIN A   1      18.374  -0.741  12.500  0.00  0.00     0.105 N 
ATOM      5  C8  ZIN A   1      18.752   0.260  13.506  0.00  0.00     0.314 C 
ATOM      6  C10 ZIN A   1      17.838   1.482  13.381  0.00  0.00     0.050 C 
ATOM      7  C11 ZIN A   1      17.973   2.070  11.973  0.00  0.00    -0.006 C 
ATOM      8  C17 ZIN A   1      17.613   0.992  10.948  0.00  0.00     0.018 C 
ATOM      9  C13 ZIN A   1      19.418   2.531  11.759  0.00  0.00     0.005 C 
ATOM     10  C16 ZIN A   1      17.789   1.544   9.534  0.00  0.00     0.007 C 
ATOM     11  C19 ZIN A   1      18.540  -0.208  11.154  0.00  0.00     0.278 C 
ATOM     12  C15 ZIN A   1      19.235   2.003   9.325  0.00  0.00     0.000 C 
ATOM     13  C14 ZIN A   1      19.573   3.092  10.344  0.00  0.00     0.000 C 
BRANCH   5  14
ATOM     14  C6  ZIN A   1      18.610  -0.334  14.883  0.00  0.00     0.252 C 
ATOM     15  N5  ZIN A   1      18.099   0.407  15.887  0.00  0.00    -0.351 N 
ATOM     16  H65 ZIN A   1      17.822   1.322  15.722  0.00  0.00     0.163 HD
ATOM     17  O7  ZIN A   1      18.956  -1.478  15.089  0.00  0.00    -0.271 OA
BRANCH  15  18
ATOM     18  C2  ZIN A   1      17.961  -0.170  17.226  0.00  0.00     0.022 C 
ATOM     19  C1  ZIN A   1      19.339  -0.588  17.745  0.00  0.00     0.037 C 
ATOM     20  C3  ZIN A   1      17.046  -1.395  17.163  0.00  0.00     0.037 C 
ATOM     21  C4  ZIN A   1      17.355   0.871  18.170  0.00  0.00     0.037 C 
ENDBRANCH  15  18
ENDBRANCH   5  14
ENDBRANCH   3   4
ENDBRANCH   2   3
BRANCH   2  22
ATOM     22  O24 ZIN A   1      20.964  -3.172  11.616  0.00  0.00    -0.392 OA
ATOM     23  H80 ZIN A   1      20.741  -4.076  11.877  0.00  0.00     0.210 HD
ENDBRANCH   2  22
ENDBRANCH   1   2
BRANCH   1  24
ATOM     24  C27 ZIN A   1      18.836  -4.584  10.862  0.00  0.00     0.066 C 
BRANCH  24  25
ATOM     25  C28 ZIN A   1      17.934  -5.348   9.928  0.00  0.00    -0.056 A 
ATOM     26  C33 ZIN A   1      18.465  -6.311   9.089  0.00  0.00     0.007 A 
ATOM     27  C32 ZIN A   1      17.637  -7.016   8.236  0.00  0.00     0.001 A 
ATOM     28  C31 ZIN A   1      16.280  -6.751   8.214  0.00  0.00     0.000 A 
ATOM     29  C30 ZIN A   1      15.750  -5.786   9.049  0.00  0.00     0.001 A 
ATOM     30  C29 ZIN A   1      16.578  -5.084   9.906  0.00  0.00     0.007 A 
ENDBRANCH  24  25
ENDBRANCH   1  24
BRANCH   1  31
ATOM     31  N34 ZIN A   1      19.229  -2.968   9.069  0.00  0.00    -0.352 N 
ATOM     32  C35 ZIN A   1      18.435  -2.301   8.208  0.00  0.00     0.241 C 
ATOM     33  O36 ZIN A   1      17.396  -1.812   8.596  0.00  0.00    -0.271 OA
ATOM     34  H88 ZIN A   1      20.062  -3.359   8.758  0.00  0.00     0.163 HD
BRANCH  32  35
ATOM     35  C37 ZIN A   1      18.840  -2.161   6.763  0.00  0.00     0.185 C 
BRANCH  35  36
ATOM     36  C39 ZIN A   1      19.102  -0.687   6.447  0.00  0.00     0.137 C 
BRANCH  36  37
ATOM     37  C40 ZIN A   1      19.449  -0.540   4.988  0.00  0.00     0.217 C 
ATOM     38  N41 ZIN A   1      19.235   0.632   4.359  0.00  0.00    -0.370 N 
ATOM     39  H91 ZIN A   1      18.856   1.382   4.844  0.00  0.00     0.159 HD
ATOM     40  H92 ZIN A   1      19.458   0.727   3.419  0.00  0.00     0.159 HD
ATOM     41  O42 ZIN A   1      19.923  -1.477   4.380  0.00  0.00    -0.274 OA
ENDBRANCH  36  37
ENDBRANCH  35  36
BRANCH  35  42
ATOM     42  N43 ZIN A   1      17.763  -2.661   5.905  0.00  0.00    -0.342 N 
ATOM     43  C44 ZIN A   1      17.826  -3.911   5.404  0.00  0.00     0.271 C 
ATOM     44  O45 ZIN A   1      18.727  -4.655   5.738  0.00  0.00    -0.266 OA
ATOM     45  H93 ZIN A   1      17.005  -2.093   5.696  0.00  0.00     0.163 HD
BRANCH  43  46
ATOM     46  C46 ZIN A   1      16.795  -4.379   4.448  0.00  0.00     0.125 A 
ATOM     47  N55 ZIN A   1      15.996  -5.369   4.795  0.00  0.00    -0.243 NA
ATOM     48  C54 ZIN A   1      15.052  -5.819   3.969  0.00  0.00     0.068 A 
ATOM     49  C49 ZIN A   1      14.898  -5.238   2.683  0.00  0.00    -0.007 A 
ATOM     50  C53 ZIN A   1      14.198  -6.874   4.349  0.00  0.00     0.032 A 
ATOM     51  C48 ZIN A   1      15.749  -4.185   2.301  0.00  0.00     0.016 A 
ATOM     52  C50 ZIN A   1      13.904  -5.723   1.817  0.00  0.00     0.014 A 
ATOM     53  C47 ZIN A   1      16.694  -3.762   3.192  0.00  0.00     0.038 A 
ATOM     54  C51 ZIN A   1      13.100  -6.744   2.221  0.00  0.00     0.001 A 
ATOM     55  C52 ZIN A   1      13.247  -7.317   3.483  0.00  0.00     0.002 A 
ENDBRANCH  43  46
ENDBRANCH  35  42
ENDBRANCH  32  35
ENDBRANCH   1  31
TORSDOF 14
ENDMDL
MODEL 6
REMARK VINA RESULT:      -9.2      3.365      7.693
REMARK  14 active torsions:
REMARK  status: ('A' for Active; 'I' for Inactive)
REMARK    1  A    between atoms: C2_2  and  N5_5 
REMARK       I    between atoms: N5_5  and  C6_6 
REMARK    2  A    between atoms: C6_6  and  C8_8 
REMARK    3  A    between atoms: N20_17  and  C21_18 
REMARK    4  A    between atoms: C21_18  and  C22_19 
REMARK    5  A    between atoms: C22_19  and  O24_20 
REMARK    6  A    between atoms: C22_19  and  C25_21 
REMARK    7  A    between atoms: C25_21  and  C27_22 
REMARK    8  A    between atoms: C25_21  and  N34_29 
REMARK    9  A    between atoms: C27_22  and  C28_23 
REMARK       I    between atoms: N34_29  and  C35_30 
REMARK   10  A    between atoms: C35_30  and  C37_32 
REMARK   11  A    between atoms: C37_32  and  C39_33 
REMARK   12  A    between atoms: C37_32  and  N43_37 
REMARK   13  A    between atoms: C39_33  and  C40_34 
REMARK       I    between atoms: C40_34  and  N41_35 
REMARK       I    between atoms: N43_37  and  C44_38 
REMARK   14  A    between atoms: C44_38  and  C46_40 
ROOT
ATOM      1  C25 ZIN A   1      18.929   3.321  12.366  0.00  0.00     0.119 C 
ENDROOT
BRANCH   1   2
ATOM      2  C22 ZIN A   1      18.855   4.468  13.376  0.00  0.00     0.169 C 
BRANCH   2   3
ATOM      3  C21 ZIN A   1      17.791   4.151  14.429  0.00  0.00     0.307 C 
BRANCH   3   4
ATOM      4  N20 ZIN A   1      18.412   4.130  15.761  0.00  0.00     0.105 N 
ATOM      5  C8  ZIN A   1      17.712   5.043  16.673  0.00  0.00     0.314 C 
ATOM      6  C10 ZIN A   1      18.454   5.100  18.010  0.00  0.00     0.050 C 
ATOM      7  C11 ZIN A   1      18.513   3.693  18.614  0.00  0.00    -0.006 C 
ATOM      8  C17 ZIN A   1      19.211   2.758  17.624  0.00  0.00     0.018 C 
ATOM      9  C13 ZIN A   1      17.088   3.201  18.879  0.00  0.00     0.005 C 
ATOM     10  C16 ZIN A   1      19.236   1.336  18.186  0.00  0.00     0.007 C 
ATOM     11  C19 ZIN A   1      18.437   2.778  16.303  0.00  0.00     0.278 C 
ATOM     12  C15 ZIN A   1      17.809   0.850  18.449  0.00  0.00     0.000 C 
ATOM     13  C14 ZIN A   1      17.133   1.784  19.453  0.00  0.00     0.000 C 
BRANCH   5  14
ATOM     14  C6  ZIN A   1      17.665   6.421  16.066  0.00  0.00     0.252 C 
ATOM     15  N5  ZIN A   1      16.515   7.124  16.078  0.00  0.00    -0.351 N 
ATOM     16  H65 ZIN A   1      15.718   6.742  16.478  0.00  0.00     0.163 HD
ATOM     17  O7  ZIN A   1      18.662   6.898  15.566  0.00  0.00    -0.271 OA
BRANCH  15  18
ATOM     18  C2  ZIN A   1      16.469   8.464  15.487  0.00  0.00     0.022 C 
ATOM     19  C1  ZIN A   1      17.314   9.422  16.330  0.00  0.00     0.037 C 
ATOM     20  C3  ZIN A   1      15.021   8.956  15.452  0.00  0.00     0.037 C 
ATOM     21  C4  ZIN A   1      17.025   8.412  14.063  0.00  0.00     0.037 C 
ENDBRANCH  15  18
ENDBRANCH   5  14
ENDBRANCH   3   4
ENDBRANCH   2   3
BRANCH   2  22
ATOM     22  O24 ZIN A   1      20.124   4.625  14.012  0.00  0.00    -0.392 OA
ATOM     23  H80 ZIN A   1      20.722   3.874  13.888  0.00  0.00     0.210 HD
ENDBRANCH   2  22
ENDBRANCH   1   2
BRANCH   1  24
ATOM     24  C27 ZIN A   1      17.997   3.616  11.189  0.00  0.00     0.066 C 
BRANCH  24  25
ATOM     25  C28 ZIN A   1      18.172   2.558  10.131  0.00  0.00    -0.056 A 
ATOM     26  C33 ZIN A   1      19.117   2.725   9.136  0.00  0.00     0.007 A 
ATOM     27  C32 ZIN A   1      19.280   1.752   8.168  0.00  0.00     0.001 A 
ATOM     28  C31 ZIN A   1      18.493   0.616   8.190  0.00  0.00     0.000 A 
ATOM     29  C30 ZIN A   1      17.546   0.450   9.183  0.00  0.00     0.001 A 
ATOM     30  C29 ZIN A   1      17.385   1.422  10.154  0.00  0.00     0.007 A 
ENDBRANCH  24  25
ENDBRANCH   1  24
BRANCH   1  31
ATOM     31  N34 ZIN A   1      18.518   2.073  13.012  0.00  0.00    -0.352 N 
ATOM     32  C35 ZIN A   1      19.321   0.992  12.962  0.00  0.00     0.241 C 
ATOM     33  O36 ZIN A   1      20.383   1.051  12.381  0.00  0.00    -0.271 OA
ATOM     34  H88 ZIN A   1      17.668   2.025  13.478  0.00  0.00     0.163 HD
BRANCH  32  35
ATOM     35  C37 ZIN A   1      18.898  -0.293  13.627  0.00  0.00     0.185 C 
BRANCH  35  36
ATOM     36  C39 ZIN A   1      19.739  -0.515  14.887  0.00  0.00     0.137 C 
BRANCH  36  37
ATOM     37  C40 ZIN A   1      18.946  -1.321  15.883  0.00  0.00     0.217 C 
ATOM     38  N41 ZIN A   1      17.603  -1.378  15.789  0.00  0.00    -0.370 N 
ATOM     39  H91 ZIN A   1      17.146  -0.898  15.080  0.00  0.00     0.159 HD
ATOM     40  H92 ZIN A   1      17.093  -1.897  16.430  0.00  0.00     0.159 HD
ATOM     41  O42 ZIN A   1      19.517  -1.922  16.770  0.00  0.00    -0.274 OA
ENDBRANCH  36  37
ENDBRANCH  35  36
BRANCH  35  42
ATOM     42  N43 ZIN A   1      19.098  -1.411  12.702  0.00  0.00    -0.342 N 
ATOM     43  C44 ZIN A   1      18.043  -1.957  12.066  0.00  0.00     0.271 C 
ATOM     44  O45 ZIN A   1      16.939  -1.464  12.189  0.00  0.00    -0.266 OA
ATOM     45  H93 ZIN A   1      19.990  -1.759  12.547  0.00  0.00     0.163 HD
BRANCH  43  46
ATOM     46  C46 ZIN A   1      18.229  -3.157  11.217  0.00  0.00     0.125 A 
ATOM     47  N55 ZIN A   1      17.180  -3.700  10.631  0.00  0.00    -0.243 NA
ATOM     48  C54 ZIN A   1      17.301  -4.777   9.855  0.00  0.00     0.068 A 
ATOM     49  C49 ZIN A   1      18.576  -5.368   9.654  0.00  0.00    -0.007 A 
ATOM     50  C53 ZIN A   1      16.176  -5.349   9.227  0.00  0.00     0.032 A 
ATOM     51  C48 ZIN A   1      19.700  -4.799  10.280  0.00  0.00     0.016 A 
ATOM     52  C50 ZIN A   1      18.692  -6.506   8.840  0.00  0.00     0.014 A 
ATOM     53  C47 ZIN A   1      19.516  -3.693  11.059  0.00  0.00     0.038 A 
ATOM     54  C51 ZIN A   1      17.582  -7.029   8.252  0.00  0.00     0.001 A 
ATOM     55  C52 ZIN A   1      16.328  -6.451   8.445  0.00  0.00     0.002 A 
ENDBRANCH  43  46
ENDBRANCH  35  42
ENDBRANCH  32  35
ENDBRANCH   1  31
TORSDOF 14
ENDMDL
MODEL 7
REMARK VINA RESULT:      -9.2      3.423      9.388
REMARK  14 active torsions:
REMARK  status: ('A' for Active; 'I' for Inactive)
REMARK    1  A    between atoms: C2_2  and  N5_5 
REMARK       I    between atoms: N5_5  and  C6_6 
REMARK    2  A    between atoms: C6_6  and  C8_8 
REMARK    3  A    between atoms: N20_17  and  C21_18 
REMARK    4  A    between atoms: C21_18  and  C22_19 
REMARK    5  A    between atoms: C22_19  and  O24_20 
REMARK    6  A    between atoms: C22_19  and  C25_21 
REMARK    7  A    between atoms: C25_21  and  C27_22 
REMARK    8  A    between atoms: C25_21  and  N34_29 
REMARK    9  A    between atoms: C27_22  and  C28_23 
REMARK       I    between atoms: N34_29  and  C35_30 
REMARK   10  A    between atoms: C35_30  and  C37_32 
REMARK   11  A    between atoms: C37_32  and  C39_33 
REMARK   12  A    between atoms: C37_32  and  N43_37 
REMARK   13  A    between atoms: C39_33  and  C40_34 
REMARK       I    between atoms: C40_34  and  N41_35 
REMARK       I    between atoms: N43_37  and  C44_38 
REMARK   14  A    between atoms: C44_38  and  C46_40 
ROOT
ATOM      1  C25 ZIN A   1      19.239  -1.217  12.989  0.00  0.00     0.119 C 
ENDROOT
BRANCH   1   2
ATOM      2  C22 ZIN A   1      18.558  -0.211  12.058  0.00  0.00     0.169 C 
BRANCH   2   3
ATOM      3  C21 ZIN A   1      19.397  -0.040  10.790  0.00  0.00     0.307 C 
BRANCH   3   4
ATOM      4  N20 ZIN A   1      19.393   1.373  10.388  0.00  0.00     0.105 N 
ATOM      5  C8  ZIN A   1      18.158   1.701   9.664  0.00  0.00     0.314 C 
ATOM      6  C10 ZIN A   1      18.236   3.139   9.145  0.00  0.00     0.050 C 
ATOM      7  C11 ZIN A   1      18.423   4.093  10.329  0.00  0.00    -0.006 C 
ATOM      8  C17 ZIN A   1      19.693   3.700  11.086  0.00  0.00     0.018 C 
ATOM      9  C13 ZIN A   1      17.209   3.984  11.256  0.00  0.00     0.005 C 
ATOM     10  C16 ZIN A   1      19.872   4.609  12.302  0.00  0.00     0.007 C 
ATOM     11  C19 ZIN A   1      19.561   2.245  11.543  0.00  0.00     0.278 C 
ATOM     12  C15 ZIN A   1      18.657   4.496  13.225  0.00  0.00     0.000 C 
ATOM     13  C14 ZIN A   1      17.399   4.910  12.460  0.00  0.00     0.000 C 
BRANCH   5  14
ATOM     14  C6  ZIN A   1      17.992   0.756   8.502  0.00  0.00     0.252 C 
ATOM     15  N5  ZIN A   1      18.783   0.878   7.417  0.00  0.00    -0.351 N 
ATOM     16  H65 ZIN A   1      19.458   1.573   7.384  0.00  0.00     0.163 HD
ATOM     17  O7  ZIN A   1      17.147  -0.113   8.543  0.00  0.00    -0.271 OA
BRANCH  15  18
ATOM     18  C2  ZIN A   1      18.621  -0.040   6.287  0.00  0.00     0.022 C 
ATOM     19  C1  ZIN A   1      19.416   0.481   5.088  0.00  0.00     0.037 C 
ATOM     20  C3  ZIN A   1      17.140  -0.135   5.914  0.00  0.00     0.037 C 
ATOM     21  C4  ZIN A   1      19.138  -1.426   6.677  0.00  0.00     0.037 C 
ENDBRANCH  15  18
ENDBRANCH   5  14
ENDBRANCH   3   4
ENDBRANCH   2   3
BRANCH   2  22
ATOM     22  O24 ZIN A   1      17.258  -0.691  11.709  0.00  0.00    -0.392 OA
ATOM     23  H80 ZIN A   1      16.990  -0.478  10.804  0.00  0.00     0.210 HD
ENDBRANCH   2  22
ENDBRANCH   1   2
BRANCH   1  24
ATOM     24  C27 ZIN A   1      18.284  -2.377  13.274  0.00  0.00     0.066 C 
BRANCH  24  25
ATOM     25  C28 ZIN A   1      18.447  -3.435  12.215  0.00  0.00    -0.056 A 
ATOM     26  C33 ZIN A   1      19.684  -3.649  11.636  0.00  0.00     0.007 A 
ATOM     27  C32 ZIN A   1      19.835  -4.623  10.667  0.00  0.00     0.001 A 
ATOM     28  C31 ZIN A   1      18.747  -5.377  10.270  0.00  0.00     0.000 A 
ATOM     29  C30 ZIN A   1      17.509  -5.161  10.846  0.00  0.00     0.001 A 
ATOM     30  C29 ZIN A   1      17.359  -4.189  11.818  0.00  0.00     0.007 A 
ENDBRANCH  24  25
ENDBRANCH   1  24
BRANCH   1  31
ATOM     31  N34 ZIN A   1      19.595  -0.556  14.246  0.00  0.00    -0.352 N 
ATOM     32  C35 ZIN A   1      18.784   0.388  14.764  0.00  0.00     0.241 C 
ATOM     33  O36 ZIN A   1      17.761   0.691  14.189  0.00  0.00    -0.271 OA
ATOM     34  H88 ZIN A   1      20.414  -0.798  14.707  0.00  0.00     0.163 HD
BRANCH  32  35
ATOM     35  C37 ZIN A   1      19.151   1.069  16.058  0.00  0.00     0.185 C 
BRANCH  35  36
ATOM     36  C39 ZIN A   1      18.881   0.119  17.227  0.00  0.00     0.137 C 
BRANCH  36  37
ATOM     37  C40 ZIN A   1      17.511   0.393  17.791  0.00  0.00     0.217 C 
ATOM     38  N41 ZIN A   1      16.415  -0.056  17.147  0.00  0.00    -0.370 N 
ATOM     39  H91 ZIN A   1      16.509  -0.554  16.320  0.00  0.00     0.159 HD
ATOM     40  H92 ZIN A   1      15.533   0.120  17.509  0.00  0.00     0.159 HD
ATOM     41  O42 ZIN A   1      17.393   1.016  18.825  0.00  0.00    -0.274 OA
ENDBRANCH  36  37
ENDBRANCH  35  36
BRANCH  35  42
ATOM     42  N43 ZIN A   1      18.345   2.282  16.217  0.00  0.00    -0.342 N 
ATOM     43  C44 ZIN A   1      18.869   3.365  16.822  0.00  0.00     0.271 C 
ATOM     44  O45 ZIN A   1      20.039   3.370  17.154  0.00  0.00    -0.266 OA
ATOM     45  H93 ZIN A   1      17.433   2.305  15.887  0.00  0.00     0.163 HD
BRANCH  43  46
ATOM     46  C46 ZIN A   1      18.021   4.553  17.083  0.00  0.00     0.125 A 
ATOM     47  N55 ZIN A   1      17.627   5.298  16.069  0.00  0.00    -0.243 NA
ATOM     48  C54 ZIN A   1      16.860   6.372  16.256  0.00  0.00     0.068 A 
ATOM     49  C49 ZIN A   1      16.459   6.738  17.568  0.00  0.00    -0.007 A 
ATOM     50  C53 ZIN A   1      16.439   7.161  15.167  0.00  0.00     0.032 A 
ATOM     51  C48 ZIN A   1      16.879   5.952  18.657  0.00  0.00     0.016 A 
ATOM     52  C50 ZIN A   1      15.656   7.874  17.756  0.00  0.00     0.014 A 
ATOM     53  C47 ZIN A   1      17.659   4.860  18.402  0.00  0.00     0.038 A 
ATOM     54  C51 ZIN A   1      15.271   8.611  16.678  0.00  0.00     0.001 A 
ATOM     55  C52 ZIN A   1      15.661   8.254  15.388  0.00  0.00     0.002 A 
ENDBRANCH  43  46
ENDBRANCH  35  42
ENDBRANCH  32  35
ENDBRANCH   1  31
TORSDOF 14
ENDMDL
MODEL 8
REMARK VINA RESULT:      -9.1      2.269      5.576
REMARK  14 active torsions:
REMARK  status: ('A' for Active; 'I' for Inactive)
REMARK    1  A    between atoms: C2_2  and  N5_5 
REMARK       I    between atoms: N5_5  and  C6_6 
REMARK    2  A    between atoms: C6_6  and  C8_8 
REMARK    3  A    between atoms: N20_17  and  C21_18 
REMARK    4  A    between atoms: C21_18  and  C22_19 
REMARK    5  A    between atoms: C22_19  and  O24_20 
REMARK    6  A    between atoms: C22_19  and  C25_21 
REMARK    7  A    between atoms: C25_21  and  C27_22 
REMARK    8  A    between atoms: C25_21  and  N34_29 
REMARK    9  A    between atoms: C27_22  and  C28_23 
REMARK       I    between atoms: N34_29  and  C35_30 
REMARK   10  A    between atoms: C35_30  and  C37_32 
REMARK   11  A    between atoms: C37_32  and  C39_33 
REMARK   12  A    between atoms: C37_32  and  N43_37 
REMARK   13  A    between atoms: C39_33  and  C40_34 
REMARK       I    between atoms: C40_34  and  N41_35 
REMARK       I    between atoms: N43_37  and  C44_38 
REMARK   14  A    between atoms: C44_38  and  C46_40 
ROOT
ATOM      1  C25 ZIN A   1      19.370  -1.193  10.968  0.00  0.00     0.119 C 
ENDROOT
BRANCH   1   2
ATOM      2  C22 ZIN A   1      20.182   0.006  11.462  0.00  0.00     0.169 C 
BRANCH   2   3
ATOM      3  C21 ZIN A   1      19.824   0.299  12.921  0.00  0.00     0.307 C 
BRANCH   3   4
ATOM      4  N20 ZIN A   1      18.693   1.236  12.968  0.00  0.00     0.105 N 
ATOM      5  C8  ZIN A   1      18.787   2.101  14.151  0.00  0.00     0.314 C 
ATOM      6  C10 ZIN A   1      17.535   2.976  14.247  0.00  0.00     0.050 C 
ATOM      7  C11 ZIN A   1      17.418   3.827  12.978  0.00  0.00    -0.006 C 
ATOM      8  C17 ZIN A   1      17.363   2.900  11.762  0.00  0.00     0.018 C 
ATOM      9  C13 ZIN A   1      18.637   4.747  12.877  0.00  0.00     0.005 C 
ATOM     10  C16 ZIN A   1      17.296   3.731  10.481  0.00  0.00     0.007 C 
ATOM     11  C19 ZIN A   1      18.624   2.033  11.751  0.00  0.00     0.278 C 
ATOM     12  C15 ZIN A   1      18.517   4.648  10.385  0.00  0.00     0.000 C 
ATOM     13  C14 ZIN A   1      18.547   5.580  11.597  0.00  0.00     0.000 C 
BRANCH   5  14
ATOM     14  C6  ZIN A   1      18.899   1.248  15.388  0.00  0.00     0.252 C 
ATOM     15  N5  ZIN A   1      18.052   0.216  15.574  0.00  0.00    -0.351 N 
ATOM     16  H65 ZIN A   1      17.371   0.023  14.911  0.00  0.00     0.163 HD
ATOM     17  O7  ZIN A   1      19.751   1.490  16.217  0.00  0.00    -0.271 OA
BRANCH  15  18
ATOM     18  C2  ZIN A   1      18.160  -0.613  16.777  0.00  0.00     0.022 C 
ATOM     19  C1  ZIN A   1      16.894  -1.460  16.928  0.00  0.00     0.037 C 
ATOM     20  C3  ZIN A   1      18.321   0.288  18.004  0.00  0.00     0.037 C 
ATOM     21  C4  ZIN A   1      19.377  -1.532  16.656  0.00  0.00     0.037 C 
ENDBRANCH  15  18
ENDBRANCH   5  14
ENDBRANCH   3   4
ENDBRANCH   2   3
BRANCH   2  22
ATOM     22  O24 ZIN A   1      21.576  -0.290  11.364  0.00  0.00    -0.392 OA
ATOM     23  H80 ZIN A   1      22.076  -0.105  12.172  0.00  0.00     0.210 HD
ENDBRANCH   2  22
ENDBRANCH   1   2
BRANCH   1  24
ATOM     24  C27 ZIN A   1      19.711  -2.423  11.812  0.00  0.00     0.066 C 
BRANCH  24  25
ATOM     25  C28 ZIN A   1      18.886  -3.595  11.349  0.00  0.00    -0.056 A 
ATOM     26  C33 ZIN A   1      19.436  -4.534  10.497  0.00  0.00     0.007 A 
ATOM     27  C32 ZIN A   1      18.680  -5.612  10.075  0.00  0.00     0.001 A 
ATOM     28  C31 ZIN A   1      17.371  -5.746  10.498  0.00  0.00     0.000 A 
ATOM     29  C30 ZIN A   1      16.819  -4.805  11.347  0.00  0.00     0.001 A 
ATOM     30  C29 ZIN A   1      17.577  -3.728  11.772  0.00  0.00     0.007 A 
ENDBRANCH  24  25
ENDBRANCH   1  24
BRANCH   1  31
ATOM     31  N34 ZIN A   1      19.695  -1.459   9.565  0.00  0.00    -0.352 N 
ATOM     32  C35 ZIN A   1      18.757  -1.287   8.612  0.00  0.00     0.241 C 
ATOM     33  O36 ZIN A   1      17.645  -0.913   8.916  0.00  0.00    -0.271 OA
ATOM     34  H88 ZIN A   1      20.586  -1.758   9.322  0.00  0.00     0.163 HD
BRANCH  32  35
ATOM     35  C37 ZIN A   1      19.092  -1.561   7.168  0.00  0.00     0.185 C 
BRANCH  35  36
ATOM     36  C39 ZIN A   1      18.657  -0.370   6.310  0.00  0.00     0.137 C 
BRANCH  36  37
ATOM     37  C40 ZIN A   1      18.937  -0.668   4.860  0.00  0.00     0.217 C 
ATOM     38  N41 ZIN A   1      17.964  -0.513   3.940  0.00  0.00    -0.370 N 
ATOM     39  H91 ZIN A   1      17.083  -0.211   4.212  0.00  0.00     0.159 HD
ATOM     40  H92 ZIN A   1      18.144  -0.705   3.006  0.00  0.00     0.159 HD
ATOM     41  O42 ZIN A   1      20.038  -1.046   4.519  0.00  0.00    -0.274 OA
ENDBRANCH  36  37
ENDBRANCH  35  36
BRANCH  35  42
ATOM     42  N43 ZIN A   1      18.388  -2.766   6.724  0.00  0.00    -0.342 N 
ATOM     43  C44 ZIN A   1      19.086  -3.868   6.386  0.00  0.00     0.271 C 
ATOM     44  O45 ZIN A   1      20.292  -3.893   6.537  0.00  0.00    -0.266 OA
ATOM     45  H93 ZIN A   1      17.420  -2.772   6.673  0.00  0.00     0.163 HD
BRANCH  43  46
ATOM     46  C46 ZIN A   1      18.384  -5.050   5.832  0.00  0.00     0.125 A 
ATOM     47  N55 ZIN A   1      17.772  -4.949   4.668  0.00  0.00    -0.243 NA
ATOM     48  C54 ZIN A   1      17.133  -5.986   4.130  0.00  0.00     0.068 A 
ATOM     49  C49 ZIN A   1      17.093  -7.229   4.815  0.00  0.00    -0.007 A 
ATOM     50  C53 ZIN A   1      16.485  -5.872   2.883  0.00  0.00     0.032 A 
ATOM     51  C48 ZIN A   1      17.738  -7.345   6.060  0.00  0.00     0.016 A 
ATOM     52  C50 ZIN A   1      16.411  -8.315   4.242  0.00  0.00     0.014 A 
ATOM     53  C47 ZIN A   1      18.382  -6.249   6.559  0.00  0.00     0.038 A 
ATOM     54  C51 ZIN A   1      15.798  -8.164   3.037  0.00  0.00     0.001 A 
ATOM     55  C52 ZIN A   1      15.836  -6.946   2.360  0.00  0.00     0.002 A 
ENDBRANCH  43  46
ENDBRANCH  35  42
ENDBRANCH  32  35
ENDBRANCH   1  31
TORSDOF 14
ENDMDL
MODEL 9
REMARK VINA RESULT:      -8.9      2.272      5.765
REMARK  14 active torsions:
REMARK  status: ('A' for Active; 'I' for Inactive)
REMARK    1  A    between atoms: C2_2  and  N5_5 
REMARK       I    between atoms: N5_5  and  C6_6 
REMARK    2  A    between atoms: C6_6  and  C8_8 
REMARK    3  A    between atoms: N20_17  and  C21_18 
REMARK    4  A    between atoms: C21_18  and  C22_19 
REMARK    5  A    between atoms: C22_19  and  O24_20 
REMARK    6  A    between atoms: C22_19  and  C25_21 
REMARK    7  A    between atoms: C25_21  and  C27_22 
REMARK    8  A    between atoms: C25_21  and  N34_29 
REMARK    9  A    between atoms: C27_22  and  C28_23 
REMARK       I    between atoms: N34_29  and  C35_30 
REMARK   10  A    between atoms: C35_30  and  C37_32 
REMARK   11  A    between atoms: C37_32  and  C39_33 
REMARK   12  A    between atoms: C37_32  and  N43_37 
REMARK   13  A    between atoms: C39_33  and  C40_34 
REMARK       I    between atoms: C40_34  and  N41_35 
REMARK       I    between atoms: N43_37  and  C44_38 
REMARK   14  A    between atoms: C44_38  and  C46_40 
ROOT
ATOM      1  C25 ZIN A   1      18.638  -2.094  10.442  0.00  0.00     0.119 C 
ENDROOT
BRANCH   1   2
ATOM      2  C22 ZIN A   1      19.231  -0.847  11.102  0.00  0.00     0.169 C 
BRANCH   2   3
ATOM      3  C21 ZIN A   1      18.187  -0.212  12.023  0.00  0.00     0.307 C 
BRANCH   3   4
ATOM      4  N20 ZIN A   1      18.792   0.063  13.333  0.00  0.00     0.105 N 
ATOM      5  C8  ZIN A   1      18.336   1.359  13.852  0.00  0.00     0.314 C 
ATOM      6  C10 ZIN A   1      19.078   1.681  15.151  0.00  0.00     0.050 C 
ATOM      7  C11 ZIN A   1      18.802   0.575  16.176  0.00  0.00    -0.006 C 
ATOM      8  C17 ZIN A   1      19.250  -0.766  15.590  0.00  0.00     0.018 C 
ATOM      9  C13 ZIN A   1      17.303   0.536  16.479  0.00  0.00     0.005 C 
ATOM     10  C16 ZIN A   1      18.939  -1.891  16.577  0.00  0.00     0.007 C 
ATOM     11  C19 ZIN A   1      18.497  -1.004  14.279  0.00  0.00     0.278 C 
ATOM     12  C15 ZIN A   1      17.438  -1.926  16.877  0.00  0.00     0.000 C 
ATOM     13  C14 ZIN A   1      17.010  -0.586  17.478  0.00  0.00     0.000 C 
BRANCH   5  14
ATOM     14  C6  ZIN A   1      18.617   2.434  12.835  0.00  0.00     0.252 C 
ATOM     15  N5  ZIN A   1      17.603   3.171  12.336  0.00  0.00    -0.351 N 
ATOM     16  H65 ZIN A   1      16.694   3.009  12.632  0.00  0.00     0.163 HD
ATOM     17  O7  ZIN A   1      19.753   2.637  12.464  0.00  0.00    -0.271 OA
BRANCH  15  18
ATOM     18  C2  ZIN A   1      17.876   4.216  11.346  0.00  0.00     0.022 C 
ATOM     19  C1  ZIN A   1      18.232   3.569  10.006  0.00  0.00     0.037 C 
ATOM     20  C3  ZIN A   1      19.047   5.078  11.824  0.00  0.00     0.037 C 
ATOM     21  C4  ZIN A   1      16.634   5.093  11.175  0.00  0.00     0.037 C 
ENDBRANCH  15  18
ENDBRANCH   5  14
ENDBRANCH   3   4
ENDBRANCH   2   3
BRANCH   2  22
ATOM     22  O24 ZIN A   1      20.381  -1.213  11.866  0.00  0.00    -0.392 OA
ATOM     23  H80 ZIN A   1      20.739  -0.495  12.407  0.00  0.00     0.210 HD
ENDBRANCH   2  22
ENDBRANCH   1   2
BRANCH   1  24
ATOM     24  C27 ZIN A   1      19.296  -3.343  11.030  0.00  0.00     0.066 C 
BRANCH  24  25
ATOM     25  C28 ZIN A   1      18.764  -4.567  10.331  0.00  0.00    -0.056 A 
ATOM     26  C33 ZIN A   1      19.548  -5.230   9.404  0.00  0.00     0.007 A 
ATOM     27  C32 ZIN A   1      19.061  -6.355   8.766  0.00  0.00     0.001 A 
ATOM     28  C31 ZIN A   1      17.787  -6.813   9.048  0.00  0.00     0.000 A 
ATOM     29  C30 ZIN A   1      17.002  -6.148   9.971  0.00  0.00     0.001 A 
ATOM     30  C29 ZIN A   1      17.491  -5.025  10.612  0.00  0.00     0.007 A 
ENDBRANCH  24  25
ENDBRANCH   1  24
BRANCH   1  31
ATOM     31  N34 ZIN A   1      18.882  -2.045   8.999  0.00  0.00    -0.352 N 
ATOM     32  C35 ZIN A   1      18.111  -1.271   8.211  0.00  0.00     0.241 C 
ATOM     33  O36 ZIN A   1      17.214  -0.614   8.696  0.00  0.00    -0.271 OA
ATOM     34  H88 ZIN A   1      19.600  -2.571   8.611  0.00  0.00     0.163 HD
BRANCH  32  35
ATOM     35  C37 ZIN A   1      18.361  -1.221   6.725  0.00  0.00     0.185 C 
BRANCH  35  36
ATOM     36  C39 ZIN A   1      17.814   0.091   6.160  0.00  0.00     0.137 C 
BRANCH  36  37
ATOM     37  C40 ZIN A   1      18.929   1.102   6.070  0.00  0.00     0.217 C 
ATOM     38  N41 ZIN A   1      19.863   0.992   5.106  0.00  0.00    -0.370 N 
ATOM     39  H91 ZIN A   1      19.820   0.260   4.469  0.00  0.00     0.159 HD
ATOM     40  H92 ZIN A   1      20.581   1.642   5.048  0.00  0.00     0.159 HD
ATOM     41  O42 ZIN A   1      18.984   2.016   6.866  0.00  0.00    -0.274 OA
ENDBRANCH  36  37
ENDBRANCH  35  36
BRANCH  35  42
ATOM     42  N43 ZIN A   1      17.688  -2.351   6.079  0.00  0.00    -0.342 N 
ATOM     43  C44 ZIN A   1      18.413  -3.293   5.444  0.00  0.00     0.271 C 
ATOM     44  O45 ZIN A   1      19.627  -3.257   5.486  0.00  0.00    -0.266 OA
ATOM     45  H93 ZIN A   1      16.721  -2.420   6.107  0.00  0.00     0.163 HD
BRANCH  43  46
ATOM     46  C46 ZIN A   1      17.729  -4.375   4.696  0.00  0.00     0.125 A 
ATOM     47  N55 ZIN A   1      16.859  -4.058   3.757  0.00  0.00    -0.243 NA
ATOM     48  C54 ZIN A   1      16.225  -4.997   3.056  0.00  0.00     0.068 A 
ATOM     49  C49 ZIN A   1      16.473  -6.370   3.321  0.00  0.00    -0.007 A 
ATOM     50  C53 ZIN A   1      15.301  -4.652   2.050  0.00  0.00     0.032 A 
ATOM     51  C48 ZIN A   1      17.395  -6.718   4.325  0.00  0.00     0.016 A 
ATOM     52  C50 ZIN A   1      15.795  -7.352   2.581  0.00  0.00     0.014 A 
ATOM     53  C47 ZIN A   1      18.019  -5.712   5.006  0.00  0.00     0.038 A 
ATOM     54  C51 ZIN A   1      14.909  -6.978   1.619  0.00  0.00     0.001 A 
ATOM     55  C52 ZIN A   1      14.664  -5.631   1.354  0.00  0.00     0.002 A 
ENDBRANCH  43  46
ENDBRANCH  35  42
ENDBRANCH  32  35
ENDBRANCH   1  31
TORSDOF 14
ENDMDL
