MODEL 1
REMARK VINA RESULT:      -8.3      0.000      0.000
REMARK  1 active torsions:
REMARK  status: ('A' for Active; 'I' for Inactive)
REMARK    1  A    between atoms: C9_9  and  C10_10 
ROOT
ATOM      1  C1  ZIN A   1      17.156   0.220   9.292  0.00  0.00     0.089 C 
ATOM      2  C2  ZIN A   1      18.489  -0.018   9.952  0.00  0.00     0.084 A 
ATOM      3  N3  ZIN A   1      19.349  -0.948   9.627  0.00  0.00    -0.354 N 
ATOM      4  H4  ZIN A   1      19.234  -1.591   8.911  0.00  0.00     0.166 HD
ATOM      5  C5  ZIN A   1      20.416  -0.871  10.440  0.00  0.00     0.116 A 
ATOM      6  C6  ZIN A   1      20.209   0.139  11.299  0.00  0.00     0.053 A 
ATOM      7  C7  ZIN A   1      21.103   0.576  12.432  0.00  0.00     0.208 C 
ATOM      8  N8  ZIN A   1      20.340   0.444  13.678  0.00  0.00    -0.282 NA
ATOM      9  C9  ZIN A   1      19.254   1.104  13.884  0.00  0.00     0.077 C 
ATOM     10  C17 ZIN A   1      18.583   2.042  12.978  0.00  0.00     0.022 A 
ATOM     11  C18 ZIN A   1      18.061   3.226  13.524  0.00  0.00     0.040 A 
ATOM     12  C19 ZIN A   1      17.394   4.129  12.726  0.00  0.00     0.035 A 
ATOM     13 Cl20 ZIN A   1      16.762   5.590  13.419  0.00  0.00    -0.084 Cl
ATOM     14  C21 ZIN A   1      17.227   3.876  11.375  0.00  0.00     0.026 A 
ATOM     15  C22 ZIN A   1      17.743   2.723  10.821  0.00  0.00     0.032 A 
ATOM     16  C23 ZIN A   1      18.434   1.809  11.610  0.00  0.00     0.053 A 
ATOM     17  N24 ZIN A   1      19.005   0.699  10.982  0.00  0.00    -0.301 N 
ENDROOT
BRANCH   9  18
ATOM     18  C10 ZIN A   1      18.604   0.891  15.196  0.00  0.00     0.032 A 
ATOM     19  C15 ZIN A   1      18.970   1.673  16.295  0.00  0.00     0.129 A 
ATOM     20  C14 ZIN A   1      18.354   1.472  17.517  0.00  0.00     0.043 A 
ATOM     21  F16 ZIN A   1      19.914   2.629  16.163  0.00  0.00    -0.205 F 
ATOM     22  C13 ZIN A   1      17.386   0.494  17.654  0.00  0.00     0.003 A 
ATOM     23  C12 ZIN A   1      17.025  -0.288  16.570  0.00  0.00     0.001 A 
ATOM     24  C11 ZIN A   1      17.627  -0.093  15.344  0.00  0.00     0.017 A 
ENDBRANCH   9  18
TORSDOF 1
ENDMDL
MODEL 2
REMARK VINA RESULT:      -8.0      3.416      5.871
REMARK  1 active torsions:
REMARK  status: ('A' for Active; 'I' for Inactive)
REMARK    1  A    between atoms: C9_9  and  C10_10 
ROOT
ATOM      1  C1  ZIN A   1      20.679   2.987  11.510  0.00  0.00     0.089 C 
ATOM      2  C2  ZIN A   1      19.447   2.357  12.105  0.00  0.00     0.084 A 
ATOM      3  N3  ZIN A   1      19.013   2.530  13.327  0.00  0.00    -0.354 N 
ATOM      4  H4  ZIN A   1      19.430   3.096  13.995  0.00  0.00     0.166 HD
ATOM      5  C5  ZIN A   1      17.899   1.801  13.511  0.00  0.00     0.116 A 
ATOM      6  C6  ZIN A   1      17.635   1.153  12.366  0.00  0.00     0.053 A 
ATOM      7  C7  ZIN A   1      16.519   0.176  12.102  0.00  0.00     0.208 C 
ATOM      8  N8  ZIN A   1      17.127  -1.107  11.731  0.00  0.00    -0.282 NA
ATOM      9  C9  ZIN A   1      17.879  -1.227  10.694  0.00  0.00     0.077 C 
ATOM     10  C17 ZIN A   1      18.280  -0.185   9.743  0.00  0.00     0.022 A 
ATOM     11  C18 ZIN A   1      18.284  -0.506   8.376  0.00  0.00     0.040 A 
ATOM     12  C19 ZIN A   1      18.680   0.423   7.441  0.00  0.00     0.035 A 
ATOM     13 Cl20 ZIN A   1      18.672   0.009   5.755  0.00  0.00    -0.084 Cl
ATOM     14  C21 ZIN A   1      19.083   1.687   7.840  0.00  0.00     0.026 A 
ATOM     15  C22 ZIN A   1      19.074   2.022   9.177  0.00  0.00     0.032 A 
ATOM     16  C23 ZIN A   1      18.661   1.100  10.134  0.00  0.00     0.053 A 
ATOM     17  N24 ZIN A   1      18.595   1.518  11.464  0.00  0.00    -0.301 N 
ENDROOT
BRANCH   9  18
ATOM     18  C10 ZIN A   1      18.403  -2.586  10.426  0.00  0.00     0.032 A 
ATOM     19  C15 ZIN A   1      19.501  -3.068  11.143  0.00  0.00     0.129 A 
ATOM     20  C14 ZIN A   1      19.980  -4.341  10.891  0.00  0.00     0.043 A 
ATOM     21  F16 ZIN A   1      20.085  -2.299  12.087  0.00  0.00    -0.205 F 
ATOM     22  C13 ZIN A   1      19.382  -5.129   9.926  0.00  0.00     0.003 A 
ATOM     23  C12 ZIN A   1      18.299  -4.654   9.208  0.00  0.00     0.001 A 
ATOM     24  C11 ZIN A   1      17.806  -3.389   9.454  0.00  0.00     0.017 A 
ENDBRANCH   9  18
TORSDOF 1
ENDMDL
MODEL 3
REMARK VINA RESULT:      -7.8      2.316      2.868
REMARK  1 active torsions:
REMARK  status: ('A' for Active; 'I' for Inactive)
REMARK    1  A    between atoms: C9_9  and  C10_10 
ROOT
ATOM      1  C1  ZIN A   1      16.917  -0.234   8.057  0.00  0.00     0.089 C 
ATOM      2  C2  ZIN A   1      17.779  -1.311   8.662  0.00  0.00     0.084 A 
ATOM      3  N3  ZIN A   1      17.783  -2.573   8.316  0.00  0.00    -0.354 N 
ATOM      4  H4  ZIN A   1      17.236  -2.963   7.618  0.00  0.00     0.166 HD
ATOM      5  C5  ZIN A   1      18.664  -3.241   9.080  0.00  0.00     0.116 A 
ATOM      6  C6  ZIN A   1      19.222  -2.365   9.930  0.00  0.00     0.053 A 
ATOM      7  C7  ZIN A   1      20.229  -2.654  11.014  0.00  0.00     0.208 C 
ATOM      8  N8  ZIN A   1      19.629  -2.263  12.294  0.00  0.00    -0.282 NA
ATOM      9  C9  ZIN A   1      19.272  -1.050  12.536  0.00  0.00     0.077 C 
ATOM     10  C17 ZIN A   1      19.358   0.111  11.644  0.00  0.00     0.022 A 
ATOM     11  C18 ZIN A   1      19.785   1.331  12.191  0.00  0.00     0.040 A 
ATOM     12  C19 ZIN A   1      19.856   2.461  11.408  0.00  0.00     0.035 A 
ATOM     13 Cl20 ZIN A   1      20.392   3.960  12.101  0.00  0.00    -0.084 Cl
ATOM     14  C21 ZIN A   1      19.503   2.406  10.069  0.00  0.00     0.026 A 
ATOM     15  C22 ZIN A   1      19.092   1.213   9.514  0.00  0.00     0.032 A 
ATOM     16  C23 ZIN A   1      19.031   0.058  10.288  0.00  0.00     0.053 A 
ATOM     17  N24 ZIN A   1      18.687  -1.138   9.656  0.00  0.00    -0.301 N 
ENDROOT
BRANCH   9  18
ATOM     18  C10 ZIN A   1      18.705  -0.796  13.880  0.00  0.00     0.032 A 
ATOM     19  C15 ZIN A   1      17.500  -0.102  14.013  0.00  0.00     0.129 A 
ATOM     20  C14 ZIN A   1      16.975   0.127  15.272  0.00  0.00     0.043 A 
ATOM     21  F16 ZIN A   1      16.844   0.334  12.917  0.00  0.00    -0.205 F 
ATOM     22  C13 ZIN A   1      17.645  -0.320  16.395  0.00  0.00     0.003 A 
ATOM     23  C12 ZIN A   1      18.843  -1.003  16.269  0.00  0.00     0.001 A 
ATOM     24  C11 ZIN A   1      19.375  -1.243  15.019  0.00  0.00     0.017 A 
ENDBRANCH   9  18
TORSDOF 1
ENDMDL
MODEL 4
REMARK VINA RESULT:      -7.7      4.650      6.794
REMARK  1 active torsions:
REMARK  status: ('A' for Active; 'I' for Inactive)
REMARK    1  A    between atoms: C9_9  and  C10_10 
ROOT
ATOM      1  C1  ZIN A   1      15.827  -5.457   9.036  0.00  0.00     0.089 C 
ATOM      2  C2  ZIN A   1      16.937  -5.164  10.011  0.00  0.00     0.084 A 
ATOM      3  N3  ZIN A   1      17.055  -5.670  11.211  0.00  0.00    -0.354 N 
ATOM      4  H4  ZIN A   1      16.443  -6.305  11.614  0.00  0.00     0.166 HD
ATOM      5  C5  ZIN A   1      18.156  -5.172  11.798  0.00  0.00     0.116 A 
ATOM      6  C6  ZIN A   1      18.740  -4.327  10.933  0.00  0.00     0.053 A 
ATOM      7  C7  ZIN A   1      19.971  -3.489  11.161  0.00  0.00     0.208 C 
ATOM      8  N8  ZIN A   1      19.587  -2.081  11.009  0.00  0.00    -0.282 NA
ATOM      9  C9  ZIN A   1      19.114  -1.621   9.904  0.00  0.00     0.077 C 
ATOM     10  C17 ZIN A   1      18.854  -2.352   8.660  0.00  0.00     0.022 A 
ATOM     11  C18 ZIN A   1      19.200  -1.734   7.447  0.00  0.00     0.040 A 
ATOM     12  C19 ZIN A   1      18.952  -2.360   6.247  0.00  0.00     0.035 A 
ATOM     13 Cl20 ZIN A   1      19.392  -1.581   4.759  0.00  0.00    -0.084 Cl
ATOM     14  C21 ZIN A   1      18.353  -3.609   6.222  0.00  0.00     0.026 A 
ATOM     15  C22 ZIN A   1      18.016  -4.234   7.404  0.00  0.00     0.032 A 
ATOM     16  C23 ZIN A   1      18.276  -3.622   8.626  0.00  0.00     0.053 A 
ATOM     17  N24 ZIN A   1      17.990  -4.335   9.792  0.00  0.00    -0.301 N 
ENDROOT
BRANCH   9  18
ATOM     18  C10 ZIN A   1      18.794  -0.176   9.887  0.00  0.00     0.032 A 
ATOM     19  C15 ZIN A   1      17.653   0.298  10.540  0.00  0.00     0.129 A 
ATOM     20  C14 ZIN A   1      17.365   1.650  10.524  0.00  0.00     0.043 A 
ATOM     21  F16 ZIN A   1      16.841  -0.560  11.194  0.00  0.00    -0.205 F 
ATOM     22  C13 ZIN A   1      18.196   2.530   9.855  0.00  0.00     0.003 A 
ATOM     23  C12 ZIN A   1      19.323   2.065   9.201  0.00  0.00     0.001 A 
ATOM     24  C11 ZIN A   1      19.627   0.719   9.214  0.00  0.00     0.017 A 
ENDBRANCH   9  18
TORSDOF 1
ENDMDL
MODEL 5
REMARK VINA RESULT:      -7.7      2.398      4.522
REMARK  1 active torsions:
REMARK  status: ('A' for Active; 'I' for Inactive)
REMARK    1  A    between atoms: C9_9  and  C10_10 
ROOT
ATOM      1  C1  ZIN A   1      20.515  -2.964  11.890  0.00  0.00     0.089 C 
ATOM      2  C2  ZIN A   1      19.439  -2.342  11.039  0.00  0.00     0.084 A 
ATOM      3  N3  ZIN A   1      19.234  -2.580   9.770  0.00  0.00    -0.354 N 
ATOM      4  H4  ZIN A   1      19.748  -3.196   9.225  0.00  0.00     0.166 HD
ATOM      5  C5  ZIN A   1      18.201  -1.837   9.338  0.00  0.00     0.116 A 
ATOM      6  C6  ZIN A   1      17.751  -1.113  10.375  0.00  0.00     0.053 A 
ATOM      7  C7  ZIN A   1      16.640  -0.095  10.369  0.00  0.00     0.208 C 
ATOM      8  N8  ZIN A   1      17.213   1.193  10.775  0.00  0.00    -0.282 NA
ATOM      9  C9  ZIN A   1      17.762   1.360  11.927  0.00  0.00     0.077 C 
ATOM     10  C17 ZIN A   1      17.942   0.368  12.993  0.00  0.00     0.022 A 
ATOM     11  C18 ZIN A   1      17.702   0.773  14.316  0.00  0.00     0.040 A 
ATOM     12  C19 ZIN A   1      17.883  -0.106  15.360  0.00  0.00     0.035 A 
ATOM     13 Cl20 ZIN A   1      17.577   0.411  16.989  0.00  0.00    -0.084 Cl
ATOM     14  C21 ZIN A   1      18.309  -1.401  15.115  0.00  0.00     0.026 A 
ATOM     15  C22 ZIN A   1      18.538  -1.818  13.821  0.00  0.00     0.032 A 
ATOM     16  C23 ZIN A   1      18.343  -0.947  12.754  0.00  0.00     0.053 A 
ATOM     17  N24 ZIN A   1      18.512  -1.445  11.461  0.00  0.00    -0.301 N 
ENDROOT
BRANCH   9  18
ATOM     18  C10 ZIN A   1      18.275   2.719  12.212  0.00  0.00     0.032 A 
ATOM     19  C15 ZIN A   1      19.644   2.985  12.128  0.00  0.00     0.129 A 
ATOM     20  C14 ZIN A   1      20.114   4.259  12.389  0.00  0.00     0.043 A 
ATOM     21  F16 ZIN A   1      20.505   2.004  11.781  0.00  0.00    -0.205 F 
ATOM     22  C13 ZIN A   1      19.233   5.264  12.744  0.00  0.00     0.003 A 
ATOM     23  C12 ZIN A   1      17.877   5.005  12.835  0.00  0.00     0.001 A 
ATOM     24  C11 ZIN A   1      17.394   3.739  12.570  0.00  0.00     0.017 A 
ENDBRANCH   9  18
TORSDOF 1
ENDMDL
MODEL 6
REMARK VINA RESULT:      -7.6      3.950      5.979
REMARK  1 active torsions:
REMARK  status: ('A' for Active; 'I' for Inactive)
REMARK    1  A    between atoms: C9_9  and  C10_10 
ROOT
ATOM      1  C1  ZIN A   1      20.239  -3.843   6.539  0.00  0.00     0.089 C 
ATOM      2  C2  ZIN A   1      19.387  -2.601   6.542  0.00  0.00     0.084 A 
ATOM      3  N3  ZIN A   1      19.338  -1.703   5.593  0.00  0.00    -0.354 N 
ATOM      4  H4  ZIN A   1      19.841  -1.736   4.764  0.00  0.00     0.166 HD
ATOM      5  C5  ZIN A   1      18.484  -0.727   5.945  0.00  0.00     0.116 A 
ATOM      6  C6  ZIN A   1      17.987  -1.030   7.154  0.00  0.00     0.053 A 
ATOM      7  C7  ZIN A   1      17.031  -0.211   7.984  0.00  0.00     0.208 C 
ATOM      8  N8  ZIN A   1      17.703   0.115   9.247  0.00  0.00    -0.282 NA
ATOM      9  C9  ZIN A   1      18.097  -0.799  10.063  0.00  0.00     0.077 C 
ATOM     10  C17 ZIN A   1      17.990  -2.253   9.909  0.00  0.00     0.022 A 
ATOM     11  C18 ZIN A   1      17.617  -3.009  11.032  0.00  0.00     0.040 A 
ATOM     12  C19 ZIN A   1      17.529  -4.381  10.955  0.00  0.00     0.035 A 
ATOM     13 Cl20 ZIN A   1      17.061  -5.297  12.353  0.00  0.00    -0.084 Cl
ATOM     14  C21 ZIN A   1      17.813  -5.032   9.766  0.00  0.00     0.026 A 
ATOM     15  C22 ZIN A   1      18.170  -4.304   8.650  0.00  0.00     0.032 A 
ATOM     16  C23 ZIN A   1      18.247  -2.916   8.708  0.00  0.00     0.053 A 
ATOM     17  N24 ZIN A   1      18.534  -2.225   7.529  0.00  0.00    -0.301 N 
ENDROOT
BRANCH   9  18
ATOM     18  C10 ZIN A   1      18.736  -0.323  11.310  0.00  0.00     0.032 A 
ATOM     19  C15 ZIN A   1      20.124  -0.176  11.377  0.00  0.00     0.129 A 
ATOM     20  C14 ZIN A   1      20.713   0.274  12.544  0.00  0.00     0.043 A 
ATOM     21  F16 ZIN A   1      20.888  -0.462  10.300  0.00  0.00    -0.205 F 
ATOM     22  C13 ZIN A   1      19.932   0.567  13.646  0.00  0.00     0.003 A 
ATOM     23  C12 ZIN A   1      18.557   0.418  13.589  0.00  0.00     0.001 A 
ATOM     24  C11 ZIN A   1      17.956  -0.025  12.428  0.00  0.00     0.017 A 
ENDBRANCH   9  18
TORSDOF 1
ENDMDL
MODEL 7
REMARK VINA RESULT:      -7.4      3.192      5.047
REMARK  1 active torsions:
REMARK  status: ('A' for Active; 'I' for Inactive)
REMARK    1  A    between atoms: C9_9  and  C10_10 
ROOT
ATOM      1  C1  ZIN A   1      17.372  -2.940  11.082  0.00  0.00     0.089 C 
ATOM      2  C2  ZIN A   1      18.377  -2.170  11.899  0.00  0.00     0.084 A 
ATOM      3  N3  ZIN A   1      18.725  -2.435  13.131  0.00  0.00    -0.354 N 
ATOM      4  H4  ZIN A   1      18.384  -3.169  13.664  0.00  0.00     0.166 HD
ATOM      5  C5  ZIN A   1      19.631  -1.531  13.542  0.00  0.00     0.116 A 
ATOM      6  C6  ZIN A   1      19.849  -0.676  12.531  0.00  0.00     0.053 A 
ATOM      7  C7  ZIN A   1      20.743   0.538  12.534  0.00  0.00     0.208 C 
ATOM      8  N8  ZIN A   1      19.905   1.710  12.261  0.00  0.00    -0.282 NA
ATOM      9  C9  ZIN A   1      19.242   1.832  11.165  0.00  0.00     0.077 C 
ATOM     10  C17 ZIN A   1      19.168   0.887  10.045  0.00  0.00     0.022 A 
ATOM     11  C18 ZIN A   1      19.218   1.405   8.741  0.00  0.00     0.040 A 
ATOM     12  C19 ZIN A   1      19.122   0.569   7.652  0.00  0.00     0.035 A 
ATOM     13 Cl20 ZIN A   1      19.191   1.228   6.048  0.00  0.00    -0.084 Cl
ATOM     14  C21 ZIN A   1      18.971  -0.797   7.832  0.00  0.00     0.026 A 
ATOM     15  C22 ZIN A   1      18.932  -1.323   9.106  0.00  0.00     0.032 A 
ATOM     16  C23 ZIN A   1      19.044  -0.493  10.217  0.00  0.00     0.053 A 
ATOM     17  N24 ZIN A   1      19.079  -1.087  11.480  0.00  0.00    -0.301 N 
ENDROOT
BRANCH   9  18
ATOM     18  C10 ZIN A   1      18.459   3.079  11.014  0.00  0.00     0.032 A 
ATOM     19  C15 ZIN A   1      17.689   3.557  12.077  0.00  0.00     0.129 A 
ATOM     20  C14 ZIN A   1      16.965   4.726  11.930  0.00  0.00     0.043 A 
ATOM     21  F16 ZIN A   1      17.660   2.886  13.248  0.00  0.00    -0.205 F 
ATOM     22  C13 ZIN A   1      16.995   5.415  10.732  0.00  0.00     0.003 A 
ATOM     23  C12 ZIN A   1      17.751   4.943   9.673  0.00  0.00     0.001 A 
ATOM     24  C11 ZIN A   1      18.483   3.781   9.808  0.00  0.00     0.017 A 
ENDBRANCH   9  18
TORSDOF 1
ENDMDL
MODEL 8
REMARK VINA RESULT:      -7.3      2.564      4.072
REMARK  1 active torsions:
REMARK  status: ('A' for Active; 'I' for Inactive)
REMARK    1  A    between atoms: C9_9  and  C10_10 
ROOT
ATOM      1  C1  ZIN A   1      20.855  -0.567  10.925  0.00  0.00     0.089 C 
ATOM      2  C2  ZIN A   1      19.959   0.536  10.424  0.00  0.00     0.084 A 
ATOM      3  N3  ZIN A   1      19.975   1.048   9.221  0.00  0.00    -0.354 N 
ATOM      4  H4  ZIN A   1      20.561   0.769   8.501  0.00  0.00     0.166 HD
ATOM      5  C5  ZIN A   1      19.051   2.021   9.138  0.00  0.00     0.116 A 
ATOM      6  C6  ZIN A   1      18.444   2.116  10.332  0.00  0.00     0.053 A 
ATOM      7  C7  ZIN A   1      17.377   3.098  10.741  0.00  0.00     0.208 C 
ATOM      8  N8  ZIN A   1      17.901   3.885  11.863  0.00  0.00    -0.282 NA
ATOM      9  C9  ZIN A   1      18.244   3.338  12.976  0.00  0.00     0.077 C 
ATOM     10  C17 ZIN A   1      18.210   1.915  13.330  0.00  0.00     0.022 A 
ATOM     11  C18 ZIN A   1      17.752   1.566  14.611  0.00  0.00     0.040 A 
ATOM     12  C19 ZIN A   1      17.726   0.248  15.009  0.00  0.00     0.035 A 
ATOM     13 Cl20 ZIN A   1      17.152  -0.164  16.594  0.00  0.00    -0.084 Cl
ATOM     14  C21 ZIN A   1      18.157  -0.749  14.149  0.00  0.00     0.026 A 
ATOM     15  C22 ZIN A   1      18.599  -0.424  12.884  0.00  0.00     0.032 A 
ATOM     16  C23 ZIN A   1      18.615   0.901  12.460  0.00  0.00     0.053 A 
ATOM     17  N24 ZIN A   1      18.995   1.165  11.143  0.00  0.00    -0.301 N 
ENDROOT
BRANCH   9  18
ATOM     18  C10 ZIN A   1      18.732   4.257  14.028  0.00  0.00     0.032 A 
ATOM     19  C15 ZIN A   1      19.804   5.115  13.770  0.00  0.00     0.129 A 
ATOM     20  C14 ZIN A   1      20.249   5.975  14.757  0.00  0.00     0.043 A 
ATOM     21  F16 ZIN A   1      20.395   5.113  12.556  0.00  0.00    -0.205 F 
ATOM     22  C13 ZIN A   1      19.644   5.978  15.999  0.00  0.00     0.003 A 
ATOM     23  C12 ZIN A   1      18.586   5.126  16.264  0.00  0.00     0.001 A 
ATOM     24  C11 ZIN A   1      18.127   4.268  15.286  0.00  0.00     0.017 A 
ENDBRANCH   9  18
TORSDOF 1
ENDMDL
MODEL 9
REMARK VINA RESULT:      -6.9      4.360      7.241
REMARK  1 active torsions:
REMARK  status: ('A' for Active; 'I' for Inactive)
REMARK    1  A    between atoms: C9_9  and  C10_10 
ROOT
ATOM      1  C1  ZIN A   1      21.127   0.614  11.858  0.00  0.00     0.089 C 
ATOM      2  C2  ZIN A   1      20.077  -0.366  12.312  0.00  0.00     0.084 A 
ATOM      3  N3  ZIN A   1      19.967  -0.868  13.514  0.00  0.00    -0.354 N 
ATOM      4  H4  ZIN A   1      20.546  -0.659  14.263  0.00  0.00     0.166 HD
ATOM      5  C5  ZIN A   1      18.926  -1.717  13.549  0.00  0.00     0.116 A 
ATOM      6  C6  ZIN A   1      18.374  -1.744  12.326  0.00  0.00     0.053 A 
ATOM      7  C7  ZIN A   1      17.214  -2.588  11.863  0.00  0.00     0.208 C 
ATOM      8  N8  ZIN A   1      17.692  -3.441  10.769  0.00  0.00    -0.282 NA
ATOM      9  C9  ZIN A   1      18.157  -2.948   9.675  0.00  0.00     0.077 C 
ATOM     10  C17 ZIN A   1      18.319  -1.534   9.320  0.00  0.00     0.022 A 
ATOM     11  C18 ZIN A   1      17.974  -1.139   8.018  0.00  0.00     0.040 A 
ATOM     12  C19 ZIN A   1      18.133   0.170   7.619  0.00  0.00     0.035 A 
ATOM     13 Cl20 ZIN A   1      17.695   0.640   6.006  0.00  0.00    -0.084 Cl
ATOM     14  C21 ZIN A   1      18.640   1.111   8.500  0.00  0.00     0.026 A 
ATOM     15  C22 ZIN A   1      18.973   0.741   9.785  0.00  0.00     0.032 A 
ATOM     16  C23 ZIN A   1      18.802  -0.573  10.209  0.00  0.00     0.053 A 
ATOM     17  N24 ZIN A   1      19.079  -0.874  11.544  0.00  0.00    -0.301 N 
ENDROOT
BRANCH   9  18
ATOM     18  C10 ZIN A   1      18.579  -3.927   8.649  0.00  0.00     0.032 A 
ATOM     19  C15 ZIN A   1      17.647  -4.805   8.091  0.00  0.00     0.129 A 
ATOM     20  C14 ZIN A   1      18.048  -5.713   7.129  0.00  0.00     0.043 A 
ATOM     21  F16 ZIN A   1      16.355  -4.760   8.482  0.00  0.00    -0.205 F 
ATOM     22  C13 ZIN A   1      19.370  -5.760   6.727  0.00  0.00     0.003 A 
ATOM     23  C12 ZIN A   1      20.299  -4.897   7.281  0.00  0.00     0.001 A 
ATOM     24  C11 ZIN A   1      19.911  -3.982   8.237  0.00  0.00     0.017 A 
ENDBRANCH   9  18
TORSDOF 1
ENDMDL
