MODEL 1
REMARK VINA RESULT:      -5.9      0.000      0.000
REMARK  1 active torsions:
REMARK  status: ('A' for Active; 'I' for Inactive)
REMARK    1  A    between atoms: O1_1  and  C2_2 
ROOT
ATOM      1  C2  ZIN A   1      19.571  -3.193   6.820  0.00  0.00     0.112 A 
ATOM      2  C3  ZIN A   1      19.297  -1.896   6.340  0.00  0.00     0.102 A 
ATOM      3  N4  ZIN A   1      19.693  -1.515   5.122  0.00  0.00    -0.257 NA
ATOM      4  C5  ZIN A   1      19.441  -0.310   4.669  0.00  0.00     0.117 A 
ATOM      5  C6  ZIN A   1      18.751   0.629   5.431  0.00  0.00     0.020 A 
ATOM      6  C7  ZIN A   1      18.318   0.304   6.686  0.00  0.00     0.017 A 
ATOM      7  C8  ZIN A   1      18.590  -0.990   7.167  0.00  0.00     0.017 A 
ATOM      8  C9  ZIN A   1      18.175  -1.393   8.448  0.00  0.00     0.048 A 
ATOM      9 Cl10 ZIN A   1      17.307  -0.291   9.470  0.00  0.00    -0.083 Cl
ATOM     10  C11 ZIN A   1      18.455  -2.653   8.885  0.00  0.00     0.046 A 
ATOM     11  C12 ZIN A   1      19.143  -3.555   8.077  0.00  0.00     0.043 A 
ATOM     12  I13 ZIN A   1      19.551  -5.482   8.792  0.00  0.00    -0.042 I 
ENDROOT
BRANCH   1  13
ATOM     13  O1  ZIN A   1      20.248  -4.080   6.045  0.00  0.00    -0.357 OA
ATOM     14  H14 ZIN A   1      20.400  -4.936   6.468  0.00  0.00     0.217 HD
ENDBRANCH   1  13
TORSDOF 1
ENDMDL
MODEL 2
REMARK VINA RESULT:      -5.8      1.993      2.236
REMARK  1 active torsions:
REMARK  status: ('A' for Active; 'I' for Inactive)
REMARK    1  A    between atoms: O1_1  and  C2_2 
ROOT
ATOM      1  C2  ZIN A   1      19.262  -2.001   8.534  0.00  0.00     0.112 A 
ATOM      2  C3  ZIN A   1      19.214  -1.192   7.381  0.00  0.00     0.102 A 
ATOM      3  N4  ZIN A   1      19.297  -1.727   6.159  0.00  0.00    -0.257 NA
ATOM      4  C5  ZIN A   1      19.253  -0.980   5.083  0.00  0.00     0.117 A 
ATOM      5  C6  ZIN A   1      19.116   0.404   5.157  0.00  0.00     0.020 A 
ATOM      6  C7  ZIN A   1      19.026   1.016   6.375  0.00  0.00     0.017 A 
ATOM      7  C8  ZIN A   1      19.074   0.210   7.528  0.00  0.00     0.017 A 
ATOM      8  C9  ZIN A   1      18.987   0.771   8.814  0.00  0.00     0.048 A 
ATOM      9 Cl10 ZIN A   1      18.814   2.487   9.006  0.00  0.00    -0.083 Cl
ATOM     10  C11 ZIN A   1      19.037  -0.037   9.910  0.00  0.00     0.046 A 
ATOM     11  C12 ZIN A   1      19.166  -1.418   9.777  0.00  0.00     0.043 A 
ATOM     12  I13 ZIN A   1      19.239  -2.619  11.492  0.00  0.00    -0.042 I 
ENDROOT
BRANCH   1  13
ATOM     13  O1  ZIN A   1      19.395  -3.348   8.419  0.00  0.00    -0.357 OA
ATOM     14  H14 ZIN A   1      20.256  -3.684   8.703  0.00  0.00     0.217 HD
ENDBRANCH   1  13
TORSDOF 1
ENDMDL
MODEL 3
REMARK VINA RESULT:      -5.7      9.474     10.699
REMARK  1 active torsions:
REMARK  status: ('A' for Active; 'I' for Inactive)
REMARK    1  A    between atoms: O1_1  and  C2_2 
ROOT
ATOM      1  C2  ZIN A   1      19.423   3.099  16.386  0.00  0.00     0.112 A 
ATOM      2  C3  ZIN A   1      19.193   1.752  16.734  0.00  0.00     0.102 A 
ATOM      3  N4  ZIN A   1      19.580   1.271  17.919  0.00  0.00    -0.257 NA
ATOM      4  C5  ZIN A   1      19.369   0.019  18.249  0.00  0.00     0.117 A 
ATOM      5  C6  ZIN A   1      18.733  -0.868  17.384  0.00  0.00     0.020 A 
ATOM      6  C7  ZIN A   1      18.312  -0.441  16.156  0.00  0.00     0.017 A 
ATOM      7  C8  ZIN A   1      18.541   0.903  15.807  0.00  0.00     0.017 A 
ATOM      8  C9  ZIN A   1      18.135   1.411  14.561  0.00  0.00     0.048 A 
ATOM      9 Cl10 ZIN A   1      17.334   0.380  13.418  0.00  0.00    -0.083 Cl
ATOM     10  C11 ZIN A   1      18.372   2.718  14.253  0.00  0.00     0.046 A 
ATOM     11  C12 ZIN A   1      19.006   3.564  15.160  0.00  0.00     0.043 A 
ATOM     12  I13 ZIN A   1      19.348   5.565  14.642  0.00  0.00    -0.042 I 
ENDROOT
BRANCH   1  13
ATOM     13  O1  ZIN A   1      20.047   3.933  17.259  0.00  0.00    -0.357 OA
ATOM     14  H14 ZIN A   1      20.037   3.624  18.175  0.00  0.00     0.217 HD
ENDBRANCH   1  13
TORSDOF 1
ENDMDL
MODEL 4
REMARK VINA RESULT:      -5.7      2.584      3.152
REMARK  1 active torsions:
REMARK  status: ('A' for Active; 'I' for Inactive)
REMARK    1  A    between atoms: O1_1  and  C2_2 
ROOT
ATOM      1  C2  ZIN A   1      19.336  -2.254   8.183  0.00  0.00     0.112 A 
ATOM      2  C3  ZIN A   1      19.249  -0.847   8.210  0.00  0.00     0.102 A 
ATOM      3  N4  ZIN A   1      19.327  -0.175   9.362  0.00  0.00    -0.257 NA
ATOM      4  C5  ZIN A   1      19.248   1.134   9.395  0.00  0.00     0.117 A 
ATOM      5  C6  ZIN A   1      19.080   1.886   8.234  0.00  0.00     0.020 A 
ATOM      6  C7  ZIN A   1      18.992   1.261   7.023  0.00  0.00     0.017 A 
ATOM      7  C8  ZIN A   1      19.078  -0.144   6.993  0.00  0.00     0.017 A 
ATOM      8  C9  ZIN A   1      18.996  -0.854   5.783  0.00  0.00     0.048 A 
ATOM      9 Cl10 ZIN A   1      18.787  -0.001   4.285  0.00  0.00    -0.083 Cl
ATOM     10  C11 ZIN A   1      19.082  -2.214   5.788  0.00  0.00     0.046 A 
ATOM     11  C12 ZIN A   1      19.258  -2.915   6.979  0.00  0.00     0.043 A 
ATOM     12  I13 ZIN A   1      19.385  -5.007   6.937  0.00  0.00    -0.042 I 
ENDROOT
BRANCH   1  13
ATOM     13  O1  ZIN A   1      19.501  -2.952   9.337  0.00  0.00    -0.357 OA
ATOM     14  H14 ZIN A   1      19.846  -3.846   9.211  0.00  0.00     0.217 HD
ENDBRANCH   1  13
TORSDOF 1
ENDMDL
MODEL 5
REMARK VINA RESULT:      -5.6      6.570      7.344
REMARK  1 active torsions:
REMARK  status: ('A' for Active; 'I' for Inactive)
REMARK    1  A    between atoms: O1_1  and  C2_2 
ROOT
ATOM      1  C2  ZIN A   1      18.066   2.165  13.219  0.00  0.00     0.112 A 
ATOM      2  C3  ZIN A   1      17.744   3.241  12.367  0.00  0.00     0.102 A 
ATOM      3  N4  ZIN A   1      17.094   4.313  12.827  0.00  0.00    -0.257 NA
ATOM      4  C5  ZIN A   1      16.792   5.318  12.040  0.00  0.00     0.117 A 
ATOM      5  C6  ZIN A   1      17.133   5.317  10.689  0.00  0.00     0.020 A 
ATOM      6  C7  ZIN A   1      17.797   4.250  10.153  0.00  0.00     0.017 A 
ATOM      7  C8  ZIN A   1      18.119   3.175  11.003  0.00  0.00     0.017 A 
ATOM      8  C9  ZIN A   1      18.802   2.045  10.521  0.00  0.00     0.048 A 
ATOM      9 Cl10 ZIN A   1      19.268   1.954   8.852  0.00  0.00    -0.083 Cl
ATOM     10  C11 ZIN A   1      19.099   1.020  11.369  0.00  0.00     0.046 A 
ATOM     11  C12 ZIN A   1      18.741   1.077  12.714  0.00  0.00     0.043 A 
ATOM     12  I13 ZIN A   1      19.219  -0.523  13.980  0.00  0.00    -0.042 I 
ENDROOT
BRANCH   1  13
ATOM     13  O1  ZIN A   1      17.717   2.204  14.532  0.00  0.00    -0.357 OA
ATOM     14  H14 ZIN A   1      17.929   1.397  15.020  0.00  0.00     0.217 HD
ENDBRANCH   1  13
TORSDOF 1
ENDMDL
MODEL 6
REMARK VINA RESULT:      -5.5      3.209      4.526
REMARK  1 active torsions:
REMARK  status: ('A' for Active; 'I' for Inactive)
REMARK    1  A    between atoms: O1_1  and  C2_2 
ROOT
ATOM      1  C2  ZIN A   1      18.249  -1.294   7.903  0.00  0.00     0.112 A 
ATOM      2  C3  ZIN A   1      18.019  -1.073   9.276  0.00  0.00     0.102 A 
ATOM      3  N4  ZIN A   1      17.680  -2.078  10.089  0.00  0.00    -0.257 NA
ATOM      4  C5  ZIN A   1      17.466  -1.878  11.367  0.00  0.00     0.117 A 
ATOM      5  C6  ZIN A   1      17.581  -0.614  11.940  0.00  0.00     0.020 A 
ATOM      6  C7  ZIN A   1      17.924   0.458  11.165  0.00  0.00     0.017 A 
ATOM      7  C8  ZIN A   1      18.153   0.239   9.794  0.00  0.00     0.017 A 
ATOM      8  C9  ZIN A   1      18.510   1.294   8.937  0.00  0.00     0.048 A 
ATOM      9 Cl10 ZIN A   1      18.678   2.905   9.561  0.00  0.00    -0.083 Cl
ATOM     10  C11 ZIN A   1      18.724   1.049   7.613  0.00  0.00     0.046 A 
ATOM     11  C12 ZIN A   1      18.603  -0.238   7.095  0.00  0.00     0.043 A 
ATOM     12  I13 ZIN A   1      18.943  -0.566   5.053  0.00  0.00    -0.042 I 
ENDROOT
BRANCH   1  13
ATOM     13  O1  ZIN A   1      18.127  -2.544   7.382  0.00  0.00    -0.357 OA
ATOM     14  H14 ZIN A   1      18.612  -3.222   7.871  0.00  0.00     0.217 HD
ENDBRANCH   1  13
TORSDOF 1
ENDMDL
MODEL 7
REMARK VINA RESULT:      -5.4      6.242      6.947
REMARK  1 active torsions:
REMARK  status: ('A' for Active; 'I' for Inactive)
REMARK    1  A    between atoms: O1_1  and  C2_2 
ROOT
ATOM      1  C2  ZIN A   1      19.291   1.925  12.934  0.00  0.00     0.112 A 
ATOM      2  C3  ZIN A   1      19.219   1.730  11.539  0.00  0.00     0.102 A 
ATOM      3  N4  ZIN A   1      19.710   0.624  10.972  0.00  0.00    -0.257 NA
ATOM      4  C5  ZIN A   1      19.646   0.438   9.676  0.00  0.00     0.117 A 
ATOM      5  C6  ZIN A   1      19.067   1.379   8.828  0.00  0.00     0.020 A 
ATOM      6  C7  ZIN A   1      18.547   2.532   9.343  0.00  0.00     0.017 A 
ATOM      7  C8  ZIN A   1      18.617   2.728  10.735  0.00  0.00     0.017 A 
ATOM      8  C9  ZIN A   1      18.102   3.891  11.334  0.00  0.00     0.048 A 
ATOM      9 Cl10 ZIN A   1      17.360   5.119  10.358  0.00  0.00    -0.083 Cl
ATOM     10  C11 ZIN A   1      18.187   4.050  12.685  0.00  0.00     0.046 A 
ATOM     11  C12 ZIN A   1      18.770   3.072  13.487  0.00  0.00     0.043 A 
ATOM     12  I13 ZIN A   1      18.877   3.362  15.559  0.00  0.00    -0.042 I 
ENDROOT
BRANCH   1  13
ATOM     13  O1  ZIN A   1      19.864   0.982  13.727  0.00  0.00    -0.357 OA
ATOM     14  H14 ZIN A   1      20.258   0.245  13.240  0.00  0.00     0.217 HD
ENDBRANCH   1  13
TORSDOF 1
ENDMDL
MODEL 8
REMARK VINA RESULT:      -5.4      3.255      4.231
REMARK  1 active torsions:
REMARK  status: ('A' for Active; 'I' for Inactive)
REMARK    1  A    between atoms: O1_1  and  C2_2 
ROOT
ATOM      1  C2  ZIN A   1      19.082  -0.754   8.717  0.00  0.00     0.112 A 
ATOM      2  C3  ZIN A   1      19.137  -1.804   7.778  0.00  0.00     0.102 A 
ATOM      3  N4  ZIN A   1      19.251  -3.076   8.172  0.00  0.00    -0.257 NA
ATOM      4  C5  ZIN A   1      19.303  -4.057   7.304  0.00  0.00     0.117 A 
ATOM      5  C6  ZIN A   1      19.242  -3.824   5.932  0.00  0.00     0.020 A 
ATOM      6  C7  ZIN A   1      19.127  -2.547   5.461  0.00  0.00     0.017 A 
ATOM      7  C8  ZIN A   1      19.072  -1.497   6.397  0.00  0.00     0.017 A 
ATOM      8  C9  ZIN A   1      18.953  -0.159   5.985  0.00  0.00     0.048 A 
ATOM      9 Cl10 ZIN A   1      18.870   0.228   4.295  0.00  0.00    -0.083 Cl
ATOM     10  C11 ZIN A   1      18.902   0.835   6.916  0.00  0.00     0.046 A 
ATOM     11  C12 ZIN A   1      18.959   0.544   8.277  0.00  0.00     0.043 A 
ATOM     12  I13 ZIN A   1      18.877   2.106   9.672  0.00  0.00    -0.042 I 
ENDROOT
BRANCH   1  13
ATOM     13  O1  ZIN A   1      19.143  -1.023  10.048  0.00  0.00    -0.357 OA
ATOM     14  H14 ZIN A   1      20.039  -1.179  10.377  0.00  0.00     0.217 HD
ENDBRANCH   1  13
TORSDOF 1
ENDMDL
MODEL 9
REMARK VINA RESULT:      -5.4      7.388      8.781
REMARK  1 active torsions:
REMARK  status: ('A' for Active; 'I' for Inactive)
REMARK    1  A    between atoms: O1_1  and  C2_2 
ROOT
ATOM      1  C2  ZIN A   1      19.082   1.720  13.910  0.00  0.00     0.112 A 
ATOM      2  C3  ZIN A   1      18.957   0.715  14.891  0.00  0.00     0.102 A 
ATOM      3  N4  ZIN A   1      19.009   1.013  16.192  0.00  0.00    -0.257 NA
ATOM      4  C5  ZIN A   1      18.893   0.083  17.109  0.00  0.00     0.117 A 
ATOM      5  C6  ZIN A   1      18.710  -1.257  16.775  0.00  0.00     0.020 A 
ATOM      6  C7  ZIN A   1      18.649  -1.630  15.462  0.00  0.00     0.017 A 
ATOM      7  C8  ZIN A   1      18.774  -0.628  14.481  0.00  0.00     0.017 A 
ATOM      8  C9  ZIN A   1      18.721  -0.938  13.111  0.00  0.00     0.048 A 
ATOM      9 Cl10 ZIN A   1      18.495  -2.581  12.598  0.00  0.00    -0.083 Cl
ATOM     10  C11 ZIN A   1      18.846   0.055  12.186  0.00  0.00     0.046 A 
ATOM     11  C12 ZIN A   1      19.018   1.380  12.578  0.00  0.00     0.043 A 
ATOM     12  I13 ZIN A   1      19.206   2.873  11.119  0.00  0.00    -0.042 I 
ENDROOT
BRANCH   1  13
ATOM     13  O1  ZIN A   1      19.259   3.017  14.278  0.00  0.00    -0.357 OA
ATOM     14  H14 ZIN A   1      19.718   3.127  15.121  0.00  0.00     0.217 HD
ENDBRANCH   1  13
TORSDOF 1
ENDMDL
