MODEL 1
REMARK VINA RESULT:      -8.0      0.000      0.000
REMARK  5 active torsions:
REMARK  status: ('A' for Active; 'I' for Inactive)
REMARK    1  A    between atoms: C2_2  and  O4_4 
REMARK    2  A    between atoms: C2_2  and  C20_20 
REMARK    3  A    between atoms: O4_4  and  C5_5 
REMARK    4  A    between atoms: C8_8  and  C9_9 
REMARK    5  A    between atoms: C9_9  and  C11_11 
ROOT
ATOM      1  C5  ZIN A   1      18.829   0.522   8.532  0.00  0.00     0.070 A 
ATOM      2  C6  ZIN A   1      19.364   1.804   8.485  0.00  0.00     0.038 A 
ATOM      3  C7  ZIN A   1      18.915   2.771   9.356  0.00  0.00     0.018 A 
ATOM      4  C8  ZIN A   1      17.920   2.462  10.288  0.00  0.00     0.015 A 
ATOM      5  C18 ZIN A   1      17.385   1.171  10.332  0.00  0.00     0.018 A 
ATOM      6  C19 ZIN A   1      17.836   0.211   9.454  0.00  0.00     0.038 A 
ENDROOT
BRANCH   4   7
ATOM      7  C9  ZIN A   1      17.435   3.495  11.222  0.00  0.00     0.192 C 
ATOM      8  O10 ZIN A   1      16.517   4.225  10.899  0.00  0.00    -0.287 OA
BRANCH   7   9
ATOM      9  C11 ZIN A   1      18.064   3.644  12.551  0.00  0.00     0.015 A 
ATOM     10  C17 ZIN A   1      18.849   4.764  12.835  0.00  0.00     0.017 A 
ATOM     11  C16 ZIN A   1      19.428   4.899  14.077  0.00  0.00     0.025 A 
ATOM     12  C14 ZIN A   1      19.243   3.922  15.042  0.00  0.00     0.034 A 
ATOM     13  C13 ZIN A   1      18.471   2.805  14.765  0.00  0.00     0.025 A 
ATOM     14 Cl15 ZIN A   1      19.982   4.097  16.602  0.00  0.00    -0.084 Cl
ATOM     15  C12 ZIN A   1      17.881   2.662  13.527  0.00  0.00     0.017 A 
ENDBRANCH   7   9
ENDBRANCH   4   7
BRANCH   1  16
ATOM     16  O4  ZIN A   1      19.274  -0.429   7.672  0.00  0.00    -0.330 OA
BRANCH  16  17
ATOM     17  C2  ZIN A   1      18.836  -0.332   6.314  0.00  0.00     0.148 C 
ATOM     18  C1  ZIN A   1      17.309  -0.391   6.265  0.00  0.00     0.058 C 
ATOM     19  C3  ZIN A   1      19.315   0.993   5.719  0.00  0.00     0.058 C 
BRANCH  17  20
ATOM     20  C20 ZIN A   1      19.410  -1.477   5.518  0.00  0.00     0.209 C 
ATOM     21  O21 ZIN A   1      19.625  -2.548   6.059  0.00  0.00    -0.646 OA
ATOM     22  O22 ZIN A   1      19.660  -1.330   4.334  0.00  0.00    -0.646 OA
ENDBRANCH  17  20
ENDBRANCH  16  17
ENDBRANCH   1  16
TORSDOF 5
ENDMDL
MODEL 2
REMARK VINA RESULT:      -8.0      4.770      8.839
REMARK  5 active torsions:
REMARK  status: ('A' for Active; 'I' for Inactive)
REMARK    1  A    between atoms: C2_2  and  O4_4 
REMARK    2  A    between atoms: C2_2  and  C20_20 
REMARK    3  A    between atoms: O4_4  and  C5_5 
REMARK    4  A    between atoms: C8_8  and  C9_9 
REMARK    5  A    between atoms: C9_9  and  C11_11 
ROOT
ATOM      1  C5  ZIN A   1      18.774   0.121  14.920  0.00  0.00     0.070 A 
ATOM      2  C6  ZIN A   1      19.436  -1.039  14.536  0.00  0.00     0.038 A 
ATOM      3  C7  ZIN A   1      19.071  -1.692  13.381  0.00  0.00     0.018 A 
ATOM      4  C8  ZIN A   1      18.034  -1.186  12.591  0.00  0.00     0.015 A 
ATOM      5  C18 ZIN A   1      17.370  -0.018  12.981  0.00  0.00     0.018 A 
ATOM      6  C19 ZIN A   1      17.738   0.626  14.141  0.00  0.00     0.038 A 
ENDROOT
BRANCH   4   7
ATOM      7  C9  ZIN A   1      17.639  -1.882  11.353  0.00  0.00     0.192 C 
ATOM      8  O10 ZIN A   1      17.024  -2.930  11.415  0.00  0.00    -0.287 OA
BRANCH   7   9
ATOM      9  C11 ZIN A   1      17.990  -1.308  10.038  0.00  0.00     0.015 A 
ATOM     10  C17 ZIN A   1      19.022  -1.869   9.281  0.00  0.00     0.017 A 
ATOM     11  C16 ZIN A   1      19.341  -1.331   8.053  0.00  0.00     0.025 A 
ATOM     12  C14 ZIN A   1      18.650  -0.231   7.573  0.00  0.00     0.034 A 
ATOM     13  C13 ZIN A   1      17.630   0.334   8.322  0.00  0.00     0.025 A 
ATOM     14 Cl15 ZIN A   1      19.063   0.444   6.028  0.00  0.00    -0.084 Cl
ATOM     15  C12 ZIN A   1      17.297  -0.199   9.549  0.00  0.00     0.017 A 
ENDBRANCH   7   9
ENDBRANCH   4   7
BRANCH   1  16
ATOM     16  O4  ZIN A   1      19.136   0.762  16.060  0.00  0.00    -0.330 OA
BRANCH  16  17
ATOM     17  C2  ZIN A   1      18.579   0.275  17.283  0.00  0.00     0.148 C 
ATOM     18  C1  ZIN A   1      17.127  -0.147  17.050  0.00  0.00     0.058 C 
ATOM     19  C3  ZIN A   1      19.389  -0.929  17.767  0.00  0.00     0.058 C 
BRANCH  17  20
ATOM     20  C20 ZIN A   1      18.625   1.364  18.325  0.00  0.00     0.209 C 
ATOM     21  O21 ZIN A   1      19.695   1.838  18.663  0.00  0.00    -0.646 OA
ATOM     22  O22 ZIN A   1      17.592   1.768  18.829  0.00  0.00    -0.646 OA
ENDBRANCH  17  20
ENDBRANCH  16  17
ENDBRANCH   1  16
TORSDOF 5
ENDMDL
MODEL 3
REMARK VINA RESULT:      -7.9      4.423      8.137
REMARK  5 active torsions:
REMARK  status: ('A' for Active; 'I' for Inactive)
REMARK    1  A    between atoms: C2_2  and  O4_4 
REMARK    2  A    between atoms: C2_2  and  C20_20 
REMARK    3  A    between atoms: O4_4  and  C5_5 
REMARK    4  A    between atoms: C8_8  and  C9_9 
REMARK    5  A    between atoms: C9_9  and  C11_11 
ROOT
ATOM      1  C5  ZIN A   1      19.149   1.356  14.792  0.00  0.00     0.070 A 
ATOM      2  C6  ZIN A   1      18.441   2.545  14.660  0.00  0.00     0.038 A 
ATOM      3  C7  ZIN A   1      17.951   2.922  13.430  0.00  0.00     0.018 A 
ATOM      4  C8  ZIN A   1      18.164   2.108  12.313  0.00  0.00     0.015 A 
ATOM      5  C18 ZIN A   1      18.876   0.912  12.451  0.00  0.00     0.018 A 
ATOM      6  C19 ZIN A   1      19.368   0.545  13.684  0.00  0.00     0.038 A 
ENDROOT
BRANCH   4   7
ATOM      7  C9  ZIN A   1      17.641   2.508  10.994  0.00  0.00     0.192 C 
ATOM      8  O10 ZIN A   1      16.906   3.473  10.899  0.00  0.00    -0.287 OA
BRANCH   7   9
ATOM      9  C11 ZIN A   1      18.009   1.738   9.788  0.00  0.00     0.015 A 
ATOM     10  C17 ZIN A   1      19.008   2.209   8.933  0.00  0.00     0.017 A 
ATOM     11  C16 ZIN A   1      19.350   1.483   7.812  0.00  0.00     0.025 A 
ATOM     12  C14 ZIN A   1      18.699   0.293   7.528  0.00  0.00     0.034 A 
ATOM     13  C13 ZIN A   1      17.703  -0.176   8.370  0.00  0.00     0.025 A 
ATOM     14 Cl15 ZIN A   1      19.131  -0.612   6.112  0.00  0.00    -0.084 Cl
ATOM     15  C12 ZIN A   1      17.356   0.539   9.496  0.00  0.00     0.017 A 
ENDBRANCH   7   9
ENDBRANCH   4   7
BRANCH   1  16
ATOM     16  O4  ZIN A   1      19.631   0.987  16.006  0.00  0.00    -0.330 OA
BRANCH  16  17
ATOM     17  C2  ZIN A   1      18.802   0.138  16.802  0.00  0.00     0.148 C 
ATOM     18  C1  ZIN A   1      17.335   0.370  16.438  0.00  0.00     0.058 C 
ATOM     19  C3  ZIN A   1      19.168  -1.324  16.540  0.00  0.00     0.058 C 
BRANCH  17  20
ATOM     20  C20 ZIN A   1      19.013   0.454  18.261  0.00  0.00     0.209 C 
ATOM     21  O21 ZIN A   1      19.748   1.371  18.586  0.00  0.00    -0.646 OA
ATOM     22  O22 ZIN A   1      18.450  -0.207  19.116  0.00  0.00    -0.646 OA
ENDBRANCH  17  20
ENDBRANCH  16  17
ENDBRANCH   1  16
TORSDOF 5
ENDMDL
MODEL 4
REMARK VINA RESULT:      -7.7      2.082      2.674
REMARK  5 active torsions:
REMARK  status: ('A' for Active; 'I' for Inactive)
REMARK    1  A    between atoms: C2_2  and  O4_4 
REMARK    2  A    between atoms: C2_2  and  C20_20 
REMARK    3  A    between atoms: O4_4  and  C5_5 
REMARK    4  A    between atoms: C8_8  and  C9_9 
REMARK    5  A    between atoms: C9_9  and  C11_11 
ROOT
ATOM      1  C5  ZIN A   1      17.655   0.204   7.122  0.00  0.00     0.070 A 
ATOM      2  C6  ZIN A   1      18.667   1.156   7.093  0.00  0.00     0.038 A 
ATOM      3  C7  ZIN A   1      19.190   1.642   8.270  0.00  0.00     0.018 A 
ATOM      4  C8  ZIN A   1      18.704   1.176   9.496  0.00  0.00     0.015 A 
ATOM      5  C18 ZIN A   1      17.686   0.217   9.519  0.00  0.00     0.018 A 
ATOM      6  C19 ZIN A   1      17.164  -0.260   8.337  0.00  0.00     0.038 A 
ENDROOT
BRANCH   4   7
ATOM      7  C9  ZIN A   1      19.260   1.693  10.759  0.00  0.00     0.192 C 
ATOM      8  O10 ZIN A   1      20.206   1.133  11.280  0.00  0.00    -0.287 OA
BRANCH   7   9
ATOM      9  C11 ZIN A   1      18.669   2.890  11.392  0.00  0.00     0.015 A 
ATOM     10  C17 ZIN A   1      17.458   3.405  10.923  0.00  0.00     0.017 A 
ATOM     11  C16 ZIN A   1      16.910   4.520  11.521  0.00  0.00     0.025 A 
ATOM     12  C14 ZIN A   1      17.561   5.134  12.578  0.00  0.00     0.034 A 
ATOM     13  C13 ZIN A   1      18.766   4.632  13.043  0.00  0.00     0.025 A 
ATOM     14 Cl15 ZIN A   1      16.867   6.541  13.321  0.00  0.00    -0.084 Cl
ATOM     15  C12 ZIN A   1      19.322   3.515  12.456  0.00  0.00     0.017 A 
ENDBRANCH   7   9
ENDBRANCH   4   7
BRANCH   1  16
ATOM     16  O4  ZIN A   1      17.141  -0.272   5.959  0.00  0.00    -0.330 OA
BRANCH  16  17
ATOM     17  C2  ZIN A   1      17.879  -1.303   5.299  0.00  0.00     0.148 C 
ATOM     18  C1  ZIN A   1      18.463  -2.260   6.339  0.00  0.00     0.058 C 
ATOM     19  C3  ZIN A   1      16.947  -2.076   4.362  0.00  0.00     0.058 C 
BRANCH  17  20
ATOM     20  C20 ZIN A   1      18.997  -0.686   4.498  0.00  0.00     0.209 C 
ATOM     21  O21 ZIN A   1      20.125  -1.144   4.572  0.00  0.00    -0.646 OA
ATOM     22  O22 ZIN A   1      18.774   0.271   3.776  0.00  0.00    -0.646 OA
ENDBRANCH  17  20
ENDBRANCH  16  17
ENDBRANCH   1  16
TORSDOF 5
ENDMDL
MODEL 5
REMARK VINA RESULT:      -7.7      2.661      3.190
REMARK  5 active torsions:
REMARK  status: ('A' for Active; 'I' for Inactive)
REMARK    1  A    between atoms: C2_2  and  O4_4 
REMARK    2  A    between atoms: C2_2  and  C20_20 
REMARK    3  A    between atoms: O4_4  and  C5_5 
REMARK    4  A    between atoms: C8_8  and  C9_9 
REMARK    5  A    between atoms: C9_9  and  C11_11 
ROOT
ATOM      1  C5  ZIN A   1      18.363  -1.058   7.899  0.00  0.00     0.070 A 
ATOM      2  C6  ZIN A   1      19.661  -1.039   8.395  0.00  0.00     0.038 A 
ATOM      3  C7  ZIN A   1      19.943  -0.369   9.564  0.00  0.00     0.018 A 
ATOM      4  C8  ZIN A   1      18.923   0.293  10.253  0.00  0.00     0.015 A 
ATOM      5  C18 ZIN A   1      17.617   0.271   9.751  0.00  0.00     0.018 A 
ATOM      6  C19 ZIN A   1      17.345  -0.398   8.578  0.00  0.00     0.038 A 
ENDROOT
BRANCH   4   7
ATOM      7  C9  ZIN A   1      19.220   1.013  11.505  0.00  0.00     0.192 C 
ATOM      8  O10 ZIN A   1      19.803   2.080  11.468  0.00  0.00    -0.287 OA
BRANCH   7   9
ATOM      9  C11 ZIN A   1      18.811   0.438  12.803  0.00  0.00     0.015 A 
ATOM     10  C17 ZIN A   1      17.840   1.077  13.579  0.00  0.00     0.017 A 
ATOM     11  C16 ZIN A   1      17.461   0.532  14.786  0.00  0.00     0.025 A 
ATOM     12  C14 ZIN A   1      18.045  -0.640  15.237  0.00  0.00     0.034 A 
ATOM     13  C13 ZIN A   1      19.013  -1.275  14.475  0.00  0.00     0.025 A 
ATOM     14 Cl15 ZIN A   1      17.565  -1.315  16.762  0.00  0.00    -0.084 Cl
ATOM     15  C12 ZIN A   1      19.398  -0.743  13.263  0.00  0.00     0.017 A 
ENDBRANCH   7   9
ENDBRANCH   4   7
BRANCH   1  16
ATOM     16  O4  ZIN A   1      18.088  -1.720   6.746  0.00  0.00    -0.330 OA
BRANCH  16  17
ATOM     17  C2  ZIN A   1      17.897  -0.926   5.573  0.00  0.00     0.148 C 
ATOM     18  C1  ZIN A   1      17.285  -1.787   4.467  0.00  0.00     0.058 C 
ATOM     19  C3  ZIN A   1      16.957   0.238   5.893  0.00  0.00     0.058 C 
BRANCH  17  20
ATOM     20  C20 ZIN A   1      19.227  -0.385   5.111  0.00  0.00     0.209 C 
ATOM     21  O21 ZIN A   1      19.513   0.783   5.312  0.00  0.00    -0.646 OA
ATOM     22  O22 ZIN A   1      20.015  -1.115   4.536  0.00  0.00    -0.646 OA
ENDBRANCH  17  20
ENDBRANCH  16  17
ENDBRANCH   1  16
TORSDOF 5
ENDMDL
MODEL 6
REMARK VINA RESULT:      -7.6      4.508      5.407
REMARK  5 active torsions:
REMARK  status: ('A' for Active; 'I' for Inactive)
REMARK    1  A    between atoms: C2_2  and  O4_4 
REMARK    2  A    between atoms: C2_2  and  C20_20 
REMARK    3  A    between atoms: O4_4  and  C5_5 
REMARK    4  A    between atoms: C8_8  and  C9_9 
REMARK    5  A    between atoms: C9_9  and  C11_11 
ROOT
ATOM      1  C5  ZIN A   1      18.233  -4.321  11.075  0.00  0.00     0.070 A 
ATOM      2  C6  ZIN A   1      19.583  -4.157  11.366  0.00  0.00     0.038 A 
ATOM      3  C7  ZIN A   1      20.026  -2.993  11.952  0.00  0.00     0.018 A 
ATOM      4  C8  ZIN A   1      19.117  -1.975  12.256  0.00  0.00     0.015 A 
ATOM      5  C18 ZIN A   1      17.760  -2.144  11.962  0.00  0.00     0.018 A 
ATOM      6  C19 ZIN A   1      17.326  -3.310  11.371  0.00  0.00     0.038 A 
ENDROOT
BRANCH   4   7
ATOM      7  C9  ZIN A   1      19.586  -0.726  12.883  0.00  0.00     0.192 C 
ATOM      8  O10 ZIN A   1      20.200   0.092  12.224  0.00  0.00    -0.287 OA
BRANCH   7   9
ATOM      9  C11 ZIN A   1      19.312  -0.468  14.312  0.00  0.00     0.015 A 
ATOM     10  C17 ZIN A   1      19.138  -1.535  15.197  0.00  0.00     0.017 A 
ATOM     11  C16 ZIN A   1      18.887  -1.286  16.529  0.00  0.00     0.025 A 
ATOM     12  C14 ZIN A   1      18.798   0.017  16.990  0.00  0.00     0.034 A 
ATOM     13  C13 ZIN A   1      18.963   1.079  16.116  0.00  0.00     0.025 A 
ATOM     14 Cl15 ZIN A   1      18.476   0.320  18.668  0.00  0.00    -0.084 Cl
ATOM     15  C12 ZIN A   1      19.220   0.844  14.782  0.00  0.00     0.017 A 
ENDBRANCH   7   9
ENDBRANCH   4   7
BRANCH   1  16
ATOM     16  O4  ZIN A   1      17.800  -5.470  10.497  0.00  0.00    -0.330 OA
BRANCH  16  17
ATOM     17  C2  ZIN A   1      17.676  -5.473   9.073  0.00  0.00     0.148 C 
ATOM     18  C1  ZIN A   1      16.232  -5.795   8.687  0.00  0.00     0.058 C 
ATOM     19  C3  ZIN A   1      18.056  -4.095   8.527  0.00  0.00     0.058 C 
BRANCH  17  20
ATOM     20  C20 ZIN A   1      18.597  -6.514   8.491  0.00  0.00     0.209 C 
ATOM     21  O21 ZIN A   1      18.145  -7.406   7.793  0.00  0.00    -0.646 OA
ATOM     22  O22 ZIN A   1      19.794  -6.466   8.718  0.00  0.00    -0.646 OA
ENDBRANCH  17  20
ENDBRANCH  16  17
ENDBRANCH   1  16
TORSDOF 5
ENDMDL
MODEL 7
REMARK VINA RESULT:      -7.6      3.761      8.151
REMARK  5 active torsions:
REMARK  status: ('A' for Active; 'I' for Inactive)
REMARK    1  A    between atoms: C2_2  and  O4_4 
REMARK    2  A    between atoms: C2_2  and  C20_20 
REMARK    3  A    between atoms: O4_4  and  C5_5 
REMARK    4  A    between atoms: C8_8  and  C9_9 
REMARK    5  A    between atoms: C9_9  and  C11_11 
ROOT
ATOM      1  C5  ZIN A   1      19.049   4.419  12.627  0.00  0.00     0.070 A 
ATOM      2  C6  ZIN A   1      17.902   4.594  11.863  0.00  0.00     0.038 A 
ATOM      3  C7  ZIN A   1      17.377   3.536  11.155  0.00  0.00     0.018 A 
ATOM      4  C8  ZIN A   1      17.999   2.285  11.206  0.00  0.00     0.015 A 
ATOM      5  C18 ZIN A   1      19.153   2.114  11.978  0.00  0.00     0.018 A 
ATOM      6  C19 ZIN A   1      19.674   3.179  12.679  0.00  0.00     0.038 A 
ENDROOT
BRANCH   4   7
ATOM      7  C9  ZIN A   1      17.441   1.149  10.450  0.00  0.00     0.192 C 
ATOM      8  O10 ZIN A   1      16.627   0.412  10.972  0.00  0.00    -0.287 OA
BRANCH   7   9
ATOM      9  C11 ZIN A   1      17.872   0.905   9.057  0.00  0.00     0.015 A 
ATOM     10  C17 ZIN A   1      18.844   1.720   8.471  0.00  0.00     0.017 A 
ATOM     11  C16 ZIN A   1      19.244   1.484   7.174  0.00  0.00     0.025 A 
ATOM     12  C14 ZIN A   1      18.679   0.449   6.448  0.00  0.00     0.034 A 
ATOM     13  C13 ZIN A   1      17.710  -0.359   7.022  0.00  0.00     0.025 A 
ATOM     14 Cl15 ZIN A   1      19.185   0.163   4.813  0.00  0.00    -0.084 Cl
ATOM     15  C12 ZIN A   1      17.305  -0.136   8.321  0.00  0.00     0.017 A 
ENDBRANCH   7   9
ENDBRANCH   4   7
BRANCH   1  16
ATOM     16  O4  ZIN A   1      19.564   5.465  13.324  0.00  0.00    -0.330 OA
BRANCH  16  17
ATOM     17  C2  ZIN A   1      19.129   5.620  14.676  0.00  0.00     0.148 C 
ATOM     18  C1  ZIN A   1      18.528   7.014  14.863  0.00  0.00     0.058 C 
ATOM     19  C3  ZIN A   1      18.071   4.561  14.995  0.00  0.00     0.058 C 
BRANCH  17  20
ATOM     20  C20 ZIN A   1      20.304   5.450  15.605  0.00  0.00     0.209 C 
ATOM     21  O21 ZIN A   1      20.352   4.494  16.359  0.00  0.00    -0.646 OA
ATOM     22  O22 ZIN A   1      21.207   6.270  15.602  0.00  0.00    -0.646 OA
ENDBRANCH  17  20
ENDBRANCH  16  17
ENDBRANCH   1  16
TORSDOF 5
ENDMDL
MODEL 8
REMARK VINA RESULT:      -7.4      4.615      7.829
REMARK  5 active torsions:
REMARK  status: ('A' for Active; 'I' for Inactive)
REMARK    1  A    between atoms: C2_2  and  O4_4 
REMARK    2  A    between atoms: C2_2  and  C20_20 
REMARK    3  A    between atoms: O4_4  and  C5_5 
REMARK    4  A    between atoms: C8_8  and  C9_9 
REMARK    5  A    between atoms: C9_9  and  C11_11 
ROOT
ATOM      1  C5  ZIN A   1      17.501   1.057  11.364  0.00  0.00     0.070 A 
ATOM      2  C6  ZIN A   1      17.931   0.587  12.599  0.00  0.00     0.038 A 
ATOM      3  C7  ZIN A   1      18.443  -0.685  12.712  0.00  0.00     0.018 A 
ATOM      4  C8  ZIN A   1      18.533  -1.505  11.583  0.00  0.00     0.015 A 
ATOM      5  C18 ZIN A   1      18.100  -1.027  10.342  0.00  0.00     0.018 A 
ATOM      6  C19 ZIN A   1      17.583   0.246  10.238  0.00  0.00     0.038 A 
ENDROOT
BRANCH   4   7
ATOM      7  C9  ZIN A   1      19.081  -2.869  11.699  0.00  0.00     0.192 C 
ATOM      8  O10 ZIN A   1      20.037  -3.080  12.421  0.00  0.00    -0.287 OA
BRANCH   7   9
ATOM      9  C11 ZIN A   1      18.469  -3.978  10.939  0.00  0.00     0.015 A 
ATOM     10  C17 ZIN A   1      17.120  -4.294  11.122  0.00  0.00     0.017 A 
ATOM     11  C16 ZIN A   1      16.555  -5.327  10.406  0.00  0.00     0.025 A 
ATOM     12  C14 ZIN A   1      17.322  -6.058   9.514  0.00  0.00     0.034 A 
ATOM     13  C13 ZIN A   1      18.662  -5.753   9.333  0.00  0.00     0.025 A 
ATOM     14 Cl15 ZIN A   1      16.604  -7.361   8.621  0.00  0.00    -0.084 Cl
ATOM     15  C12 ZIN A   1      19.238  -4.719  10.039  0.00  0.00     0.017 A 
ENDBRANCH   7   9
ENDBRANCH   4   7
BRANCH   1  16
ATOM     16  O4  ZIN A   1      16.996   2.313  11.256  0.00  0.00    -0.330 OA
BRANCH  16  17
ATOM     17  C2  ZIN A   1      17.900   3.343  10.850  0.00  0.00     0.148 C 
ATOM     18  C1  ZIN A   1      18.945   3.565  11.945  0.00  0.00     0.058 C 
ATOM     19  C3  ZIN A   1      18.598   2.926   9.555  0.00  0.00     0.058 C 
BRANCH  17  20
ATOM     20  C20 ZIN A   1      17.134   4.621  10.619  0.00  0.00     0.209 C 
ATOM     21  O21 ZIN A   1      16.130   4.856  11.268  0.00  0.00    -0.646 OA
ATOM     22  O22 ZIN A   1      17.519   5.419   9.781  0.00  0.00    -0.646 OA
ENDBRANCH  17  20
ENDBRANCH  16  17
ENDBRANCH   1  16
TORSDOF 5
ENDMDL
MODEL 9
REMARK VINA RESULT:      -7.2      3.743      8.214
REMARK  5 active torsions:
REMARK  status: ('A' for Active; 'I' for Inactive)
REMARK    1  A    between atoms: C2_2  and  O4_4 
REMARK    2  A    between atoms: C2_2  and  C20_20 
REMARK    3  A    between atoms: O4_4  and  C5_5 
REMARK    4  A    between atoms: C8_8  and  C9_9 
REMARK    5  A    between atoms: C9_9  and  C11_11 
ROOT
ATOM      1  C5  ZIN A   1      19.036   4.159  12.818  0.00  0.00     0.070 A 
ATOM      2  C6  ZIN A   1      18.001   4.415  11.926  0.00  0.00     0.038 A 
ATOM      3  C7  ZIN A   1      17.467   3.392  11.177  0.00  0.00     0.018 A 
ATOM      4  C8  ZIN A   1      17.965   2.092  11.315  0.00  0.00     0.015 A 
ATOM      5  C18 ZIN A   1      19.006   1.839  12.214  0.00  0.00     0.018 A 
ATOM      6  C19 ZIN A   1      19.539   2.870  12.955  0.00  0.00     0.038 A 
ENDROOT
BRANCH   4   7
ATOM      7  C9  ZIN A   1      17.396   0.993  10.514  0.00  0.00     0.192 C 
ATOM      8  O10 ZIN A   1      16.516   0.295  10.980  0.00  0.00    -0.287 OA
BRANCH   7   9
ATOM      9  C11 ZIN A   1      17.897   0.737   9.148  0.00  0.00     0.015 A 
ATOM     10  C17 ZIN A   1      18.786   1.632   8.548  0.00  0.00     0.017 A 
ATOM     11  C16 ZIN A   1      19.252   1.386   7.275  0.00  0.00     0.025 A 
ATOM     12  C14 ZIN A   1      18.835   0.259   6.586  0.00  0.00     0.034 A 
ATOM     13  C13 ZIN A   1      17.949  -0.630   7.174  0.00  0.00     0.025 A 
ATOM     14 Cl15 ZIN A   1      19.423  -0.041   4.981  0.00  0.00    -0.084 Cl
ATOM     15  C12 ZIN A   1      17.479  -0.397   8.448  0.00  0.00     0.017 A 
ENDBRANCH   7   9
ENDBRANCH   4   7
BRANCH   1  16
ATOM     16  O4  ZIN A   1      19.561   5.171  13.554  0.00  0.00    -0.330 OA
BRANCH  16  17
ATOM     17  C2  ZIN A   1      19.073   5.322  14.889  0.00  0.00     0.148 C 
ATOM     18  C1  ZIN A   1      18.013   4.256  15.169  0.00  0.00     0.058 C 
ATOM     19  C3  ZIN A   1      20.231   5.162  15.876  0.00  0.00     0.058 C 
BRANCH  17  20
ATOM     20  C20 ZIN A   1      18.463   6.691  15.049  0.00  0.00     0.209 C 
ATOM     21  O21 ZIN A   1      18.861   7.438  15.927  0.00  0.00    -0.646 OA
ATOM     22  O22 ZIN A   1      17.570   7.052  14.301  0.00  0.00    -0.646 OA
ENDBRANCH  17  20
ENDBRANCH  16  17
ENDBRANCH   1  16
TORSDOF 5
ENDMDL
