MODEL 1
REMARK VINA RESULT:      -5.2      0.000      0.000
REMARK  3 active torsions:
REMARK  status: ('A' for Active; 'I' for Inactive)
REMARK    1  A    between atoms: C2_2  and  C3_3 
REMARK    2  A    between atoms: C3_3  and  C5_4 
REMARK    3  A    between atoms: C3_3  and  N8_7 
REMARK       I    between atoms: C5_4  and  N6_5 
ROOT
ATOM      1  C3  ZIN A   1      19.244  -0.323  12.698  0.00  0.00     0.178 C 
ENDROOT
BRANCH   1   2
ATOM      2  C2  ZIN A   1      19.909  -0.596  14.048  0.00  0.00     0.030 C 
ATOM      3  C1  ZIN A   1      18.852  -1.066  15.050  0.00  0.00     0.007 C 
ENDBRANCH   1   2
BRANCH   1   4
ATOM      4  C5  ZIN A   1      20.232   0.347  11.778  0.00  0.00     0.238 C 
ATOM      5  N6  ZIN A   1      21.504   0.540  12.181  0.00  0.00    -0.368 N 
ATOM      6  H19 ZIN A   1      21.783   0.247  13.062  0.00  0.00     0.159 HD
ATOM      7  H20 ZIN A   1      22.140   0.971  11.589  0.00  0.00     0.159 HD
ATOM      8  O7  ZIN A   1      19.883   0.714  10.675  0.00  0.00    -0.271 OA
ENDBRANCH   1   4
BRANCH   1   9
ATOM      9  N8  ZIN A   1      18.804  -1.587  12.103  0.00  0.00    -0.339 N 
ATOM     10  C12 ZIN A   1      17.539  -1.853  11.736  0.00  0.00     0.220 C 
ATOM     11  C11 ZIN A   1      17.446  -3.252  11.166  0.00  0.00     0.104 C 
ATOM     12  O13 ZIN A   1      16.609  -1.082  11.839  0.00  0.00    -0.273 OA
ATOM     13  C10 ZIN A   1      18.749  -3.938  11.636  0.00  0.00     0.029 C 
ATOM     14  C9  ZIN A   1      19.689  -2.728  11.838  0.00  0.00     0.127 C 
ENDBRANCH   1   9
TORSDOF 3
ENDMDL
MODEL 2
REMARK VINA RESULT:      -5.0      3.012      4.126
REMARK  3 active torsions:
REMARK  status: ('A' for Active; 'I' for Inactive)
REMARK    1  A    between atoms: C2_2  and  C3_3 
REMARK    2  A    between atoms: C3_3  and  C5_4 
REMARK    3  A    between atoms: C3_3  and  N8_7 
REMARK       I    between atoms: C5_4  and  N6_5 
ROOT
ATOM      1  C3  ZIN A   1      19.099  -0.182  10.808  0.00  0.00     0.178 C 
ENDROOT
BRANCH   1   2
ATOM      2  C2  ZIN A   1      17.808  -0.950  11.098  0.00  0.00     0.030 C 
ATOM      3  C1  ZIN A   1      16.679   0.043  11.384  0.00  0.00     0.007 C 
ENDBRANCH   1   2
BRANCH   1   4
ATOM      4  C5  ZIN A   1      20.283  -1.089  11.029  0.00  0.00     0.238 C 
ATOM      5  N6  ZIN A   1      21.534  -0.594  10.954  0.00  0.00    -0.368 N 
ATOM      6  H19 ZIN A   1      21.673   0.346  10.758  0.00  0.00     0.159 HD
ATOM      7  H20 ZIN A   1      22.296  -1.177  11.097  0.00  0.00     0.159 HD
ATOM      8  O7  ZIN A   1      20.109  -2.264  11.275  0.00  0.00    -0.271 OA
ENDBRANCH   1   4
BRANCH   1   9
ATOM      9  N8  ZIN A   1      19.092   0.279   9.417  0.00  0.00    -0.339 N 
ATOM     10  C12 ZIN A   1      19.164   1.569   9.046  0.00  0.00     0.220 C 
ATOM     11  C11 ZIN A   1      19.126   1.679   7.537  0.00  0.00     0.104 C 
ATOM     12  O13 ZIN A   1      19.253   2.508   9.809  0.00  0.00    -0.273 OA
ATOM     13  C10 ZIN A   1      18.593   0.304   7.072  0.00  0.00     0.029 C 
ATOM     14  C9  ZIN A   1      18.999  -0.608   8.252  0.00  0.00     0.127 C 
ENDBRANCH   1   9
TORSDOF 3
ENDMDL
MODEL 3
REMARK VINA RESULT:      -4.9      2.418      3.679
REMARK  3 active torsions:
REMARK  status: ('A' for Active; 'I' for Inactive)
REMARK    1  A    between atoms: C2_2  and  C3_3 
REMARK    2  A    between atoms: C3_3  and  C5_4 
REMARK    3  A    between atoms: C3_3  and  N8_7 
REMARK       I    between atoms: C5_4  and  N6_5 
ROOT
ATOM      1  C3  ZIN A   1      19.320  -0.206  11.650  0.00  0.00     0.178 C 
ENDROOT
BRANCH   1   2
ATOM      2  C2  ZIN A   1      19.698  -1.646  11.298  0.00  0.00     0.030 C 
ATOM      3  C1  ZIN A   1      19.018  -2.605  12.277  0.00  0.00     0.007 C 
ENDBRANCH   1   2
BRANCH   1   4
ATOM      4  C5  ZIN A   1      20.346   0.364  12.596  0.00  0.00     0.238 C 
ATOM      5  N6  ZIN A   1      21.602   0.595  12.168  0.00  0.00    -0.368 N 
ATOM      6  H19 ZIN A   1      21.847   0.395  11.251  0.00  0.00     0.159 HD
ATOM      7  H20 ZIN A   1      22.262   0.962  12.777  0.00  0.00     0.159 HD
ATOM      8  O7  ZIN A   1      20.040   0.615  13.743  0.00  0.00    -0.271 OA
ENDBRANCH   1   4
BRANCH   1   9
ATOM      9  N8  ZIN A   1      19.281   0.602  10.429  0.00  0.00    -0.339 N 
ATOM     10  C12 ZIN A   1      18.729   1.824  10.347  0.00  0.00     0.220 C 
ATOM     11  C11 ZIN A   1      18.863   2.362   8.938  0.00  0.00     0.104 C 
ATOM     12  O13 ZIN A   1      18.206   2.415  11.268  0.00  0.00    -0.273 OA
ATOM     13  C10 ZIN A   1      19.194   1.113   8.088  0.00  0.00     0.029 C 
ATOM     14  C9  ZIN A   1      19.834   0.177   9.138  0.00  0.00     0.127 C 
ENDBRANCH   1   9
TORSDOF 3
ENDMDL
MODEL 4
REMARK VINA RESULT:      -4.9      2.203      3.419
REMARK  3 active torsions:
REMARK  status: ('A' for Active; 'I' for Inactive)
REMARK    1  A    between atoms: C2_2  and  C3_3 
REMARK    2  A    between atoms: C3_3  and  C5_4 
REMARK    3  A    between atoms: C3_3  and  N8_7 
REMARK       I    between atoms: C5_4  and  N6_5 
ROOT
ATOM      1  C3  ZIN A   1      19.028   0.286  12.018  0.00  0.00     0.178 C 
ENDROOT
BRANCH   1   2
ATOM      2  C2  ZIN A   1      17.830   1.040  11.438  0.00  0.00     0.030 C 
ATOM      3  C1  ZIN A   1      16.759   0.038  11.003  0.00  0.00     0.007 C 
ENDBRANCH   1   2
BRANCH   1   4
ATOM      4  C5  ZIN A   1      20.250   1.167  11.965  0.00  0.00     0.238 C 
ATOM      5  N6  ZIN A   1      21.475   0.630  12.127  0.00  0.00    -0.368 N 
ATOM      6  H19 ZIN A   1      21.571  -0.324  12.277  0.00  0.00     0.159 HD
ATOM      7  H20 ZIN A   1      22.261   1.197  12.093  0.00  0.00     0.159 HD
ATOM      8  O7  ZIN A   1      20.130   2.359  11.778  0.00  0.00    -0.271 OA
ENDBRANCH   1   4
BRANCH   1   9
ATOM      9  N8  ZIN A   1      18.749  -0.078  13.410  0.00  0.00    -0.339 N 
ATOM     10  C12 ZIN A   1      18.985  -1.291  13.937  0.00  0.00     0.220 C 
ATOM     11  C11 ZIN A   1      18.573  -1.314  15.394  0.00  0.00     0.104 C 
ATOM     12  O13 ZIN A   1      19.465  -2.229  13.337  0.00  0.00    -0.273 OA
ATOM     13  C10 ZIN A   1      17.665  -0.072  15.548  0.00  0.00     0.029 C 
ATOM     14  C9  ZIN A   1      18.172   0.834  14.403  0.00  0.00     0.127 C 
ENDBRANCH   1   9
TORSDOF 3
ENDMDL
MODEL 5
REMARK VINA RESULT:      -4.9      2.735      4.505
REMARK  3 active torsions:
REMARK  status: ('A' for Active; 'I' for Inactive)
REMARK    1  A    between atoms: C2_2  and  C3_3 
REMARK    2  A    between atoms: C3_3  and  C5_4 
REMARK    3  A    between atoms: C3_3  and  N8_7 
REMARK       I    between atoms: C5_4  and  N6_5 
ROOT
ATOM      1  C3  ZIN A   1      19.134   0.581  11.926  0.00  0.00     0.178 C 
ENDROOT
BRANCH   1   2
ATOM      2  C2  ZIN A   1      18.105  -0.337  11.262  0.00  0.00     0.030 C 
ATOM      3  C1  ZIN A   1      16.727  -0.087  11.879  0.00  0.00     0.007 C 
ENDBRANCH   1   2
BRANCH   1   4
ATOM      4  C5  ZIN A   1      20.522   0.148  11.529  0.00  0.00     0.238 C 
ATOM      5  N6  ZIN A   1      21.593   0.634  12.188  0.00  0.00    -0.368 N 
ATOM      6  H19 ZIN A   1      21.471   1.262  12.917  0.00  0.00     0.159 HD
ATOM      7  H20 ZIN A   1      22.487   0.355  11.933  0.00  0.00     0.159 HD
ATOM      8  O7  ZIN A   1      20.676  -0.637  10.618  0.00  0.00    -0.271 OA
ENDBRANCH   1   4
BRANCH   1   9
ATOM      9  N8  ZIN A   1      18.911   1.962  11.490  0.00  0.00    -0.339 N 
ATOM     10  C12 ZIN A   1      18.779   3.007  12.324  0.00  0.00     0.220 C 
ATOM     11  C11 ZIN A   1      18.556   4.279  11.533  0.00  0.00     0.104 C 
ATOM     12  O13 ZIN A   1      18.838   2.944  13.534  0.00  0.00    -0.273 OA
ATOM     13  C10 ZIN A   1      18.149   3.781  10.127  0.00  0.00     0.029 C 
ATOM     14  C9  ZIN A   1      18.797   2.379  10.088  0.00  0.00     0.127 C 
ENDBRANCH   1   9
TORSDOF 3
ENDMDL
MODEL 6
REMARK VINA RESULT:      -4.8      2.994      3.978
REMARK  3 active torsions:
REMARK  status: ('A' for Active; 'I' for Inactive)
REMARK    1  A    between atoms: C2_2  and  C3_3 
REMARK    2  A    between atoms: C3_3  and  C5_4 
REMARK    3  A    between atoms: C3_3  and  N8_7 
REMARK       I    between atoms: C5_4  and  N6_5 
ROOT
ATOM      1  C3  ZIN A   1      17.868   0.965   9.356  0.00  0.00     0.178 C 
ENDROOT
BRANCH   1   2
ATOM      2  C2  ZIN A   1      18.922   2.071   9.443  0.00  0.00     0.030 C 
ATOM      3  C1  ZIN A   1      18.313   3.303  10.116  0.00  0.00     0.007 C 
ENDBRANCH   1   2
BRANCH   1   4
ATOM      4  C5  ZIN A   1      17.989   0.259   8.030  0.00  0.00     0.238 C 
ATOM      5  N6  ZIN A   1      17.012  -0.572   7.617  0.00  0.00    -0.368 N 
ATOM      6  H19 ZIN A   1      16.229  -0.714   8.172  0.00  0.00     0.159 HD
ATOM      7  H20 ZIN A   1      17.090  -1.026   6.764  0.00  0.00     0.159 HD
ATOM      8  O7  ZIN A   1      18.967   0.437   7.335  0.00  0.00    -0.271 OA
ENDBRANCH   1   4
BRANCH   1   9
ATOM      9  N8  ZIN A   1      18.076   0.004  10.442  0.00  0.00    -0.339 N 
ATOM     10  C12 ZIN A   1      17.147  -0.318  11.357  0.00  0.00     0.220 C 
ATOM     11  C11 ZIN A   1      17.705  -1.335  12.329  0.00  0.00     0.104 C 
ATOM     12  O13 ZIN A   1      16.022   0.135  11.396  0.00  0.00    -0.273 OA
ATOM     13  C10 ZIN A   1      19.235  -1.258  12.119  0.00  0.00     0.029 C 
ATOM     14  C9  ZIN A   1      19.328  -0.726  10.671  0.00  0.00     0.127 C 
ENDBRANCH   1   9
TORSDOF 3
ENDMDL
MODEL 7
REMARK VINA RESULT:      -4.8      1.867      3.267
REMARK  3 active torsions:
REMARK  status: ('A' for Active; 'I' for Inactive)
REMARK    1  A    between atoms: C2_2  and  C3_3 
REMARK    2  A    between atoms: C3_3  and  C5_4 
REMARK    3  A    between atoms: C3_3  and  N8_7 
REMARK       I    between atoms: C5_4  and  N6_5 
ROOT
ATOM      1  C3  ZIN A   1      19.209   0.401  11.209  0.00  0.00     0.178 C 
ENDROOT
BRANCH   1   2
ATOM      2  C2  ZIN A   1      19.575   1.886  11.233  0.00  0.00     0.030 C 
ATOM      3  C1  ZIN A   1      19.001   2.572   9.991  0.00  0.00     0.007 C 
ENDBRANCH   1   2
BRANCH   1   4
ATOM      4  C5  ZIN A   1      20.256  -0.363  10.439  0.00  0.00     0.238 C 
ATOM      5  N6  ZIN A   1      21.486  -0.534  10.963  0.00  0.00    -0.368 N 
ATOM      6  H19 ZIN A   1      21.697  -0.167  11.835  0.00  0.00     0.159 HD
ATOM      7  H20 ZIN A   1      22.159  -1.025  10.467  0.00  0.00     0.159 HD
ATOM      8  O7  ZIN A   1      19.991  -0.823   9.348  0.00  0.00    -0.271 OA
ENDBRANCH   1   4
BRANCH   1   9
ATOM      9  N8  ZIN A   1      19.144  -0.109  12.581  0.00  0.00    -0.339 N 
ATOM     10  C12 ZIN A   1      18.457  -1.203  12.952  0.00  0.00     0.220 C 
ATOM     11  C11 ZIN A   1      18.607  -1.432  14.440  0.00  0.00     0.104 C 
ATOM     12  O13 ZIN A   1      17.816  -1.908  12.202  0.00  0.00    -0.273 OA
ATOM     13  C10 ZIN A   1      19.133  -0.081  14.978  0.00  0.00     0.029 C 
ATOM     14  C9  ZIN A   1      19.817   0.513  13.727  0.00  0.00     0.127 C 
ENDBRANCH   1   9
TORSDOF 3
ENDMDL
MODEL 8
REMARK VINA RESULT:      -4.7      2.614      4.102
REMARK  3 active torsions:
REMARK  status: ('A' for Active; 'I' for Inactive)
REMARK    1  A    between atoms: C2_2  and  C3_3 
REMARK    2  A    between atoms: C3_3  and  C5_4 
REMARK    3  A    between atoms: C3_3  and  N8_7 
REMARK       I    between atoms: C5_4  and  N6_5 
ROOT
ATOM      1  C3  ZIN A   1      19.415   1.833  10.658  0.00  0.00     0.178 C 
ENDROOT
BRANCH   1   2
ATOM      2  C2  ZIN A   1      18.473   2.069   9.476  0.00  0.00     0.030 C 
ATOM      3  C1  ZIN A   1      19.217   1.791   8.168  0.00  0.00     0.007 C 
ENDBRANCH   1   2
BRANCH   1   4
ATOM      4  C5  ZIN A   1      19.712   3.147  11.334  0.00  0.00     0.238 C 
ATOM      5  N6  ZIN A   1      20.956   3.408  11.781  0.00  0.00    -0.368 N 
ATOM      6  H19 ZIN A   1      21.661   2.751  11.668  0.00  0.00     0.159 HD
ATOM      7  H20 ZIN A   1      21.148   4.254  12.216  0.00  0.00     0.159 HD
ATOM      8  O7  ZIN A   1      18.832   3.969  11.475  0.00  0.00    -0.271 OA
ENDBRANCH   1   4
BRANCH   1   9
ATOM      9  N8  ZIN A   1      18.780   0.924  11.616  0.00  0.00    -0.339 N 
ATOM     10  C12 ZIN A   1      19.431   0.295  12.610  0.00  0.00     0.220 C 
ATOM     11  C11 ZIN A   1      18.468  -0.565  13.399  0.00  0.00     0.104 C 
ATOM     12  O13 ZIN A   1      20.616   0.406  12.844  0.00  0.00    -0.273 OA
ATOM     13  C10 ZIN A   1      17.233  -0.692  12.477  0.00  0.00     0.029 C 
ATOM     14  C9  ZIN A   1      17.353   0.581  11.611  0.00  0.00     0.127 C 
ENDBRANCH   1   9
TORSDOF 3
ENDMDL
MODEL 9
REMARK VINA RESULT:      -4.7      3.017      4.104
REMARK  3 active torsions:
REMARK  status: ('A' for Active; 'I' for Inactive)
REMARK    1  A    between atoms: C2_2  and  C3_3 
REMARK    2  A    between atoms: C3_3  and  C5_4 
REMARK    3  A    between atoms: C3_3  and  N8_7 
REMARK       I    between atoms: C5_4  and  N6_5 
ROOT
ATOM      1  C3  ZIN A   1      17.775   2.051  10.487  0.00  0.00     0.178 C 
ENDROOT
BRANCH   1   2
ATOM      2  C2  ZIN A   1      18.402   3.429  10.711  0.00  0.00     0.030 C 
ATOM      3  C1  ZIN A   1      17.384   4.515  10.357  0.00  0.00     0.007 C 
ENDBRANCH   1   2
BRANCH   1   4
ATOM      4  C5  ZIN A   1      18.387   1.414   9.267  0.00  0.00     0.238 C 
ATOM      5  N6  ZIN A   1      19.642   1.736   8.896  0.00  0.00    -0.368 N 
ATOM      6  H19 ZIN A   1      20.152   2.378   9.415  0.00  0.00     0.159 HD
ATOM      7  H20 ZIN A   1      20.036   1.325   8.111  0.00  0.00     0.159 HD
ATOM      8  O7  ZIN A   1      17.750   0.611   8.618  0.00  0.00    -0.271 OA
ENDBRANCH   1   4
BRANCH   1   9
ATOM      9  N8  ZIN A   1      18.024   1.205  11.657  0.00  0.00    -0.339 N 
ATOM     10  C12 ZIN A   1      17.204   0.223  12.069  0.00  0.00     0.220 C 
ATOM     11  C11 ZIN A   1      17.769  -0.439  13.308  0.00  0.00     0.104 C 
ATOM     12  O13 ZIN A   1      16.167  -0.092  11.525  0.00  0.00    -0.273 OA
ATOM     13  C10 ZIN A   1      18.826   0.564  13.823  0.00  0.00     0.029 C 
ATOM     14  C9  ZIN A   1      19.197   1.324  12.530  0.00  0.00     0.127 C 
ENDBRANCH   1   9
TORSDOF 3
ENDMDL
