MODEL 1
REMARK VINA RESULT:      -7.9      0.000      0.000
REMARK  10 active torsions:
REMARK  status: ('A' for Active; 'I' for Inactive)
REMARK    1  A    between atoms: O2_2  and  C3_3 
REMARK    2  A    between atoms: C3_3  and  C4_4 
REMARK    3  A    between atoms: C4_4  and  O5_5 
REMARK    4  A    between atoms: O5_5  and  C6_6 
REMARK    5  A    between atoms: C6_6  and  C8_8 
REMARK    6  A    between atoms: C14_14  and  C15_15 
REMARK    7  A    between atoms: C15_15  and  O17_17 
REMARK    8  A    between atoms: O17_17  and  C18_18 
REMARK    9  A    between atoms: C21_21  and  C23_22 
REMARK   10  A    between atoms: C27_26  and  N28_27 
ROOT
ATOM      1  C8  ZIN A   1      18.686  -0.225  10.962  0.00  0.00     0.052 C 
ATOM      2  C9  ZIN A   1      19.911  -0.526  11.426  0.00  0.00     0.018 C 
ATOM      3  C10 ZIN A   1      20.754   0.554  12.055  0.00  0.00     0.069 C 
ATOM      4  N11 ZIN A   1      20.402  -1.799  11.334  0.00  0.00    -0.362 N 
ATOM      5  C12 ZIN A   1      19.556  -2.851  11.111  0.00  0.00     0.018 C 
ATOM      6  C13 ZIN A   1      20.020  -4.254  11.405  0.00  0.00     0.069 C 
ATOM      7  C14 ZIN A   1      18.316  -2.647  10.633  0.00  0.00     0.052 C 
ATOM      8  C21 ZIN A   1      17.812  -1.268  10.324  0.00  0.00     0.101 C 
ATOM      9  H42 ZIN A   1      21.355  -1.957  11.428  0.00  0.00     0.165 HD
ENDROOT
BRANCH   8  10
ATOM     10  C23 ZIN A   1      17.820  -1.060   8.831  0.00  0.00    -0.042 A 
ATOM     11  C31 ZIN A   1      18.683  -1.793   8.037  0.00  0.00     0.044 A 
ATOM     12  C27 ZIN A   1      18.687  -1.605   6.668  0.00  0.00     0.103 A 
ATOM     13  C26 ZIN A   1      17.834  -0.681   6.093  0.00  0.00     0.036 A 
ATOM     14  C25 ZIN A   1      16.976   0.054   6.888  0.00  0.00     0.003 A 
ATOM     15  C24 ZIN A   1      16.969  -0.136   8.258  0.00  0.00     0.008 A 
BRANCH  12  16
ATOM     16  N28 ZIN A   1      19.606  -2.394   5.816  0.00  0.00    -0.116 N 
ATOM     17  O29 ZIN A   1      19.816  -2.051   4.666  0.00  0.00    -0.532 OA
ATOM     18  O30 ZIN A   1      20.153  -3.385   6.266  0.00  0.00    -0.532 OA
ENDBRANCH  12  16
ENDBRANCH   8  10
BRANCH   1  19
ATOM     19  C6  ZIN A   1      18.206   1.100  11.080  0.00  0.00     0.292 C 
ATOM     20  O7  ZIN A   1      17.340   1.363  11.895  0.00  0.00    -0.259 OA
BRANCH  19  21
ATOM     21  O5  ZIN A   1      18.709   2.073  10.293  0.00  0.00    -0.316 OA
BRANCH  21  22
ATOM     22  C4  ZIN A   1      18.806   3.381  10.859  0.00  0.00     0.205 C 
BRANCH  22  23
ATOM     23  C3  ZIN A   1      17.795   4.307  10.181  0.00  0.00     0.193 C 
BRANCH  23  24
ATOM     24  O2  ZIN A   1      16.580   4.317  10.933  0.00  0.00    -0.394 OA
ATOM     25  C1  ZIN A   1      16.584   5.229  12.033  0.00  0.00     0.201 C 
ENDBRANCH  23  24
ENDBRANCH  22  23
ENDBRANCH  21  22
ENDBRANCH  19  21
ENDBRANCH   1  19
BRANCH   7  26
ATOM     26  C15 ZIN A   1      17.466  -3.758  10.421  0.00  0.00     0.292 C 
ATOM     27  O16 ZIN A   1      16.686  -4.101  11.290  0.00  0.00    -0.259 OA
BRANCH  26  28
ATOM     28  O17 ZIN A   1      17.517  -4.434   9.255  0.00  0.00    -0.313 OA
BRANCH  28  29
ATOM     29  C18 ZIN A   1      17.662  -5.852   9.333  0.00  0.00     0.124 C 
ATOM     30  C19 ZIN A   1      16.420  -6.526   8.747  0.00  0.00     0.040 C 
ATOM     31  C20 ZIN A   1      18.897  -6.283   8.539  0.00  0.00     0.040 C 
ENDBRANCH  28  29
ENDBRANCH  26  28
ENDBRANCH   7  26
TORSDOF 10
ENDMDL
MODEL 2
REMARK VINA RESULT:      -7.9      1.901      6.309
REMARK  10 active torsions:
REMARK  status: ('A' for Active; 'I' for Inactive)
REMARK    1  A    between atoms: O2_2  and  C3_3 
REMARK    2  A    between atoms: C3_3  and  C4_4 
REMARK    3  A    between atoms: C4_4  and  O5_5 
REMARK    4  A    between atoms: O5_5  and  C6_6 
REMARK    5  A    between atoms: C6_6  and  C8_8 
REMARK    6  A    between atoms: C14_14  and  C15_15 
REMARK    7  A    between atoms: C15_15  and  O17_17 
REMARK    8  A    between atoms: O17_17  and  C18_18 
REMARK    9  A    between atoms: C21_21  and  C23_22 
REMARK   10  A    between atoms: C27_26  and  N28_27 
ROOT
ATOM      1  C8  ZIN A   1      18.666  -3.358  10.053  0.00  0.00     0.052 C 
ATOM      2  C9  ZIN A   1      17.782  -3.551  11.046  0.00  0.00     0.018 C 
ATOM      3  C10 ZIN A   1      17.148  -4.907  11.226  0.00  0.00     0.069 C 
ATOM      4  N11 ZIN A   1      17.449  -2.532  11.895  0.00  0.00    -0.362 N 
ATOM      5  C12 ZIN A   1      18.248  -1.425  11.992  0.00  0.00     0.018 C 
ATOM      6  C13 ZIN A   1      18.112  -0.511  13.182  0.00  0.00     0.069 C 
ATOM      7  C14 ZIN A   1      19.151  -1.143  11.037  0.00  0.00     0.052 C 
ATOM      8  C21 ZIN A   1      19.320  -2.023   9.833  0.00  0.00     0.101 C 
ATOM      9  H42 ZIN A   1      16.643  -2.594  12.432  0.00  0.00     0.165 HD
ENDROOT
BRANCH   8  10
ATOM     10  C23 ZIN A   1      18.679  -1.360   8.641  0.00  0.00    -0.042 A 
ATOM     11  C31 ZIN A   1      19.317  -1.382   7.414  0.00  0.00     0.044 A 
ATOM     12  C27 ZIN A   1      18.727  -0.777   6.319  0.00  0.00     0.103 A 
ATOM     13  C26 ZIN A   1      17.505  -0.144   6.453  0.00  0.00     0.036 A 
ATOM     14  C25 ZIN A   1      16.872  -0.119   7.680  0.00  0.00     0.003 A 
ATOM     15  C24 ZIN A   1      17.459  -0.727   8.775  0.00  0.00     0.008 A 
BRANCH  12  16
ATOM     16  N28 ZIN A   1      19.406  -0.806   5.004  0.00  0.00    -0.116 N 
ATOM     17  O29 ZIN A   1      19.588   0.230   4.389  0.00  0.00    -0.532 OA
ATOM     18  O30 ZIN A   1      19.784  -1.866   4.536  0.00  0.00    -0.532 OA
ENDBRANCH  12  16
ENDBRANCH   8  10
BRANCH   1  19
ATOM     19  C6  ZIN A   1      18.994  -4.436   9.198  0.00  0.00     0.292 C 
ATOM     20  O7  ZIN A   1      19.960  -5.135   9.442  0.00  0.00    -0.259 OA
BRANCH  19  21
ATOM     21  O5  ZIN A   1      18.234  -4.692   8.112  0.00  0.00    -0.316 OA
BRANCH  21  22
ATOM     22  C4  ZIN A   1      18.917  -4.885   6.872  0.00  0.00     0.205 C 
BRANCH  22  23
ATOM     23  C3  ZIN A   1      18.337  -6.105   6.154  0.00  0.00     0.193 C 
BRANCH  23  24
ATOM     24  O2  ZIN A   1      18.533  -7.269   6.959  0.00  0.00    -0.394 OA
ATOM     25  C1  ZIN A   1      17.339  -8.014   7.205  0.00  0.00     0.201 C 
ENDBRANCH  23  24
ENDBRANCH  22  23
ENDBRANCH  21  22
ENDBRANCH  19  21
ENDBRANCH   1  19
BRANCH   7  26
ATOM     26  C15 ZIN A   1      19.965   0.006  11.173  0.00  0.00     0.292 C 
ATOM     27  O16 ZIN A   1      20.946  -0.025  11.892  0.00  0.00    -0.259 OA
BRANCH  26  28
ATOM     28  O17 ZIN A   1      19.655   1.135  10.503  0.00  0.00    -0.313 OA
BRANCH  28  29
ATOM     29  C18 ZIN A   1      18.947   2.144  11.225  0.00  0.00     0.124 C 
ATOM     30  C19 ZIN A   1      19.893   3.306  11.539  0.00  0.00     0.040 C 
ATOM     31  C20 ZIN A   1      17.779   2.653  10.379  0.00  0.00     0.040 C 
ENDBRANCH  28  29
ENDBRANCH  26  28
ENDBRANCH   7  26
TORSDOF 10
ENDMDL
MODEL 3
REMARK VINA RESULT:      -7.9      3.825      6.809
REMARK  10 active torsions:
REMARK  status: ('A' for Active; 'I' for Inactive)
REMARK    1  A    between atoms: O2_2  and  C3_3 
REMARK    2  A    between atoms: C3_3  and  C4_4 
REMARK    3  A    between atoms: C4_4  and  O5_5 
REMARK    4  A    between atoms: O5_5  and  C6_6 
REMARK    5  A    between atoms: C6_6  and  C8_8 
REMARK    6  A    between atoms: C14_14  and  C15_15 
REMARK    7  A    between atoms: C15_15  and  O17_17 
REMARK    8  A    between atoms: O17_17  and  C18_18 
REMARK    9  A    between atoms: C21_21  and  C23_22 
REMARK   10  A    between atoms: C27_26  and  N28_27 
ROOT
ATOM      1  C8  ZIN A   1      18.709   3.058  12.164  0.00  0.00     0.052 C 
ATOM      2  C9  ZIN A   1      17.797   3.085  11.177  0.00  0.00     0.018 C 
ATOM      3  C10 ZIN A   1      17.132   4.388  10.814  0.00  0.00     0.069 C 
ATOM      4  N11 ZIN A   1      17.465   1.944  10.499  0.00  0.00    -0.362 N 
ATOM      5  C12 ZIN A   1      18.284   0.849  10.547  0.00  0.00     0.018 C 
ATOM      6  C13 ZIN A   1      18.139  -0.235   9.511  0.00  0.00     0.069 C 
ATOM      7  C14 ZIN A   1      19.215   0.729  11.509  0.00  0.00     0.052 C 
ATOM      8  C21 ZIN A   1      19.394   1.782  12.563  0.00  0.00     0.101 C 
ATOM      9  H42 ZIN A   1      16.646   1.912   9.980  0.00  0.00     0.165 HD
ENDROOT
BRANCH   8  10
ATOM     10  C23 ZIN A   1      18.796   1.294  13.858  0.00  0.00    -0.042 A 
ATOM     11  C31 ZIN A   1      19.392   1.623  15.061  0.00  0.00     0.044 A 
ATOM     12  C27 ZIN A   1      18.841   1.179  16.249  0.00  0.00     0.103 A 
ATOM     13  C26 ZIN A   1      17.698   0.400  16.233  0.00  0.00     0.036 A 
ATOM     14  C25 ZIN A   1      17.106   0.068  15.030  0.00  0.00     0.003 A 
ATOM     15  C24 ZIN A   1      17.655   0.515  13.841  0.00  0.00     0.008 A 
BRANCH  12  16
ATOM     16  N28 ZIN A   1      19.475   1.536  17.538  0.00  0.00    -0.116 N 
ATOM     17  O29 ZIN A   1      19.631   2.706  17.837  0.00  0.00    -0.532 OA
ATOM     18  O30 ZIN A   1      19.841   0.659  18.300  0.00  0.00    -0.532 OA
ENDBRANCH  12  16
ENDBRANCH   8  10
BRANCH   1  19
ATOM     19  C6  ZIN A   1      19.034   4.257  12.840  0.00  0.00     0.292 C 
ATOM     20  O7  ZIN A   1      20.046   4.866  12.546  0.00  0.00    -0.259 OA
BRANCH  19  21
ATOM     21  O5  ZIN A   1      18.221   4.728  13.809  0.00  0.00    -0.316 OA
BRANCH  21  22
ATOM     22  C4  ZIN A   1      18.601   5.954  14.436  0.00  0.00     0.205 C 
BRANCH  22  23
ATOM     23  C3  ZIN A   1      19.021   5.680  15.881  0.00  0.00     0.193 C 
BRANCH  23  24
ATOM     24  O2  ZIN A   1      20.222   6.397  16.173  0.00  0.00    -0.394 OA
ATOM     25  C1  ZIN A   1      21.384   5.875  15.524  0.00  0.00     0.201 C 
ENDBRANCH  23  24
ENDBRANCH  22  23
ENDBRANCH  21  22
ENDBRANCH  19  21
ENDBRANCH   1  19
BRANCH   7  26
ATOM     26  C15 ZIN A   1      20.049  -0.414  11.525  0.00  0.00     0.292 C 
ATOM     27  O16 ZIN A   1      21.108  -0.403  10.925  0.00  0.00    -0.259 OA
BRANCH  26  28
ATOM     28  O17 ZIN A   1      19.672  -1.515  12.208  0.00  0.00    -0.313 OA
BRANCH  28  29
ATOM     29  C18 ZIN A   1      19.283  -2.653  11.440  0.00  0.00     0.124 C 
ATOM     30  C19 ZIN A   1      20.301  -3.778  11.641  0.00  0.00     0.040 C 
ATOM     31  C20 ZIN A   1      17.902  -3.129  11.896  0.00  0.00     0.040 C 
ENDBRANCH  28  29
ENDBRANCH  26  28
ENDBRANCH   7  26
TORSDOF 10
ENDMDL
MODEL 4
REMARK VINA RESULT:      -7.8      2.452      6.008
REMARK  10 active torsions:
REMARK  status: ('A' for Active; 'I' for Inactive)
REMARK    1  A    between atoms: O2_2  and  C3_3 
REMARK    2  A    between atoms: C3_3  and  C4_4 
REMARK    3  A    between atoms: C4_4  and  O5_5 
REMARK    4  A    between atoms: O5_5  and  C6_6 
REMARK    5  A    between atoms: C6_6  and  C8_8 
REMARK    6  A    between atoms: C14_14  and  C15_15 
REMARK    7  A    between atoms: C15_15  and  O17_17 
REMARK    8  A    between atoms: O17_17  and  C18_18 
REMARK    9  A    between atoms: C21_21  and  C23_22 
REMARK   10  A    between atoms: C27_26  and  N28_27 
ROOT
ATOM      1  C8  ZIN A   1      18.193  -0.146   9.202  0.00  0.00     0.052 C 
ATOM      2  C9  ZIN A   1      19.091   0.847   9.083  0.00  0.00     0.018 C 
ATOM      3  C10 ZIN A   1      19.555   1.272   7.713  0.00  0.00     0.069 C 
ATOM      4  N11 ZIN A   1      19.589   1.476  10.191  0.00  0.00    -0.362 N 
ATOM      5  C12 ZIN A   1      18.943   1.374  11.393  0.00  0.00     0.018 C 
ATOM      6  C13 ZIN A   1      19.248   2.362  12.488  0.00  0.00     0.069 C 
ATOM      7  C14 ZIN A   1      18.039   0.402  11.607  0.00  0.00     0.052 C 
ATOM      8  C21 ZIN A   1      17.705  -0.606  10.546  0.00  0.00     0.101 C 
ATOM      9  H42 ZIN A   1      20.404   1.998  10.124  0.00  0.00     0.165 HD
ENDROOT
BRANCH   8  10
ATOM     10  C23 ZIN A   1      18.368  -1.917  10.881  0.00  0.00    -0.042 A 
ATOM     11  C31 ZIN A   1      17.603  -3.058  11.035  0.00  0.00     0.044 A 
ATOM     12  C27 ZIN A   1      18.213  -4.261  11.338  0.00  0.00     0.103 A 
ATOM     13  C26 ZIN A   1      19.585  -4.323  11.495  0.00  0.00     0.036 A 
ATOM     14  C25 ZIN A   1      20.348  -3.180  11.347  0.00  0.00     0.003 A 
ATOM     15  C24 ZIN A   1      19.739  -1.976  11.040  0.00  0.00     0.008 A 
BRANCH  12  16
ATOM     16  N28 ZIN A   1      17.395  -5.486  11.496  0.00  0.00    -0.116 N 
ATOM     17  O29 ZIN A   1      17.307  -6.024  12.585  0.00  0.00    -0.532 OA
ATOM     18  O30 ZIN A   1      16.809  -5.954  10.536  0.00  0.00    -0.532 OA
ENDBRANCH  12  16
ENDBRANCH   8  10
BRANCH   1  19
ATOM     19  C6  ZIN A   1      17.692  -0.770   8.035  0.00  0.00     0.292 C 
ATOM     20  O7  ZIN A   1      16.896  -0.183   7.325  0.00  0.00    -0.259 OA
BRANCH  19  21
ATOM     21  O5  ZIN A   1      18.099  -2.014   7.707  0.00  0.00    -0.316 OA
BRANCH  21  22
ATOM     22  C4  ZIN A   1      19.351  -2.131   7.030  0.00  0.00     0.205 C 
BRANCH  22  23
ATOM     23  C3  ZIN A   1      19.108  -2.276   5.527  0.00  0.00     0.193 C 
BRANCH  23  24
ATOM     24  O2  ZIN A   1      19.790  -1.232   4.830  0.00  0.00    -0.394 OA
ATOM     25  C1  ZIN A   1      18.936  -0.177   4.381  0.00  0.00     0.201 C 
ENDBRANCH  23  24
ENDBRANCH  22  23
ENDBRANCH  21  22
ENDBRANCH  19  21
ENDBRANCH   1  19
BRANCH   7  26
ATOM     26  C15 ZIN A   1      17.385   0.330  12.859  0.00  0.00     0.292 C 
ATOM     27  O16 ZIN A   1      16.608   1.207  13.191  0.00  0.00    -0.259 OA
BRANCH  26  28
ATOM     28  O17 ZIN A   1      17.619  -0.711  13.684  0.00  0.00    -0.313 OA
BRANCH  28  29
ATOM     29  C18 ZIN A   1      18.470  -0.471  14.806  0.00  0.00     0.124 C 
ATOM     30  C19 ZIN A   1      17.692  -0.717  16.100  0.00  0.00     0.040 C 
ATOM     31  C20 ZIN A   1      19.672  -1.417  14.747  0.00  0.00     0.040 C 
ENDBRANCH  28  29
ENDBRANCH  26  28
ENDBRANCH   7  26
TORSDOF 10
ENDMDL
MODEL 5
REMARK VINA RESULT:      -7.7      2.931      5.322
REMARK  10 active torsions:
REMARK  status: ('A' for Active; 'I' for Inactive)
REMARK    1  A    between atoms: O2_2  and  C3_3 
REMARK    2  A    between atoms: C3_3  and  C4_4 
REMARK    3  A    between atoms: C4_4  and  O5_5 
REMARK    4  A    between atoms: O5_5  and  C6_6 
REMARK    5  A    between atoms: C6_6  and  C8_8 
REMARK    6  A    between atoms: C14_14  and  C15_15 
REMARK    7  A    between atoms: C15_15  and  O17_17 
REMARK    8  A    between atoms: O17_17  and  C18_18 
REMARK    9  A    between atoms: C21_21  and  C23_22 
REMARK   10  A    between atoms: C27_26  and  N28_27 
ROOT
ATOM      1  C8  ZIN A   1      18.254  -0.292  14.210  0.00  0.00     0.052 C 
ATOM      2  C9  ZIN A   1      19.231  -1.125  14.605  0.00  0.00     0.018 C 
ATOM      3  C10 ZIN A   1      19.552  -1.254  16.072  0.00  0.00     0.069 C 
ATOM      4  N11 ZIN A   1      19.938  -1.858  13.691  0.00  0.00    -0.362 N 
ATOM      5  C12 ZIN A   1      19.450  -2.041  12.426  0.00  0.00     0.018 C 
ATOM      6  C13 ZIN A   1      20.005  -3.149  11.568  0.00  0.00     0.069 C 
ATOM      7  C14 ZIN A   1      18.483  -1.245  11.940  0.00  0.00     0.052 C 
ATOM      8  C21 ZIN A   1      17.902  -0.128  12.758  0.00  0.00     0.101 C 
ATOM      9  H42 ZIN A   1      20.790  -2.251  13.942  0.00  0.00     0.165 HD
ENDROOT
BRANCH   8  10
ATOM     10  C23 ZIN A   1      18.457   1.185  12.269  0.00  0.00    -0.042 A 
ATOM     11  C31 ZIN A   1      17.601   2.165  11.802  0.00  0.00     0.044 A 
ATOM     12  C27 ZIN A   1      18.110   3.371  11.357  0.00  0.00     0.103 A 
ATOM     13  C26 ZIN A   1      19.474   3.595  11.372  0.00  0.00     0.036 A 
ATOM     14  C25 ZIN A   1      20.329   2.612  11.834  0.00  0.00     0.003 A 
ATOM     15  C24 ZIN A   1      19.820   1.407  12.283  0.00  0.00     0.008 A 
BRANCH  12  16
ATOM     16  N28 ZIN A   1      17.193   4.423  10.863  0.00  0.00    -0.116 N 
ATOM     17  O29 ZIN A   1      17.437   5.004   9.821  0.00  0.00    -0.532 OA
ATOM     18  O30 ZIN A   1      16.193   4.708  11.499  0.00  0.00    -0.532 OA
ENDBRANCH  12  16
ENDBRANCH   8  10
BRANCH   1  19
ATOM     19  C6  ZIN A   1      17.537   0.445  15.181  0.00  0.00     0.292 C 
ATOM     20  O7  ZIN A   1      16.810  -0.132  15.968  0.00  0.00    -0.259 OA
BRANCH  19  21
ATOM     21  O5  ZIN A   1      17.662   1.788  15.238  0.00  0.00    -0.316 OA
BRANCH  21  22
ATOM     22  C4  ZIN A   1      18.890   2.305  15.753  0.00  0.00     0.205 C 
BRANCH  22  23
ATOM     23  C3  ZIN A   1      19.052   3.763  15.322  0.00  0.00     0.193 C 
BRANCH  23  24
ATOM     24  O2  ZIN A   1      17.879   4.186  14.623  0.00  0.00    -0.394 OA
ATOM     25  C1  ZIN A   1      17.650   5.596  14.671  0.00  0.00     0.201 C 
ENDBRANCH  23  24
ENDBRANCH  22  23
ENDBRANCH  21  22
ENDBRANCH  19  21
ENDBRANCH   1  19
BRANCH   7  26
ATOM     26  C15 ZIN A   1      17.997  -1.467  10.630  0.00  0.00     0.292 C 
ATOM     27  O16 ZIN A   1      16.980  -2.115  10.460  0.00  0.00    -0.259 OA
BRANCH  26  28
ATOM     28  O17 ZIN A   1      18.659  -0.959   9.570  0.00  0.00    -0.313 OA
BRANCH  28  29
ATOM     29  C18 ZIN A   1      18.067   0.162   8.912  0.00  0.00     0.124 C 
ATOM     30  C19 ZIN A   1      19.156   1.171   8.542  0.00  0.00     0.040 C 
ATOM     31  C20 ZIN A   1      17.356  -0.309   7.642  0.00  0.00     0.040 C 
ENDBRANCH  28  29
ENDBRANCH  26  28
ENDBRANCH   7  26
TORSDOF 10
ENDMDL
MODEL 6
REMARK VINA RESULT:      -7.3      1.887      2.489
REMARK  10 active torsions:
REMARK  status: ('A' for Active; 'I' for Inactive)
REMARK    1  A    between atoms: O2_2  and  C3_3 
REMARK    2  A    between atoms: C3_3  and  C4_4 
REMARK    3  A    between atoms: C4_4  and  O5_5 
REMARK    4  A    between atoms: O5_5  and  C6_6 
REMARK    5  A    between atoms: C6_6  and  C8_8 
REMARK    6  A    between atoms: C14_14  and  C15_15 
REMARK    7  A    between atoms: C15_15  and  O17_17 
REMARK    8  A    between atoms: O17_17  and  C18_18 
REMARK    9  A    between atoms: C21_21  and  C23_22 
REMARK   10  A    between atoms: C27_26  and  N28_27 
ROOT
ATOM      1  C8  ZIN A   1      17.944  -0.955  11.909  0.00  0.00     0.052 C 
ATOM      2  C9  ZIN A   1      18.925  -1.304  12.758  0.00  0.00     0.018 C 
ATOM      3  C10 ZIN A   1      19.060  -0.586  14.076  0.00  0.00     0.069 C 
ATOM      4  N11 ZIN A   1      19.804  -2.303  12.440  0.00  0.00    -0.362 N 
ATOM      5  C12 ZIN A   1      19.504  -3.197  11.448  0.00  0.00     0.018 C 
ATOM      6  C13 ZIN A   1      20.256  -4.501  11.370  0.00  0.00     0.069 C 
ATOM      7  C14 ZIN A   1      18.547  -2.926  10.545  0.00  0.00     0.052 C 
ATOM      8  C21 ZIN A   1      17.774  -1.640  10.582  0.00  0.00     0.101 C 
ATOM      9  H42 ZIN A   1      20.644  -2.378  12.920  0.00  0.00     0.165 HD
ENDROOT
BRANCH   8  10
ATOM     10  C23 ZIN A   1      18.280  -0.726   9.496  0.00  0.00    -0.042 A 
ATOM     11  C31 ZIN A   1      17.680  -0.738   8.250  0.00  0.00     0.044 A 
ATOM     12  C27 ZIN A   1      18.141   0.104   7.255  0.00  0.00     0.103 A 
ATOM     13  C26 ZIN A   1      19.205   0.951   7.502  0.00  0.00     0.036 A 
ATOM     14  C25 ZIN A   1      19.807   0.958   8.746  0.00  0.00     0.003 A 
ATOM     15  C24 ZIN A   1      19.344   0.119   9.744  0.00  0.00     0.008 A 
BRANCH  12  16
ATOM     16  N28 ZIN A   1      17.495   0.097   5.922  0.00  0.00    -0.116 N 
ATOM     17  O29 ZIN A   1      18.176   0.173   4.915  0.00  0.00    -0.532 OA
ATOM     18  O30 ZIN A   1      16.283   0.013   5.833  0.00  0.00    -0.532 OA
ENDBRANCH  12  16
ENDBRANCH   8  10
BRANCH   1  19
ATOM     19  C6  ZIN A   1      17.048   0.076  12.273  0.00  0.00     0.292 C 
ATOM     20  O7  ZIN A   1      15.870  -0.007  11.975  0.00  0.00    -0.259 OA
BRANCH  19  21
ATOM     21  O5  ZIN A   1      17.497   1.153  12.952  0.00  0.00    -0.316 OA
BRANCH  21  22
ATOM     22  C4  ZIN A   1      17.573   2.387  12.236  0.00  0.00     0.205 C 
BRANCH  22  23
ATOM     23  C3  ZIN A   1      19.022   2.877  12.215  0.00  0.00     0.193 C 
BRANCH  23  24
ATOM     24  O2  ZIN A   1      19.269   3.583  10.998  0.00  0.00    -0.394 OA
ATOM     25  C1  ZIN A   1      18.087   3.903  10.261  0.00  0.00     0.201 C 
ENDBRANCH  23  24
ENDBRANCH  22  23
ENDBRANCH  21  22
ENDBRANCH  19  21
ENDBRANCH   1  19
BRANCH   7  26
ATOM     26  C15 ZIN A   1      18.258  -3.877   9.537  0.00  0.00     0.292 C 
ATOM     27  O16 ZIN A   1      17.165  -4.411   9.501  0.00  0.00    -0.259 OA
BRANCH  26  28
ATOM     28  O17 ZIN A   1      19.193  -4.189   8.616  0.00  0.00    -0.313 OA
BRANCH  28  29
ATOM     29  C18 ZIN A   1      18.780  -4.196   7.249  0.00  0.00     0.124 C 
ATOM     30  C19 ZIN A   1      19.630  -3.204   6.453  0.00  0.00     0.040 C 
ATOM     31  C20 ZIN A   1      18.959  -5.600   6.669  0.00  0.00     0.040 C 
ENDBRANCH  28  29
ENDBRANCH  26  28
ENDBRANCH   7  26
TORSDOF 10
ENDMDL
MODEL 7
REMARK VINA RESULT:      -7.3      3.536      8.370
REMARK  10 active torsions:
REMARK  status: ('A' for Active; 'I' for Inactive)
REMARK    1  A    between atoms: O2_2  and  C3_3 
REMARK    2  A    between atoms: C3_3  and  C4_4 
REMARK    3  A    between atoms: C4_4  and  O5_5 
REMARK    4  A    between atoms: O5_5  and  C6_6 
REMARK    5  A    between atoms: C6_6  and  C8_8 
REMARK    6  A    between atoms: C14_14  and  C15_15 
REMARK    7  A    between atoms: C15_15  and  O17_17 
REMARK    8  A    between atoms: O17_17  and  C18_18 
REMARK    9  A    between atoms: C21_21  and  C23_22 
REMARK   10  A    between atoms: C27_26  and  N28_27 
ROOT
ATOM      1  C8  ZIN A   1      17.922   0.993  11.323  0.00  0.00     0.052 C 
ATOM      2  C9  ZIN A   1      18.882   1.456  10.504  0.00  0.00     0.018 C 
ATOM      3  C10 ZIN A   1      19.023   0.877   9.120  0.00  0.00     0.069 C 
ATOM      4  N11 ZIN A   1      19.734   2.446  10.913  0.00  0.00    -0.362 N 
ATOM      5  C12 ZIN A   1      19.418   3.228  11.990  0.00  0.00     0.018 C 
ATOM      6  C13 ZIN A   1      20.129   4.540  12.191  0.00  0.00     0.069 C 
ATOM      7  C14 ZIN A   1      18.480   2.838  12.871  0.00  0.00     0.052 C 
ATOM      8  C21 ZIN A   1      17.747   1.538  12.712  0.00  0.00     0.101 C 
ATOM      9  H42 ZIN A   1      20.565   2.595  10.435  0.00  0.00     0.165 HD
ENDROOT
BRANCH   8  10
ATOM     10  C23 ZIN A   1      18.293   0.537  13.698  0.00  0.00    -0.042 A 
ATOM     11  C31 ZIN A   1      17.669   0.361  14.920  0.00  0.00     0.044 A 
ATOM     12  C27 ZIN A   1      18.167  -0.560  15.822  0.00  0.00     0.103 A 
ATOM     13  C26 ZIN A   1      19.293  -1.299  15.507  0.00  0.00     0.036 A 
ATOM     14  C25 ZIN A   1      19.918  -1.118  14.288  0.00  0.00     0.003 A 
ATOM     15  C24 ZIN A   1      19.418  -0.199  13.383  0.00  0.00     0.008 A 
BRANCH  12  16
ATOM     16  N28 ZIN A   1      17.496  -0.754  17.127  0.00  0.00    -0.116 N 
ATOM     17  O29 ZIN A   1      17.987  -0.288  18.140  0.00  0.00    -0.532 OA
ATOM     18  O30 ZIN A   1      16.453  -1.380  17.188  0.00  0.00    -0.532 OA
ENDBRANCH  12  16
ENDBRANCH   8  10
BRANCH   1  19
ATOM     19  C6  ZIN A   1      17.054  -0.025  10.866  0.00  0.00     0.292 C 
ATOM     20  O7  ZIN A   1      15.848   0.130  10.928  0.00  0.00    -0.259 OA
BRANCH  19  21
ATOM     21  O5  ZIN A   1      17.562  -1.168  10.358  0.00  0.00    -0.316 OA
BRANCH  21  22
ATOM     22  C4  ZIN A   1      17.562  -2.313  11.212  0.00  0.00     0.205 C 
BRANCH  22  23
ATOM     23  C3  ZIN A   1      17.698  -3.581  10.366  0.00  0.00     0.193 C 
BRANCH  23  24
ATOM     24  O2  ZIN A   1      18.683  -4.438  10.946  0.00  0.00    -0.394 OA
ATOM     25  C1  ZIN A   1      19.767  -3.742  11.566  0.00  0.00     0.201 C 
ENDBRANCH  23  24
ENDBRANCH  22  23
ENDBRANCH  21  22
ENDBRANCH  19  21
ENDBRANCH   1  19
BRANCH   7  26
ATOM     26  C15 ZIN A   1      18.174   3.674  13.970  0.00  0.00     0.292 C 
ATOM     27  O16 ZIN A   1      17.218   4.426  13.915  0.00  0.00    -0.259 OA
BRANCH  26  28
ATOM     28  O17 ZIN A   1      18.939   3.637  15.080  0.00  0.00    -0.313 OA
BRANCH  28  29
ATOM     29  C18 ZIN A   1      18.872   4.765  15.953  0.00  0.00     0.124 C 
ATOM     30  C19 ZIN A   1      18.512   4.298  17.365  0.00  0.00     0.040 C 
ATOM     31  C20 ZIN A   1      20.229   5.471  15.981  0.00  0.00     0.040 C 
ENDBRANCH  28  29
ENDBRANCH  26  28
ENDBRANCH   7  26
TORSDOF 10
ENDMDL
MODEL 8
REMARK VINA RESULT:      -7.2      3.615      8.462
REMARK  10 active torsions:
REMARK  status: ('A' for Active; 'I' for Inactive)
REMARK    1  A    between atoms: O2_2  and  C3_3 
REMARK    2  A    between atoms: C3_3  and  C4_4 
REMARK    3  A    between atoms: C4_4  and  O5_5 
REMARK    4  A    between atoms: O5_5  and  C6_6 
REMARK    5  A    between atoms: C6_6  and  C8_8 
REMARK    6  A    between atoms: C14_14  and  C15_15 
REMARK    7  A    between atoms: C15_15  and  O17_17 
REMARK    8  A    between atoms: O17_17  and  C18_18 
REMARK    9  A    between atoms: C21_21  and  C23_22 
REMARK   10  A    between atoms: C27_26  and  N28_27 
ROOT
ATOM      1  C8  ZIN A   1      18.929   0.212  12.340  0.00  0.00     0.052 C 
ATOM      2  C9  ZIN A   1      20.146   0.581  11.905  0.00  0.00     0.018 C 
ATOM      3  C10 ZIN A   1      21.066  -0.450  11.303  0.00  0.00     0.069 C 
ATOM      4  N11 ZIN A   1      20.559   1.882  12.002  0.00  0.00    -0.362 N 
ATOM      5  C12 ZIN A   1      19.648   2.884  12.198  0.00  0.00     0.018 C 
ATOM      6  C13 ZIN A   1      20.037   4.310  11.908  0.00  0.00     0.069 C 
ATOM      7  C14 ZIN A   1      18.411   2.609  12.646  0.00  0.00     0.052 C 
ATOM      8  C21 ZIN A   1      17.980   1.204  12.950  0.00  0.00     0.101 C 
ATOM      9  H42 ZIN A   1      21.503   2.095  11.931  0.00  0.00     0.165 HD
ENDROOT
BRANCH   8  10
ATOM     10  C23 ZIN A   1      17.962   1.003  14.444  0.00  0.00    -0.042 A 
ATOM     11  C31 ZIN A   1      18.759   1.790  15.255  0.00  0.00     0.044 A 
ATOM     12  C27 ZIN A   1      18.739   1.609  16.626  0.00  0.00     0.103 A 
ATOM     13  C26 ZIN A   1      17.930   0.637  17.184  0.00  0.00     0.036 A 
ATOM     14  C25 ZIN A   1      17.138  -0.152  16.371  0.00  0.00     0.003 A 
ATOM     15  C24 ZIN A   1      17.154   0.031  15.000  0.00  0.00     0.008 A 
BRANCH  12  16
ATOM     16  N28 ZIN A   1      19.587   2.455  17.496  0.00  0.00    -0.116 N 
ATOM     17  O29 ZIN A   1      19.779   2.136  18.656  0.00  0.00    -0.532 OA
ATOM     18  O30 ZIN A   1      20.093   3.470  17.051  0.00  0.00    -0.532 OA
ENDBRANCH  12  16
ENDBRANCH   8  10
BRANCH   1  19
ATOM     19  C6  ZIN A   1      18.531  -1.139  12.217  0.00  0.00     0.292 C 
ATOM     20  O7  ZIN A   1      19.028  -1.988  12.934  0.00  0.00    -0.259 OA
BRANCH  19  21
ATOM     21  O5  ZIN A   1      17.598  -1.488  11.306  0.00  0.00    -0.316 OA
BRANCH  21  22
ATOM     22  C4  ZIN A   1      17.656  -0.838  10.035  0.00  0.00     0.205 C 
BRANCH  22  23
ATOM     23  C3  ZIN A   1      18.204  -1.810   8.989  0.00  0.00     0.193 C 
BRANCH  23  24
ATOM     24  O2  ZIN A   1      19.348  -1.234   8.356  0.00  0.00    -0.394 OA
ATOM     25  C1  ZIN A   1      19.067  -0.039   7.623  0.00  0.00     0.201 C 
ENDBRANCH  23  24
ENDBRANCH  22  23
ENDBRANCH  21  22
ENDBRANCH  19  21
ENDBRANCH   1  19
BRANCH   7  26
ATOM     26  C15 ZIN A   1      17.492   3.669  12.831  0.00  0.00     0.292 C 
ATOM     27  O16 ZIN A   1      16.766   4.011  11.915  0.00  0.00    -0.259 OA
BRANCH  26  28
ATOM     28  O17 ZIN A   1      17.418   4.298  14.022  0.00  0.00    -0.313 OA
BRANCH  28  29
ATOM     29  C18 ZIN A   1      17.301   5.721  13.998  0.00  0.00     0.124 C 
ATOM     30  C19 ZIN A   1      15.995   6.139  14.677  0.00  0.00     0.040 C 
ATOM     31  C20 ZIN A   1      18.484   6.343  14.743  0.00  0.00     0.040 C 
ENDBRANCH  28  29
ENDBRANCH  26  28
ENDBRANCH   7  26
TORSDOF 10
ENDMDL
MODEL 9
REMARK VINA RESULT:      -7.1      2.652      5.337
REMARK  10 active torsions:
REMARK  status: ('A' for Active; 'I' for Inactive)
REMARK    1  A    between atoms: O2_2  and  C3_3 
REMARK    2  A    between atoms: C3_3  and  C4_4 
REMARK    3  A    between atoms: C4_4  and  O5_5 
REMARK    4  A    between atoms: O5_5  and  C6_6 
REMARK    5  A    between atoms: C6_6  and  C8_8 
REMARK    6  A    between atoms: C14_14  and  C15_15 
REMARK    7  A    between atoms: C15_15  and  O17_17 
REMARK    8  A    between atoms: O17_17  and  C18_18 
REMARK    9  A    between atoms: C21_21  and  C23_22 
REMARK   10  A    between atoms: C27_26  and  N28_27 
ROOT
ATOM      1  C8  ZIN A   1      18.970  -1.090   8.816  0.00  0.00     0.052 C 
ATOM      2  C9  ZIN A   1      17.879  -0.318   8.672  0.00  0.00     0.018 C 
ATOM      3  C10 ZIN A   1      17.481   0.623   9.780  0.00  0.00     0.069 C 
ATOM      4  N11 ZIN A   1      17.125  -0.378   7.532  0.00  0.00    -0.362 N 
ATOM      5  C12 ZIN A   1      17.640  -0.931   6.391  0.00  0.00     0.018 C 
ATOM      6  C13 ZIN A   1      16.988  -0.642   5.064  0.00  0.00     0.069 C 
ATOM      7  C14 ZIN A   1      18.721  -1.728   6.441  0.00  0.00     0.052 C 
ATOM      8  C21 ZIN A   1      19.403  -2.045   7.740  0.00  0.00     0.101 C 
ATOM      9  H42 ZIN A   1      16.221  -0.026   7.532  0.00  0.00     0.165 HD
ENDROOT
BRANCH   8  10
ATOM     10  C23 ZIN A   1      19.040  -3.446   8.161  0.00  0.00    -0.042 A 
ATOM     11  C31 ZIN A   1      17.784  -3.709   8.676  0.00  0.00     0.044 A 
ATOM     12  C27 ZIN A   1      17.450  -4.995   9.058  0.00  0.00     0.103 A 
ATOM     13  C26 ZIN A   1      18.374  -6.016   8.933  0.00  0.00     0.036 A 
ATOM     14  C25 ZIN A   1      19.631  -5.751   8.424  0.00  0.00     0.003 A 
ATOM     15  C24 ZIN A   1      19.964  -4.465   8.038  0.00  0.00     0.008 A 
BRANCH  12  16
ATOM     16  N28 ZIN A   1      16.103  -5.279   9.602  0.00  0.00    -0.116 N 
ATOM     17  O29 ZIN A   1      15.894  -5.173  10.798  0.00  0.00    -0.532 OA
ATOM     18  O30 ZIN A   1      15.203  -5.617   8.855  0.00  0.00    -0.532 OA
ENDBRANCH  12  16
ENDBRANCH   8  10
BRANCH   1  19
ATOM     19  C6  ZIN A   1      19.731  -0.997  10.004  0.00  0.00     0.292 C 
ATOM     20  O7  ZIN A   1      20.729  -0.300  10.035  0.00  0.00    -0.259 OA
BRANCH  19  21
ATOM     21  O5  ZIN A   1      19.351  -1.679  11.105  0.00  0.00    -0.316 OA
BRANCH  21  22
ATOM     22  C4  ZIN A   1      19.483  -1.011  12.361  0.00  0.00     0.205 C 
BRANCH  22  23
ATOM     23  C3  ZIN A   1      18.683  -1.762  13.426  0.00  0.00     0.193 C 
BRANCH  23  24
ATOM     24  O2  ZIN A   1      18.208  -0.838  14.406  0.00  0.00    -0.394 OA
ATOM     25  C1  ZIN A   1      18.459  -1.239  15.755  0.00  0.00     0.201 C 
ENDBRANCH  23  24
ENDBRANCH  22  23
ENDBRANCH  21  22
ENDBRANCH  19  21
ENDBRANCH   1  19
BRANCH   7  26
ATOM     26  C15 ZIN A   1      19.231  -2.277   5.241  0.00  0.00     0.292 C 
ATOM     27  O16 ZIN A   1      19.830  -1.568   4.454  0.00  0.00    -0.259 OA
BRANCH  26  28
ATOM     28  O17 ZIN A   1      19.056  -3.588   4.971  0.00  0.00    -0.313 OA
BRANCH  28  29
ATOM     29  C18 ZIN A   1      17.711  -4.046   4.826  0.00  0.00     0.124 C 
ATOM     30  C19 ZIN A   1      17.287  -3.931   3.360  0.00  0.00     0.040 C 
ATOM     31  C20 ZIN A   1      17.619  -5.508   5.270  0.00  0.00     0.040 C 
ENDBRANCH  28  29
ENDBRANCH  26  28
ENDBRANCH   7  26
TORSDOF 10
ENDMDL
