MODEL 1
REMARK VINA RESULT:      -3.1      0.000      0.000
REMARK  3 active torsions:
REMARK  status: ('A' for Active; 'I' for Inactive)
REMARK    1  A    between atoms: N1_1  and  C5_5 
REMARK    2  A    between atoms: C5_5  and  C6_6 
REMARK    3  A    between atoms: C6_6  and  S7_7 
ROOT
ATOM      1  C5  <0> d   1      17.867  -1.150   7.919  0.00  0.00     0.247 C 
ENDROOT
BRANCH   1   2
ATOM      2  N1  <0> d   1      17.763  -2.613   7.967  0.00  0.00    -0.078 N 
ATOM      3  H2  <0> d   1      17.282  -2.945   7.144  0.00  0.00     0.274 HD
ATOM      4  H3  <0> d   1      17.248  -2.888   8.791  0.00  0.00     0.274 HD
ATOM      5  H4  <0> d   1      18.688  -3.016   8.001  0.00  0.00     0.274 HD
ENDBRANCH   1   2
BRANCH   1   6
ATOM      6  C6  <0> d   1      19.128  -0.753   7.148  0.00  0.00     0.192 C 
BRANCH   6   7
ATOM      7  S7  <0> d   1      19.175  -1.641   5.567  0.00  0.00     0.103 S 
ATOM      8  O8  <0> d   1      19.925  -0.847   4.605  0.00  0.00    -0.595 OA
ATOM      9  O9  <0> d   1      19.826  -2.926   5.770  0.00  0.00    -0.595 OA
ATOM     10  O10 <0> d   1      17.812  -1.839   5.099  0.00  0.00    -0.595 OA
ENDBRANCH   6   7
ENDBRANCH   1   6
TORSDOF 3
ENDMDL
MODEL 2
REMARK VINA RESULT:      -3.1      6.129      6.324
REMARK  3 active torsions:
REMARK  status: ('A' for Active; 'I' for Inactive)
REMARK    1  A    between atoms: N1_1  and  C5_5 
REMARK    2  A    between atoms: C5_5  and  C6_6 
REMARK    3  A    between atoms: C6_6  and  S7_7 
ROOT
ATOM      1  C5  <0> d   1      20.067   0.459  12.243  0.00  0.00     0.247 C 
ENDROOT
BRANCH   1   2
ATOM      2  N1  <0> d   1      21.516   0.647  12.093  0.00  0.00    -0.078 N 
ATOM      3  H2  <0> d   1      21.699   1.214  11.279  0.00  0.00     0.274 HD
ATOM      4  H3  <0> d   1      21.963  -0.251  11.984  0.00  0.00     0.274 HD
ATOM      5  H4  <0> d   1      21.883   1.108  12.913  0.00  0.00     0.274 HD
ENDBRANCH   1   2
BRANCH   1   6
ATOM      6  C6  <0> d   1      19.403   0.487  10.865  0.00  0.00     0.192 C 
BRANCH   6   7
ATOM      7  S7  <0> d   1      18.828   2.170  10.506  0.00  0.00     0.103 S 
ATOM      8  O8  <0> d   1      17.423   2.273  10.870  0.00  0.00    -0.595 OA
ATOM      9  O9  <0> d   1      19.618   3.112  11.283  0.00  0.00    -0.595 OA
ATOM     10  O10 <0> d   1      18.997   2.430   9.084  0.00  0.00    -0.595 OA
ENDBRANCH   6   7
ENDBRANCH   1   6
TORSDOF 3
ENDMDL
MODEL 3
REMARK VINA RESULT:      -3.1      6.195      6.315
REMARK  3 active torsions:
REMARK  status: ('A' for Active; 'I' for Inactive)
REMARK    1  A    between atoms: N1_1  and  C5_5 
REMARK    2  A    between atoms: C5_5  and  C6_6 
REMARK    3  A    between atoms: C6_6  and  S7_7 
ROOT
ATOM      1  C5  <0> d   1      20.089   0.625  12.402  0.00  0.00     0.247 C 
ENDROOT
BRANCH   1   2
ATOM      2  N1  <0> d   1      21.526   0.655  12.100  0.00  0.00    -0.078 N 
ATOM      3  H2  <0> d   1      21.686   1.217  11.278  0.00  0.00     0.274 HD
ATOM      4  H3  <0> d   1      21.856  -0.284  11.934  0.00  0.00     0.274 HD
ATOM      5  H4  <0> d   1      22.026   1.053  12.882  0.00  0.00     0.274 HD
ENDBRANCH   1   2
BRANCH   1   6
ATOM      6  C6  <0> d   1      19.296   0.541  11.096  0.00  0.00     0.192 C 
BRANCH   6   7
ATOM      7  S7  <0> d   1      18.831   2.210  10.562  0.00  0.00     0.103 S 
ATOM      8  O8  <0> d   1      19.644   3.177  11.285  0.00  0.00    -0.595 OA
ATOM      9  O9  <0> d   1      19.065   2.329   9.132  0.00  0.00    -0.595 OA
ATOM     10  O10 <0> d   1      17.422   2.422  10.857  0.00  0.00    -0.595 OA
ENDBRANCH   6   7
ENDBRANCH   1   6
TORSDOF 3
ENDMDL
MODEL 4
REMARK VINA RESULT:      -3.1      5.682      6.067
REMARK  3 active torsions:
REMARK  status: ('A' for Active; 'I' for Inactive)
REMARK    1  A    between atoms: N1_1  and  C5_5 
REMARK    2  A    between atoms: C5_5  and  C6_6 
REMARK    3  A    between atoms: C6_6  and  S7_7 
ROOT
ATOM      1  C5  <0> d   1      20.143  -0.250  10.810  0.00  0.00     0.247 C 
ENDROOT
BRANCH   1   2
ATOM      2  N1  <0> d   1      21.542  -0.658  10.989  0.00  0.00    -0.078 N 
ATOM      3  H2  <0> d   1      21.599  -1.355  11.717  0.00  0.00     0.274 HD
ATOM      4  H3  <0> d   1      22.096   0.144  11.248  0.00  0.00     0.274 HD
ATOM      5  H4  <0> d   1      21.893  -1.044  10.125  0.00  0.00     0.274 HD
ENDBRANCH   1   2
BRANCH   1   6
ATOM      6  C6  <0> d   1      19.298  -1.471  10.440  0.00  0.00     0.192 C 
BRANCH   6   7
ATOM      7  S7  <0> d   1      19.336  -2.668  11.801  0.00  0.00     0.103 S 
ATOM      8  O8  <0> d   1      19.513  -1.948  13.054  0.00  0.00    -0.595 OA
ATOM      9  O9  <0> d   1      18.079  -3.400  11.819  0.00  0.00    -0.595 OA
ATOM     10  O10 <0> d   1      20.445  -3.585  11.590  0.00  0.00    -0.595 OA
ENDBRANCH   6   7
ENDBRANCH   1   6
TORSDOF 3
ENDMDL
MODEL 5
REMARK VINA RESULT:      -3.1      5.533      5.765
REMARK  3 active torsions:
REMARK  status: ('A' for Active; 'I' for Inactive)
REMARK    1  A    between atoms: N1_1  and  C5_5 
REMARK    2  A    between atoms: C5_5  and  C6_6 
REMARK    3  A    between atoms: C6_6  and  S7_7 
ROOT
ATOM      1  C5  <0> d   1      20.550   0.243  11.800  0.00  0.00     0.247 C 
ENDROOT
BRANCH   1   2
ATOM      2  N1  <0> d   1      21.458  -0.590  11.003  0.00  0.00    -0.078 N 
ATOM      3  H2  <0> d   1      21.068  -1.515  10.903  0.00  0.00     0.274 HD
ATOM      4  H3  <0> d   1      22.353  -0.651  11.465  0.00  0.00     0.274 HD
ATOM      5  H4  <0> d   1      21.580  -0.177  10.090  0.00  0.00     0.274 HD
ENDBRANCH   1   2
BRANCH   1   6
ATOM      6  C6  <0> d   1      19.114   0.047  11.309  0.00  0.00     0.192 C 
BRANCH   6   7
ATOM      7  S7  <0> d   1      18.640  -1.693  11.506  0.00  0.00     0.103 S 
ATOM      8  O8  <0> d   1      19.015  -2.420  10.303  0.00  0.00    -0.595 OA
ATOM      9  O9  <0> d   1      19.335  -2.241  12.659  0.00  0.00    -0.595 OA
ATOM     10  O10 <0> d   1      17.201  -1.767  11.708  0.00  0.00    -0.595 OA
ENDBRANCH   6   7
ENDBRANCH   1   6
TORSDOF 3
ENDMDL
MODEL 6
REMARK VINA RESULT:      -3.0      6.821      6.933
REMARK  3 active torsions:
REMARK  status: ('A' for Active; 'I' for Inactive)
REMARK    1  A    between atoms: N1_1  and  C5_5 
REMARK    2  A    between atoms: C5_5  and  C6_6 
REMARK    3  A    between atoms: C6_6  and  S7_7 
ROOT
ATOM      1  C5  <0> d   1      20.398  -0.185  11.553  0.00  0.00     0.247 C 
ENDROOT
BRANCH   1   2
ATOM      2  N1  <0> d   1      21.491   0.645  12.076  0.00  0.00    -0.078 N 
ATOM      3  H2  <0> d   1      21.838   0.243  12.934  0.00  0.00     0.274 HD
ATOM      4  H3  <0> d   1      21.149   1.578  12.256  0.00  0.00     0.274 HD
ATOM      5  H4  <0> d   1      22.237   0.686  11.398  0.00  0.00     0.274 HD
ENDBRANCH   1   2
BRANCH   1   6
ATOM      6  C6  <0> d   1      19.446   0.686  10.730  0.00  0.00     0.192 C 
BRANCH   6   7
ATOM      7  S7  <0> d   1      18.792   2.019  11.771  0.00  0.00     0.103 S 
ATOM      8  O8  <0> d   1      19.622   3.201  11.596  0.00  0.00    -0.595 OA
ATOM      9  O9  <0> d   1      17.425   2.303  11.366  0.00  0.00    -0.595 OA
ATOM     10  O10 <0> d   1      18.822   1.588  13.160  0.00  0.00    -0.595 OA
ENDBRANCH   6   7
ENDBRANCH   1   6
TORSDOF 3
ENDMDL
MODEL 7
REMARK VINA RESULT:      -3.0      1.557      1.557
REMARK  3 active torsions:
REMARK  status: ('A' for Active; 'I' for Inactive)
REMARK    1  A    between atoms: N1_1  and  C5_5 
REMARK    2  A    between atoms: C5_5  and  C6_6 
REMARK    3  A    between atoms: C6_6  and  S7_7 
ROOT
ATOM      1  C5  <0> d   1      17.759  -0.218   7.077  0.00  0.00     0.247 C 
ENDROOT
BRANCH   1   2
ATOM      2  N1  <0> d   1      17.812   0.572   5.840  0.00  0.00    -0.078 N 
ATOM      3  H2  <0> d   1      18.738   0.517   5.444  0.00  0.00     0.274 HD
ATOM      4  H3  <0> d   1      17.591   1.535   6.046  0.00  0.00     0.274 HD
ATOM      5  H4  <0> d   1      17.141   0.208   5.179  0.00  0.00     0.274 HD
ENDBRANCH   1   2
BRANCH   1   6
ATOM      6  C6  <0> d   1      18.981  -1.137   7.147  0.00  0.00     0.192 C 
BRANCH   6   7
ATOM      7  S7  <0> d   1      19.180  -2.001   5.565  0.00  0.00     0.103 S 
ATOM      8  O8  <0> d   1      19.907  -1.136   4.647  0.00  0.00    -0.595 OA
ATOM      9  O9  <0> d   1      19.924  -3.229   5.791  0.00  0.00    -0.595 OA
ATOM     10  O10 <0> d   1      17.863  -2.306   5.028  0.00  0.00    -0.595 OA
ENDBRANCH   6   7
ENDBRANCH   1   6
TORSDOF 3
ENDMDL
MODEL 8
REMARK VINA RESULT:      -3.0      6.034      6.264
REMARK  3 active torsions:
REMARK  status: ('A' for Active; 'I' for Inactive)
REMARK    1  A    between atoms: N1_1  and  C5_5 
REMARK    2  A    between atoms: C5_5  and  C6_6 
REMARK    3  A    between atoms: C6_6  and  S7_7 
ROOT
ATOM      1  C5  <0> d   1      20.013  -0.909  11.483  0.00  0.00     0.247 C 
ENDROOT
BRANCH   1   2
ATOM      2  N1  <0> d   1      21.213  -0.513  10.735  0.00  0.00    -0.078 N 
ATOM      3  H2  <0> d   1      21.443  -1.230  10.062  0.00  0.00     0.274 HD
ATOM      4  H3  <0> d   1      21.985  -0.394  11.374  0.00  0.00     0.274 HD
ATOM      5  H4  <0> d   1      21.039   0.356  10.253  0.00  0.00     0.274 HD
ENDBRANCH   1   2
BRANCH   1   6
ATOM      6  C6  <0> d   1      18.808  -0.117  10.970  0.00  0.00     0.192 C 
BRANCH   6   7
ATOM      7  S7  <0> d   1      17.324  -0.615  11.885  0.00  0.00     0.103 S 
ATOM      8  O8  <0> d   1      17.025  -2.005  11.573  0.00  0.00    -0.595 OA
ATOM      9  O9  <0> d   1      17.577  -0.465  13.309  0.00  0.00    -0.595 OA
ATOM     10  O10 <0> d   1      16.216   0.237  11.482  0.00  0.00    -0.595 OA
ENDBRANCH   6   7
ENDBRANCH   1   6
TORSDOF 3
ENDMDL
MODEL 9
REMARK VINA RESULT:      -2.9      6.632      6.850
REMARK  3 active torsions:
REMARK  status: ('A' for Active; 'I' for Inactive)
REMARK    1  A    between atoms: N1_1  and  C5_5 
REMARK    2  A    between atoms: C5_5  and  C6_6 
REMARK    3  A    between atoms: C6_6  and  S7_7 
ROOT
ATOM      1  C5  <0> d   1      20.168   0.361  11.992  0.00  0.00     0.247 C 
ENDROOT
BRANCH   1   2
ATOM      2  N1  <0> d   1      20.359   1.810  11.857  0.00  0.00    -0.078 N 
ATOM      3  H2  <0> d   1      19.971   2.278  12.662  0.00  0.00     0.274 HD
ATOM      4  H3  <0> d   1      19.893   2.135  11.023  0.00  0.00     0.274 HD
ATOM      5  H4  <0> d   1      21.345   2.016  11.792  0.00  0.00     0.274 HD
ENDBRANCH   1   2
BRANCH   1   6
ATOM      6  C6  <0> d   1      18.899  -0.059  11.246  0.00  0.00     0.192 C 
BRANCH   6   7
ATOM      7  S7  <0> d   1      17.476   0.838  11.923  0.00  0.00     0.103 S 
ATOM      8  O8  <0> d   1      17.667   1.009  13.355  0.00  0.00    -0.595 OA
ATOM      9  O9  <0> d   1      17.385   2.135  11.272  0.00  0.00    -0.595 OA
ATOM     10  O10 <0> d   1      16.270   0.065  11.668  0.00  0.00    -0.595 OA
ENDBRANCH   6   7
ENDBRANCH   1   6
TORSDOF 3
ENDMDL
