MODEL 1
REMARK VINA RESULT:      -5.5      0.000      0.000
REMARK  6 active torsions:
REMARK  status: ('A' for Active; 'I' for Inactive)
REMARK       I    between atoms: N1_1  and  C2_2 
REMARK       I    between atoms: C2_2  and  N6_6 
REMARK    1  A    between atoms: N6_6  and  C7_7 
REMARK    2  A    between atoms: C7_7  and  C8_8 
REMARK    3  A    between atoms: C8_8  and  C9_9 
REMARK    4  A    between atoms: C9_9  and  C10_10 
REMARK    5  A    between atoms: C10_10  and  N12_11 
REMARK    6  A    between atoms: C10_10  and  C16_15 
ROOT
ATOM      1  C7  <0> d   1      19.641  -0.599   8.715  0.00  0.00     0.138 C 
ENDROOT
BRANCH   1   2
ATOM      2  N6  <0> d   1      20.359   0.170   9.734  0.00  0.00    -0.227 N 
ATOM      3  C2  <0> d   1      20.792  -0.444  10.877  0.00  0.00     0.665 C 
ATOM      4  N1  <0> d   1      20.561  -1.743  11.063  0.00  0.00    -0.235 N 
ATOM      5  N3  <0> d   1      21.445   0.255  11.804  0.00  0.00    -0.235 N 
ATOM      6  H19 <0> d   1      20.868  -2.179  11.873  0.00  0.00     0.174 HD
ATOM      7  H20 <0> d   1      20.082  -2.251  10.390  0.00  0.00     0.174 HD
ATOM      8  H4  <0> d   1      21.752  -0.180  12.614  0.00  0.00     0.174 HD
ATOM      9  H5  <0> d   1      21.613   1.201  11.668  0.00  0.00     0.174 HD
ATOM     10  H21 <0> d   1      20.528   1.116   9.598  0.00  0.00     0.177 HD
ENDBRANCH   1   2
BRANCH   1  11
ATOM     11  C8  <0> d   1      18.489   0.240   8.160  0.00  0.00     0.023 C 
BRANCH  11  12
ATOM     12  C9  <0> d   1      18.894   0.832   6.809  0.00  0.00     0.045 C 
BRANCH  12  13
ATOM     13  C10 <0> d   1      18.057   0.193   5.700  0.00  0.00     0.283 C 
BRANCH  13  14
ATOM     14  N12 <0> d   1      16.805  -0.325   6.267  0.00  0.00    -0.065 N 
ATOM     15  H13 <0> d   1      16.540   0.235   7.063  0.00  0.00     0.275 HD
ATOM     16  H14 <0> d   1      16.078  -0.285   5.569  0.00  0.00     0.275 HD
ATOM     17  H15 <0> d   1      16.939  -1.282   6.558  0.00  0.00     0.275 HD
ENDBRANCH  13  14
BRANCH  13  18
ATOM     18  C16 <0> d   1      18.832  -0.940   5.074  0.00  0.00     0.204 C 
ATOM     19  O17 <0> d   1      18.339  -2.054   5.013  0.00  0.00    -0.646 OA
ATOM     20  O18 <0> d   1      19.949  -0.742   4.631  0.00  0.00    -0.646 OA
ENDBRANCH  13  18
ENDBRANCH  12  13
ENDBRANCH  11  12
ENDBRANCH   1  11
TORSDOF 6
ENDMDL
MODEL 2
REMARK VINA RESULT:      -5.4      6.988      8.987
REMARK  6 active torsions:
REMARK  status: ('A' for Active; 'I' for Inactive)
REMARK       I    between atoms: N1_1  and  C2_2 
REMARK       I    between atoms: C2_2  and  N6_6 
REMARK    1  A    between atoms: N6_6  and  C7_7 
REMARK    2  A    between atoms: C7_7  and  C8_8 
REMARK    3  A    between atoms: C8_8  and  C9_9 
REMARK    4  A    between atoms: C9_9  and  C10_10 
REMARK    5  A    between atoms: C10_10  and  N12_11 
REMARK    6  A    between atoms: C10_10  and  C16_15 
ROOT
ATOM      1  C7  <0> d   1      19.660   0.564  14.190  0.00  0.00     0.138 C 
ENDROOT
BRANCH   1   2
ATOM      2  N6  <0> d   1      20.338  -0.261  13.186  0.00  0.00    -0.227 N 
ATOM      3  C2  <0> d   1      20.861   0.320  12.063  0.00  0.00     0.665 C 
ATOM      4  N1  <0> d   1      20.753   1.635  11.881  0.00  0.00    -0.235 N 
ATOM      5  N3  <0> d   1      21.477  -0.431  11.151  0.00  0.00    -0.235 N 
ATOM      6  H19 <0> d   1      21.123   2.046  11.085  0.00  0.00     0.174 HD
ATOM      7  H20 <0> d   1      20.301   2.180  12.544  0.00  0.00     0.174 HD
ATOM      8  H4  <0> d   1      21.847  -0.020  10.355  0.00  0.00     0.174 HD
ATOM      9  H5  <0> d   1      21.555  -1.388  11.283  0.00  0.00     0.174 HD
ATOM     10  H21 <0> d   1      20.417  -1.218  13.319  0.00  0.00     0.177 HD
ENDBRANCH   1   2
BRANCH   1  11
ATOM     11  C8  <0> d   1      18.494  -0.221  14.793  0.00  0.00     0.023 C 
BRANCH  11  12
ATOM     12  C9  <0> d   1      18.934  -0.854  16.114  0.00  0.00     0.045 C 
BRANCH  12  13
ATOM     13  C10 <0> d   1      18.156  -0.219  17.268  0.00  0.00     0.283 C 
BRANCH  13  14
ATOM     14  N12 <0> d   1      16.828   0.193  16.795  0.00  0.00    -0.065 N 
ATOM     15  H13 <0> d   1      16.726  -0.053  15.821  0.00  0.00     0.275 HD
ATOM     16  H14 <0> d   1      16.117  -0.276  17.336  0.00  0.00     0.275 HD
ATOM     17  H15 <0> d   1      16.728   1.192  16.902  0.00  0.00     0.275 HD
ENDBRANCH  13  14
BRANCH  13  18
ATOM     18  C16 <0> d   1      18.904   0.987  17.776  0.00  0.00     0.204 C 
ATOM     19  O17 <0> d   1      18.481   2.107  17.548  0.00  0.00    -0.646 OA
ATOM     20  O18 <0> d   1      19.932   0.842  18.414  0.00  0.00    -0.646 OA
ENDBRANCH  13  18
ENDBRANCH  12  13
ENDBRANCH  11  12
ENDBRANCH   1  11
TORSDOF 6
ENDMDL
MODEL 3
REMARK VINA RESULT:      -4.9      5.122      5.818
REMARK  6 active torsions:
REMARK  status: ('A' for Active; 'I' for Inactive)
REMARK       I    between atoms: N1_1  and  C2_2 
REMARK       I    between atoms: C2_2  and  N6_6 
REMARK    1  A    between atoms: N6_6  and  C7_7 
REMARK    2  A    between atoms: C7_7  and  C8_8 
REMARK    3  A    between atoms: C8_8  and  C9_9 
REMARK    4  A    between atoms: C9_9  and  C10_10 
REMARK    5  A    between atoms: C10_10  and  N12_11 
REMARK    6  A    between atoms: C10_10  and  C16_15 
ROOT
ATOM      1  C7  <0> d   1      19.590   1.383   9.716  0.00  0.00     0.138 C 
ENDROOT
BRANCH   1   2
ATOM      2  N6  <0> d   1      19.957   1.347  11.134  0.00  0.00    -0.227 N 
ATOM      3  C2  <0> d   1      20.811   0.384  11.596  0.00  0.00     0.665 C 
ATOM      4  N1  <0> d   1      21.309  -0.523  10.757  0.00  0.00    -0.235 N 
ATOM      5  N3  <0> d   1      21.144   0.351  12.886  0.00  0.00    -0.235 N 
ATOM      6  H19 <0> d   1      21.914  -1.206  11.084  0.00  0.00     0.174 HD
ATOM      7  H20 <0> d   1      21.063  -0.501   9.818  0.00  0.00     0.174 HD
ATOM      8  H4  <0> d   1      21.749  -0.331  13.213  0.00  0.00     0.174 HD
ATOM      9  H5  <0> d   1      20.782   1.012  13.497  0.00  0.00     0.174 HD
ATOM     10  H21 <0> d   1      19.595   2.008  11.745  0.00  0.00     0.177 HD
ENDBRANCH   1   2
BRANCH   1  11
ATOM     11  C8  <0> d   1      18.651   2.563   9.461  0.00  0.00     0.023 C 
BRANCH  11  12
ATOM     12  C9  <0> d   1      17.614   2.640  10.583  0.00  0.00     0.045 C 
BRANCH  12  13
ATOM     13  C10 <0> d   1      17.291   4.106  10.879  0.00  0.00     0.283 C 
BRANCH  13  14
ATOM     14  N12 <0> d   1      17.722   4.940   9.750  0.00  0.00    -0.065 N 
ATOM     15  H13 <0> d   1      16.983   4.985   9.064  0.00  0.00     0.275 HD
ATOM     16  H14 <0> d   1      17.932   5.870  10.080  0.00  0.00     0.275 HD
ATOM     17  H15 <0> d   1      18.547   4.538   9.330  0.00  0.00     0.275 HD
ENDBRANCH  13  14
BRANCH  13  18
ATOM     18  C16 <0> d   1      18.016   4.537  12.128  0.00  0.00     0.204 C 
ATOM     19  O17 <0> d   1      19.033   3.958  12.473  0.00  0.00    -0.646 OA
ATOM     20  O18 <0> d   1      17.587   5.464  12.793  0.00  0.00    -0.646 OA
ENDBRANCH  13  18
ENDBRANCH  12  13
ENDBRANCH  11  12
ENDBRANCH   1  11
TORSDOF 6
ENDMDL
MODEL 4
REMARK VINA RESULT:      -4.9      1.615      1.806
REMARK  6 active torsions:
REMARK  status: ('A' for Active; 'I' for Inactive)
REMARK       I    between atoms: N1_1  and  C2_2 
REMARK       I    between atoms: C2_2  and  N6_6 
REMARK    1  A    between atoms: N6_6  and  C7_7 
REMARK    2  A    between atoms: C7_7  and  C8_8 
REMARK    3  A    between atoms: C8_8  and  C9_9 
REMARK    4  A    between atoms: C9_9  and  C10_10 
REMARK    5  A    between atoms: C10_10  and  N12_11 
REMARK    6  A    between atoms: C10_10  and  C16_15 
ROOT
ATOM      1  C7  <0> d   1      19.443   0.751   9.570  0.00  0.00     0.138 C 
ENDROOT
BRANCH   1   2
ATOM      2  N6  <0> d   1      19.687   2.083  10.130  0.00  0.00    -0.227 N 
ATOM      3  C2  <0> d   1      20.345   2.215  11.321  0.00  0.00     0.665 C 
ATOM      4  N1  <0> d   1      20.765   1.131  11.973  0.00  0.00    -0.235 N 
ATOM      5  N3  <0> d   1      20.567   3.426  11.831  0.00  0.00    -0.235 N 
ATOM      6  H19 <0> d   1      21.231   1.224  12.818  0.00  0.00     0.174 HD
ATOM      7  H20 <0> d   1      20.600   0.249  11.604  0.00  0.00     0.174 HD
ATOM      8  H4  <0> d   1      21.033   3.519  12.676  0.00  0.00     0.174 HD
ATOM      9  H5  <0> d   1      20.261   4.214  11.356  0.00  0.00     0.174 HD
ATOM     10  H21 <0> d   1      19.381   2.872   9.655  0.00  0.00     0.177 HD
ENDBRANCH   1   2
BRANCH   1  11
ATOM     11  C8  <0> d   1      18.328   0.833   8.525  0.00  0.00     0.023 C 
BRANCH  11  12
ATOM     12  C9  <0> d   1      18.937   1.128   7.153  0.00  0.00     0.045 C 
BRANCH  12  13
ATOM     13  C10 <0> d   1      18.284   0.228   6.102  0.00  0.00     0.283 C 
BRANCH  13  14
ATOM     14  N12 <0> d   1      17.067  -0.374   6.660  0.00  0.00    -0.065 N 
ATOM     15  H13 <0> d   1      16.857   0.054   7.549  0.00  0.00     0.275 HD
ATOM     16  H14 <0> d   1      16.296  -0.227   6.025  0.00  0.00     0.275 HD
ATOM     17  H15 <0> d   1      17.211  -1.365   6.789  0.00  0.00     0.275 HD
ENDBRANCH  13  14
BRANCH  13  18
ATOM     18  C16 <0> d   1      19.247  -0.861   5.705  0.00  0.00     0.204 C 
ATOM     19  O17 <0> d   1      19.389  -1.839   6.420  0.00  0.00    -0.646 OA
ATOM     20  O18 <0> d   1      19.885  -0.765   4.671  0.00  0.00    -0.646 OA
ENDBRANCH  13  18
ENDBRANCH  12  13
ENDBRANCH  11  12
ENDBRANCH   1  11
TORSDOF 6
ENDMDL
MODEL 5
REMARK VINA RESULT:      -4.9      5.216      6.935
REMARK  6 active torsions:
REMARK  status: ('A' for Active; 'I' for Inactive)
REMARK       I    between atoms: N1_1  and  C2_2 
REMARK       I    between atoms: C2_2  and  N6_6 
REMARK    1  A    between atoms: N6_6  and  C7_7 
REMARK    2  A    between atoms: C7_7  and  C8_8 
REMARK    3  A    between atoms: C8_8  and  C9_9 
REMARK    4  A    between atoms: C9_9  and  C10_10 
REMARK    5  A    between atoms: C10_10  and  N12_11 
REMARK    6  A    between atoms: C10_10  and  C16_15 
ROOT
ATOM      1  C7  <0> d   1      19.671  -0.739  13.652  0.00  0.00     0.138 C 
ENDROOT
BRANCH   1   2
ATOM      2  N6  <0> d   1      19.855  -0.973  12.217  0.00  0.00    -0.227 N 
ATOM      3  C2  <0> d   1      20.780  -0.248  11.519  0.00  0.00     0.665 C 
ATOM      4  N1  <0> d   1      21.515   0.672  12.142  0.00  0.00    -0.235 N 
ATOM      5  N3  <0> d   1      20.947  -0.460  10.214  0.00  0.00    -0.235 N 
ATOM      6  H19 <0> d   1      22.171   1.186  11.647  0.00  0.00     0.174 HD
ATOM      7  H20 <0> d   1      21.391   0.829  13.092  0.00  0.00     0.174 HD
ATOM      8  H4  <0> d   1      21.603   0.054   9.718  0.00  0.00     0.174 HD
ATOM      9  H5  <0> d   1      20.412  -1.130   9.760  0.00  0.00     0.174 HD
ATOM     10  H21 <0> d   1      19.319  -1.642  11.763  0.00  0.00     0.177 HD
ENDBRANCH   1   2
BRANCH   1  11
ATOM     11  C8  <0> d   1      18.176  -0.695  13.975  0.00  0.00     0.023 C 
BRANCH  11  12
ATOM     12  C9  <0> d   1      17.648   0.724  13.755  0.00  0.00     0.045 C 
BRANCH  12  13
ATOM     13  C10 <0> d   1      18.587   1.726  14.429  0.00  0.00     0.283 C 
BRANCH  13  14
ATOM     14  N12 <0> d   1      17.980   2.203  15.679  0.00  0.00    -0.065 N 
ATOM     15  H13 <0> d   1      18.694   2.292  16.387  0.00  0.00     0.275 HD
ATOM     16  H14 <0> d   1      17.548   3.101  15.522  0.00  0.00     0.275 HD
ATOM     17  H15 <0> d   1      17.281   1.542  15.986  0.00  0.00     0.275 HD
ENDBRANCH  13  14
BRANCH  13  18
ATOM     18  C16 <0> d   1      18.820   2.895  13.506  0.00  0.00     0.204 C 
ATOM     19  O17 <0> d   1      19.182   2.702  12.358  0.00  0.00    -0.646 OA
ATOM     20  O18 <0> d   1      18.648   4.033  13.907  0.00  0.00    -0.646 OA
ENDBRANCH  13  18
ENDBRANCH  12  13
ENDBRANCH  11  12
ENDBRANCH   1  11
TORSDOF 6
ENDMDL
MODEL 6
REMARK VINA RESULT:      -4.7      4.917      6.380
REMARK  6 active torsions:
REMARK  status: ('A' for Active; 'I' for Inactive)
REMARK       I    between atoms: N1_1  and  C2_2 
REMARK       I    between atoms: C2_2  and  N6_6 
REMARK    1  A    between atoms: N6_6  and  C7_7 
REMARK    2  A    between atoms: C7_7  and  C8_8 
REMARK    3  A    between atoms: C8_8  and  C9_9 
REMARK    4  A    between atoms: C9_9  and  C10_10 
REMARK    5  A    between atoms: C10_10  and  N12_11 
REMARK    6  A    between atoms: C10_10  and  C16_15 
ROOT
ATOM      1  C7  <0> d   1      18.113   0.737  10.452  0.00  0.00     0.138 C 
ENDROOT
BRANCH   1   2
ATOM      2  N6  <0> d   1      19.495   0.590  10.919  0.00  0.00    -0.227 N 
ATOM      3  C2  <0> d   1      20.262  -0.450  10.470  0.00  0.00     0.665 C 
ATOM      4  N1  <0> d   1      19.753  -1.330   9.609  0.00  0.00    -0.235 N 
ATOM      5  N3  <0> d   1      21.517  -0.583  10.895  0.00  0.00    -0.235 N 
ATOM      6  H19 <0> d   1      20.296  -2.067   9.292  0.00  0.00     0.174 HD
ATOM      7  H20 <0> d   1      18.837  -1.235   9.303  0.00  0.00     0.174 HD
ATOM      8  H4  <0> d   1      22.061  -1.321  10.577  0.00  0.00     0.174 HD
ATOM      9  H5  <0> d   1      21.888   0.058  11.522  0.00  0.00     0.174 HD
ATOM     10  H21 <0> d   1      19.865   1.231  11.545  0.00  0.00     0.177 HD
ENDBRANCH   1   2
BRANCH   1  11
ATOM     11  C8  <0> d   1      17.162   0.682  11.649  0.00  0.00     0.023 C 
BRANCH  11  12
ATOM     12  C9  <0> d   1      17.864   1.248  12.885  0.00  0.00     0.045 C 
BRANCH  12  13
ATOM     13  C10 <0> d   1      17.841   0.207  14.005  0.00  0.00     0.283 C 
BRANCH  13  14
ATOM     14  N12 <0> d   1      17.295   0.813  15.226  0.00  0.00    -0.065 N 
ATOM     15  H13 <0> d   1      17.286   0.128  15.967  0.00  0.00     0.275 HD
ATOM     16  H14 <0> d   1      17.870   1.596  15.499  0.00  0.00     0.275 HD
ATOM     17  H15 <0> d   1      16.353   1.132  15.051  0.00  0.00     0.275 HD
ENDBRANCH  13  14
BRANCH  13  18
ATOM     18  C16 <0> d   1      19.243  -0.280  14.269  0.00  0.00     0.204 C 
ATOM     19  O17 <0> d   1      19.423  -1.286  14.935  0.00  0.00    -0.646 OA
ATOM     20  O18 <0> d   1      20.196   0.332  13.819  0.00  0.00    -0.646 OA
ENDBRANCH  13  18
ENDBRANCH  12  13
ENDBRANCH  11  12
ENDBRANCH   1  11
TORSDOF 6
ENDMDL
MODEL 7
REMARK VINA RESULT:      -4.6      1.551      1.991
REMARK  6 active torsions:
REMARK  status: ('A' for Active; 'I' for Inactive)
REMARK       I    between atoms: N1_1  and  C2_2 
REMARK       I    between atoms: C2_2  and  N6_6 
REMARK    1  A    between atoms: N6_6  and  C7_7 
REMARK    2  A    between atoms: C7_7  and  C8_8 
REMARK    3  A    between atoms: C8_8  and  C9_9 
REMARK    4  A    between atoms: C9_9  and  C10_10 
REMARK    5  A    between atoms: C10_10  and  N12_11 
REMARK    6  A    between atoms: C10_10  and  C16_15 
ROOT
ATOM      1  C7  <0> d   1      18.200  -0.429   9.821  0.00  0.00     0.138 C 
ENDROOT
BRANCH   1   2
ATOM      2  N6  <0> d   1      18.418  -1.861   9.598  0.00  0.00    -0.227 N 
ATOM      3  C2  <0> d   1      19.473  -2.494  10.197  0.00  0.00     0.665 C 
ATOM      4  N1  <0> d   1      20.302  -1.809  10.983  0.00  0.00    -0.235 N 
ATOM      5  N3  <0> d   1      19.671  -3.796   9.994  0.00  0.00    -0.235 N 
ATOM      6  H19 <0> d   1      21.049  -2.257  11.407  0.00  0.00     0.174 HD
ATOM      7  H20 <0> d   1      20.159  -0.860  11.127  0.00  0.00     0.174 HD
ATOM      8  H4  <0> d   1      20.418  -4.245  10.419  0.00  0.00     0.174 HD
ATOM      9  H5  <0> d   1      19.067  -4.295   9.422  0.00  0.00     0.174 HD
ATOM     10  H21 <0> d   1      17.814  -2.360   9.026  0.00  0.00     0.177 HD
ENDBRANCH   1   2
BRANCH   1  11
ATOM     11  C8  <0> d   1      17.560   0.189   8.577  0.00  0.00     0.023 C 
BRANCH  11  12
ATOM     12  C9  <0> d   1      18.653   0.568   7.576  0.00  0.00     0.045 C 
BRANCH  12  13
ATOM     13  C10 <0> d   1      18.298   0.008   6.198  0.00  0.00     0.283 C 
BRANCH  13  14
ATOM     14  N12 <0> d   1      16.927  -0.518   6.220  0.00  0.00    -0.065 N 
ATOM     15  H13 <0> d   1      16.908  -1.426   5.781  0.00  0.00     0.275 HD
ATOM     16  H14 <0> d   1      16.613  -0.599   7.176  0.00  0.00     0.275 HD
ATOM     17  H15 <0> d   1      16.318   0.112   5.719  0.00  0.00     0.275 HD
ENDBRANCH  13  14
BRANCH  13  18
ATOM     18  C16 <0> d   1      19.256  -1.101   5.844  0.00  0.00     0.204 C 
ATOM     19  O17 <0> d   1      19.462  -2.003   6.638  0.00  0.00    -0.646 OA
ATOM     20  O18 <0> d   1      19.824  -1.096   4.766  0.00  0.00    -0.646 OA
ENDBRANCH  13  18
ENDBRANCH  12  13
ENDBRANCH  11  12
ENDBRANCH   1  11
TORSDOF 6
ENDMDL
MODEL 8
REMARK VINA RESULT:      -4.5      3.413      5.119
REMARK  6 active torsions:
REMARK  status: ('A' for Active; 'I' for Inactive)
REMARK       I    between atoms: N1_1  and  C2_2 
REMARK       I    between atoms: C2_2  and  N6_6 
REMARK    1  A    between atoms: N6_6  and  C7_7 
REMARK    2  A    between atoms: C7_7  and  C8_8 
REMARK    3  A    between atoms: C8_8  and  C9_9 
REMARK    4  A    between atoms: C9_9  and  C10_10 
REMARK    5  A    between atoms: C10_10  and  N12_11 
REMARK    6  A    between atoms: C10_10  and  C16_15 
ROOT
ATOM      1  C7  <0> d   1      17.966   0.365   8.109  0.00  0.00     0.138 C 
ENDROOT
BRANCH   1   2
ATOM      2  N6  <0> d   1      17.402  -0.988   8.127  0.00  0.00    -0.227 N 
ATOM      3  C2  <0> d   1      18.231  -2.073   8.192  0.00  0.00     0.665 C 
ATOM      4  N1  <0> d   1      19.552  -1.902   8.239  0.00  0.00    -0.235 N 
ATOM      5  N3  <0> d   1      17.719  -3.303   8.208  0.00  0.00    -0.235 N 
ATOM      6  H19 <0> d   1      20.139  -2.671   8.285  0.00  0.00     0.174 HD
ATOM      7  H20 <0> d   1      19.925  -1.006   8.223  0.00  0.00     0.174 HD
ATOM      8  H4  <0> d   1      18.307  -4.073   8.254  0.00  0.00     0.174 HD
ATOM      9  H5  <0> d   1      16.758  -3.428   8.175  0.00  0.00     0.174 HD
ATOM     10  H21 <0> d   1      16.441  -1.113   8.094  0.00  0.00     0.177 HD
ENDBRANCH   1   2
BRANCH   1  11
ATOM     11  C8  <0> d   1      17.848   0.985   9.503  0.00  0.00     0.023 C 
BRANCH  11  12
ATOM     12  C9  <0> d   1      19.171   1.658   9.875  0.00  0.00     0.045 C 
BRANCH  12  13
ATOM     13  C10 <0> d   1      19.528   1.314  11.322  0.00  0.00     0.283 C 
BRANCH  13  14
ATOM     14  N12 <0> d   1      20.619   2.185  11.778  0.00  0.00    -0.065 N 
ATOM     15  H13 <0> d   1      20.292   2.767  12.534  0.00  0.00     0.275 HD
ATOM     16  H14 <0> d   1      21.390   1.618  12.099  0.00  0.00     0.275 HD
ATOM     17  H15 <0> d   1      20.927   2.767  11.013  0.00  0.00     0.275 HD
ENDBRANCH  13  14
BRANCH  13  18
ATOM     18  C16 <0> d   1      19.967  -0.126  11.402  0.00  0.00     0.204 C 
ATOM     19  O17 <0> d   1      19.452  -0.874  12.217  0.00  0.00    -0.646 OA
ATOM     20  O18 <0> d   1      20.834  -0.542  10.655  0.00  0.00    -0.646 OA
ENDBRANCH  13  18
ENDBRANCH  12  13
ENDBRANCH  11  12
ENDBRANCH   1  11
TORSDOF 6
ENDMDL
MODEL 9
REMARK VINA RESULT:      -4.5      7.054      9.075
REMARK  6 active torsions:
REMARK  status: ('A' for Active; 'I' for Inactive)
REMARK       I    between atoms: N1_1  and  C2_2 
REMARK       I    between atoms: C2_2  and  N6_6 
REMARK    1  A    between atoms: N6_6  and  C7_7 
REMARK    2  A    between atoms: C7_7  and  C8_8 
REMARK    3  A    between atoms: C8_8  and  C9_9 
REMARK    4  A    between atoms: C9_9  and  C10_10 
REMARK    5  A    between atoms: C10_10  and  N12_11 
REMARK    6  A    between atoms: C10_10  and  C16_15 
ROOT
ATOM      1  C7  <0> d   1      19.198  -0.711  13.290  0.00  0.00     0.138 C 
ENDROOT
BRANCH   1   2
ATOM      2  N6  <0> d   1      19.044  -1.788  12.308  0.00  0.00    -0.227 N 
ATOM      3  C2  <0> d   1      19.916  -1.889  11.260  0.00  0.00     0.665 C 
ATOM      4  N1  <0> d   1      20.906  -1.007  11.130  0.00  0.00    -0.235 N 
ATOM      5  N3  <0> d   1      19.776  -2.868  10.368  0.00  0.00    -0.235 N 
ATOM      6  H19 <0> d   1      21.525  -1.078  10.387  0.00  0.00     0.174 HD
ATOM      7  H20 <0> d   1      21.006  -0.291  11.778  0.00  0.00     0.174 HD
ATOM      8  H4  <0> d   1      20.395  -2.940   9.624  0.00  0.00     0.174 HD
ATOM      9  H5  <0> d   1      19.055  -3.510  10.462  0.00  0.00     0.174 HD
ATOM     10  H21 <0> d   1      18.323  -2.430  12.403  0.00  0.00     0.177 HD
ENDBRANCH   1   2
BRANCH   1  11
ATOM     11  C8  <0> d   1      18.658  -1.173  14.644  0.00  0.00     0.023 C 
BRANCH  11  12
ATOM     12  C9  <0> d   1      19.082  -0.180  15.728  0.00  0.00     0.045 C 
BRANCH  12  13
ATOM     13  C10 <0> d   1      18.559  -0.652  17.085  0.00  0.00     0.283 C 
BRANCH  13  14
ATOM     14  N12 <0> d   1      17.122  -0.940  16.984  0.00  0.00    -0.065 N 
ATOM     15  H13 <0> d   1      16.697  -0.854  17.896  0.00  0.00     0.275 HD
ATOM     16  H14 <0> d   1      16.692  -0.284  16.349  0.00  0.00     0.275 HD
ATOM     17  H15 <0> d   1      16.991  -1.879  16.639  0.00  0.00     0.275 HD
ENDBRANCH  13  14
BRANCH  13  18
ATOM     18  C16 <0> d   1      18.785   0.426  18.114  0.00  0.00     0.204 C 
ATOM     19  O17 <0> d   1      19.910   0.852  18.313  0.00  0.00    -0.646 OA
ATOM     20  O18 <0> d   1      17.844   0.872  18.747  0.00  0.00    -0.646 OA
ENDBRANCH  13  18
ENDBRANCH  12  13
ENDBRANCH  11  12
ENDBRANCH   1  11
TORSDOF 6
ENDMDL
