MODEL 1
REMARK VINA RESULT:      -6.9      0.000      0.000
REMARK  3 active torsions:
REMARK  status: ('A' for Active; 'I' for Inactive)
REMARK    1  A    between atoms: C2_2  and  C3_3 
REMARK    2  A    between atoms: C11_11  and  C13_12 
REMARK    3  A    between atoms: C13_12  and  N14_13 
ROOT
ATOM      1  C3  ZIN A   1      18.025  -2.273  10.164  0.00  0.00    -0.021 A 
ATOM      2  C4  ZIN A   1      17.746  -3.039   9.089  0.00  0.00     0.012 A 
ATOM      3  C5  ZIN A   1      17.483  -4.521   9.119  0.00  0.00     0.068 C 
ATOM      4  N6  ZIN A   1      17.740  -2.254   7.966  0.00  0.00    -0.362 N 
ATOM      5  C7  ZIN A   1      18.012  -0.985   8.282  0.00  0.00     0.024 A 
ATOM      6  C8  ZIN A   1      18.194  -0.922   9.658  0.00  0.00     0.041 A 
ATOM      7  C9  ZIN A   1      18.504   0.337  10.345  0.00  0.00     0.167 C 
ATOM      8  O10 ZIN A   1      18.861   0.376  11.503  0.00  0.00    -0.292 OA
ATOM      9  C11 ZIN A   1      18.344   1.590   9.496  0.00  0.00     0.087 C 
ATOM     10  C21 ZIN A   1      18.928   1.310   8.108  0.00  0.00     0.020 C 
ATOM     11  C22 ZIN A   1      18.116   0.226   7.389  0.00  0.00     0.059 C 
ATOM     12  H31 ZIN A   1      17.563  -2.577   7.068  0.00  0.00     0.165 HD
ENDROOT
BRANCH   9  13
ATOM     13  C13 ZIN A   1      19.096   2.753  10.147  0.00  0.00     0.247 C 
BRANCH  13  14
ATOM     14  N14 ZIN A   1      18.265   3.342  11.205  0.00  0.00    -0.066 N 
ATOM     15  H15 ZIN A   1      17.659   2.633  11.591  0.00  0.00     0.280 HD
ATOM     16  C20 ZIN A   1      19.129   3.880  12.264  0.00  0.00     0.261 C 
ATOM     17  C19 ZIN A   1      18.260   4.494  13.365  0.00  0.00     0.195 C 
ATOM     18  O18 ZIN A   1      17.428   5.510  12.798  0.00  0.00    -0.388 OA
ATOM     19  C17 ZIN A   1      16.584   5.039  11.744  0.00  0.00     0.195 C 
ATOM     20  C16 ZIN A   1      17.449   4.426  10.640  0.00  0.00     0.261 C 
ENDBRANCH  13  14
ENDBRANCH   9  13
BRANCH   1  21
ATOM     21  C2  ZIN A   1      18.133  -2.725  11.598  0.00  0.00     0.037 C 
ATOM     22  C1  ZIN A   1      19.586  -3.093  11.908  0.00  0.00     0.010 C 
ENDBRANCH   1  21
TORSDOF 3
ENDMDL
MODEL 2
REMARK VINA RESULT:      -6.8      2.438      6.989
REMARK  3 active torsions:
REMARK  status: ('A' for Active; 'I' for Inactive)
REMARK    1  A    between atoms: C2_2  and  C3_3 
REMARK    2  A    between atoms: C11_11  and  C13_12 
REMARK    3  A    between atoms: C13_12  and  N14_13 
ROOT
ATOM      1  C3  ZIN A   1      18.650   1.734   9.683  0.00  0.00    -0.021 A 
ATOM      2  C4  ZIN A   1      18.026   2.773  10.276  0.00  0.00     0.012 A 
ATOM      3  C5  ZIN A   1      18.038   4.195   9.782  0.00  0.00     0.068 C 
ATOM      4  N6  ZIN A   1      17.378   2.329  11.398  0.00  0.00    -0.362 N 
ATOM      5  C7  ZIN A   1      17.566   1.015  11.556  0.00  0.00     0.024 A 
ATOM      6  C8  ZIN A   1      18.355   0.572  10.501  0.00  0.00     0.041 A 
ATOM      7  C9  ZIN A   1      18.750  -0.834  10.363  0.00  0.00     0.167 C 
ATOM      8  O10 ZIN A   1      19.593  -1.200   9.572  0.00  0.00    -0.292 OA
ATOM      9  C11 ZIN A   1      18.023  -1.801  11.288  0.00  0.00     0.087 C 
ATOM     10  C21 ZIN A   1      17.931  -1.164  12.678  0.00  0.00     0.020 C 
ATOM     11  C22 ZIN A   1      17.057   0.095  12.637  0.00  0.00     0.059 C 
ATOM     12  H31 ZIN A   1      16.857   2.889  11.994  0.00  0.00     0.165 HD
ENDROOT
BRANCH   9  13
ATOM     13  C13 ZIN A   1      18.802  -3.115  11.374  0.00  0.00     0.247 C 
BRANCH  13  14
ATOM     14  N14 ZIN A   1      18.685  -3.838  10.101  0.00  0.00    -0.066 N 
ATOM     15  H15 ZIN A   1      18.877  -3.208   9.336  0.00  0.00     0.280 HD
ATOM     16  C20 ZIN A   1      19.648  -4.948  10.077  0.00  0.00     0.261 C 
ATOM     17  C19 ZIN A   1      19.522  -5.699   8.749  0.00  0.00     0.195 C 
ATOM     18  O18 ZIN A   1      18.179  -6.166   8.596  0.00  0.00    -0.388 OA
ATOM     19  C17 ZIN A   1      17.201  -5.123   8.636  0.00  0.00     0.195 C 
ATOM     20  C16 ZIN A   1      17.321  -4.371   9.964  0.00  0.00     0.261 C 
ENDBRANCH  13  14
ENDBRANCH   9  13
BRANCH   1  21
ATOM     21  C2  ZIN A   1      19.479   1.772   8.425  0.00  0.00     0.037 C 
ATOM     22  C1  ZIN A   1      18.659   1.218   7.257  0.00  0.00     0.010 C 
ENDBRANCH   1  21
TORSDOF 3
ENDMDL
MODEL 3
REMARK VINA RESULT:      -6.7      2.593      5.969
REMARK  3 active torsions:
REMARK  status: ('A' for Active; 'I' for Inactive)
REMARK    1  A    between atoms: C2_2  and  C3_3 
REMARK    2  A    between atoms: C11_11  and  C13_12 
REMARK    3  A    between atoms: C13_12  and  N14_13 
ROOT
ATOM      1  C3  ZIN A   1      18.550   0.573  13.398  0.00  0.00    -0.021 A 
ATOM      2  C4  ZIN A   1      18.994   1.618  14.128  0.00  0.00     0.012 A 
ATOM      3  C5  ZIN A   1      19.134   1.636  15.628  0.00  0.00     0.068 C 
ATOM      4  N6  ZIN A   1      19.299   2.657  13.290  0.00  0.00    -0.362 N 
ATOM      5  C7  ZIN A   1      19.061   2.317  12.020  0.00  0.00     0.024 A 
ATOM      6  C8  ZIN A   1      18.594   1.009  12.013  0.00  0.00     0.041 A 
ATOM      7  C9  ZIN A   1      18.239   0.316  10.770  0.00  0.00     0.167 C 
ATOM      8  O10 ZIN A   1      17.646  -0.742  10.759  0.00  0.00    -0.292 OA
ATOM      9  C11 ZIN A   1      18.669   1.024   9.493  0.00  0.00     0.087 C 
ATOM     10  C21 ZIN A   1      18.376   2.519   9.647  0.00  0.00     0.020 C 
ATOM     11  C22 ZIN A   1      19.240   3.126  10.760  0.00  0.00     0.059 C 
ATOM     12  H31 ZIN A   1      19.639   3.519  13.579  0.00  0.00     0.165 HD
ENDROOT
BRANCH   9  13
ATOM     13  C13 ZIN A   1      17.885   0.464   8.304  0.00  0.00     0.247 C 
BRANCH  13  14
ATOM     14  N14 ZIN A   1      18.805  -0.225   7.390  0.00  0.00    -0.066 N 
ATOM     15  H15 ZIN A   1      19.757  -0.054   7.679  0.00  0.00     0.280 HD
ATOM     16  C20 ZIN A   1      18.534  -1.669   7.419  0.00  0.00     0.261 C 
ATOM     17  C19 ZIN A   1      19.495  -2.384   6.466  0.00  0.00     0.195 C 
ATOM     18  O18 ZIN A   1      19.340  -1.847   5.150  0.00  0.00    -0.388 OA
ATOM     19  C17 ZIN A   1      19.571  -0.437   5.074  0.00  0.00     0.195 C 
ATOM     20  C16 ZIN A   1      18.610   0.282   6.024  0.00  0.00     0.261 C 
ENDBRANCH  13  14
ENDBRANCH   9  13
BRANCH   1  21
ATOM     21  C2  ZIN A   1      18.105  -0.771  13.913  0.00  0.00     0.037 C 
ATOM     22  C1  ZIN A   1      19.242  -1.783  13.745  0.00  0.00     0.010 C 
ENDBRANCH   1  21
TORSDOF 3
ENDMDL
MODEL 4
REMARK VINA RESULT:      -6.7      2.691      7.263
REMARK  3 active torsions:
REMARK  status: ('A' for Active; 'I' for Inactive)
REMARK    1  A    between atoms: C2_2  and  C3_3 
REMARK    2  A    between atoms: C11_11  and  C13_12 
REMARK    3  A    between atoms: C13_12  and  N14_13 
ROOT
ATOM      1  C3  ZIN A   1      18.884   2.699  12.777  0.00  0.00    -0.021 A 
ATOM      2  C4  ZIN A   1      18.240   3.455  13.691  0.00  0.00     0.012 A 
ATOM      3  C5  ZIN A   1      18.082   4.951  13.627  0.00  0.00     0.068 C 
ATOM      4  N6  ZIN A   1      17.752   2.647  14.683  0.00  0.00    -0.362 N 
ATOM      5  C7  ZIN A   1      18.065   1.370  14.441  0.00  0.00     0.024 A 
ATOM      6  C8  ZIN A   1      18.774   1.329  13.246  0.00  0.00     0.041 A 
ATOM      7  C9  ZIN A   1      19.269   0.069  12.680  0.00  0.00     0.167 C 
ATOM      8  O10 ZIN A   1      20.052   0.034  11.755  0.00  0.00    -0.292 OA
ATOM      9  C11 ZIN A   1      18.726  -1.191  13.339  0.00  0.00     0.087 C 
ATOM     10  C21 ZIN A   1      18.727  -0.981  14.856  0.00  0.00     0.020 C 
ATOM     11  C22 ZIN A   1      17.750   0.135  15.246  0.00  0.00     0.059 C 
ATOM     12  H31 ZIN A   1      17.251   2.958  15.453  0.00  0.00     0.165 HD
ENDROOT
BRANCH   9  13
ATOM     13  C13 ZIN A   1      19.617  -2.383  12.983  0.00  0.00     0.247 C 
BRANCH  13  14
ATOM     14  N14 ZIN A   1      19.219  -2.918  11.675  0.00  0.00    -0.066 N 
ATOM     15  H15 ZIN A   1      19.381  -2.222  10.962  0.00  0.00     0.280 HD
ATOM     16  C20 ZIN A   1      20.009  -4.121  11.376  0.00  0.00     0.261 C 
ATOM     17  C19 ZIN A   1      19.591  -4.676  10.012  0.00  0.00     0.195 C 
ATOM     18  O18 ZIN A   1      18.189  -4.960  10.028  0.00  0.00    -0.388 OA
ATOM     19  C17 ZIN A   1      17.377  -3.824  10.338  0.00  0.00     0.195 C 
ATOM     20  C16 ZIN A   1      17.791  -3.266  11.702  0.00  0.00     0.261 C 
ENDBRANCH  13  14
ENDBRANCH   9  13
BRANCH   1  21
ATOM     21  C2  ZIN A   1      19.571   3.177  11.524  0.00  0.00     0.037 C 
ATOM     22  C1  ZIN A   1      18.622   3.021  10.332  0.00  0.00     0.010 C 
ENDBRANCH   1  21
TORSDOF 3
ENDMDL
MODEL 5
REMARK VINA RESULT:      -6.7      2.950      4.618
REMARK  3 active torsions:
REMARK  status: ('A' for Active; 'I' for Inactive)
REMARK    1  A    between atoms: C2_2  and  C3_3 
REMARK    2  A    between atoms: C11_11  and  C13_12 
REMARK    3  A    between atoms: C13_12  and  N14_13 
ROOT
ATOM      1  C3  ZIN A   1      19.263  -0.135   8.295  0.00  0.00    -0.021 A 
ATOM      2  C4  ZIN A   1      19.012   0.852   7.410  0.00  0.00     0.012 A 
ATOM      3  C5  ZIN A   1      18.824   0.665   5.927  0.00  0.00     0.068 C 
ATOM      4  N6  ZIN A   1      18.954   2.049   8.072  0.00  0.00    -0.362 N 
ATOM      5  C7  ZIN A   1      19.165   1.869   9.379  0.00  0.00     0.024 A 
ATOM      6  C8  ZIN A   1      19.359   0.510   9.592  0.00  0.00     0.041 A 
ATOM      7  C9  ZIN A   1      19.612  -0.040  10.929  0.00  0.00     0.167 C 
ATOM      8  O10 ZIN A   1      19.978  -1.182  11.106  0.00  0.00    -0.292 OA
ATOM      9  C11 ZIN A   1      19.381   0.931  12.078  0.00  0.00     0.087 C 
ATOM     10  C21 ZIN A   1      19.964   2.292  11.686  0.00  0.00     0.020 C 
ATOM     11  C22 ZIN A   1      19.200   2.883  10.495  0.00  0.00     0.059 C 
ATOM     12  H31 ZIN A   1      18.786   2.906   7.651  0.00  0.00     0.165 HD
ENDROOT
BRANCH   9  13
ATOM     13  C13 ZIN A   1      20.080   0.414  13.338  0.00  0.00     0.247 C 
BRANCH  13  14
ATOM     14  N14 ZIN A   1      19.078   0.138  14.376  0.00  0.00    -0.066 N 
ATOM     15  H15 ZIN A   1      18.155   0.163  13.968  0.00  0.00     0.280 HD
ATOM     16  C20 ZIN A   1      19.325  -1.190  14.954  0.00  0.00     0.261 C 
ATOM     17  C19 ZIN A   1      18.279  -1.474  16.035  0.00  0.00     0.195 C 
ATOM     18  O18 ZIN A   1      18.338  -0.449  17.030  0.00  0.00    -0.388 OA
ATOM     19  C17 ZIN A   1      18.128   0.867  16.512  0.00  0.00     0.195 C 
ATOM     20  C16 ZIN A   1      19.173   1.157  15.431  0.00  0.00     0.261 C 
ENDBRANCH  13  14
ENDBRANCH   9  13
BRANCH   1  21
ATOM     21  C2  ZIN A   1      19.407  -1.606   7.999  0.00  0.00     0.037 C 
ATOM     22  C1  ZIN A   1      18.104  -2.327   8.351  0.00  0.00     0.010 C 
ENDBRANCH   1  21
TORSDOF 3
ENDMDL
MODEL 6
REMARK VINA RESULT:      -6.6      2.482      6.755
REMARK  3 active torsions:
REMARK  status: ('A' for Active; 'I' for Inactive)
REMARK    1  A    between atoms: C2_2  and  C3_3 
REMARK    2  A    between atoms: C11_11  and  C13_12 
REMARK    3  A    between atoms: C13_12  and  N14_13 
ROOT
ATOM      1  C3  ZIN A   1      18.345   1.643  10.905  0.00  0.00    -0.021 A 
ATOM      2  C4  ZIN A   1      18.559   2.930  10.558  0.00  0.00     0.012 A 
ATOM      3  C5  ZIN A   1      18.493   4.107  11.496  0.00  0.00     0.068 C 
ATOM      4  N6  ZIN A   1      18.846   2.995   9.221  0.00  0.00    -0.362 N 
ATOM      5  C7  ZIN A   1      18.823   1.775   8.678  0.00  0.00     0.024 A 
ATOM      6  C8  ZIN A   1      18.521   0.869   9.689  0.00  0.00     0.041 A 
ATOM      7  C9  ZIN A   1      18.422  -0.573   9.437  0.00  0.00     0.167 C 
ATOM      8  O10 ZIN A   1      17.968  -1.347  10.252  0.00  0.00    -0.292 OA
ATOM      9  C11 ZIN A   1      18.931  -1.025   8.075  0.00  0.00     0.087 C 
ATOM     10  C21 ZIN A   1      18.442  -0.027   7.021  0.00  0.00     0.020 C 
ATOM     11  C22 ZIN A   1      19.070   1.353   7.252  0.00  0.00     0.059 C 
ATOM     12  H31 ZIN A   1      19.037   3.814   8.736  0.00  0.00     0.165 HD
ENDROOT
BRANCH   9  13
ATOM     13  C13 ZIN A   1      18.385  -2.419   7.759  0.00  0.00     0.247 C 
BRANCH  13  14
ATOM     14  N14 ZIN A   1      19.393  -3.429   8.107  0.00  0.00    -0.066 N 
ATOM     15  H15 ZIN A   1      20.217  -2.973   8.468  0.00  0.00     0.280 HD
ATOM     16  C20 ZIN A   1      18.846  -4.335   9.127  0.00  0.00     0.261 C 
ATOM     17  C19 ZIN A   1      19.897  -5.387   9.488  0.00  0.00     0.195 C 
ATOM     18  O18 ZIN A   1      20.279  -6.096   8.307  0.00  0.00    -0.388 OA
ATOM     19  C17 ZIN A   1      20.797  -5.254   7.273  0.00  0.00     0.195 C 
ATOM     20  C16 ZIN A   1      19.747  -4.202   6.908  0.00  0.00     0.261 C 
ENDBRANCH  13  14
ENDBRANCH   9  13
BRANCH   1  21
ATOM     21  C2  ZIN A   1      18.001   1.117  12.274  0.00  0.00     0.037 C 
ATOM     22  C1  ZIN A   1      19.281   0.670  12.985  0.00  0.00     0.010 C 
ENDBRANCH   1  21
TORSDOF 3
ENDMDL
MODEL 7
REMARK VINA RESULT:      -6.4      2.736      6.197
REMARK  3 active torsions:
REMARK  status: ('A' for Active; 'I' for Inactive)
REMARK    1  A    between atoms: C2_2  and  C3_3 
REMARK    2  A    between atoms: C11_11  and  C13_12 
REMARK    3  A    between atoms: C13_12  and  N14_13 
ROOT
ATOM      1  C3  ZIN A   1      18.309   1.051  14.584  0.00  0.00    -0.021 A 
ATOM      2  C4  ZIN A   1      18.879   2.146  15.129  0.00  0.00     0.012 A 
ATOM      3  C5  ZIN A   1      19.094   2.374  16.602  0.00  0.00     0.068 C 
ATOM      4  N6  ZIN A   1      19.232   3.015  14.131  0.00  0.00    -0.362 N 
ATOM      5  C7  ZIN A   1      18.902   2.513  12.937  0.00  0.00     0.024 A 
ATOM      6  C8  ZIN A   1      18.322   1.268  13.148  0.00  0.00     0.041 A 
ATOM      7  C9  ZIN A   1      17.847   0.434  12.039  0.00  0.00     0.167 C 
ATOM      8  O10 ZIN A   1      17.164  -0.554  12.212  0.00  0.00    -0.292 OA
ATOM      9  C11 ZIN A   1      18.274   0.900  10.654  0.00  0.00     0.087 C 
ATOM     10  C21 ZIN A   1      18.121   2.422  10.588  0.00  0.00     0.020 C 
ATOM     11  C22 ZIN A   1      19.088   3.104  11.563  0.00  0.00     0.059 C 
ATOM     12  H31 ZIN A   1      19.659   3.874  14.272  0.00  0.00     0.165 HD
ENDROOT
BRANCH   9  13
ATOM     13  C13 ZIN A   1      17.385   0.246   9.594  0.00  0.00     0.247 C 
BRANCH  13  14
ATOM     14  N14 ZIN A   1      18.217  -0.545   8.678  0.00  0.00    -0.066 N 
ATOM     15  H15 ZIN A   1      19.191  -0.401   8.898  0.00  0.00     0.280 HD
ATOM     16  C20 ZIN A   1      17.886  -1.970   8.822  0.00  0.00     0.261 C 
ATOM     17  C19 ZIN A   1      18.755  -2.791   7.866  0.00  0.00     0.195 C 
ATOM     18  O18 ZIN A   1      18.543  -2.336   6.527  0.00  0.00    -0.388 OA
ATOM     19  C17 ZIN A   1      18.829  -0.947   6.340  0.00  0.00     0.195 C 
ATOM     20  C16 ZIN A   1      17.960  -0.122   7.294  0.00  0.00     0.261 C 
ENDBRANCH  13  14
ENDBRANCH   9  13
BRANCH   1  21
ATOM     21  C2  ZIN A   1      17.775  -0.154  15.315  0.00  0.00     0.037 C 
ATOM     22  C1  ZIN A   1      18.850  -1.243  15.357  0.00  0.00     0.010 C 
ENDBRANCH   1  21
TORSDOF 3
ENDMDL
MODEL 8
REMARK VINA RESULT:      -6.4      3.088      4.631
REMARK  3 active torsions:
REMARK  status: ('A' for Active; 'I' for Inactive)
REMARK    1  A    between atoms: C2_2  and  C3_3 
REMARK    2  A    between atoms: C11_11  and  C13_12 
REMARK    3  A    between atoms: C13_12  and  N14_13 
ROOT
ATOM      1  C3  ZIN A   1      18.633  -0.630   8.873  0.00  0.00    -0.021 A 
ATOM      2  C4  ZIN A   1      19.194  -1.661   8.208  0.00  0.00     0.012 A 
ATOM      3  C5  ZIN A   1      19.390  -1.732   6.716  0.00  0.00     0.068 C 
ATOM      4  N6  ZIN A   1      19.559  -2.631   9.103  0.00  0.00    -0.362 N 
ATOM      5  C7  ZIN A   1      19.246  -2.259  10.348  0.00  0.00     0.024 A 
ATOM      6  C8  ZIN A   1      18.664  -0.999  10.278  0.00  0.00     0.041 A 
ATOM      7  C9  ZIN A   1      18.204  -0.288  11.476  0.00  0.00     0.167 C 
ATOM      8  O10 ZIN A   1      17.520   0.712  11.417  0.00  0.00    -0.292 OA
ATOM      9  C11 ZIN A   1      18.648  -0.898  12.797  0.00  0.00     0.087 C 
ATOM     10  C21 ZIN A   1      18.495  -2.419  12.704  0.00  0.00     0.020 C 
ATOM     11  C22 ZIN A   1      19.449  -2.993  11.649  0.00  0.00     0.059 C 
ATOM     12  H31 ZIN A   1      19.984  -3.471   8.866  0.00  0.00     0.165 HD
ENDROOT
BRANCH   9  13
ATOM     13  C13 ZIN A   1      17.774  -0.360  13.932  0.00  0.00     0.247 C 
BRANCH  13  14
ATOM     14  N14 ZIN A   1      18.631   0.151  15.010  0.00  0.00    -0.066 N 
ATOM     15  H15 ZIN A   1      19.600   0.023  14.760  0.00  0.00     0.280 HD
ATOM     16  C20 ZIN A   1      18.361   1.582  15.213  0.00  0.00     0.261 C 
ATOM     17  C19 ZIN A   1      19.255   2.111  16.337  0.00  0.00     0.195 C 
ATOM     18  O18 ZIN A   1      19.013   1.357  17.528  0.00  0.00    -0.388 OA
ATOM     19  C17 ZIN A   1      19.239  -0.047  17.374  0.00  0.00     0.195 C 
ATOM     20  C16 ZIN A   1      18.346  -0.581  16.252  0.00  0.00     0.261 C 
ENDBRANCH  13  14
ENDBRANCH   9  13
BRANCH   1  21
ATOM     21  C2  ZIN A   1      18.090   0.645   8.282  0.00  0.00     0.037 C 
ATOM     22  C1  ZIN A   1      19.147   1.746   8.388  0.00  0.00     0.010 C 
ENDBRANCH   1  21
TORSDOF 3
ENDMDL
MODEL 9
REMARK VINA RESULT:      -6.4      1.770      2.288
REMARK  3 active torsions:
REMARK  status: ('A' for Active; 'I' for Inactive)
REMARK    1  A    between atoms: C2_2  and  C3_3 
REMARK    2  A    between atoms: C11_11  and  C13_12 
REMARK    3  A    between atoms: C13_12  and  N14_13 
ROOT
ATOM      1  C3  ZIN A   1      18.773  -1.422  12.400  0.00  0.00    -0.021 A 
ATOM      2  C4  ZIN A   1      18.268  -2.370  11.583  0.00  0.00     0.012 A 
ATOM      3  C5  ZIN A   1      18.263  -3.850  11.863  0.00  0.00     0.068 C 
ATOM      4  N6  ZIN A   1      17.759  -1.773  10.460  0.00  0.00    -0.362 N 
ATOM      5  C7  ZIN A   1      17.922  -0.448  10.521  0.00  0.00     0.024 A 
ATOM      6  C8  ZIN A   1      18.549  -0.155  11.726  0.00  0.00     0.041 A 
ATOM      7  C9  ZIN A   1      18.875   1.220  12.119  0.00  0.00     0.167 C 
ATOM      8  O10 ZIN A   1      19.593   1.476  13.061  0.00  0.00    -0.292 OA
ATOM      9  C11 ZIN A   1      18.244   2.303  11.254  0.00  0.00     0.087 C 
ATOM     10  C21 ZIN A   1      18.358   1.878   9.788  0.00  0.00     0.020 C 
ATOM     11  C22 ZIN A   1      17.528   0.615   9.527  0.00  0.00     0.059 C 
ATOM     12  H31 ZIN A   1      17.340  -2.247   9.724  0.00  0.00     0.165 HD
ENDROOT
BRANCH   9  13
ATOM     13  C13 ZIN A   1      18.983   3.627  11.466  0.00  0.00     0.247 C 
BRANCH  13  14
ATOM     14  N14 ZIN A   1      18.572   4.217  12.747  0.00  0.00    -0.066 N 
ATOM     15  H15 ZIN A   1      18.418   3.483  13.422  0.00  0.00     0.280 HD
ATOM     16  C20 ZIN A   1      19.626   5.118  13.232  0.00  0.00     0.261 C 
ATOM     17  C19 ZIN A   1      19.195   5.731  14.567  0.00  0.00     0.195 C 
ATOM     18  O18 ZIN A   1      17.955   6.421  14.389  0.00  0.00    -0.388 OA
ATOM     19  C17 ZIN A   1      16.901   5.591  13.895  0.00  0.00     0.195 C 
ATOM     20  C16 ZIN A   1      17.328   4.977  12.559  0.00  0.00     0.261 C 
ENDBRANCH  13  14
ENDBRANCH   9  13
BRANCH   1  21
ATOM     21  C2  ZIN A   1      19.429  -1.634  13.740  0.00  0.00     0.037 C 
ATOM     22  C1  ZIN A   1      18.448  -1.258  14.853  0.00  0.00     0.010 C 
ENDBRANCH   1  21
TORSDOF 3
ENDMDL
