MODEL 1
REMARK VINA RESULT:      -4.1      0.000      0.000
REMARK  4 active torsions:
REMARK  status: ('A' for Active; 'I' for Inactive)
REMARK    1  A    between atoms: O2_2  and  C3_3 
REMARK    2  A    between atoms: C3_3  and  C5_5 
REMARK    3  A    between atoms: C6_6  and  C7_7 
REMARK    4  A    between atoms: C7_7  and  O9_9 
ROOT
ATOM      1  C5  <0> d   1      19.082   1.946   8.351  0.00  0.00     0.088 C 
ATOM      2  C6  <0> d   1      18.392   1.761   9.489  0.00  0.00     0.088 C 
ENDROOT
BRANCH   1   3
ATOM      3  C3  <0> d   1      19.162   0.862   7.353  0.00  0.00     0.282 C 
ATOM      4  O4  <0> d   1      19.212  -0.295   7.716  0.00  0.00    -0.260 OA
BRANCH   3   5
ATOM      5  O2  <0> d   1      19.180   1.157   6.038  0.00  0.00    -0.323 OA
ATOM      6  C1  <0> d   1      19.294   0.043   5.114  0.00  0.00     0.213 C 
ENDBRANCH   3   5
ENDBRANCH   1   3
BRANCH   2   7
ATOM      7  C7  <0> d   1      18.313   2.844  10.488  0.00  0.00     0.282 C 
ATOM      8  O8  <0> d   1      19.329   3.296  10.976  0.00  0.00    -0.260 OA
BRANCH   7   9
ATOM      9  O9  <0> d   1      17.113   3.332  10.858  0.00  0.00    -0.323 OA
ATOM     10  C10 <0> d   1      16.935   4.772  10.782  0.00  0.00     0.213 C 
ENDBRANCH   7   9
ENDBRANCH   2   7
TORSDOF 4
ENDMDL
MODEL 2
REMARK VINA RESULT:      -4.1      0.221      5.167
REMARK  4 active torsions:
REMARK  status: ('A' for Active; 'I' for Inactive)
REMARK    1  A    between atoms: O2_2  and  C3_3 
REMARK    2  A    between atoms: C3_3  and  C5_5 
REMARK    3  A    between atoms: C6_6  and  C7_7 
REMARK    4  A    between atoms: C7_7  and  O9_9 
ROOT
ATOM      1  C5  <0> d   1      18.348   1.648   9.377  0.00  0.00     0.088 C 
ATOM      2  C6  <0> d   1      19.035   1.824   8.236  0.00  0.00     0.088 C 
ENDROOT
BRANCH   1   3
ATOM      3  C3  <0> d   1      18.348   2.703  10.409  0.00  0.00     0.282 C 
ATOM      4  O4  <0> d   1      19.399   3.134  10.837  0.00  0.00    -0.260 OA
BRANCH   3   5
ATOM      5  O2  <0> d   1      17.181   3.188  10.877  0.00  0.00    -0.323 OA
ATOM      6  C1  <0> d   1      17.002   4.628  10.835  0.00  0.00     0.213 C 
ENDBRANCH   3   5
ENDBRANCH   1   3
BRANCH   2   7
ATOM      7  C7  <0> d   1      19.036   0.769   7.205  0.00  0.00     0.282 C 
ATOM      8  O8  <0> d   1      18.820  -0.385   7.517  0.00  0.00    -0.260 OA
BRANCH   7   9
ATOM      9  O9  <0> d   1      19.276   1.086   5.918  0.00  0.00    -0.323 OA
ATOM     10  C10 <0> d   1      19.308  -0.009   4.965  0.00  0.00     0.213 C 
ENDBRANCH   7   9
ENDBRANCH   2   7
TORSDOF 4
ENDMDL
MODEL 3
REMARK VINA RESULT:      -4.0      1.638      2.353
REMARK  4 active torsions:
REMARK  status: ('A' for Active; 'I' for Inactive)
REMARK    1  A    between atoms: O2_2  and  C3_3 
REMARK    2  A    between atoms: C3_3  and  C5_5 
REMARK    3  A    between atoms: C6_6  and  C7_7 
REMARK    4  A    between atoms: C7_7  and  O9_9 
ROOT
ATOM      1  C5  <0> d   1      18.577   2.825   9.549  0.00  0.00     0.088 C 
ATOM      2  C6  <0> d   1      17.885   3.254  10.618  0.00  0.00     0.088 C 
ENDROOT
BRANCH   1   3
ATOM      3  C3  <0> d   1      19.276   1.526   9.596  0.00  0.00     0.282 C 
ATOM      4  O4  <0> d   1      19.469   0.979  10.662  0.00  0.00    -0.260 OA
BRANCH   3   5
ATOM      5  O2  <0> d   1      19.700   0.948   8.455  0.00  0.00    -0.323 OA
ATOM      6  C1  <0> d   1      19.026   1.338   7.229  0.00  0.00     0.213 C 
ENDBRANCH   3   5
ENDBRANCH   1   3
BRANCH   2   7
ATOM      7  C7  <0> d   1      17.187   4.553  10.572  0.00  0.00     0.282 C 
ATOM      8  O8  <0> d   1      17.522   5.395   9.762  0.00  0.00    -0.260 OA
BRANCH   7   9
ATOM      9  O9  <0> d   1      16.176   4.805  11.427  0.00  0.00    -0.323 OA
ATOM     10  C10 <0> d   1      16.495   5.581  12.613  0.00  0.00     0.213 C 
ENDBRANCH   7   9
ENDBRANCH   2   7
TORSDOF 4
ENDMDL
MODEL 4
REMARK VINA RESULT:      -4.0      1.669      5.229
REMARK  4 active torsions:
REMARK  status: ('A' for Active; 'I' for Inactive)
REMARK    1  A    between atoms: O2_2  and  C3_3 
REMARK    2  A    between atoms: C3_3  and  C5_5 
REMARK    3  A    between atoms: C6_6  and  C7_7 
REMARK    4  A    between atoms: C7_7  and  O9_9 
ROOT
ATOM      1  C5  <0> d   1      18.323   3.628   9.891  0.00  0.00     0.088 C 
ATOM      2  C6  <0> d   1      18.175   2.309  10.096  0.00  0.00     0.088 C 
ENDROOT
BRANCH   1   3
ATOM      3  C3  <0> d   1      17.350   4.578  10.465  0.00  0.00     0.282 C 
ATOM      4  O4  <0> d   1      17.182   5.663   9.947  0.00  0.00    -0.260 OA
BRANCH   3   5
ATOM      5  O2  <0> d   1      16.647   4.240  11.564  0.00  0.00    -0.323 OA
ATOM      6  C1  <0> d   1      16.953   4.958  12.788  0.00  0.00     0.213 C 
ENDBRANCH   3   5
ENDBRANCH   1   3
BRANCH   2   7
ATOM      7  C7  <0> d   1      19.147   1.360   9.521  0.00  0.00     0.282 C 
ATOM      8  O8  <0> d   1      19.508   0.394  10.165  0.00  0.00    -0.260 OA
BRANCH   7   9
ATOM      9  O9  <0> d   1      19.635   1.563   8.282  0.00  0.00    -0.323 OA
ATOM     10  C10 <0> d   1      18.918   0.943   7.182  0.00  0.00     0.213 C 
ENDBRANCH   7   9
ENDBRANCH   2   7
TORSDOF 4
ENDMDL
MODEL 5
REMARK VINA RESULT:      -3.9      1.233      1.933
REMARK  4 active torsions:
REMARK  status: ('A' for Active; 'I' for Inactive)
REMARK    1  A    between atoms: O2_2  and  C3_3 
REMARK    2  A    between atoms: C3_3  and  C5_5 
REMARK    3  A    between atoms: C6_6  and  C7_7 
REMARK    4  A    between atoms: C7_7  and  O9_9 
ROOT
ATOM      1  C5  <0> d   1      19.096   2.136   8.944  0.00  0.00     0.088 C 
ATOM      2  C6  <0> d   1      18.092   2.145   9.837  0.00  0.00     0.088 C 
ENDROOT
BRANCH   1   3
ATOM      3  C3  <0> d   1      19.196   1.042   7.958  0.00  0.00     0.282 C 
ATOM      4  O4  <0> d   1      18.954   1.256   6.788  0.00  0.00    -0.260 OA
BRANCH   3   5
ATOM      5  O2  <0> d   1      19.557  -0.193   8.357  0.00  0.00    -0.323 OA
ATOM      6  C1  <0> d   1      19.167  -1.301   7.503  0.00  0.00     0.213 C 
ENDBRANCH   3   5
ENDBRANCH   1   3
BRANCH   2   7
ATOM      7  C7  <0> d   1      17.992   3.238  10.823  0.00  0.00     0.282 C 
ATOM      8  O8  <0> d   1      16.901   3.636  11.181  0.00  0.00    -0.260 OA
BRANCH   7   9
ATOM      9  O9  <0> d   1      19.111   3.794  11.328  0.00  0.00    -0.323 OA
ATOM     10  C10 <0> d   1      18.962   4.605  12.523  0.00  0.00     0.213 C 
ENDBRANCH   7   9
ENDBRANCH   2   7
TORSDOF 4
ENDMDL
MODEL 6
REMARK VINA RESULT:      -3.8      2.793      3.539
REMARK  4 active torsions:
REMARK  status: ('A' for Active; 'I' for Inactive)
REMARK    1  A    between atoms: O2_2  and  C3_3 
REMARK    2  A    between atoms: C3_3  and  C5_5 
REMARK    3  A    between atoms: C6_6  and  C7_7 
REMARK    4  A    between atoms: C7_7  and  O9_9 
ROOT
ATOM      1  C5  <0> d   1      17.885   0.296   8.954  0.00  0.00     0.088 C 
ATOM      2  C6  <0> d   1      17.766   0.545  10.269  0.00  0.00     0.088 C 
ENDROOT
BRANCH   1   3
ATOM      3  C3  <0> d   1      18.767   1.137   8.120  0.00  0.00     0.282 C 
ATOM      4  O4  <0> d   1      19.316   2.106   8.604  0.00  0.00    -0.260 OA
BRANCH   3   5
ATOM      5  O2  <0> d   1      18.962   0.829   6.823  0.00  0.00    -0.323 OA
ATOM      6  C1  <0> d   1      17.840   0.247   6.108  0.00  0.00     0.213 C 
ENDBRANCH   3   5
ENDBRANCH   1   3
BRANCH   2   7
ATOM      7  C7  <0> d   1      16.884  -0.294  11.101  0.00  0.00     0.282 C 
ATOM      8  O8  <0> d   1      15.883   0.182  11.599  0.00  0.00    -0.260 OA
BRANCH   7   9
ATOM      9  O9  <0> d   1      17.188  -1.591  11.309  0.00  0.00    -0.323 OA
ATOM     10  C10 <0> d   1      18.115  -1.885  12.387  0.00  0.00     0.213 C 
ENDBRANCH   7   9
ENDBRANCH   2   7
TORSDOF 4
ENDMDL
MODEL 7
REMARK VINA RESULT:      -3.8      2.544      5.898
REMARK  4 active torsions:
REMARK  status: ('A' for Active; 'I' for Inactive)
REMARK    1  A    between atoms: O2_2  and  C3_3 
REMARK    2  A    between atoms: C3_3  and  C5_5 
REMARK    3  A    between atoms: C6_6  and  C7_7 
REMARK    4  A    between atoms: C7_7  and  O9_9 
ROOT
ATOM      1  C5  <0> d   1      19.158   0.282   6.873  0.00  0.00     0.088 C 
ATOM      2  C6  <0> d   1      18.804  -0.978   6.569  0.00  0.00     0.088 C 
ENDROOT
BRANCH   1   3
ATOM      3  C3  <0> d   1      18.540   0.962   8.029  0.00  0.00     0.282 C 
ATOM      4  O4  <0> d   1      18.979   2.027   8.412  0.00  0.00    -0.260 OA
BRANCH   3   5
ATOM      5  O2  <0> d   1      17.490   0.401   8.658  0.00  0.00    -0.323 OA
ATOM      6  C1  <0> d   1      17.520   0.391  10.110  0.00  0.00     0.213 C 
ENDBRANCH   3   5
ENDBRANCH   1   3
BRANCH   2   7
ATOM      7  C7  <0> d   1      19.420  -1.657   5.413  0.00  0.00     0.282 C 
ATOM      8  O8  <0> d   1      19.894  -1.003   4.505  0.00  0.00    -0.260 OA
BRANCH   7   9
ATOM      9  O9  <0> d   1      19.459  -3.003   5.365  0.00  0.00    -0.323 OA
ATOM     10  C10 <0> d   1      19.829  -3.696   6.587  0.00  0.00     0.213 C 
ENDBRANCH   7   9
ENDBRANCH   2   7
TORSDOF 4
ENDMDL
MODEL 8
REMARK VINA RESULT:      -3.6      6.282      7.123
REMARK  4 active torsions:
REMARK  status: ('A' for Active; 'I' for Inactive)
REMARK    1  A    between atoms: O2_2  and  C3_3 
REMARK    2  A    between atoms: C3_3  and  C5_5 
REMARK    3  A    between atoms: C6_6  and  C7_7 
REMARK    4  A    between atoms: C7_7  and  O9_9 
ROOT
ATOM      1  C5  <0> d   1      18.096  -0.836  14.229  0.00  0.00     0.088 C 
ATOM      2  C6  <0> d   1      18.753  -1.350  15.282  0.00  0.00     0.088 C 
ENDROOT
BRANCH   1   3
ATOM      3  C3  <0> d   1      18.503  -1.199  12.857  0.00  0.00     0.282 C 
ATOM      4  O4  <0> d   1      18.881  -0.339  12.089  0.00  0.00    -0.260 OA
BRANCH   3   5
ATOM      5  O2  <0> d   1      18.456  -2.485  12.458  0.00  0.00    -0.323 OA
ATOM      6  C1  <0> d   1      19.681  -3.056  11.928  0.00  0.00     0.213 C 
ENDBRANCH   3   5
ENDBRANCH   1   3
BRANCH   2   7
ATOM      7  C7  <0> d   1      18.346  -0.987  16.653  0.00  0.00     0.282 C 
ATOM      8  O8  <0> d   1      17.168  -0.881  16.930  0.00  0.00    -0.260 OA
BRANCH   7   9
ATOM      9  O9  <0> d   1      19.282  -0.773  17.599  0.00  0.00    -0.323 OA
ATOM     10  C10 <0> d   1      19.355   0.563  18.163  0.00  0.00     0.213 C 
ENDBRANCH   7   9
ENDBRANCH   2   7
TORSDOF 4
ENDMDL
MODEL 9
REMARK VINA RESULT:      -3.6      4.737      6.729
REMARK  4 active torsions:
REMARK  status: ('A' for Active; 'I' for Inactive)
REMARK    1  A    between atoms: O2_2  and  C3_3 
REMARK    2  A    between atoms: C3_3  and  C5_5 
REMARK    3  A    between atoms: C6_6  and  C7_7 
REMARK    4  A    between atoms: C7_7  and  O9_9 
ROOT
ATOM      1  C5  <0> d   1      17.960  -0.045  14.129  0.00  0.00     0.088 C 
ATOM      2  C6  <0> d   1      17.887  -0.213  12.798  0.00  0.00     0.088 C 
ENDROOT
BRANCH   1   3
ATOM      3  C3  <0> d   1      18.936  -0.820  14.918  0.00  0.00     0.282 C 
ATOM      4  O4  <0> d   1      19.665  -1.620  14.367  0.00  0.00    -0.260 OA
BRANCH   3   5
ATOM      5  O2  <0> d   1      19.019  -0.641  16.251  0.00  0.00    -0.323 OA
ATOM      6  C1  <0> d   1      17.919   0.058  16.892  0.00  0.00     0.213 C 
ENDBRANCH   3   5
ENDBRANCH   1   3
BRANCH   2   7
ATOM      7  C7  <0> d   1      16.911   0.561  12.009  0.00  0.00     0.282 C 
ATOM      8  O8  <0> d   1      15.883   0.036  11.629  0.00  0.00    -0.260 OA
BRANCH   7   9
ATOM      9  O9  <0> d   1      17.158   1.851  11.709  0.00  0.00    -0.323 OA
ATOM     10  C10 <0> d   1      18.437   2.151  11.090  0.00  0.00     0.213 C 
ENDBRANCH   7   9
ENDBRANCH   2   7
TORSDOF 4
ENDMDL
