MODEL 1
REMARK VINA RESULT:      -4.8      0.000      0.000
REMARK  2 active torsions:
REMARK  status: ('A' for Active; 'I' for Inactive)
REMARK    1  A    between atoms: C2_2  and  C5_5 
REMARK    2  A    between atoms: C5_5  and  C8_8 
ROOT
ATOM      1  C5  <0> d   1      18.095  -0.001  15.737  0.00  0.00     0.434 C 
ATOM      2  F6  <0> d   1      17.151   0.409  14.789  0.00  0.00    -0.186 F 
ATOM      3  F7  <0> d   1      18.836   1.106  16.165  0.00  0.00    -0.186 F 
ENDROOT
BRANCH   1   4
ATOM      4  C2  <0> d   1      17.379  -0.628  16.933  0.00  0.00     0.464 C 
ATOM      5  F1  <0> d   1      16.140  -0.004  17.115  0.00  0.00    -0.165 F 
ATOM      6  F3  <0> d   1      18.158  -0.461  18.084  0.00  0.00    -0.165 F 
ATOM      7  F4  <0> d   1      17.182  -1.993  16.696  0.00  0.00    -0.165 F 
ENDBRANCH   1   4
BRANCH   1   8
ATOM      8  C8  <0> d   1      19.035  -1.031  15.108  0.00  0.00     0.464 C 
ATOM      9  F9  <0> d   1      18.303  -1.879  14.270  0.00  0.00    -0.165 F 
ATOM     10  F10 <0> d   1      20.017  -0.371  14.360  0.00  0.00    -0.165 F 
ATOM     11  F11 <0> d   1      19.646  -1.783  16.117  0.00  0.00    -0.165 F 
ENDBRANCH   1   8
TORSDOF 2
ENDMDL
MODEL 2
REMARK VINA RESULT:      -4.8      0.016      3.146
REMARK  2 active torsions:
REMARK  status: ('A' for Active; 'I' for Inactive)
REMARK    1  A    between atoms: C2_2  and  C5_5 
REMARK    2  A    between atoms: C5_5  and  C8_8 
ROOT
ATOM      1  C5  <0> d   1      18.100   0.010  15.743  0.00  0.00     0.434 C 
ATOM      2  F6  <0> d   1      18.848   1.109  16.180  0.00  0.00    -0.186 F 
ATOM      3  F7  <0> d   1      17.155   0.434  14.802  0.00  0.00    -0.186 F 
ENDROOT
BRANCH   1   4
ATOM      4  C2  <0> d   1      19.032  -1.019  15.102  0.00  0.00     0.464 C 
ATOM      5  F1  <0> d   1      20.008  -0.358  14.349  0.00  0.00    -0.165 F 
ATOM      6  F3  <0> d   1      18.292  -1.864  14.268  0.00  0.00    -0.165 F 
ATOM      7  F4  <0> d   1      19.650  -1.776  16.104  0.00  0.00    -0.165 F 
ENDBRANCH   1   4
BRANCH   1   8
ATOM      8  C8  <0> d   1      17.381  -0.624  16.935  0.00  0.00     0.464 C 
ATOM      9  F9  <0> d   1      16.138  -0.008  17.111  0.00  0.00    -0.165 F 
ATOM     10  F10 <0> d   1      17.195  -1.990  16.695  0.00  0.00    -0.165 F 
ATOM     11  F11 <0> d   1      18.153  -0.456  18.089  0.00  0.00    -0.165 F 
ENDBRANCH   1   8
TORSDOF 2
ENDMDL
MODEL 3
REMARK VINA RESULT:      -4.8      0.036      3.156
REMARK  2 active torsions:
REMARK  status: ('A' for Active; 'I' for Inactive)
REMARK    1  A    between atoms: C2_2  and  C5_5 
REMARK    2  A    between atoms: C5_5  and  C8_8 
ROOT
ATOM      1  C5  <0> d   1      18.088   0.013  15.764  0.00  0.00     0.434 C 
ATOM      2  F6  <0> d   1      18.827   1.118  16.199  0.00  0.00    -0.186 F 
ATOM      3  F7  <0> d   1      17.153   0.425  14.808  0.00  0.00    -0.186 F 
ENDROOT
BRANCH   1   4
ATOM      4  C2  <0> d   1      19.030  -1.019  15.143  0.00  0.00     0.464 C 
ATOM      5  F1  <0> d   1      19.636  -1.768  16.158  0.00  0.00    -0.165 F 
ATOM      6  F3  <0> d   1      20.016  -0.362  14.398  0.00  0.00    -0.165 F 
ATOM      7  F4  <0> d   1      18.302  -1.872  14.306  0.00  0.00    -0.165 F 
ENDBRANCH   1   4
BRANCH   1   8
ATOM      8  C8  <0> d   1      17.358  -0.613  16.954  0.00  0.00     0.464 C 
ATOM      9  F9  <0> d   1      18.130  -0.452  18.110  0.00  0.00    -0.165 F 
ATOM     10  F10 <0> d   1      16.122   0.018  17.127  0.00  0.00    -0.165 F 
ATOM     11  F11 <0> d   1      17.157  -1.976  16.713  0.00  0.00    -0.165 F 
ENDBRANCH   1   8
TORSDOF 2
ENDMDL
MODEL 4
REMARK VINA RESULT:      -4.8      0.936      3.276
REMARK  2 active torsions:
REMARK  status: ('A' for Active; 'I' for Inactive)
REMARK    1  A    between atoms: C2_2  and  C5_5 
REMARK    2  A    between atoms: C5_5  and  C8_8 
ROOT
ATOM      1  C5  <0> d   1      18.360  -1.097  16.578  0.00  0.00     0.434 C 
ATOM      2  F6  <0> d   1      17.183  -1.820  16.804  0.00  0.00    -0.186 F 
ATOM      3  F7  <0> d   1      19.463  -1.948  16.716  0.00  0.00    -0.186 F 
ENDROOT
BRANCH   1   4
ATOM      4  C2  <0> d   1      18.338  -0.517  15.163  0.00  0.00     0.464 C 
ATOM      5  F1  <0> d   1      18.039  -1.531  14.247  0.00  0.00    -0.165 F 
ATOM      6  F3  <0> d   1      19.592   0.028  14.862  0.00  0.00    -0.165 F 
ATOM      7  F4  <0> d   1      17.363   0.484  15.085  0.00  0.00    -0.165 F 
ENDBRANCH   1   4
BRANCH   1   8
ATOM      8  C8  <0> d   1      18.465   0.040  17.595  0.00  0.00     0.464 C 
ATOM      9  F9  <0> d   1      17.190   0.562  17.843  0.00  0.00    -0.165 F 
ATOM     10  F10 <0> d   1      19.008  -0.448  18.788  0.00  0.00    -0.165 F 
ATOM     11  F11 <0> d   1      19.290   1.048  17.085  0.00  0.00    -0.165 F 
ENDBRANCH   1   8
TORSDOF 2
ENDMDL
MODEL 5
REMARK VINA RESULT:      -4.8      0.930      2.522
REMARK  2 active torsions:
REMARK  status: ('A' for Active; 'I' for Inactive)
REMARK    1  A    between atoms: C2_2  and  C5_5 
REMARK    2  A    between atoms: C5_5  and  C8_8 
ROOT
ATOM      1  C5  <0> d   1      18.364  -1.098  16.574  0.00  0.00     0.434 C 
ATOM      2  F6  <0> d   1      19.473  -1.940  16.716  0.00  0.00    -0.186 F 
ATOM      3  F7  <0> d   1      17.193  -1.829  16.799  0.00  0.00    -0.186 F 
ENDROOT
BRANCH   1   4
ATOM      4  C2  <0> d   1      18.457   0.043  17.588  0.00  0.00     0.464 C 
ATOM      5  F1  <0> d   1      17.178   0.554  17.833  0.00  0.00    -0.165 F 
ATOM      6  F3  <0> d   1      19.274   1.057  17.077  0.00  0.00    -0.165 F 
ATOM      7  F4  <0> d   1      19.003  -0.439  18.783  0.00  0.00    -0.165 F 
ENDBRANCH   1   4
BRANCH   1   8
ATOM      8  C8  <0> d   1      18.340  -0.521  15.158  0.00  0.00     0.464 C 
ATOM      9  F9  <0> d   1      19.589   0.036  14.860  0.00  0.00    -0.165 F 
ATOM     10  F10 <0> d   1      18.055  -1.540  14.243  0.00  0.00    -0.165 F 
ATOM     11  F11 <0> d   1      17.356   0.469  15.073  0.00  0.00    -0.165 F 
ENDBRANCH   1   8
TORSDOF 2
ENDMDL
MODEL 6
REMARK VINA RESULT:      -4.7      1.433      2.663
REMARK  2 active torsions:
REMARK  status: ('A' for Active; 'I' for Inactive)
REMARK    1  A    between atoms: C2_2  and  C5_5 
REMARK    2  A    between atoms: C5_5  and  C8_8 
ROOT
ATOM      1  C5  <0> d   1      18.815  -0.177  17.124  0.00  0.00     0.434 C 
ATOM      2  F6  <0> d   1      19.492   0.762  16.338  0.00  0.00    -0.186 F 
ATOM      3  F7  <0> d   1      19.695  -1.201  17.489  0.00  0.00    -0.186 F 
ENDROOT
BRANCH   1   4
ATOM      4  C2  <0> d   1      18.275   0.505  18.382  0.00  0.00     0.464 C 
ATOM      5  F1  <0> d   1      19.105   1.578  18.723  0.00  0.00    -0.165 F 
ATOM      6  F3  <0> d   1      18.247  -0.415  19.436  0.00  0.00    -0.165 F 
ATOM      7  F4  <0> d   1      16.980   0.976  18.138  0.00  0.00    -0.165 F 
ENDBRANCH   1   4
BRANCH   1   8
ATOM      8  C8  <0> d   1      17.652  -0.767  16.324  0.00  0.00     0.464 C 
ATOM      9  F9  <0> d   1      16.793  -1.455  17.189  0.00  0.00    -0.165 F 
ATOM     10  F10 <0> d   1      16.948   0.265  15.694  0.00  0.00    -0.165 F 
ATOM     11  F11 <0> d   1      18.148  -1.650  15.360  0.00  0.00    -0.165 F 
ENDBRANCH   1   8
TORSDOF 2
ENDMDL
MODEL 7
REMARK VINA RESULT:      -4.7      1.088      3.260
REMARK  2 active torsions:
REMARK  status: ('A' for Active; 'I' for Inactive)
REMARK    1  A    between atoms: C2_2  and  C5_5 
REMARK    2  A    between atoms: C5_5  and  C8_8 
ROOT
ATOM      1  C5  <0> d   1      17.595  -0.463  16.642  0.00  0.00     0.434 C 
ATOM      2  F6  <0> d   1      16.874   0.380  15.788  0.00  0.00    -0.186 F 
ATOM      3  F7  <0> d   1      16.771  -1.511  17.067  0.00  0.00    -0.186 F 
ENDROOT
BRANCH   1   4
ATOM      4  C2  <0> d   1      18.801  -1.033  15.896  0.00  0.00     0.464 C 
ATOM      5  F1  <0> d   1      19.519   0.011  15.302  0.00  0.00    -0.165 F 
ATOM      6  F3  <0> d   1      18.362  -1.919  14.906  0.00  0.00    -0.165 F 
ATOM      7  F4  <0> d   1      19.628  -1.713  16.798  0.00  0.00    -0.165 F 
ENDBRANCH   1   4
BRANCH   1   8
ATOM      8  C8  <0> d   1      18.075   0.332  17.857  0.00  0.00     0.464 C 
ATOM      9  F9  <0> d   1      18.474  -0.552  18.865  0.00  0.00    -0.165 F 
ATOM     10  F10 <0> d   1      19.157   1.139  17.490  0.00  0.00    -0.165 F 
ATOM     11  F11 <0> d   1      17.033   1.138  18.330  0.00  0.00    -0.165 F 
ENDBRANCH   1   8
TORSDOF 2
ENDMDL
MODEL 8
REMARK VINA RESULT:      -4.7      1.344      2.262
REMARK  2 active torsions:
REMARK  status: ('A' for Active; 'I' for Inactive)
REMARK    1  A    between atoms: C2_2  and  C5_5 
REMARK    2  A    between atoms: C5_5  and  C8_8 
ROOT
ATOM      1  C5  <0> d   1      18.531   0.133  16.331  0.00  0.00     0.434 C 
ATOM      2  F6  <0> d   1      17.249   0.377  15.825  0.00  0.00    -0.186 F 
ATOM      3  F7  <0> d   1      19.472   0.843  15.576  0.00  0.00    -0.186 F 
ENDROOT
BRANCH   1   4
ATOM      4  C2  <0> d   1      18.599   0.587  17.789  0.00  0.00     0.464 C 
ATOM      5  F1  <0> d   1      19.938   0.735  18.170  0.00  0.00    -0.165 F 
ATOM      6  F3  <0> d   1      17.986  -0.369  18.605  0.00  0.00    -0.165 F 
ATOM      7  F4  <0> d   1      17.938   1.813  17.928  0.00  0.00    -0.165 F 
ENDBRANCH   1   4
BRANCH   1   8
ATOM      8  C8  <0> d   1      18.836  -1.363  16.247  0.00  0.00     0.464 C 
ATOM      9  F9  <0> d   1      19.335  -1.667  14.976  0.00  0.00    -0.165 F 
ATOM     10  F10 <0> d   1      19.789  -1.700  17.214  0.00  0.00    -0.165 F 
ATOM     11  F11 <0> d   1      17.664  -2.092  16.474  0.00  0.00    -0.165 F 
ENDBRANCH   1   8
TORSDOF 2
ENDMDL
MODEL 9
REMARK VINA RESULT:      -4.6      0.923      2.908
REMARK  2 active torsions:
REMARK  status: ('A' for Active; 'I' for Inactive)
REMARK    1  A    between atoms: C2_2  and  C5_5 
REMARK    2  A    between atoms: C5_5  and  C8_8 
ROOT
ATOM      1  C5  <0> d   1      17.749  -0.196  16.861  0.00  0.00     0.434 C 
ATOM      2  F6  <0> d   1      18.297  -0.032  18.139  0.00  0.00    -0.186 F 
ATOM      3  F7  <0> d   1      16.353  -0.192  16.949  0.00  0.00    -0.186 F 
ENDROOT
BRANCH   1   4
ATOM      4  C2  <0> d   1      18.206   0.952  15.960  0.00  0.00     0.464 C 
ATOM      5  F1  <0> d   1      17.331   1.068  14.874  0.00  0.00    -0.165 F 
ATOM      6  F3  <0> d   1      19.499   0.691  15.491  0.00  0.00    -0.165 F 
ATOM      7  F4  <0> d   1      18.205   2.147  16.688  0.00  0.00    -0.165 F 
ENDBRANCH   1   4
BRANCH   1   8
ATOM      8  C8  <0> d   1      18.219  -1.526  16.272  0.00  0.00     0.464 C 
ATOM      9  F9  <0> d   1      19.521  -1.795  16.707  0.00  0.00    -0.165 F 
ATOM     10  F10 <0> d   1      17.366  -2.552  16.694  0.00  0.00    -0.165 F 
ATOM     11  F11 <0> d   1      18.201  -1.451  14.875  0.00  0.00    -0.165 F 
ENDBRANCH   1   8
TORSDOF 2
ENDMDL
