MODEL 1
REMARK VINA RESULT:      -8.8      0.000      0.000
REMARK  3 active torsions:
REMARK  status: ('A' for Active; 'I' for Inactive)
REMARK       I    between atoms: N5_5  and  C6_6 
REMARK    1  A    between atoms: C6_6  and  O8_8 
REMARK    2  A    between atoms: O8_8  and  C9_9 
REMARK    3  A    between atoms: N18_18  and  C19_19 
ROOT
ATOM      1  C9  ZIN A   1      18.241   3.286  13.123  0.00  0.00     0.195 A 
ATOM      2  C10 ZIN A   1      17.807   4.244  13.952  0.00  0.00     0.142 A 
ATOM      3  N11 ZIN A   1      18.045   4.589  15.290  0.00  0.00    -0.253 NA
ATOM      4  C12 ZIN A   1      17.392   5.672  15.798  0.00  0.00     0.136 A 
ATOM      5  C13 ZIN A   1      16.536   6.398  15.033  0.00  0.00     0.136 A 
ATOM      6  N14 ZIN A   1      16.284   6.107  13.764  0.00  0.00    -0.252 NA
ATOM      7  C15 ZIN A   1      16.861   5.084  13.179  0.00  0.00     0.158 A 
ATOM      8  C16 ZIN A   1      16.823   4.483  11.844  0.00  0.00     0.286 A 
ATOM      9  O17 ZIN A   1      16.164   4.864  10.892  0.00  0.00    -0.265 OA
ATOM     10  N18 ZIN A   1      17.664   3.428  11.868  0.00  0.00    -0.237 N 
ENDROOT
BRANCH   1  11
ATOM     11  O8  ZIN A   1      19.130   2.313  13.461  0.00  0.00    -0.241 OA
BRANCH  11  12
ATOM     12  C6  ZIN A   1      18.622   1.130  13.853  0.00  0.00     0.369 C 
ATOM     13  N5  ZIN A   1      19.196  -0.019  13.443  0.00  0.00    -0.324 N 
ATOM     14  C4  ZIN A   1      18.727  -1.318  13.948  0.00  0.00     0.158 C 
ATOM     15  C26 ZIN A   1      20.307  -0.005  12.480  0.00  0.00     0.158 C 
ATOM     16  C3  ZIN A   1      18.458  -2.237  12.751  0.00  0.00     0.291 C 
ATOM     17  N2  ZIN A   1      19.656  -2.295  11.904  0.00  0.00     0.087 N 
ATOM     18  C1  ZIN A   1      19.500  -3.297  10.841  0.00  0.00     0.310 C 
ATOM     19  C27 ZIN A   1      19.975  -0.977  11.341  0.00  0.00     0.291 C 
ATOM     20  O7  ZIN A   1      17.646   1.097  14.577  0.00  0.00    -0.238 OA
ENDBRANCH  11  12
ENDBRANCH   1  11
BRANCH  10  21
ATOM     21  C19 ZIN A   1      17.912   2.586  10.782  0.00  0.00     0.138 A 
ATOM     22  N25 ZIN A   1      17.208   1.472  10.642  0.00  0.00    -0.241 NA
ATOM     23  C24 ZIN A   1      17.407   0.652   9.628  0.00  0.00     0.142 A 
ATOM     24  C22 ZIN A   1      18.372   0.923   8.676  0.00  0.00     0.051 A 
ATOM     25  C21 ZIN A   1      19.134   2.078   8.791  0.00  0.00     0.029 A 
ATOM     26 Cl23 ZIN A   1      18.627  -0.169   7.351  0.00  0.00    -0.083 Cl
ATOM     27  C20 ZIN A   1      18.898   2.921   9.863  0.00  0.00     0.053 A 
ENDBRANCH  10  21
TORSDOF 3
ENDMDL
MODEL 2
REMARK VINA RESULT:      -8.8      2.162      3.243
REMARK  3 active torsions:
REMARK  status: ('A' for Active; 'I' for Inactive)
REMARK       I    between atoms: N5_5  and  C6_6 
REMARK    1  A    between atoms: C6_6  and  O8_8 
REMARK    2  A    between atoms: O8_8  and  C9_9 
REMARK    3  A    between atoms: N18_18  and  C19_19 
ROOT
ATOM      1  C9  ZIN A   1      18.522   0.561  11.524  0.00  0.00     0.195 A 
ATOM      2  C10 ZIN A   1      18.440   1.206  12.695  0.00  0.00     0.142 A 
ATOM      3  N11 ZIN A   1      18.652   0.865  14.039  0.00  0.00    -0.253 NA
ATOM      4  C12 ZIN A   1      18.458   1.829  14.982  0.00  0.00     0.136 A 
ATOM      5  C13 ZIN A   1      18.072   3.084  14.634  0.00  0.00     0.136 A 
ATOM      6  N14 ZIN A   1      17.862   3.448  13.376  0.00  0.00    -0.252 NA
ATOM      7  C15 ZIN A   1      18.021   2.594  12.392  0.00  0.00     0.158 A 
ATOM      8  C16 ZIN A   1      17.882   2.640  10.934  0.00  0.00     0.286 A 
ATOM      9  O17 ZIN A   1      17.551   3.603  10.264  0.00  0.00    -0.265 OA
ATOM     10  N18 ZIN A   1      18.198   1.411  10.475  0.00  0.00    -0.237 N 
ENDROOT
BRANCH   1  11
ATOM     11  O8  ZIN A   1      18.882  -0.744  11.381  0.00  0.00    -0.241 OA
BRANCH  11  12
ATOM     12  C6  ZIN A   1      17.907  -1.663  11.507  0.00  0.00     0.369 C 
ATOM     13  N5  ZIN A   1      18.173  -2.964  11.271  0.00  0.00    -0.324 N 
ATOM     14  C4  ZIN A   1      17.156  -3.997  11.511  0.00  0.00     0.158 C 
ATOM     15  C26 ZIN A   1      19.490  -3.385  10.768  0.00  0.00     0.158 C 
ATOM     16  C3  ZIN A   1      17.036  -4.863  10.252  0.00  0.00     0.291 C 
ATOM     17  N2  ZIN A   1      18.364  -5.372   9.885  0.00  0.00     0.087 N 
ATOM     18  C1  ZIN A   1      18.269  -6.344   8.786  0.00  0.00     0.310 C 
ATOM     19  C27 ZIN A   1      19.278  -4.276   9.539  0.00  0.00     0.291 C 
ATOM     20  O7  ZIN A   1      16.787  -1.322  11.834  0.00  0.00    -0.238 OA
ENDBRANCH  11  12
ENDBRANCH   1  11
BRANCH  10  21
ATOM     21  C19 ZIN A   1      18.190   1.041   9.129  0.00  0.00     0.138 A 
ATOM     22  N25 ZIN A   1      17.279   0.186   8.690  0.00  0.00    -0.241 NA
ATOM     23  C24 ZIN A   1      17.233  -0.186   7.425  0.00  0.00     0.142 A 
ATOM     24  C22 ZIN A   1      18.148   0.299   6.510  0.00  0.00     0.051 A 
ATOM     25  C21 ZIN A   1      19.123   1.193   6.933  0.00  0.00     0.029 A 
ATOM     26 Cl23 ZIN A   1      18.080  -0.205   4.850  0.00  0.00    -0.083 Cl
ATOM     27  C20 ZIN A   1      19.141   1.568   8.265  0.00  0.00     0.053 A 
ENDBRANCH  10  21
TORSDOF 3
ENDMDL
MODEL 3
REMARK VINA RESULT:      -8.4      1.894      5.494
REMARK  3 active torsions:
REMARK  status: ('A' for Active; 'I' for Inactive)
REMARK       I    between atoms: N5_5  and  C6_6 
REMARK    1  A    between atoms: C6_6  and  O8_8 
REMARK    2  A    between atoms: O8_8  and  C9_9 
REMARK    3  A    between atoms: N18_18  and  C19_19 
ROOT
ATOM      1  C9  ZIN A   1      18.851   0.869  12.221  0.00  0.00     0.195 A 
ATOM      2  C10 ZIN A   1      18.870   0.636  13.539  0.00  0.00     0.142 A 
ATOM      3  N11 ZIN A   1      19.074   1.414  14.688  0.00  0.00    -0.253 NA
ATOM      4  C12 ZIN A   1      19.014   0.795  15.900  0.00  0.00     0.136 A 
ATOM      5  C13 ZIN A   1      18.762  -0.537  15.996  0.00  0.00     0.136 A 
ATOM      6  N14 ZIN A   1      18.563  -1.308  14.936  0.00  0.00    -0.252 NA
ATOM      7  C15 ZIN A   1      18.600  -0.810  13.723  0.00  0.00     0.158 A 
ATOM      8  C16 ZIN A   1      18.433  -1.340  12.367  0.00  0.00     0.286 A 
ATOM      9  O17 ZIN A   1      18.197  -2.497  12.062  0.00  0.00    -0.265 OA
ATOM     10  N18 ZIN A   1      18.587  -0.301  11.521  0.00  0.00    -0.237 N 
ENDROOT
BRANCH   1  11
ATOM     11  O8  ZIN A   1      19.057   2.085  11.646  0.00  0.00    -0.241 OA
BRANCH  11  12
ATOM     12  C6  ZIN A   1      18.054   2.979  11.731  0.00  0.00     0.369 C 
ATOM     13  N5  ZIN A   1      18.275   4.190  12.280  0.00  0.00    -0.324 N 
ATOM     14  C4  ZIN A   1      17.227   5.221  12.281  0.00  0.00     0.158 C 
ATOM     15  C26 ZIN A   1      19.573   4.516  12.891  0.00  0.00     0.158 C 
ATOM     16  C3  ZIN A   1      17.068   5.751  13.710  0.00  0.00     0.291 C 
ATOM     17  N2  ZIN A   1      18.375   6.195  14.211  0.00  0.00     0.087 N 
ATOM     18  C1  ZIN A   1      18.239   6.867  15.511  0.00  0.00     0.310 C 
ATOM     19  C27 ZIN A   1      19.321   5.075  14.296  0.00  0.00     0.291 C 
ATOM     20  O7  ZIN A   1      16.948   2.694  11.313  0.00  0.00    -0.238 OA
ENDBRANCH  11  12
ENDBRANCH   1  11
BRANCH  10  21
ATOM     21  C19 ZIN A   1      18.501  -0.391  10.131  0.00  0.00     0.138 A 
ATOM     22  N25 ZIN A   1      19.564  -0.755   9.430  0.00  0.00    -0.241 NA
ATOM     23  C24 ZIN A   1      19.524  -0.857   8.116  0.00  0.00     0.142 A 
ATOM     24  C22 ZIN A   1      18.365  -0.574   7.418  0.00  0.00     0.051 A 
ATOM     25  C21 ZIN A   1      17.230  -0.183   8.115  0.00  0.00     0.029 A 
ATOM     26 Cl23 ZIN A   1      18.329  -0.706   5.688  0.00  0.00    -0.083 Cl
ATOM     27  C20 ZIN A   1      17.302  -0.091   9.495  0.00  0.00     0.053 A 
ENDBRANCH  10  21
TORSDOF 3
ENDMDL
MODEL 4
REMARK VINA RESULT:      -8.3      3.115      7.305
REMARK  3 active torsions:
REMARK  status: ('A' for Active; 'I' for Inactive)
REMARK       I    between atoms: N5_5  and  C6_6 
REMARK    1  A    between atoms: C6_6  and  O8_8 
REMARK    2  A    between atoms: O8_8  and  C9_9 
REMARK    3  A    between atoms: N18_18  and  C19_19 
ROOT
ATOM      1  C9  ZIN A   1      19.008  -0.916  10.206  0.00  0.00     0.195 A 
ATOM      2  C10 ZIN A   1      18.942  -1.647   9.087  0.00  0.00     0.142 A 
ATOM      3  N11 ZIN A   1      19.339  -1.470   7.754  0.00  0.00    -0.253 NA
ATOM      4  C12 ZIN A   1      19.090  -2.478   6.872  0.00  0.00     0.136 A 
ATOM      5  C13 ZIN A   1      18.476  -3.622   7.269  0.00  0.00     0.136 A 
ATOM      6  N14 ZIN A   1      18.085  -3.830   8.519  0.00  0.00    -0.252 NA
ATOM      7  C15 ZIN A   1      18.278  -2.922   9.447  0.00  0.00     0.158 A 
ATOM      8  C16 ZIN A   1      17.989  -2.809  10.878  0.00  0.00     0.286 A 
ATOM      9  O17 ZIN A   1      17.442  -3.645  11.578  0.00  0.00    -0.265 OA
ATOM     10  N18 ZIN A   1      18.449  -1.605  11.274  0.00  0.00    -0.237 N 
ENDROOT
BRANCH   1  11
ATOM     11  O8  ZIN A   1      19.555   0.328  10.288  0.00  0.00    -0.241 OA
BRANCH  11  12
ATOM     12  C6  ZIN A   1      18.767   1.366   9.955  0.00  0.00     0.369 C 
ATOM     13  N5  ZIN A   1      18.899   2.546  10.593  0.00  0.00    -0.324 N 
ATOM     14  C4  ZIN A   1      18.128   3.724  10.170  0.00  0.00     0.158 C 
ATOM     15  C26 ZIN A   1      19.821   2.689  11.730  0.00  0.00     0.158 C 
ATOM     16  C3  ZIN A   1      17.431   4.316  11.400  0.00  0.00     0.291 C 
ATOM     17  N2  ZIN A   1      18.428   4.571  12.448  0.00  0.00     0.087 N 
ATOM     18  C1  ZIN A   1      17.830   5.296  13.577  0.00  0.00     0.310 C 
ATOM     19  C27 ZIN A   1      19.057   3.323  12.899  0.00  0.00     0.291 C 
ATOM     20  O7  ZIN A   1      17.934   1.240   9.078  0.00  0.00    -0.238 OA
ENDBRANCH  11  12
ENDBRANCH   1  11
BRANCH  10  21
ATOM     21  C19 ZIN A   1      18.365  -1.113  12.578  0.00  0.00     0.138 A 
ATOM     22  N25 ZIN A   1      17.458  -0.195  12.875  0.00  0.00    -0.241 NA
ATOM     23  C24 ZIN A   1      17.342   0.293  14.095  0.00  0.00     0.142 A 
ATOM     24  C22 ZIN A   1      18.176  -0.134  15.111  0.00  0.00     0.051 A 
ATOM     25  C21 ZIN A   1      19.144  -1.092  14.839  0.00  0.00     0.029 A 
ATOM     26 Cl23 ZIN A   1      18.017   0.521  16.711  0.00  0.00    -0.083 Cl
ATOM     27  C20 ZIN A   1      19.237  -1.587  13.550  0.00  0.00     0.053 A 
ENDBRANCH  10  21
TORSDOF 3
ENDMDL
MODEL 5
REMARK VINA RESULT:      -8.3      2.786      6.829
REMARK  3 active torsions:
REMARK  status: ('A' for Active; 'I' for Inactive)
REMARK       I    between atoms: N5_5  and  C6_6 
REMARK    1  A    between atoms: C6_6  and  O8_8 
REMARK    2  A    between atoms: O8_8  and  C9_9 
REMARK    3  A    between atoms: N18_18  and  C19_19 
ROOT
ATOM      1  C9  ZIN A   1      18.938   1.126  10.498  0.00  0.00     0.195 A 
ATOM      2  C10 ZIN A   1      18.913   0.993   9.166  0.00  0.00     0.142 A 
ATOM      3  N11 ZIN A   1      19.110   1.849   8.073  0.00  0.00    -0.253 NA
ATOM      4  C12 ZIN A   1      18.997   1.326   6.820  0.00  0.00     0.136 A 
ATOM      5  C13 ZIN A   1      18.705   0.013   6.632  0.00  0.00     0.136 A 
ATOM      6  N14 ZIN A   1      18.512  -0.831   7.637  0.00  0.00    -0.252 NA
ATOM      7  C15 ZIN A   1      18.598  -0.428   8.883  0.00  0.00     0.158 A 
ATOM      8  C16 ZIN A   1      18.452  -1.054  10.199  0.00  0.00     0.286 A 
ATOM      9  O17 ZIN A   1      18.189  -2.223  10.423  0.00  0.00    -0.265 OA
ATOM     10  N18 ZIN A   1      18.670  -0.088  11.115  0.00  0.00    -0.237 N 
ENDROOT
BRANCH   1  11
ATOM     11  O8  ZIN A   1      19.196   2.289  11.156  0.00  0.00    -0.241 OA
BRANCH  11  12
ATOM     12  C6  ZIN A   1      18.152   3.106  11.388  0.00  0.00     0.369 C 
ATOM     13  N5  ZIN A   1      18.337   4.266  12.048  0.00  0.00    -0.324 N 
ATOM     14  C4  ZIN A   1      17.235   5.224  12.214  0.00  0.00     0.158 C 
ATOM     15  C26 ZIN A   1      19.649   4.607  12.620  0.00  0.00     0.158 C 
ATOM     16  C3  ZIN A   1      17.132   5.595  13.698  0.00  0.00     0.291 C 
ATOM     17  N2  ZIN A   1      18.441   6.066  14.172  0.00  0.00     0.087 N 
ATOM     18  C1  ZIN A   1      18.345   6.593  15.540  0.00  0.00     0.310 C 
ATOM     19  C27 ZIN A   1      19.451   5.004  14.087  0.00  0.00     0.291 C 
ATOM     20  O7  ZIN A   1      17.041   2.796  11.002  0.00  0.00    -0.238 OA
ENDBRANCH  11  12
ENDBRANCH   1  11
BRANCH  10  21
ATOM     21  C19 ZIN A   1      18.623  -0.281  12.497  0.00  0.00     0.138 A 
ATOM     22  N25 ZIN A   1      19.649  -0.848  13.115  0.00  0.00    -0.241 NA
ATOM     23  C24 ZIN A   1      19.647  -1.045  14.419  0.00  0.00     0.142 A 
ATOM     24  C22 ZIN A   1      18.562  -0.672  15.191  0.00  0.00     0.051 A 
ATOM     25  C21 ZIN A   1      17.466  -0.080  14.580  0.00  0.00     0.029 A 
ATOM     26 Cl23 ZIN A   1      18.571  -0.943  16.905  0.00  0.00    -0.083 Cl
ATOM     27  C20 ZIN A   1      17.500   0.118  13.210  0.00  0.00     0.053 A 
ENDBRANCH  10  21
TORSDOF 3
ENDMDL
MODEL 6
REMARK VINA RESULT:      -8.3      2.581      3.819
REMARK  3 active torsions:
REMARK  status: ('A' for Active; 'I' for Inactive)
REMARK       I    between atoms: N5_5  and  C6_6 
REMARK    1  A    between atoms: C6_6  and  O8_8 
REMARK    2  A    between atoms: O8_8  and  C9_9 
REMARK    3  A    between atoms: N18_18  and  C19_19 
ROOT
ATOM      1  C9  ZIN A   1      18.398   0.362  14.623  0.00  0.00     0.195 A 
ATOM      2  C10 ZIN A   1      18.477   0.454  15.957  0.00  0.00     0.142 A 
ATOM      3  N11 ZIN A   1      18.266  -0.422  17.031  0.00  0.00    -0.253 NA
ATOM      4  C12 ZIN A   1      18.453   0.057  18.293  0.00  0.00     0.136 A 
ATOM      5  C13 ZIN A   1      18.834   1.343  18.507  0.00  0.00     0.136 A 
ATOM      6  N14 ZIN A   1      19.045   2.203  17.520  0.00  0.00    -0.252 NA
ATOM      7  C15 ZIN A   1      18.892   1.842  16.267  0.00  0.00     0.158 A 
ATOM      8  C16 ZIN A   1      19.030   2.498  14.965  0.00  0.00     0.286 A 
ATOM      9  O17 ZIN A   1      19.357   3.656  14.763  0.00  0.00    -0.265 OA
ATOM     10  N18 ZIN A   1      18.732   1.572  14.030  0.00  0.00    -0.237 N 
ENDROOT
BRANCH   1  11
ATOM     11  O8  ZIN A   1      18.047  -0.763  13.943  0.00  0.00    -0.241 OA
BRANCH  11  12
ATOM     12  C6  ZIN A   1      19.043  -1.583  13.560  0.00  0.00     0.369 C 
ATOM     13  N5  ZIN A   1      18.981  -2.209  12.368  0.00  0.00    -0.324 N 
ATOM     14  C4  ZIN A   1      20.107  -3.019  11.882  0.00  0.00     0.158 C 
ATOM     15  C26 ZIN A   1      17.784  -2.099  11.520  0.00  0.00     0.158 C 
ATOM     16  C3  ZIN A   1      19.573  -4.394  11.465  0.00  0.00     0.291 C 
ATOM     17  N2  ZIN A   1      18.475  -4.218  10.506  0.00  0.00     0.087 N 
ATOM     18  C1  ZIN A   1      18.050  -5.510   9.951  0.00  0.00     0.310 C 
ATOM     19  C27 ZIN A   1      17.342  -3.510  11.117  0.00  0.00     0.291 C 
ATOM     20  O7  ZIN A   1      19.999  -1.759  14.290  0.00  0.00    -0.238 OA
ENDBRANCH  11  12
ENDBRANCH   1  11
BRANCH  10  21
ATOM     21  C19 ZIN A   1      18.746   1.803  12.653  0.00  0.00     0.138 A 
ATOM     22  N25 ZIN A   1      19.712   1.282  11.911  0.00  0.00    -0.241 NA
ATOM     23  C24 ZIN A   1      19.760   1.470  10.607  0.00  0.00     0.142 A 
ATOM     24  C22 ZIN A   1      18.803   2.234   9.965  0.00  0.00     0.051 A 
ATOM     25  C21 ZIN A   1      17.777   2.802  10.708  0.00  0.00     0.029 A 
ATOM     26 Cl23 ZIN A   1      18.883   2.480   8.249  0.00  0.00    -0.083 Cl
ATOM     27  C20 ZIN A   1      17.751   2.581  12.075  0.00  0.00     0.053 A 
ENDBRANCH  10  21
TORSDOF 3
ENDMDL
MODEL 7
REMARK VINA RESULT:      -8.3      2.436      3.718
REMARK  3 active torsions:
REMARK  status: ('A' for Active; 'I' for Inactive)
REMARK       I    between atoms: N5_5  and  C6_6 
REMARK    1  A    between atoms: C6_6  and  O8_8 
REMARK    2  A    between atoms: O8_8  and  C9_9 
REMARK    3  A    between atoms: N18_18  and  C19_19 
ROOT
ATOM      1  C9  ZIN A   1      18.839  -0.128  12.378  0.00  0.00     0.195 A 
ATOM      2  C10 ZIN A   1      18.810   0.305  13.644  0.00  0.00     0.142 A 
ATOM      3  N11 ZIN A   1      19.019  -0.276  14.903  0.00  0.00    -0.253 NA
ATOM      4  C12 ZIN A   1      18.894   0.518  16.003  0.00  0.00     0.136 A 
ATOM      5  C13 ZIN A   1      18.578   1.834  15.888  0.00  0.00     0.136 A 
ATOM      6  N14 ZIN A   1      18.373   2.422  14.717  0.00  0.00    -0.252 NA
ATOM      7  C15 ZIN A   1      18.468   1.747  13.596  0.00  0.00     0.158 A 
ATOM      8  C16 ZIN A   1      18.314   2.053  12.172  0.00  0.00     0.286 A 
ATOM      9  O17 ZIN A   1      18.030   3.135  11.687  0.00  0.00    -0.265 OA
ATOM     10  N18 ZIN A   1      18.551   0.908  11.500  0.00  0.00    -0.237 N 
ENDROOT
BRANCH   1  11
ATOM     11  O8  ZIN A   1      19.120  -1.406  12.002  0.00  0.00    -0.241 OA
BRANCH  11  12
ATOM     12  C6  ZIN A   1      18.079  -2.251  11.884  0.00  0.00     0.369 C 
ATOM     13  N5  ZIN A   1      18.285  -3.522  11.482  0.00  0.00    -0.324 N 
ATOM     14  C4  ZIN A   1      17.181  -4.492  11.454  0.00  0.00     0.158 C 
ATOM     15  C26 ZIN A   1      19.620  -3.973  11.062  0.00  0.00     0.158 C 
ATOM     16  C3  ZIN A   1      17.151  -5.155  10.073  0.00  0.00     0.291 C 
ATOM     17  N2  ZIN A   1      18.476  -5.713   9.774  0.00  0.00     0.087 N 
ATOM     18  C1  ZIN A   1      18.445  -6.506   8.537  0.00  0.00     0.310 C 
ATOM     19  C27 ZIN A   1      19.494  -4.657   9.696  0.00  0.00     0.291 C 
ATOM     20  O7  ZIN A   1      16.954  -1.870  12.140  0.00  0.00    -0.238 OA
ENDBRANCH  11  12
ENDBRANCH   1  11
BRANCH  10  21
ATOM     21  C19 ZIN A   1      18.504   0.779  10.110  0.00  0.00     0.138 A 
ATOM     22  N25 ZIN A   1      19.521   1.207   9.377  0.00  0.00    -0.241 NA
ATOM     23  C24 ZIN A   1      19.518   1.100   8.063  0.00  0.00     0.142 A 
ATOM     24  C22 ZIN A   1      18.441   0.544   7.399  0.00  0.00     0.051 A 
ATOM     25  C21 ZIN A   1      17.353   0.089   8.131  0.00  0.00     0.029 A 
ATOM     26 Cl23 ZIN A   1      18.449   0.416   5.668  0.00  0.00    -0.083 Cl
ATOM     27  C20 ZIN A   1      17.388   0.210   9.510  0.00  0.00     0.053 A 
ENDBRANCH  10  21
TORSDOF 3
ENDMDL
MODEL 8
REMARK VINA RESULT:      -8.2      3.798      8.052
REMARK  3 active torsions:
REMARK  status: ('A' for Active; 'I' for Inactive)
REMARK       I    between atoms: N5_5  and  C6_6 
REMARK    1  A    between atoms: C6_6  and  O8_8 
REMARK    2  A    between atoms: O8_8  and  C9_9 
REMARK    3  A    between atoms: N18_18  and  C19_19 
ROOT
ATOM      1  C9  ZIN A   1      18.323  -3.270   9.414  0.00  0.00     0.195 A 
ATOM      2  C10 ZIN A   1      17.998  -4.317   8.645  0.00  0.00     0.142 A 
ATOM      3  N11 ZIN A   1      18.363  -4.769   7.369  0.00  0.00    -0.253 NA
ATOM      4  C12 ZIN A   1      17.797  -5.920   6.911  0.00  0.00     0.136 A 
ATOM      5  C13 ZIN A   1      16.905  -6.613   7.666  0.00  0.00     0.136 A 
ATOM      6  N14 ZIN A   1      16.533  -6.220   8.877  0.00  0.00    -0.252 NA
ATOM      7  C15 ZIN A   1      17.020  -5.125   9.410  0.00  0.00     0.158 A 
ATOM      8  C16 ZIN A   1      16.844  -4.409  10.677  0.00  0.00     0.286 A 
ATOM      9  O17 ZIN A   1      16.119  -4.734  11.602  0.00  0.00    -0.265 OA
ATOM     10  N18 ZIN A   1      17.645  -3.325  10.624  0.00  0.00    -0.237 N 
ENDROOT
BRANCH   1  11
ATOM     11  O8  ZIN A   1      19.202  -2.293   9.062  0.00  0.00    -0.241 OA
BRANCH  11  12
ATOM     12  C6  ZIN A   1      18.682  -1.129   8.631  0.00  0.00     0.369 C 
ATOM     13  N5  ZIN A   1      19.207   0.040   9.048  0.00  0.00    -0.324 N 
ATOM     14  C4  ZIN A   1      18.728   1.319   8.503  0.00  0.00     0.158 C 
ATOM     15  C26 ZIN A   1      20.275   0.069  10.059  0.00  0.00     0.158 C 
ATOM     16  C3  ZIN A   1      18.383   2.247   9.673  0.00  0.00     0.291 C 
ATOM     17  N2  ZIN A   1      19.541   2.349  10.571  0.00  0.00     0.087 N 
ATOM     18  C1  ZIN A   1      19.312   3.361  11.611  0.00  0.00     0.310 C 
ATOM     19  C27 ZIN A   1      19.869   1.047  11.167  0.00  0.00     0.291 C 
ATOM     20  O7  ZIN A   1      17.738  -1.132   7.864  0.00  0.00    -0.238 OA
ENDBRANCH  11  12
ENDBRANCH   1  11
BRANCH  10  21
ATOM     21  C19 ZIN A   1      17.767  -2.379  11.644  0.00  0.00     0.138 A 
ATOM     22  N25 ZIN A   1      16.953  -1.335  11.672  0.00  0.00    -0.241 NA
ATOM     23  C24 ZIN A   1      17.031  -0.422  12.620  0.00  0.00     0.142 A 
ATOM     24  C22 ZIN A   1      17.980  -0.518  13.620  0.00  0.00     0.051 A 
ATOM     25  C21 ZIN A   1      18.856  -1.595  13.624  0.00  0.00     0.029 A 
ATOM     26 Cl23 ZIN A   1      18.076   0.695  14.858  0.00  0.00    -0.083 Cl
ATOM     27  C20 ZIN A   1      18.745  -2.540  12.618  0.00  0.00     0.053 A 
ENDBRANCH  10  21
TORSDOF 3
ENDMDL
MODEL 9
REMARK VINA RESULT:      -8.2      2.918      5.062
REMARK  3 active torsions:
REMARK  status: ('A' for Active; 'I' for Inactive)
REMARK       I    between atoms: N5_5  and  C6_6 
REMARK    1  A    between atoms: C6_6  and  O8_8 
REMARK    2  A    between atoms: O8_8  and  C9_9 
REMARK    3  A    between atoms: N18_18  and  C19_19 
ROOT
ATOM      1  C9  ZIN A   1      19.281   0.803  11.320  0.00  0.00     0.195 A 
ATOM      2  C10 ZIN A   1      19.322   2.016  11.886  0.00  0.00     0.142 A 
ATOM      3  N11 ZIN A   1      19.746   3.290  11.484  0.00  0.00    -0.253 NA
ATOM      4  C12 ZIN A   1      19.624   4.316  12.372  0.00  0.00     0.136 A 
ATOM      5  C13 ZIN A   1      19.105   4.114  13.611  0.00  0.00     0.136 A 
ATOM      6  N14 ZIN A   1      18.691   2.925  14.030  0.00  0.00    -0.252 NA
ATOM      7  C15 ZIN A   1      18.766   1.871  13.252  0.00  0.00     0.158 A 
ATOM      8  C16 ZIN A   1      18.419   0.453  13.373  0.00  0.00     0.286 A 
ATOM      9  O17 ZIN A   1      17.930  -0.096  14.345  0.00  0.00    -0.265 OA
ATOM     10  N18 ZIN A   1      18.740  -0.127  12.198  0.00  0.00    -0.237 N 
ENDROOT
BRANCH   1  11
ATOM     11  O8  ZIN A   1      19.705   0.521  10.058  0.00  0.00    -0.241 OA
BRANCH  11  12
ATOM     12  C6  ZIN A   1      18.826   0.722   9.059  0.00  0.00     0.369 C 
ATOM     13  N5  ZIN A   1      18.480  -0.299   8.249  0.00  0.00    -0.324 N 
ATOM     14  C4  ZIN A   1      17.440  -0.130   7.225  0.00  0.00     0.158 C 
ATOM     15  C26 ZIN A   1      19.133  -1.611   8.370  0.00  0.00     0.158 C 
ATOM     16  C3  ZIN A   1      17.996  -0.617   5.882  0.00  0.00     0.291 C 
ATOM     17  N2  ZIN A   1      18.502  -1.987   6.034  0.00  0.00     0.087 N 
ATOM     18  C1  ZIN A   1      18.886  -2.553   4.733  0.00  0.00     0.310 C 
ATOM     19  C27 ZIN A   1      19.622  -2.040   6.982  0.00  0.00     0.291 C 
ATOM     20  O7  ZIN A   1      18.343   1.825   8.886  0.00  0.00    -0.238 OA
ENDBRANCH  11  12
ENDBRANCH   1  11
BRANCH  10  21
ATOM     21  C19 ZIN A   1      18.562  -1.481  11.908  0.00  0.00     0.138 A 
ATOM     22  N25 ZIN A   1      17.379  -1.914  11.501  0.00  0.00    -0.241 NA
ATOM     23  C24 ZIN A   1      17.169  -3.184  11.212  0.00  0.00     0.142 A 
ATOM     24  C22 ZIN A   1      18.183  -4.115  11.334  0.00  0.00     0.051 A 
ATOM     25  C21 ZIN A   1      19.437  -3.702  11.763  0.00  0.00     0.029 A 
ATOM     26 Cl23 ZIN A   1      17.891  -5.784  10.957  0.00  0.00    -0.083 Cl
ATOM     27  C20 ZIN A   1      19.627  -2.362  12.054  0.00  0.00     0.053 A 
ENDBRANCH  10  21
TORSDOF 3
ENDMDL
