MODEL 1
REMARK VINA RESULT:      -7.6      0.000      0.000
REMARK  3 active torsions:
REMARK  status: ('A' for Active; 'I' for Inactive)
REMARK    1  A    between atoms: C2_2  and  C4_4 
REMARK    2  A    between atoms: C9_8  and  C10_9 
REMARK    3  A    between atoms: C10_9  and  C12_11 
ROOT
ATOM      1  C4  ZIN A   1      19.028   0.134  15.894  0.00  0.00     0.138 C 
ATOM      2  C6  ZIN A   1      18.778   1.631  15.608  0.00  0.00     0.042 C 
ATOM      3  C7  ZIN A   1      17.751   1.566  14.458  0.00  0.00     0.130 C 
ATOM      4  N8  ZIN A   1      17.983   0.273  13.792  0.00  0.00    -0.346 N 
ATOM      5  C9  ZIN A   1      17.706  -0.384  12.608  0.00  0.00     0.086 A 
ATOM      6  C18 ZIN A   1      18.265  -1.643  12.689  0.00  0.00     0.036 A 
ATOM      7  C19 ZIN A   1      18.885  -1.736  13.936  0.00  0.00     0.028 A 
ATOM      8  C20 ZIN A   1      18.702  -0.560  14.587  0.00  0.00     0.026 A 
ENDROOT
BRANCH   5   9
ATOM      9  C10 ZIN A   1      16.955   0.158  11.474  0.00  0.00     0.208 C 
ATOM     10  O11 ZIN A   1      15.740   0.084  11.456  0.00  0.00    -0.285 OA
BRANCH   9  11
ATOM     11  C12 ZIN A   1      17.672   0.797  10.350  0.00  0.00     0.016 A 
ATOM     12  C17 ZIN A   1      17.813   0.125   9.133  0.00  0.00     0.015 A 
ATOM     13  C16 ZIN A   1      18.479   0.728   8.087  0.00  0.00     0.001 A 
ATOM     14  C15 ZIN A   1      19.016   1.994   8.245  0.00  0.00     0.000 A 
ATOM     15  C14 ZIN A   1      18.885   2.664   9.448  0.00  0.00     0.001 A 
ATOM     16  C13 ZIN A   1      18.217   2.074  10.500  0.00  0.00     0.015 A 
ENDBRANCH   9  11
ENDBRANCH   5   9
BRANCH   1  17
ATOM     17  C2  ZIN A   1      18.115  -0.352  16.990  0.00  0.00     0.183 C 
ATOM     18  O1  ZIN A   1      17.087  -0.945  16.710  0.00  0.00    -0.647 OA
ATOM     19  O3  ZIN A   1      18.406  -0.156  18.158  0.00  0.00    -0.647 OA
ENDBRANCH   1  17
TORSDOF 3
ENDMDL
MODEL 2
REMARK VINA RESULT:      -7.3      4.018      6.873
REMARK  3 active torsions:
REMARK  status: ('A' for Active; 'I' for Inactive)
REMARK    1  A    between atoms: C2_2  and  C4_4 
REMARK    2  A    between atoms: C9_8  and  C10_9 
REMARK    3  A    between atoms: C10_9  and  C12_11 
ROOT
ATOM      1  C4  ZIN A   1      18.283  -0.545   6.274  0.00  0.00     0.138 C 
ATOM      2  C6  ZIN A   1      18.520   0.979   6.195  0.00  0.00     0.042 C 
ATOM      3  C7  ZIN A   1      19.347   1.238   7.471  0.00  0.00     0.130 C 
ATOM      4  N8  ZIN A   1      18.980   0.161   8.406  0.00  0.00    -0.346 N 
ATOM      5  C9  ZIN A   1      19.047  -0.157   9.750  0.00  0.00     0.086 A 
ATOM      6  C18 ZIN A   1      18.478  -1.403   9.913  0.00  0.00     0.036 A 
ATOM      7  C19 ZIN A   1      18.064  -1.832   8.651  0.00  0.00     0.028 A 
ATOM      8  C20 ZIN A   1      18.378  -0.865   7.753  0.00  0.00     0.026 A 
ENDROOT
BRANCH   5   9
ATOM      9  C10 ZIN A   1      19.619   0.679  10.808  0.00  0.00     0.208 C 
ATOM     10  O11 ZIN A   1      20.530   0.253  11.494  0.00  0.00    -0.285 OA
BRANCH   9  11
ATOM     11  C12 ZIN A   1      19.090   2.039  11.044  0.00  0.00     0.016 A 
ATOM     12  C17 ZIN A   1      17.831   2.397  10.556  0.00  0.00     0.015 A 
ATOM     13  C16 ZIN A   1      17.341   3.666  10.784  0.00  0.00     0.001 A 
ATOM     14  C15 ZIN A   1      18.100   4.587  11.485  0.00  0.00     0.000 A 
ATOM     15  C14 ZIN A   1      19.350   4.241  11.967  0.00  0.00     0.001 A 
ATOM     16  C13 ZIN A   1      19.849   2.974  11.751  0.00  0.00     0.015 A 
ENDBRANCH   9  11
ENDBRANCH   5   9
BRANCH   1  17
ATOM     17  C2  ZIN A   1      19.348  -1.284   5.506  0.00  0.00     0.183 C 
ATOM     18  O1  ZIN A   1      19.625  -2.435   5.800  0.00  0.00    -0.647 OA
ATOM     19  O3  ZIN A   1      19.932  -0.733   4.588  0.00  0.00    -0.647 OA
ENDBRANCH   1  17
TORSDOF 3
ENDMDL
MODEL 3
REMARK VINA RESULT:      -7.3      2.737      3.985
REMARK  3 active torsions:
REMARK  status: ('A' for Active; 'I' for Inactive)
REMARK    1  A    between atoms: C2_2  and  C4_4 
REMARK    2  A    between atoms: C9_8  and  C10_9 
REMARK    3  A    between atoms: C10_9  and  C12_11 
ROOT
ATOM      1  C4  ZIN A   1      18.219   0.469  16.664  0.00  0.00     0.138 C 
ATOM      2  C6  ZIN A   1      18.465  -1.054  16.715  0.00  0.00     0.042 C 
ATOM      3  C7  ZIN A   1      19.310  -1.281  15.444  0.00  0.00     0.130 C 
ATOM      4  N8  ZIN A   1      18.947  -0.188  14.527  0.00  0.00    -0.346 N 
ATOM      5  C9  ZIN A   1      19.029   0.158  13.191  0.00  0.00     0.086 A 
ATOM      6  C18 ZIN A   1      18.453   1.404  13.047  0.00  0.00     0.036 A 
ATOM      7  C19 ZIN A   1      18.021   1.804  14.312  0.00  0.00     0.028 A 
ATOM      8  C20 ZIN A   1      18.330   0.821  15.194  0.00  0.00     0.026 A 
ENDROOT
BRANCH   5   9
ATOM      9  C10 ZIN A   1      19.619  -0.651  12.123  0.00  0.00     0.208 C 
ATOM     10  O11 ZIN A   1      20.508  -0.191  11.431  0.00  0.00    -0.285 OA
BRANCH   9  11
ATOM     11  C12 ZIN A   1      19.135  -2.028  11.885  0.00  0.00     0.016 A 
ATOM     12  C17 ZIN A   1      20.047  -3.075  11.727  0.00  0.00     0.015 A 
ATOM     13  C16 ZIN A   1      19.589  -4.358  11.511  0.00  0.00     0.001 A 
ATOM     14  C15 ZIN A   1      18.229  -4.606  11.439  0.00  0.00     0.000 A 
ATOM     15  C14 ZIN A   1      17.321  -3.574  11.590  0.00  0.00     0.001 A 
ATOM     16  C13 ZIN A   1      17.765  -2.288  11.812  0.00  0.00     0.015 A 
ENDBRANCH   9  11
ENDBRANCH   5   9
BRANCH   1  17
ATOM     17  C2  ZIN A   1      19.270   1.200  17.461  0.00  0.00     0.183 C 
ATOM     18  O1  ZIN A   1      19.822   0.646  18.396  0.00  0.00    -0.647 OA
ATOM     19  O3  ZIN A   1      19.570   2.345  17.168  0.00  0.00    -0.647 OA
ENDBRANCH   1  17
TORSDOF 3
ENDMDL
MODEL 4
REMARK VINA RESULT:      -7.3      2.549      6.945
REMARK  3 active torsions:
REMARK  status: ('A' for Active; 'I' for Inactive)
REMARK    1  A    between atoms: C2_2  and  C4_4 
REMARK    2  A    between atoms: C9_8  and  C10_9 
REMARK    3  A    between atoms: C10_9  and  C12_11 
ROOT
ATOM      1  C4  ZIN A   1      19.142  -0.263   7.168  0.00  0.00     0.138 C 
ATOM      2  C6  ZIN A   1      19.048  -1.721   7.668  0.00  0.00     0.042 C 
ATOM      3  C7  ZIN A   1      17.989  -1.605   8.785  0.00  0.00     0.130 C 
ATOM      4  N8  ZIN A   1      18.062  -0.212   9.256  0.00  0.00    -0.346 N 
ATOM      5  C9  ZIN A   1      17.683   0.575  10.328  0.00  0.00     0.086 A 
ATOM      6  C18 ZIN A   1      18.105   1.863  10.069  0.00  0.00     0.036 A 
ATOM      7  C19 ZIN A   1      18.745   1.843   8.829  0.00  0.00     0.028 A 
ATOM      8  C20 ZIN A   1      18.707   0.572   8.356  0.00  0.00     0.026 A 
ENDROOT
BRANCH   5   9
ATOM      9  C10 ZIN A   1      16.965   0.122  11.521  0.00  0.00     0.208 C 
ATOM     10  O11 ZIN A   1      15.748   0.096  11.527  0.00  0.00    -0.285 OA
BRANCH   9  11
ATOM     11  C12 ZIN A   1      17.718  -0.304  12.720  0.00  0.00     0.016 A 
ATOM     12  C17 ZIN A   1      17.523   0.347  13.941  0.00  0.00     0.015 A 
ATOM     13  C16 ZIN A   1      18.225  -0.059  15.056  0.00  0.00     0.001 A 
ATOM     14  C15 ZIN A   1      19.130  -1.102  14.965  0.00  0.00     0.000 A 
ATOM     15  C14 ZIN A   1      19.332  -1.749  13.759  0.00  0.00     0.001 A 
ATOM     16  C13 ZIN A   1      18.633  -1.356  12.637  0.00  0.00     0.015 A 
ENDBRANCH   9  11
ENDBRANCH   5   9
BRANCH   1  17
ATOM     17  C2  ZIN A   1      18.211  -0.045   6.002  0.00  0.00     0.183 C 
ATOM     18  O1  ZIN A   1      17.027   0.171   6.199  0.00  0.00    -0.647 OA
ATOM     19  O3  ZIN A   1      18.643  -0.081   4.862  0.00  0.00    -0.647 OA
ENDBRANCH   1  17
TORSDOF 3
ENDMDL
MODEL 5
REMARK VINA RESULT:      -7.2      3.524      7.237
REMARK  3 active torsions:
REMARK  status: ('A' for Active; 'I' for Inactive)
REMARK    1  A    between atoms: C2_2  and  C4_4 
REMARK    2  A    between atoms: C9_8  and  C10_9 
REMARK    3  A    between atoms: C10_9  and  C12_11 
ROOT
ATOM      1  C4  ZIN A   1      18.361  -0.808   6.534  0.00  0.00     0.138 C 
ATOM      2  C6  ZIN A   1      18.637   0.684   6.818  0.00  0.00     0.042 C 
ATOM      3  C7  ZIN A   1      19.542   0.607   8.066  0.00  0.00     0.130 C 
ATOM      4  N8  ZIN A   1      19.197  -0.662   8.728  0.00  0.00    -0.346 N 
ATOM      5  C9  ZIN A   1      19.331  -1.303   9.945  0.00  0.00     0.086 A 
ATOM      6  C18 ZIN A   1      18.735  -2.543   9.831  0.00  0.00     0.036 A 
ATOM      7  C19 ZIN A   1      18.239  -2.641   8.530  0.00  0.00     0.028 A 
ATOM      8  C20 ZIN A   1      18.530  -1.486   7.880  0.00  0.00     0.026 A 
ENDROOT
BRANCH   5   9
ATOM      9  C10 ZIN A   1      19.985  -0.764  11.139  0.00  0.00     0.208 C 
ATOM     10  O11 ZIN A   1      21.154  -0.428  11.093  0.00  0.00    -0.285 OA
BRANCH   9  11
ATOM     11  C12 ZIN A   1      19.226  -0.627  12.400  0.00  0.00     0.016 A 
ATOM     12  C17 ZIN A   1      18.218   0.334  12.512  0.00  0.00     0.015 A 
ATOM     13  C16 ZIN A   1      17.511   0.453  13.690  0.00  0.00     0.001 A 
ATOM     14  C15 ZIN A   1      17.804  -0.371  14.763  0.00  0.00     0.000 A 
ATOM     15  C14 ZIN A   1      18.803  -1.322  14.660  0.00  0.00     0.001 A 
ATOM     16  C13 ZIN A   1      19.515  -1.455  13.487  0.00  0.00     0.015 A 
ENDBRANCH   9  11
ENDBRANCH   5   9
BRANCH   1  17
ATOM     17  C2  ZIN A   1      19.359  -1.350   5.544  0.00  0.00     0.183 C 
ATOM     18  O1  ZIN A   1      19.824  -0.620   4.684  0.00  0.00    -0.647 OA
ATOM     19  O3  ZIN A   1      19.705  -2.518   5.603  0.00  0.00    -0.647 OA
ENDBRANCH   1  17
TORSDOF 3
ENDMDL
MODEL 6
REMARK VINA RESULT:      -7.0      4.111      5.972
REMARK  3 active torsions:
REMARK  status: ('A' for Active; 'I' for Inactive)
REMARK    1  A    between atoms: C2_2  and  C4_4 
REMARK    2  A    between atoms: C9_8  and  C10_9 
REMARK    3  A    between atoms: C10_9  and  C12_11 
ROOT
ATOM      1  C4  ZIN A   1      18.582  -5.923   9.883  0.00  0.00     0.138 C 
ATOM      2  C6  ZIN A   1      17.099  -5.721   9.503  0.00  0.00     0.042 C 
ATOM      3  C7  ZIN A   1      17.018  -4.188   9.347  0.00  0.00     0.130 C 
ATOM      4  N8  ZIN A   1      18.088  -3.646  10.201  0.00  0.00    -0.346 N 
ATOM      5  C9  ZIN A   1      18.485  -2.463  10.795  0.00  0.00     0.086 A 
ATOM      6  C18 ZIN A   1      19.655  -2.713  11.482  0.00  0.00     0.036 A 
ATOM      7  C19 ZIN A   1      19.959  -4.063  11.296  0.00  0.00     0.028 A 
ATOM      8  C20 ZIN A   1      18.992  -4.608  10.516  0.00  0.00     0.026 A 
ENDROOT
BRANCH   5   9
ATOM      9  C10 ZIN A   1      17.789  -1.177  10.711  0.00  0.00     0.208 C 
ATOM     10  O11 ZIN A   1      16.868  -0.932  11.470  0.00  0.00    -0.285 OA
BRANCH   9  11
ATOM     11  C12 ZIN A   1      18.204  -0.176   9.706  0.00  0.00     0.016 A 
ATOM     12  C17 ZIN A   1      18.011  -0.424   8.345  0.00  0.00     0.015 A 
ATOM     13  C16 ZIN A   1      18.396   0.516   7.413  0.00  0.00     0.001 A 
ATOM     14  C15 ZIN A   1      18.982   1.700   7.824  0.00  0.00     0.000 A 
ATOM     15  C14 ZIN A   1      19.181   1.952   9.170  0.00  0.00     0.001 A 
ATOM     16  C13 ZIN A   1      18.796   1.022  10.112  0.00  0.00     0.015 A 
ENDBRANCH   9  11
ENDBRANCH   5   9
BRANCH   1  17
ATOM     17  C2  ZIN A   1      19.409  -6.195   8.652  0.00  0.00     0.183 C 
ATOM     18  O1  ZIN A   1      18.861  -6.441   7.591  0.00  0.00    -0.647 OA
ATOM     19  O3  ZIN A   1      20.626  -6.165   8.717  0.00  0.00    -0.647 OA
ENDBRANCH   1  17
TORSDOF 3
ENDMDL
MODEL 7
REMARK VINA RESULT:      -6.9      2.315      6.391
REMARK  3 active torsions:
REMARK  status: ('A' for Active; 'I' for Inactive)
REMARK    1  A    between atoms: C2_2  and  C4_4 
REMARK    2  A    between atoms: C9_8  and  C10_9 
REMARK    3  A    between atoms: C10_9  and  C12_11 
ROOT
ATOM      1  C4  ZIN A   1      18.185   1.361   8.839  0.00  0.00     0.138 C 
ATOM      2  C6  ZIN A   1      18.877   2.690   9.210  0.00  0.00     0.042 C 
ATOM      3  C7  ZIN A   1      19.315   2.424  10.665  0.00  0.00     0.130 C 
ATOM      4  N8  ZIN A   1      18.379   1.411  11.182  0.00  0.00    -0.346 N 
ATOM      5  C9  ZIN A   1      17.938   0.875  12.377  0.00  0.00     0.086 A 
ATOM      6  C18 ZIN A   1      17.002  -0.094  12.079  0.00  0.00     0.036 A 
ATOM      7  C19 ZIN A   1      16.882  -0.134  10.688  0.00  0.00     0.028 A 
ATOM      8  C20 ZIN A   1      17.727   0.790  10.166  0.00  0.00     0.026 A 
ENDROOT
BRANCH   5   9
ATOM      9  C10 ZIN A   1      18.383   1.265  13.716  0.00  0.00     0.208 C 
ATOM     10  O11 ZIN A   1      18.789   2.394  13.919  0.00  0.00    -0.285 OA
BRANCH   9  11
ATOM     11  C12 ZIN A   1      18.338   0.286  14.824  0.00  0.00     0.016 A 
ATOM     12  C17 ZIN A   1      19.293  -0.730  14.902  0.00  0.00     0.015 A 
ATOM     13  C16 ZIN A   1      19.249  -1.636  15.941  0.00  0.00     0.001 A 
ATOM     14  C15 ZIN A   1      18.254  -1.546  16.899  0.00  0.00     0.000 A 
ATOM     15  C14 ZIN A   1      17.303  -0.544  16.826  0.00  0.00     0.001 A 
ATOM     16  C13 ZIN A   1      17.338   0.371  15.796  0.00  0.00     0.015 A 
ENDBRANCH   9  11
ENDBRANCH   5   9
BRANCH   1  17
ATOM     17  C2  ZIN A   1      19.162   0.426   8.173  0.00  0.00     0.183 C 
ATOM     18  O1  ZIN A   1      19.252   0.403   6.957  0.00  0.00    -0.647 OA
ATOM     19  O3  ZIN A   1      19.865  -0.305   8.850  0.00  0.00    -0.647 OA
ENDBRANCH   1  17
TORSDOF 3
ENDMDL
MODEL 8
REMARK VINA RESULT:      -6.9      3.073      4.291
REMARK  3 active torsions:
REMARK  status: ('A' for Active; 'I' for Inactive)
REMARK    1  A    between atoms: C2_2  and  C4_4 
REMARK    2  A    between atoms: C9_8  and  C10_9 
REMARK    3  A    between atoms: C10_9  and  C12_11 
ROOT
ATOM      1  C4  ZIN A   1      18.027   3.863  13.832  0.00  0.00     0.138 C 
ATOM      2  C6  ZIN A   1      18.184   2.447  14.426  0.00  0.00     0.042 C 
ATOM      3  C7  ZIN A   1      18.943   1.713  13.300  0.00  0.00     0.130 C 
ATOM      4  N8  ZIN A   1      18.596   2.427  12.060  0.00  0.00    -0.346 N 
ATOM      5  C9  ZIN A   1      18.625   2.261  10.688  0.00  0.00     0.086 A 
ATOM      6  C18 ZIN A   1      18.118   3.410  10.117  0.00  0.00     0.036 A 
ATOM      7  C19 ZIN A   1      17.780   4.271  11.163  0.00  0.00     0.028 A 
ATOM      8  C20 ZIN A   1      18.079   3.651  12.332  0.00  0.00     0.026 A 
ENDROOT
BRANCH   5   9
ATOM      9  C10 ZIN A   1      19.107   1.078   9.970  0.00  0.00     0.208 C 
ATOM     10  O11 ZIN A   1      19.897   0.321  10.504  0.00  0.00    -0.285 OA
BRANCH   9  11
ATOM     11  C12 ZIN A   1      18.633   0.803   8.597  0.00  0.00     0.016 A 
ATOM     12  C17 ZIN A   1      19.326   1.317   7.498  0.00  0.00     0.015 A 
ATOM     13  C16 ZIN A   1      18.882   1.052   6.220  0.00  0.00     0.001 A 
ATOM     14  C15 ZIN A   1      17.745   0.288   6.025  0.00  0.00     0.000 A 
ATOM     15  C14 ZIN A   1      17.050  -0.221   7.108  0.00  0.00     0.001 A 
ATOM     16  C13 ZIN A   1      17.487   0.032   8.391  0.00  0.00     0.015 A 
ENDBRANCH   9  11
ENDBRANCH   5   9
BRANCH   1  17
ATOM     17  C2  ZIN A   1      19.162   4.750  14.278  0.00  0.00     0.183 C 
ATOM     18  O1  ZIN A   1      19.354   4.946  15.466  0.00  0.00    -0.647 OA
ATOM     19  O3  ZIN A   1      19.891   5.270  13.449  0.00  0.00    -0.647 OA
ENDBRANCH   1  17
TORSDOF 3
ENDMDL
MODEL 9
REMARK VINA RESULT:      -6.8      2.380      6.446
REMARK  3 active torsions:
REMARK  status: ('A' for Active; 'I' for Inactive)
REMARK    1  A    between atoms: C2_2  and  C4_4 
REMARK    2  A    between atoms: C9_8  and  C10_9 
REMARK    3  A    between atoms: C10_9  and  C12_11 
ROOT
ATOM      1  C4  ZIN A   1      18.524   4.016  10.714  0.00  0.00     0.138 C 
ATOM      2  C6  ZIN A   1      18.505   2.805   9.756  0.00  0.00     0.042 C 
ATOM      3  C7  ZIN A   1      17.841   1.720  10.630  0.00  0.00     0.130 C 
ATOM      4  N8  ZIN A   1      18.130   2.103  12.022  0.00  0.00    -0.346 N 
ATOM      5  C9  ZIN A   1      18.136   1.569  13.297  0.00  0.00     0.086 A 
ATOM      6  C18 ZIN A   1      18.531   2.566  14.165  0.00  0.00     0.036 A 
ATOM      7  C19 ZIN A   1      18.764   3.708  13.397  0.00  0.00     0.028 A 
ATOM      8  C20 ZIN A   1      18.515   3.401  12.099  0.00  0.00     0.026 A 
ENDROOT
BRANCH   5   9
ATOM      9  C10 ZIN A   1      17.788   0.193  13.661  0.00  0.00     0.208 C 
ATOM     10  O11 ZIN A   1      17.312  -0.555  12.827  0.00  0.00    -0.285 OA
BRANCH   9  11
ATOM     11  C12 ZIN A   1      18.016  -0.287  15.041  0.00  0.00     0.016 A 
ATOM     12  C17 ZIN A   1      17.206   0.165  16.084  0.00  0.00     0.015 A 
ATOM     13  C16 ZIN A   1      17.420  -0.291  17.368  0.00  0.00     0.001 A 
ATOM     14  C15 ZIN A   1      18.443  -1.187  17.624  0.00  0.00     0.000 A 
ATOM     15  C14 ZIN A   1      19.253  -1.636  16.596  0.00  0.00     0.001 A 
ATOM     16  C13 ZIN A   1      19.046  -1.191  15.307  0.00  0.00     0.015 A 
ENDBRANCH   9  11
ENDBRANCH   5   9
BRANCH   1  17
ATOM     17  C2  ZIN A   1      17.299   4.870  10.509  0.00  0.00     0.183 C 
ATOM     18  O1  ZIN A   1      16.309   4.693  11.199  0.00  0.00    -0.647 OA
ATOM     19  O3  ZIN A   1      17.298   5.740   9.654  0.00  0.00    -0.647 OA
ENDBRANCH   1  17
TORSDOF 3
ENDMDL
