MODEL 1
REMARK VINA RESULT:     -10.1      0.000      0.000
REMARK  7 active torsions:
REMARK  status: ('A' for Active; 'I' for Inactive)
REMARK    1  A    between atoms: C2_2  and  C4_4 
REMARK    2  A    between atoms: C4_4  and  O6_6 
REMARK    3  A    between atoms: O6_6  and  C7_7 
REMARK    4  A    between atoms: C7_7  and  C8_8 
REMARK    5  A    between atoms: C8_8  and  C10_10 
REMARK    6  A    between atoms: C12_12  and  C14_13 
REMARK    7  A    between atoms: C40_35  and  O42_36 
ROOT
ATOM      1  C10 ZIN A   1      19.156  -0.409  12.193  0.00  0.00     0.160 C 
ATOM      2  O11 ZIN A   1      18.080   0.538  12.049  0.00  0.00    -0.339 OA
ATOM      3  C12 ZIN A   1      18.297   1.157  10.764  0.00  0.00     0.266 C 
ATOM      4  O20 ZIN A   1      19.729   1.324  10.677  0.00  0.00    -0.352 OA
ATOM      5  C21 ZIN A   1      20.271   0.111  11.238  0.00  0.00     0.168 C 
ATOM      6  C23 ZIN A   1      20.398  -0.931  10.093  0.00  0.00     0.041 C 
ATOM      7  C24 ZIN A   1      19.025  -1.611  10.088  0.00  0.00     0.004 C 
ATOM      8  C26 ZIN A   1      18.975  -2.990   9.457  0.00  0.00    -0.001 C 
ATOM      9  C28 ZIN A   1      19.338  -2.897   7.974  0.00  0.00     0.010 C 
ATOM     10  C29 ZIN A   1      19.324  -4.295   7.350  0.00  0.00     0.036 C 
ATOM     11  C30 ZIN A   1      17.963  -4.915   7.612  0.00  0.00    -0.064 A 
ATOM     12  C31 ZIN A   1      17.282  -5.421   6.594  0.00  0.00     0.058 A 
ATOM     13  C32 ZIN A   1      15.951  -6.010   6.804  0.00  0.00     0.172 A 
ATOM     14  O33 ZIN A   1      15.339  -6.511   5.879  0.00  0.00    -0.289 OA
ATOM     15  C34 ZIN A   1      15.376  -5.980   8.160  0.00  0.00     0.052 A 
ATOM     16  C35 ZIN A   1      16.078  -5.476   9.163  0.00  0.00    -0.009 A 
ATOM     17  C36 ZIN A   1      17.456  -4.926   9.023  0.00  0.00     0.004 A 
ATOM     18  C37 ZIN A   1      18.396  -5.804   9.850  0.00  0.00     0.025 C 
ATOM     19  C38 ZIN A   1      17.542  -3.521   9.626  0.00  0.00     0.035 C 
ATOM     20  C40 ZIN A   1      17.133  -3.576  11.095  0.00  0.00     0.124 C 
ATOM     21  C43 ZIN A   1      17.316  -2.215  11.784  0.00  0.00     0.045 C 
ATOM     22  C44 ZIN A   1      18.759  -1.772  11.640  0.00  0.00     0.004 C 
ATOM     23  C45 ZIN A   1      19.691  -2.862  12.173  0.00  0.00     0.019 C 
ENDROOT
BRANCH   1  24
ATOM     24  C8  ZIN A   1      19.635  -0.500  13.619  0.00  0.00     0.188 C 
ATOM     25  O9  ZIN A   1      20.701  -0.024  13.929  0.00  0.00    -0.292 OA
BRANCH  24  26
ATOM     26  C7  ZIN A   1      18.785  -1.187  14.657  0.00  0.00     0.260 C 
BRANCH  26  27
ATOM     27  O6  ZIN A   1      17.789  -0.259  15.159  0.00  0.00    -0.314 OA
BRANCH  27  28
ATOM     28  C4  ZIN A   1      17.544  -0.282  16.479  0.00  0.00     0.262 C 
ATOM     29  O5  ZIN A   1      16.768  -1.087  16.934  0.00  0.00    -0.265 OA
BRANCH  28  30
ATOM     30  C2  ZIN A   1      18.236   0.698  17.390  0.00  0.00     0.077 C 
ATOM     31  C1  ZIN A   1      19.351  -0.018  18.154  0.00  0.00     0.020 C 
ATOM     32  C3  ZIN A   1      18.835   1.833  16.558  0.00  0.00     0.020 C 
ENDBRANCH  28  30
ENDBRANCH  27  28
ENDBRANCH  26  27
ENDBRANCH  24  26
ENDBRANCH   1  24
BRANCH   3  33
ATOM     33  C14 ZIN A   1      17.594   2.514  10.700  0.00  0.00     0.041 C 
ATOM     34  C19 ZIN A   1      18.352   3.436   9.744  0.00  0.00     0.009 C 
ATOM     35  C18 ZIN A   1      17.649   4.794   9.680  0.00  0.00     0.001 C 
ATOM     36  C17 ZIN A   1      17.620   5.419  11.076  0.00  0.00     0.000 C 
ATOM     37  C16 ZIN A   1      16.862   4.497  12.033  0.00  0.00     0.001 C 
ATOM     38  C15 ZIN A   1      17.565   3.140  12.097  0.00  0.00     0.009 C 
ENDBRANCH   3  33
BRANCH  20  39
ATOM     39  O42 ZIN A   1      17.935  -4.549  11.766  0.00  0.00    -0.395 OA
ATOM     40  H78 ZIN A   1      18.886  -4.388  11.702  0.00  0.00     0.210 HD
ENDBRANCH  20  39
TORSDOF 7
ENDMDL
MODEL 2
REMARK VINA RESULT:      -8.9      3.159      5.280
REMARK  7 active torsions:
REMARK  status: ('A' for Active; 'I' for Inactive)
REMARK    1  A    between atoms: C2_2  and  C4_4 
REMARK    2  A    between atoms: C4_4  and  O6_6 
REMARK    3  A    between atoms: O6_6  and  C7_7 
REMARK    4  A    between atoms: C7_7  and  C8_8 
REMARK    5  A    between atoms: C8_8  and  C10_10 
REMARK    6  A    between atoms: C12_12  and  C14_13 
REMARK    7  A    between atoms: C40_35  and  O42_36 
ROOT
ATOM      1  C10 ZIN A   1      18.686   3.938  14.753  0.00  0.00     0.160 C 
ATOM      2  O11 ZIN A   1      17.362   4.496  14.852  0.00  0.00    -0.339 OA
ATOM      3  C12 ZIN A   1      17.328   5.552  13.869  0.00  0.00     0.266 C 
ATOM      4  O20 ZIN A   1      18.629   6.172  13.954  0.00  0.00    -0.352 OA
ATOM      5  C21 ZIN A   1      19.546   5.070  14.118  0.00  0.00     0.168 C 
ATOM      6  C23 ZIN A   1      19.956   4.575  12.704  0.00  0.00     0.041 C 
ATOM      7  C24 ZIN A   1      18.869   3.550  12.364  0.00  0.00     0.004 C 
ATOM      8  C26 ZIN A   1      19.237   2.526  11.306  0.00  0.00    -0.001 C 
ATOM      9  C28 ZIN A   1      19.500   3.228   9.973  0.00  0.00     0.010 C 
ATOM     10  C29 ZIN A   1      19.908   2.195   8.918  0.00  0.00     0.036 C 
ATOM     11  C30 ZIN A   1      18.822   1.137   8.850  0.00  0.00    -0.064 A 
ATOM     12  C31 ZIN A   1      18.302   0.826   7.672  0.00  0.00     0.058 A 
ATOM     13  C32 ZIN A   1      17.233  -0.179   7.569  0.00  0.00     0.172 A 
ATOM     14  O33 ZIN A   1      16.779  -0.496   6.485  0.00  0.00    -0.289 OA
ATOM     15  C34 ZIN A   1      16.724  -0.793   8.807  0.00  0.00     0.052 A 
ATOM     16  C35 ZIN A   1      17.265  -0.473   9.973  0.00  0.00    -0.009 A 
ATOM     17  C36 ZIN A   1      18.392   0.488  10.132  0.00  0.00     0.004 A 
ATOM     18  C37 ZIN A   1      19.590  -0.285  10.689  0.00  0.00     0.025 C 
ATOM     19  C38 ZIN A   1      18.051   1.556  11.175  0.00  0.00     0.035 C 
ATOM     20  C40 ZIN A   1      17.731   0.879  12.505  0.00  0.00     0.124 C 
ATOM     21  C43 ZIN A   1      17.498   1.908  13.622  0.00  0.00     0.045 C 
ATOM     22  C44 ZIN A   1      18.721   2.794  13.747  0.00  0.00     0.004 C 
ATOM     23  C45 ZIN A   1      19.968   1.931  13.955  0.00  0.00     0.019 C 
ENDROOT
BRANCH   1  24
ATOM     24  C8  ZIN A   1      19.217   3.516  16.099  0.00  0.00     0.188 C 
ATOM     25  O9  ZIN A   1      20.253   3.982  16.512  0.00  0.00    -0.292 OA
BRANCH  24  26
ATOM     26  C7  ZIN A   1      18.458   2.514  16.929  0.00  0.00     0.260 C 
BRANCH  26  27
ATOM     27  O6  ZIN A   1      19.393   1.599  17.559  0.00  0.00    -0.314 OA
BRANCH  27  28
ATOM     28  C4  ZIN A   1      19.041   0.304  17.607  0.00  0.00     0.262 C 
ATOM     29  O5  ZIN A   1      19.300  -0.355  18.585  0.00  0.00    -0.265 OA
BRANCH  28  30
ATOM     30  C2  ZIN A   1      18.324  -0.325  16.441  0.00  0.00     0.077 C 
ATOM     31  C1  ZIN A   1      19.149  -1.499  15.910  0.00  0.00     0.020 C 
ATOM     32  C3  ZIN A   1      16.954  -0.830  16.898  0.00  0.00     0.020 C 
ENDBRANCH  28  30
ENDBRANCH  27  28
ENDBRANCH  26  27
ENDBRANCH  24  26
ENDBRANCH   1  24
BRANCH   3  33
ATOM     33  C14 ZIN A   1      16.231   6.562  14.209  0.00  0.00     0.041 C 
ATOM     34  C19 ZIN A   1      16.826   7.703  15.037  0.00  0.00     0.009 C 
ATOM     35  C18 ZIN A   1      15.727   8.713  15.377  0.00  0.00     0.001 C 
ATOM     36  C17 ZIN A   1      14.627   8.018  16.181  0.00  0.00     0.000 C 
ATOM     37  C16 ZIN A   1      14.032   6.877  15.353  0.00  0.00     0.001 C 
ATOM     38  C15 ZIN A   1      15.130   5.868  15.014  0.00  0.00     0.009 C 
ENDBRANCH   3  33
BRANCH  20  39
ATOM     39  O42 ZIN A   1      18.821   0.032  12.872  0.00  0.00    -0.395 OA
ATOM     40  H78 ZIN A   1      19.582   0.089  12.277  0.00  0.00     0.210 HD
ENDBRANCH  20  39
TORSDOF 7
ENDMDL
MODEL 3
REMARK VINA RESULT:      -8.8      2.459      9.033
REMARK  7 active torsions:
REMARK  status: ('A' for Active; 'I' for Inactive)
REMARK    1  A    between atoms: C2_2  and  C4_4 
REMARK    2  A    between atoms: C4_4  and  O6_6 
REMARK    3  A    between atoms: O6_6  and  C7_7 
REMARK    4  A    between atoms: C7_7  and  C8_8 
REMARK    5  A    between atoms: C8_8  and  C10_10 
REMARK    6  A    between atoms: C12_12  and  C14_13 
REMARK    7  A    between atoms: C40_35  and  O42_36 
ROOT
ATOM      1  C10 ZIN A   1      17.714  -5.423   7.381  0.00  0.00     0.160 C 
ATOM      2  O11 ZIN A   1      16.319  -5.302   7.041  0.00  0.00    -0.339 OA
ATOM      3  C12 ZIN A   1      15.613  -5.904   8.146  0.00  0.00     0.266 C 
ATOM      4  O20 ZIN A   1      16.408  -7.054   8.505  0.00  0.00    -0.352 OA
ATOM      5  C21 ZIN A   1      17.773  -6.600   8.399  0.00  0.00     0.168 C 
ATOM      6  C23 ZIN A   1      18.181  -5.985   9.765  0.00  0.00     0.041 C 
ATOM      7  C24 ZIN A   1      17.741  -4.523   9.635  0.00  0.00     0.004 C 
ATOM      8  C26 ZIN A   1      18.433  -3.542  10.563  0.00  0.00    -0.001 C 
ATOM      9  C28 ZIN A   1      18.112  -3.887  12.018  0.00  0.00     0.010 C 
ATOM     10  C29 ZIN A   1      18.843  -2.918  12.952  0.00  0.00     0.036 C 
ATOM     11  C30 ZIN A   1      18.459  -1.503  12.557  0.00  0.00    -0.064 A 
ATOM     12  C31 ZIN A   1      18.016  -0.675  13.491  0.00  0.00     0.058 A 
ATOM     13  C32 ZIN A   1      17.614   0.697  13.144  0.00  0.00     0.172 A 
ATOM     14  O33 ZIN A   1      17.243   1.474  14.005  0.00  0.00    -0.289 OA
ATOM     15  C34 ZIN A   1      17.668   1.109  11.731  0.00  0.00     0.052 A 
ATOM     16  C35 ZIN A   1      18.122   0.266  10.816  0.00  0.00    -0.009 A 
ATOM     17  C36 ZIN A   1      18.604  -1.111  11.117  0.00  0.00     0.004 A 
ATOM     18  C37 ZIN A   1      20.092  -1.173  10.764  0.00  0.00     0.025 C 
ATOM     19  C38 ZIN A   1      17.910  -2.138  10.218  0.00  0.00     0.035 C 
ATOM     20  C40 ZIN A   1      18.169  -1.786   8.756  0.00  0.00     0.124 C 
ATOM     21  C43 ZIN A   1      17.597  -2.851   7.807  0.00  0.00     0.045 C 
ATOM     22  C44 ZIN A   1      18.193  -4.200   8.153  0.00  0.00     0.004 C 
ATOM     23  C45 ZIN A   1      19.721  -4.113   8.130  0.00  0.00     0.019 C 
ENDROOT
BRANCH   1  24
ATOM     24  C8  ZIN A   1      18.565  -5.687   6.166  0.00  0.00     0.188 C 
ATOM     25  O9  ZIN A   1      19.586  -6.325   6.271  0.00  0.00    -0.292 OA
BRANCH  24  26
ATOM     26  C7  ZIN A   1      18.145  -5.155   4.820  0.00  0.00     0.260 C 
BRANCH  26  27
ATOM     27  O6  ZIN A   1      18.633  -3.797   4.663  0.00  0.00    -0.314 OA
BRANCH  27  28
ATOM     28  C4  ZIN A   1      17.740  -2.868   4.284  0.00  0.00     0.262 C 
ATOM     29  O5  ZIN A   1      16.648  -3.205   3.894  0.00  0.00    -0.265 OA
BRANCH  28  30
ATOM     30  C2  ZIN A   1      18.102  -1.406   4.346  0.00  0.00     0.077 C 
ATOM     31  C1  ZIN A   1      17.048  -0.655   5.162  0.00  0.00     0.020 C 
ATOM     32  C3  ZIN A   1      19.470  -1.247   5.011  0.00  0.00     0.020 C 
ENDBRANCH  28  30
ENDBRANCH  27  28
ENDBRANCH  26  27
ENDBRANCH  24  26
ENDBRANCH   1  24
BRANCH   3  33
ATOM     33  C14 ZIN A   1      14.211  -6.335   7.712  0.00  0.00     0.041 C 
ATOM     34  C19 ZIN A   1      13.208  -5.993   8.815  0.00  0.00     0.009 C 
ATOM     35  C18 ZIN A   1      11.806  -6.426   8.382  0.00  0.00     0.001 C 
ATOM     36  C17 ZIN A   1      11.792  -7.934   8.130  0.00  0.00     0.000 C 
ATOM     37  C16 ZIN A   1      12.796  -8.277   7.027  0.00  0.00     0.001 C 
ATOM     38  C15 ZIN A   1      14.197  -7.845   7.461  0.00  0.00     0.009 C 
ENDBRANCH   3  33
BRANCH  20  39
ATOM     39  O42 ZIN A   1      19.578  -1.683   8.544  0.00  0.00    -0.395 OA
ATOM     40  H78 ZIN A   1      20.012  -2.528   8.361  0.00  0.00     0.210 HD
ENDBRANCH  20  39
TORSDOF 7
ENDMDL
MODEL 4
REMARK VINA RESULT:      -8.6      2.587      8.698
REMARK  7 active torsions:
REMARK  status: ('A' for Active; 'I' for Inactive)
REMARK    1  A    between atoms: C2_2  and  C4_4 
REMARK    2  A    between atoms: C4_4  and  O6_6 
REMARK    3  A    between atoms: O6_6  and  C7_7 
REMARK    4  A    between atoms: C7_7  and  C8_8 
REMARK    5  A    between atoms: C8_8  and  C10_10 
REMARK    6  A    between atoms: C12_12  and  C14_13 
REMARK    7  A    between atoms: C40_35  and  O42_36 
ROOT
ATOM      1  C10 ZIN A   1      18.686  -4.281   7.808  0.00  0.00     0.160 C 
ATOM      2  O11 ZIN A   1      17.344  -4.805   7.777  0.00  0.00    -0.339 OA
ATOM      3  C12 ZIN A   1      17.296  -5.772   8.847  0.00  0.00     0.266 C 
ATOM      4  O20 ZIN A   1      18.577  -6.436   8.796  0.00  0.00    -0.352 OA
ATOM      5  C21 ZIN A   1      19.523  -5.381   8.525  0.00  0.00     0.168 C 
ATOM      6  C23 ZIN A   1      19.972  -4.780   9.886  0.00  0.00     0.041 C 
ATOM      7  C24 ZIN A   1      18.922  -3.697  10.152  0.00  0.00     0.004 C 
ATOM      8  C26 ZIN A   1      19.337  -2.598  11.113  0.00  0.00    -0.001 C 
ATOM      9  C28 ZIN A   1      19.603  -3.192  12.497  0.00  0.00     0.010 C 
ATOM     10  C29 ZIN A   1      20.059  -2.086  13.454  0.00  0.00     0.036 C 
ATOM     11  C30 ZIN A   1      19.007  -0.993  13.446  0.00  0.00    -0.064 A 
ATOM     12  C31 ZIN A   1      18.516  -0.566  14.601  0.00  0.00     0.058 A 
ATOM     13  C32 ZIN A   1      17.479   0.477  14.633  0.00  0.00     0.172 A 
ATOM     14  O33 ZIN A   1      17.054   0.899  15.692  0.00  0.00    -0.289 OA
ATOM     15  C34 ZIN A   1      16.968   0.998  13.354  0.00  0.00     0.052 A 
ATOM     16  C35 ZIN A   1      17.479   0.563  12.213  0.00  0.00    -0.009 A 
ATOM     17  C36 ZIN A   1      18.574  -0.443  12.119  0.00  0.00     0.004 A 
ATOM     18  C37 ZIN A   1      19.784   0.242  11.481  0.00  0.00     0.025 C 
ATOM     19  C38 ZIN A   1      18.184  -1.584  11.177  0.00  0.00     0.035 C 
ATOM     20  C40 ZIN A   1      17.861  -1.014   9.799  0.00  0.00     0.124 C 
ATOM     21  C43 ZIN A   1      17.578  -2.126   8.778  0.00  0.00     0.045 C 
ATOM     22  C44 ZIN A   1      18.772  -3.058   8.711  0.00  0.00     0.004 C 
ATOM     23  C45 ZIN A   1      20.040  -2.255   8.412  0.00  0.00     0.019 C 
ENDROOT
BRANCH   1  24
ATOM     24  C8  ZIN A   1      19.206  -3.993   6.423  0.00  0.00     0.188 C 
ATOM     25  O9  ZIN A   1      20.396  -3.983   6.215  0.00  0.00    -0.292 OA
BRANCH  24  26
ATOM     26  C7  ZIN A   1      18.242  -3.715   5.298  0.00  0.00     0.260 C 
BRANCH  26  27
ATOM     27  O6  ZIN A   1      17.745  -2.356   5.411  0.00  0.00    -0.314 OA
BRANCH  27  28
ATOM     28  C4  ZIN A   1      18.529  -1.379   4.928  0.00  0.00     0.262 C 
ATOM     29  O5  ZIN A   1      19.493  -1.655   4.254  0.00  0.00    -0.265 OA
BRANCH  28  30
ATOM     30  C2  ZIN A   1      18.206   0.062   5.226  0.00  0.00     0.077 C 
ATOM     31  C1  ZIN A   1      16.985   0.131   6.145  0.00  0.00     0.020 C 
ATOM     32  C3  ZIN A   1      19.402   0.720   5.918  0.00  0.00     0.020 C 
ENDBRANCH  28  30
ENDBRANCH  27  28
ENDBRANCH  26  27
ENDBRANCH  24  26
ENDBRANCH   1  24
BRANCH   3  33
ATOM     33  C14 ZIN A   1      16.164  -6.772   8.612  0.00  0.00     0.041 C 
ATOM     34  C19 ZIN A   1      16.631  -7.851   7.632  0.00  0.00     0.009 C 
ATOM     35  C18 ZIN A   1      15.497  -8.851   7.396  0.00  0.00     0.001 C 
ATOM     36  C17 ZIN A   1      14.286  -8.121   6.812  0.00  0.00     0.000 C 
ATOM     37  C16 ZIN A   1      13.819  -7.043   7.792  0.00  0.00     0.001 C 
ATOM     38  C15 ZIN A   1      14.952  -6.043   8.027  0.00  0.00     0.009 C 
ENDBRANCH   3  33
BRANCH  20  39
ATOM     39  O42 ZIN A   1      18.969  -0.235   9.345  0.00  0.00    -0.395 OA
ATOM     40  H78 ZIN A   1      18.718   0.586   8.900  0.00  0.00     0.210 HD
ENDBRANCH  20  39
TORSDOF 7
ENDMDL
MODEL 5
REMARK VINA RESULT:      -8.4      2.704      9.214
REMARK  7 active torsions:
REMARK  status: ('A' for Active; 'I' for Inactive)
REMARK    1  A    between atoms: C2_2  and  C4_4 
REMARK    2  A    between atoms: C4_4  and  O6_6 
REMARK    3  A    between atoms: O6_6  and  C7_7 
REMARK    4  A    between atoms: C7_7  and  C8_8 
REMARK    5  A    between atoms: C8_8  and  C10_10 
REMARK    6  A    between atoms: C12_12  and  C14_13 
REMARK    7  A    between atoms: C40_35  and  O42_36 
ROOT
ATOM      1  C10 ZIN A   1      19.075  -0.155   9.744  0.00  0.00     0.160 C 
ATOM      2  O11 ZIN A   1      17.955  -1.045   9.911  0.00  0.00    -0.339 OA
ATOM      3  C12 ZIN A   1      18.169  -1.678  11.190  0.00  0.00     0.266 C 
ATOM      4  O20 ZIN A   1      19.591  -1.920  11.244  0.00  0.00    -0.352 OA
ATOM      5  C21 ZIN A   1      20.183  -0.736  10.672  0.00  0.00     0.168 C 
ATOM      6  C23 ZIN A   1      20.390   0.296  11.815  0.00  0.00     0.041 C 
ATOM      7  C24 ZIN A   1      19.055   1.047  11.853  0.00  0.00     0.004 C 
ATOM      8  C26 ZIN A   1      19.092   2.425  12.487  0.00  0.00    -0.001 C 
ATOM      9  C28 ZIN A   1      19.484   2.309  13.961  0.00  0.00     0.010 C 
ATOM     10  C29 ZIN A   1      19.558   3.705  14.587  0.00  0.00     0.036 C 
ATOM     11  C30 ZIN A   1      18.225   4.395  14.357  0.00  0.00    -0.064 A 
ATOM     12  C31 ZIN A   1      17.595   4.933  15.392  0.00  0.00     0.058 A 
ATOM     13  C32 ZIN A   1      16.292   5.592  15.213  0.00  0.00     0.172 A 
ATOM     14  O33 ZIN A   1      15.728   6.121  16.152  0.00  0.00    -0.289 OA
ATOM     15  C34 ZIN A   1      15.685   5.595  13.871  0.00  0.00     0.052 A 
ATOM     16  C35 ZIN A   1      16.337   5.058  12.851  0.00  0.00    -0.009 A 
ATOM     17  C36 ZIN A   1      17.686   4.436  12.958  0.00  0.00     0.004 A 
ATOM     18  C37 ZIN A   1      18.652   5.266  12.110  0.00  0.00     0.025 C 
ATOM     19  C38 ZIN A   1      17.685   3.030  12.352  0.00  0.00     0.035 C 
ATOM     20  C40 ZIN A   1      17.246   3.110  10.893  0.00  0.00     0.124 C 
ATOM     21  C43 ZIN A   1      17.342   1.743  10.197  0.00  0.00     0.045 C 
ATOM     22  C44 ZIN A   1      18.762   1.225  10.307  0.00  0.00     0.004 C 
ATOM     23  C45 ZIN A   1      19.738   2.267   9.755  0.00  0.00     0.019 C 
ENDROOT
BRANCH   1  24
ATOM     24  C8  ZIN A   1      19.525  -0.085   8.307  0.00  0.00     0.188 C 
ATOM     25  O9  ZIN A   1      19.783   0.984   7.807  0.00  0.00    -0.292 OA
BRANCH  24  26
ATOM     26  C7  ZIN A   1      19.651  -1.348   7.494  0.00  0.00     0.260 C 
BRANCH  26  27
ATOM     27  O6  ZIN A   1      18.675  -1.331   6.420  0.00  0.00    -0.314 OA
BRANCH  27  28
ATOM     28  C4  ZIN A   1      19.122  -1.610   5.185  0.00  0.00     0.262 C 
ATOM     29  O5  ZIN A   1      19.970  -0.914   4.679  0.00  0.00    -0.265 OA
BRANCH  28  30
ATOM     30  C2  ZIN A   1      18.567  -2.790   4.431  0.00  0.00     0.077 C 
ATOM     31  C1  ZIN A   1      18.610  -4.032   5.324  0.00  0.00     0.020 C 
ATOM     32  C3  ZIN A   1      17.119  -2.502   4.029  0.00  0.00     0.020 C 
ENDBRANCH  28  30
ENDBRANCH  27  28
ENDBRANCH  26  27
ENDBRANCH  24  26
ENDBRANCH   1  24
BRANCH   3  33
ATOM     33  C14 ZIN A   1      17.398  -2.996  11.268  0.00  0.00     0.041 C 
ATOM     34  C19 ZIN A   1      18.132  -3.962  12.201  0.00  0.00     0.009 C 
ATOM     35  C18 ZIN A   1      17.360  -5.281  12.279  0.00  0.00     0.001 C 
ATOM     36  C17 ZIN A   1      17.261  -5.897  10.882  0.00  0.00     0.000 C 
ATOM     37  C16 ZIN A   1      16.527  -4.932   9.949  0.00  0.00     0.001 C 
ATOM     38  C15 ZIN A   1      17.298  -3.613   9.871  0.00  0.00     0.009 C 
ENDBRANCH   3  33
BRANCH  20  39
ATOM     39  O42 ZIN A   1      18.082   4.042  10.204  0.00  0.00    -0.395 OA
ATOM     40  H78 ZIN A   1      17.849   4.167   9.274  0.00  0.00     0.210 HD
ENDBRANCH  20  39
TORSDOF 7
ENDMDL
MODEL 6
REMARK VINA RESULT:      -8.4      3.659      6.540
REMARK  7 active torsions:
REMARK  status: ('A' for Active; 'I' for Inactive)
REMARK    1  A    between atoms: C2_2  and  C4_4 
REMARK    2  A    between atoms: C4_4  and  O6_6 
REMARK    3  A    between atoms: O6_6  and  C7_7 
REMARK    4  A    between atoms: C7_7  and  C8_8 
REMARK    5  A    between atoms: C8_8  and  C10_10 
REMARK    6  A    between atoms: C12_12  and  C14_13 
REMARK    7  A    between atoms: C40_35  and  O42_36 
ROOT
ATOM      1  C10 ZIN A   1      17.834   5.315  15.502  0.00  0.00     0.160 C 
ATOM      2  O11 ZIN A   1      16.443   5.204  15.857  0.00  0.00    -0.339 OA
ATOM      3  C12 ZIN A   1      15.735   5.919  14.823  0.00  0.00     0.266 C 
ATOM      4  O20 ZIN A   1      16.557   7.074  14.550  0.00  0.00    -0.352 OA
ATOM      5  C21 ZIN A   1      17.910   6.575  14.589  0.00  0.00     0.168 C 
ATOM      6  C23 ZIN A   1      18.275   6.071  13.166  0.00  0.00     0.041 C 
ATOM      7  C24 ZIN A   1      17.796   4.616  13.178  0.00  0.00     0.004 C 
ATOM      8  C26 ZIN A   1      18.443   3.701  12.155  0.00  0.00    -0.001 C 
ATOM      9  C28 ZIN A   1      18.107   4.181  10.742  0.00  0.00     0.010 C 
ATOM     10  C29 ZIN A   1      18.794   3.277   9.713  0.00  0.00     0.036 C 
ATOM     11  C30 ZIN A   1      18.376   1.845   9.991  0.00  0.00    -0.064 A 
ATOM     12  C31 ZIN A   1      17.893   1.113   8.997  0.00  0.00     0.058 A 
ATOM     13  C32 ZIN A   1      17.457  -0.272   9.231  0.00  0.00     0.172 A 
ATOM     14  O33 ZIN A   1      17.050  -0.960   8.314  0.00  0.00    -0.289 OA
ATOM     15  C34 ZIN A   1      17.525  -0.807  10.602  0.00  0.00     0.052 A 
ATOM     16  C35 ZIN A   1      18.018  -0.060  11.578  0.00  0.00    -0.009 A 
ATOM     17  C36 ZIN A   1      18.535   1.324  11.388  0.00  0.00     0.004 A 
ATOM     18  C37 ZIN A   1      20.029   1.314  11.715  0.00  0.00     0.025 C 
ATOM     19  C38 ZIN A   1      17.886   2.287  12.387  0.00  0.00     0.035 C 
ATOM     20  C40 ZIN A   1      18.160   1.801  13.807  0.00  0.00     0.124 C 
ATOM     21  C43 ZIN A   1      17.635   2.794  14.856  0.00  0.00     0.045 C 
ATOM     22  C44 ZIN A   1      18.264   4.152  14.617  0.00  0.00     0.004 C 
ATOM     23  C45 ZIN A   1      19.789   4.022  14.602  0.00  0.00     0.019 C 
ENDROOT
BRANCH   1  24
ATOM     24  C8  ZIN A   1      18.714   5.449  16.718  0.00  0.00     0.188 C 
ATOM     25  O9  ZIN A   1      19.586   6.284  16.743  0.00  0.00    -0.292 OA
BRANCH  24  26
ATOM     26  C7  ZIN A   1      18.506   4.540  17.902  0.00  0.00     0.260 C 
BRANCH  26  27
ATOM     27  O6  ZIN A   1      19.513   3.495  17.892  0.00  0.00    -0.314 OA
BRANCH  27  28
ATOM     28  C4  ZIN A   1      19.110   2.256  18.220  0.00  0.00     0.262 C 
ATOM     29  O5  ZIN A   1      19.910   1.450  18.631  0.00  0.00    -0.265 OA
BRANCH  28  30
ATOM     30  C2  ZIN A   1      17.660   1.873  18.074  0.00  0.00     0.077 C 
ATOM     31  C1  ZIN A   1      17.562   0.409  17.640  0.00  0.00     0.020 C 
ATOM     32  C3  ZIN A   1      16.948   2.055  19.416  0.00  0.00     0.020 C 
ENDBRANCH  28  30
ENDBRANCH  27  28
ENDBRANCH  26  27
ENDBRANCH  24  26
ENDBRANCH   1  24
BRANCH   3  33
ATOM     33  C14 ZIN A   1      14.354   6.348  15.320  0.00  0.00     0.041 C 
ATOM     34  C19 ZIN A   1      13.301   6.000  14.266  0.00  0.00     0.009 C 
ATOM     35  C18 ZIN A   1      11.920   6.431  14.763  0.00  0.00     0.001 C 
ATOM     36  C17 ZIN A   1      11.915   7.941  15.011  0.00  0.00     0.000 C 
ATOM     37  C16 ZIN A   1      12.967   8.289  16.065  0.00  0.00     0.001 C 
ATOM     38  C15 ZIN A   1      14.348   7.859  15.568  0.00  0.00     0.009 C 
ENDBRANCH   3  33
BRANCH  20  39
ATOM     39  O42 ZIN A   1      19.569   1.642  13.981  0.00  0.00    -0.395 OA
ATOM     40  H78 ZIN A   1      20.081   1.746  13.167  0.00  0.00     0.210 HD
ENDBRANCH  20  39
TORSDOF 7
ENDMDL
MODEL 7
REMARK VINA RESULT:      -8.3      2.440      9.504
REMARK  7 active torsions:
REMARK  status: ('A' for Active; 'I' for Inactive)
REMARK    1  A    between atoms: C2_2  and  C4_4 
REMARK    2  A    between atoms: C4_4  and  O6_6 
REMARK    3  A    between atoms: O6_6  and  C7_7 
REMARK    4  A    between atoms: C7_7  and  C8_8 
REMARK    5  A    between atoms: C8_8  and  C10_10 
REMARK    6  A    between atoms: C12_12  and  C14_13 
REMARK    7  A    between atoms: C40_35  and  O42_36 
ROOT
ATOM      1  C10 ZIN A   1      17.975  -5.337   7.355  0.00  0.00     0.160 C 
ATOM      2  O11 ZIN A   1      16.544  -5.507   7.333  0.00  0.00    -0.339 OA
ATOM      3  C12 ZIN A   1      16.231  -6.187   8.566  0.00  0.00     0.266 C 
ATOM      4  O20 ZIN A   1      17.299  -7.142   8.739  0.00  0.00    -0.352 OA
ATOM      5  C21 ZIN A   1      18.489  -6.434   8.334  0.00  0.00     0.168 C 
ATOM      6  C23 ZIN A   1      19.051  -5.692   9.577  0.00  0.00     0.041 C 
ATOM      7  C24 ZIN A   1      18.309  -4.352   9.548  0.00  0.00     0.004 C 
ATOM      8  C26 ZIN A   1      18.974  -3.214  10.301  0.00  0.00    -0.001 C 
ATOM      9  C28 ZIN A   1      19.053  -3.552  11.790  0.00  0.00     0.010 C 
ATOM     10  C29 ZIN A   1      19.760  -2.418  12.540  0.00  0.00     0.036 C 
ATOM     11  C30 ZIN A   1      19.023  -1.125  12.241  0.00  0.00    -0.064 A 
ATOM     12  C31 ZIN A   1      18.636  -0.359  13.251  0.00  0.00     0.058 A 
ATOM     13  C32 ZIN A   1      17.901   0.891  13.002  0.00  0.00     0.172 A 
ATOM     14  O33 ZIN A   1      17.578   1.617  13.924  0.00  0.00    -0.289 OA
ATOM     15  C34 ZIN A   1      17.564   1.243  11.612  0.00  0.00     0.052 A 
ATOM     16  C35 ZIN A   1      17.968   0.466  10.619  0.00  0.00    -0.009 A 
ATOM     17  C36 ZIN A   1      18.770  -0.775  10.804  0.00  0.00     0.004 A 
ATOM     18  C37 ZIN A   1      20.127  -0.560  10.131  0.00  0.00     0.025 C 
ATOM     19  C38 ZIN A   1      18.118  -1.956  10.081  0.00  0.00     0.035 C 
ATOM     20  C40 ZIN A   1      17.978  -1.625   8.598  0.00  0.00     0.124 C 
ATOM     21  C43 ZIN A   1      17.439  -2.822   7.799  0.00  0.00     0.045 C 
ATOM     22  C44 ZIN A   1      18.355  -4.012   8.003  0.00  0.00     0.004 C 
ATOM     23  C45 ZIN A   1      19.792  -3.628   7.643  0.00  0.00     0.019 C 
ENDROOT
BRANCH   1  24
ATOM     24  C8  ZIN A   1      18.577  -5.482   5.981  0.00  0.00     0.188 C 
ATOM     25  O9  ZIN A   1      19.386  -6.354   5.766  0.00  0.00    -0.292 OA
BRANCH  24  26
ATOM     26  C7  ZIN A   1      18.172  -4.540   4.877  0.00  0.00     0.260 C 
BRANCH  26  27
ATOM     27  O6  ZIN A   1      17.512  -5.287   3.822  0.00  0.00    -0.314 OA
BRANCH  27  28
ATOM     28  C4  ZIN A   1      16.179  -5.159   3.726  0.00  0.00     0.262 C 
ATOM     29  O5  ZIN A   1      15.669  -4.068   3.822  0.00  0.00    -0.265 OA
BRANCH  28  30
ATOM     30  C2  ZIN A   1      15.319  -6.376   3.501  0.00  0.00     0.077 C 
ATOM     31  C1  ZIN A   1      15.932  -7.574   4.229  0.00  0.00     0.020 C 
ATOM     32  C3  ZIN A   1      13.914  -6.114   4.045  0.00  0.00     0.020 C 
ENDBRANCH  28  30
ENDBRANCH  27  28
ENDBRANCH  26  27
ENDBRANCH  24  26
ENDBRANCH   1  24
BRANCH   3  33
ATOM     33  C14 ZIN A   1      14.884  -6.903   8.453  0.00  0.00     0.041 C 
ATOM     34  C19 ZIN A   1      15.051  -8.174   7.618  0.00  0.00     0.009 C 
ATOM     35  C18 ZIN A   1      13.703  -8.890   7.504  0.00  0.00     0.001 C 
ATOM     36  C17 ZIN A   1      12.690  -7.965   6.829  0.00  0.00     0.000 C 
ATOM     37  C16 ZIN A   1      12.523  -6.694   7.663  0.00  0.00     0.001 C 
ATOM     38  C15 ZIN A   1      13.869  -5.978   7.776  0.00  0.00     0.009 C 
ENDBRANCH   3  33
BRANCH  20  39
ATOM     39  O42 ZIN A   1      19.257  -1.257   8.079  0.00  0.00    -0.395 OA
ATOM     40  H78 ZIN A   1      19.493  -0.331   8.232  0.00  0.00     0.210 HD
ENDBRANCH  20  39
TORSDOF 7
ENDMDL
MODEL 8
REMARK VINA RESULT:      -8.0      1.423      1.966
REMARK  7 active torsions:
REMARK  status: ('A' for Active; 'I' for Inactive)
REMARK    1  A    between atoms: C2_2  and  C4_4 
REMARK    2  A    between atoms: C4_4  and  O6_6 
REMARK    3  A    between atoms: O6_6  and  C7_7 
REMARK    4  A    between atoms: C7_7  and  C8_8 
REMARK    5  A    between atoms: C8_8  and  C10_10 
REMARK    6  A    between atoms: C12_12  and  C14_13 
REMARK    7  A    between atoms: C40_35  and  O42_36 
ROOT
ATOM      1  C10 ZIN A   1      19.013  -2.179  11.195  0.00  0.00     0.160 C 
ATOM      2  O11 ZIN A   1      18.088  -1.080  11.310  0.00  0.00    -0.339 OA
ATOM      3  C12 ZIN A   1      18.236  -0.338  10.082  0.00  0.00     0.266 C 
ATOM      4  O20 ZIN A   1      19.653  -0.362   9.809  0.00  0.00    -0.352 OA
ATOM      5  C21 ZIN A   1      20.067  -1.701  10.153  0.00  0.00     0.168 C 
ATOM      6  C23 ZIN A   1      19.884  -2.595   8.896  0.00  0.00     0.041 C 
ATOM      7  C24 ZIN A   1      18.433  -3.071   9.014  0.00  0.00     0.004 C 
ATOM      8  C26 ZIN A   1      18.090  -4.337   8.251  0.00  0.00    -0.001 C 
ATOM      9  C28 ZIN A   1      18.273  -4.106   6.750  0.00  0.00     0.010 C 
ATOM     10  C29 ZIN A   1      17.964  -5.397   5.987  0.00  0.00     0.036 C 
ATOM     11  C30 ZIN A   1      16.567  -5.849   6.373  0.00  0.00    -0.064 A 
ATOM     12  C31 ZIN A   1      15.693  -6.120   5.414  0.00  0.00     0.058 A 
ATOM     13  C32 ZIN A   1      14.324  -6.540   5.748  0.00  0.00     0.172 A 
ATOM     14  O33 ZIN A   1      13.530  -6.827   4.871  0.00  0.00    -0.289 OA
ATOM     15  C34 ZIN A   1      13.935  -6.603   7.167  0.00  0.00     0.052 A 
ATOM     16  C35 ZIN A   1      14.828  -6.336   8.108  0.00  0.00    -0.009 A 
ATOM     17  C36 ZIN A   1      16.245  -5.970   7.832  0.00  0.00     0.004 A 
ATOM     18  C37 ZIN A   1      17.134  -7.069   8.417  0.00  0.00     0.025 C 
ATOM     19  C38 ZIN A   1      16.624  -4.680   8.565  0.00  0.00     0.035 C 
ATOM     20  C40 ZIN A   1      16.400  -4.865  10.062  0.00  0.00     0.124 C 
ATOM     21  C43 ZIN A   1      16.878  -3.643  10.862  0.00  0.00     0.045 C 
ATOM     22  C44 ZIN A   1      18.342  -3.390  10.561  0.00  0.00     0.004 C 
ATOM     23  C45 ZIN A   1      19.153  -4.660  10.833  0.00  0.00     0.019 C 
ENDROOT
BRANCH   1  24
ATOM     24  C8  ZIN A   1      19.646  -2.518  12.520  0.00  0.00     0.188 C 
ATOM     25  O9  ZIN A   1      20.772  -2.955  12.556  0.00  0.00    -0.292 OA
BRANCH  24  26
ATOM     26  C7  ZIN A   1      18.876  -2.314  13.799  0.00  0.00     0.260 C 
BRANCH  26  27
ATOM     27  O6  ZIN A   1      19.488  -1.246  14.567  0.00  0.00    -0.314 OA
BRANCH  27  28
ATOM     28  C4  ZIN A   1      18.932  -0.952  15.754  0.00  0.00     0.262 C 
ATOM     29  O5  ZIN A   1      19.251  -1.574  16.739  0.00  0.00    -0.265 OA
BRANCH  28  30
ATOM     30  C2  ZIN A   1      17.911   0.151  15.856  0.00  0.00     0.077 C 
ATOM     31  C1  ZIN A   1      17.396   0.237  17.294  0.00  0.00     0.020 C 
ATOM     32  C3  ZIN A   1      18.558   1.481  15.465  0.00  0.00     0.020 C 
ENDBRANCH  28  30
ENDBRANCH  27  28
ENDBRANCH  26  27
ENDBRANCH  24  26
ENDBRANCH   1  24
BRANCH   3  33
ATOM     33  C14 ZIN A   1      17.750   1.101  10.266  0.00  0.00     0.041 C 
ATOM     34  C19 ZIN A   1      18.613   2.042   9.423  0.00  0.00     0.009 C 
ATOM     35  C18 ZIN A   1      18.128   3.481   9.609  0.00  0.00     0.001 C 
ATOM     36  C17 ZIN A   1      18.238   3.871  11.084  0.00  0.00     0.000 C 
ATOM     37  C16 ZIN A   1      17.376   2.930  11.927  0.00  0.00     0.001 C 
ATOM     38  C15 ZIN A   1      17.862   1.491  11.742  0.00  0.00     0.009 C 
ENDBRANCH   3  33
BRANCH  20  39
ATOM     39  O42 ZIN A   1      17.118  -6.019  10.503  0.00  0.00    -0.395 OA
ATOM     40  H78 ZIN A   1      16.570  -6.810  10.600  0.00  0.00     0.210 HD
ENDBRANCH  20  39
TORSDOF 7
ENDMDL
MODEL 9
REMARK VINA RESULT:      -7.9      2.611      9.677
REMARK  7 active torsions:
REMARK  status: ('A' for Active; 'I' for Inactive)
REMARK    1  A    between atoms: C2_2  and  C4_4 
REMARK    2  A    between atoms: C4_4  and  O6_6 
REMARK    3  A    between atoms: O6_6  and  C7_7 
REMARK    4  A    between atoms: C7_7  and  C8_8 
REMARK    5  A    between atoms: C8_8  and  C10_10 
REMARK    6  A    between atoms: C12_12  and  C14_13 
REMARK    7  A    between atoms: C40_35  and  O42_36 
ROOT
ATOM      1  C10 ZIN A   1      17.692  -5.511   7.379  0.00  0.00     0.160 C 
ATOM      2  O11 ZIN A   1      16.313  -5.408   6.975  0.00  0.00    -0.339 OA
ATOM      3  C12 ZIN A   1      15.553  -5.767   8.148  0.00  0.00     0.266 C 
ATOM      4  O20 ZIN A   1      16.291  -6.857   8.741  0.00  0.00    -0.352 OA
ATOM      5  C21 ZIN A   1      17.675  -6.479   8.599  0.00  0.00     0.168 C 
ATOM      6  C23 ZIN A   1      18.070  -5.634   9.841  0.00  0.00     0.041 C 
ATOM      7  C24 ZIN A   1      17.694  -4.208   9.427  0.00  0.00     0.004 C 
ATOM      8  C26 ZIN A   1      18.400  -3.095  10.180  0.00  0.00    -0.001 C 
ATOM      9  C28 ZIN A   1      18.026  -3.151  11.662  0.00  0.00     0.010 C 
ATOM     10  C29 ZIN A   1      18.770  -2.051  12.424  0.00  0.00     0.036 C 
ATOM     11  C30 ZIN A   1      18.455  -0.723  11.761  0.00  0.00    -0.064 A 
ATOM     12  C31 ZIN A   1      18.021   0.281  12.510  0.00  0.00     0.058 A 
ATOM     13  C32 ZIN A   1      17.684   1.577  11.900  0.00  0.00     0.172 A 
ATOM     14  O33 ZIN A   1      17.323   2.513  12.589  0.00  0.00    -0.289 OA
ATOM     15  C34 ZIN A   1      17.794   1.715  10.438  0.00  0.00     0.052 A 
ATOM     16  C35 ZIN A   1      18.238   0.701   9.711  0.00  0.00    -0.009 A 
ATOM     17  C36 ZIN A   1      18.655  -0.612  10.279  0.00  0.00     0.004 A 
ATOM     18  C37 ZIN A   1      20.148  -0.790   9.995  0.00  0.00     0.025 C 
ATOM     19  C38 ZIN A   1      17.944  -1.763   9.562  0.00  0.00     0.035 C 
ATOM     20  C40 ZIN A   1      18.257  -1.699   8.070  0.00  0.00     0.124 C 
ATOM     21  C43 ZIN A   1      17.668  -2.902   7.317  0.00  0.00     0.045 C 
ATOM     22  C44 ZIN A   1      18.199  -4.183   7.927  0.00  0.00     0.004 C 
ATOM     23  C45 ZIN A   1      19.729  -4.155   7.941  0.00  0.00     0.019 C 
ENDROOT
BRANCH   1  24
ATOM     24  C8  ZIN A   1      18.564  -6.027   6.264  0.00  0.00     0.188 C 
ATOM     25  O9  ZIN A   1      19.719  -6.307   6.482  0.00  0.00    -0.292 OA
BRANCH  24  26
ATOM     26  C7  ZIN A   1      17.997  -6.192   4.878  0.00  0.00     0.260 C 
BRANCH  26  27
ATOM     27  O6  ZIN A   1      18.016  -7.596   4.511  0.00  0.00    -0.314 OA
BRANCH  27  28
ATOM     28  C4  ZIN A   1      17.006  -8.358   4.961  0.00  0.00     0.262 C 
ATOM     29  O5  ZIN A   1      17.164  -9.056   5.934  0.00  0.00    -0.265 OA
BRANCH  28  30
ATOM     30  C2  ZIN A   1      15.677  -8.342   4.252  0.00  0.00     0.077 C 
ATOM     31  C1  ZIN A   1      15.902  -8.143   2.752  0.00  0.00     0.020 C 
ATOM     32  C3  ZIN A   1      14.958  -9.672   4.487  0.00  0.00     0.020 C 
ENDBRANCH  28  30
ENDBRANCH  27  28
ENDBRANCH  26  27
ENDBRANCH  24  26
ENDBRANCH   1  24
BRANCH   3  33
ATOM     33  C14 ZIN A   1      14.147  -6.223   7.754  0.00  0.00     0.041 C 
ATOM     34  C19 ZIN A   1      13.164  -5.864   8.870  0.00  0.00     0.009 C 
ATOM     35  C18 ZIN A   1      11.757  -6.321   8.476  0.00  0.00     0.001 C 
ATOM     36  C17 ZIN A   1      11.754  -7.835   8.260  0.00  0.00     0.000 C 
ATOM     37  C16 ZIN A   1      12.738  -8.194   7.145  0.00  0.00     0.001 C 
ATOM     38  C15 ZIN A   1      14.144  -7.738   7.539  0.00  0.00     0.009 C 
ENDBRANCH   3  33
BRANCH  20  39
ATOM     39  O42 ZIN A   1      19.675  -1.687   7.891  0.00  0.00    -0.395 OA
ATOM     40  H78 ZIN A   1      20.097  -0.857   8.153  0.00  0.00     0.210 HD
ENDBRANCH  20  39
TORSDOF 7
ENDMDL
