MODEL 1
REMARK VINA RESULT:      -8.3      0.000      0.000
REMARK  7 active torsions:
REMARK  status: ('A' for Active; 'I' for Inactive)
REMARK    1  A    between atoms: C2_2  and  C3_3 
REMARK    2  A    between atoms: C3_3  and  C4_4 
REMARK    3  A    between atoms: C4_4  and  C5_5 
REMARK    4  A    between atoms: C5_5  and  C6_6 
REMARK    5  A    between atoms: C6_6  and  C7_7 
REMARK    6  A    between atoms: C7_7  and  C10_10 
REMARK    7  A    between atoms: C12_12  and  O13_13 
ROOT
ATOM      1  C10 ZIN A   1      18.013  -2.133  11.908  0.00  0.00    -0.045 A 
ATOM      2  C11 ZIN A   1      17.527  -0.916  11.469  0.00  0.00     0.045 A 
ATOM      3  C12 ZIN A   1      17.476   0.161  12.340  0.00  0.00     0.075 A 
ATOM      4  C14 ZIN A   1      17.912   0.023  13.650  0.00  0.00     0.013 A 
ATOM      5  C15 ZIN A   1      18.404  -1.196  14.088  0.00  0.00     0.079 A 
ATOM      6  C16 ZIN A   1      18.443  -2.276  13.211  0.00  0.00     0.045 A 
ATOM      7  O17 ZIN A   1      18.861  -1.376  15.355  0.00  0.00    -0.340 OA
ATOM      8  C18 ZIN A   1      18.537  -0.395  16.343  0.00  0.00     0.065 C 
ATOM      9  C19 ZIN A   1      17.061  -0.518  16.728  0.00  0.00     0.046 C 
ATOM     10  C20 ZIN A   1      19.412  -0.603  17.582  0.00  0.00     0.046 C 
ATOM     11  C21 ZIN A   1      18.802   0.989  15.750  0.00  0.00     0.029 C 
ATOM     12  C23 ZIN A   1      18.579   2.084  16.790  0.00  0.00     0.015 C 
ATOM     13  C24 ZIN A   1      18.955   3.437  16.170  0.00  0.00     0.079 C 
ATOM     14  C25 ZIN A   1      18.195   3.616  14.876  0.00  0.00     0.127 C 
ATOM     15  O26 ZIN A   1      17.581   4.633  14.659  0.00  0.00    -0.298 OA
ATOM     16  C27 ZIN A   1      18.218   2.496  13.856  0.00  0.00     0.088 C 
ATOM     17  C28 ZIN A   1      17.838   1.202  14.580  0.00  0.00     0.038 C 
ENDROOT
BRANCH   1  18
ATOM     18  C7  ZIN A   1      18.065  -3.308  10.965  0.00  0.00    -0.020 C 
ATOM     19  C8  ZIN A   1      17.028  -4.349  11.388  0.00  0.00     0.020 C 
ATOM     20  C9  ZIN A   1      19.462  -3.932  11.006  0.00  0.00     0.020 C 
BRANCH  18  21
ATOM     21  C6  ZIN A   1      17.760  -2.833   9.542  0.00  0.00     0.013 C 
BRANCH  21  22
ATOM     22  C5  ZIN A   1      18.997  -3.029   8.664  0.00  0.00     0.001 C 
BRANCH  22  23
ATOM     23  C4  ZIN A   1      19.183  -1.805   7.765  0.00  0.00     0.000 C 
BRANCH  23  24
ATOM     24  C3  ZIN A   1      19.569  -0.597   8.622  0.00  0.00    -0.000 C 
BRANCH  24  25
ATOM     25  C2  ZIN A   1      18.644   0.577   8.294  0.00  0.00    -0.005 C 
ATOM     26  C1  ZIN A   1      19.190   1.853   8.938  0.00  0.00     0.005 C 
ENDBRANCH  24  25
ENDBRANCH  23  24
ENDBRANCH  22  23
ENDBRANCH  21  22
ENDBRANCH  18  21
ENDBRANCH   1  18
BRANCH   3  27
ATOM     27  O13 ZIN A   1      16.996   1.358  11.909  0.00  0.00    -0.360 OA
ATOM     28  H50 ZIN A   1      16.663   1.927  12.617  0.00  0.00     0.217 HD
ENDBRANCH   3  27
TORSDOF 7
ENDMDL
MODEL 2
REMARK VINA RESULT:      -8.2      2.566      8.118
REMARK  7 active torsions:
REMARK  status: ('A' for Active; 'I' for Inactive)
REMARK    1  A    between atoms: C2_2  and  C3_3 
REMARK    2  A    between atoms: C3_3  and  C4_4 
REMARK    3  A    between atoms: C4_4  and  C5_5 
REMARK    4  A    between atoms: C5_5  and  C6_6 
REMARK    5  A    between atoms: C6_6  and  C7_7 
REMARK    6  A    between atoms: C7_7  and  C10_10 
REMARK    7  A    between atoms: C12_12  and  O13_13 
ROOT
ATOM      1  C10 ZIN A   1      18.281   1.715  10.628  0.00  0.00    -0.045 A 
ATOM      2  C11 ZIN A   1      18.013   0.456  11.132  0.00  0.00     0.045 A 
ATOM      3  C12 ZIN A   1      18.012  -0.641  10.284  0.00  0.00     0.075 A 
ATOM      4  C14 ZIN A   1      18.282  -0.480   8.932  0.00  0.00     0.013 A 
ATOM      5  C15 ZIN A   1      18.557   0.781   8.429  0.00  0.00     0.079 A 
ATOM      6  C16 ZIN A   1      18.545   1.879   9.284  0.00  0.00     0.045 A 
ATOM      7  O17 ZIN A   1      18.846   0.987   7.118  0.00  0.00    -0.340 OA
ATOM      8  C18 ZIN A   1      18.551  -0.052   6.182  0.00  0.00     0.065 C 
ATOM      9  C19 ZIN A   1      17.039  -0.134   5.961  0.00  0.00     0.046 C 
ATOM     10  C20 ZIN A   1      19.252   0.237   4.852  0.00  0.00     0.046 C 
ATOM     11  C21 ZIN A   1      19.061  -1.374   6.757  0.00  0.00     0.029 C 
ATOM     12  C23 ZIN A   1      18.875  -2.515   5.761  0.00  0.00     0.015 C 
ATOM     13  C24 ZIN A   1      19.492  -3.791   6.350  0.00  0.00     0.079 C 
ATOM     14  C25 ZIN A   1      18.907  -4.034   7.722  0.00  0.00     0.127 C 
ATOM     15  O26 ZIN A   1      18.461  -5.118   8.016  0.00  0.00    -0.298 OA
ATOM     16  C27 ZIN A   1      18.891  -2.896   8.720  0.00  0.00     0.088 C 
ATOM     17  C28 ZIN A   1      18.266  -1.682   8.029  0.00  0.00     0.038 C 
ENDROOT
BRANCH   1  18
ATOM     18  C7  ZIN A   1      18.279   2.909  11.547  0.00  0.00    -0.020 C 
ATOM     19  C8  ZIN A   1      17.378   3.999  10.964  0.00  0.00     0.020 C 
ATOM     20  C9  ZIN A   1      19.705   3.446  11.688  0.00  0.00     0.020 C 
BRANCH  18  21
ATOM     21  C6  ZIN A   1      17.752   2.494  12.923  0.00  0.00     0.013 C 
BRANCH  21  22
ATOM     22  C5  ZIN A   1      18.798   2.819  13.989  0.00  0.00     0.001 C 
BRANCH  22  23
ATOM     23  C4  ZIN A   1      18.991   1.606  14.902  0.00  0.00     0.000 C 
BRANCH  23  24
ATOM     24  C3  ZIN A   1      17.753   0.710  14.826  0.00  0.00    -0.000 C 
BRANCH  24  25
ATOM     25  C2  ZIN A   1      18.133  -0.720  15.219  0.00  0.00    -0.005 C 
ATOM     26  C1  ZIN A   1      19.171  -1.260  14.233  0.00  0.00     0.005 C 
ENDBRANCH  24  25
ENDBRANCH  23  24
ENDBRANCH  22  23
ENDBRANCH  21  22
ENDBRANCH  18  21
ENDBRANCH   1  18
BRANCH   3  27
ATOM     27  O13 ZIN A   1      17.745  -1.879  10.778  0.00  0.00    -0.360 OA
ATOM     28  H50 ZIN A   1      17.195  -1.875  11.574  0.00  0.00     0.217 HD
ENDBRANCH   3  27
TORSDOF 7
ENDMDL
MODEL 3
REMARK VINA RESULT:      -8.1      1.317      2.707
REMARK  7 active torsions:
REMARK  status: ('A' for Active; 'I' for Inactive)
REMARK    1  A    between atoms: C2_2  and  C3_3 
REMARK    2  A    between atoms: C3_3  and  C4_4 
REMARK    3  A    between atoms: C4_4  and  C5_5 
REMARK    4  A    between atoms: C5_5  and  C6_6 
REMARK    5  A    between atoms: C6_6  and  C7_7 
REMARK    6  A    between atoms: C7_7  and  C10_10 
REMARK    7  A    between atoms: C12_12  and  O13_13 
ROOT
ATOM      1  C10 ZIN A   1      18.358  -1.773  12.211  0.00  0.00    -0.045 A 
ATOM      2  C11 ZIN A   1      17.874  -0.565  11.747  0.00  0.00     0.045 A 
ATOM      3  C12 ZIN A   1      17.743   0.506  12.617  0.00  0.00     0.075 A 
ATOM      4  C14 ZIN A   1      18.097   0.370  13.952  0.00  0.00     0.013 A 
ATOM      5  C15 ZIN A   1      18.588  -0.840  14.415  0.00  0.00     0.079 A 
ATOM      6  C16 ZIN A   1      18.707  -1.913  13.538  0.00  0.00     0.045 A 
ATOM      7  O17 ZIN A   1      18.966  -1.017  15.708  0.00  0.00    -0.340 OA
ATOM      8  C18 ZIN A   1      18.558  -0.050  16.678  0.00  0.00     0.065 C 
ATOM      9  C19 ZIN A   1      17.064  -0.208  16.967  0.00  0.00     0.046 C 
ATOM     10  C20 ZIN A   1      19.357  -0.245  17.969  0.00  0.00     0.046 C 
ATOM     11  C21 ZIN A   1      18.829   1.343  16.109  0.00  0.00     0.029 C 
ATOM     12  C23 ZIN A   1      18.515   2.427  17.137  0.00  0.00     0.015 C 
ATOM     13  C24 ZIN A   1      18.899   3.792  16.549  0.00  0.00     0.079 C 
ATOM     14  C25 ZIN A   1      18.220   3.961  15.209  0.00  0.00     0.127 C 
ATOM     15  O26 ZIN A   1      17.598   4.965  14.958  0.00  0.00    -0.298 OA
ATOM     16  C27 ZIN A   1      18.334   2.848  14.188  0.00  0.00     0.088 C 
ATOM     17  C28 ZIN A   1      17.938   1.542  14.880  0.00  0.00     0.038 C 
ENDROOT
BRANCH   1  18
ATOM     18  C7  ZIN A   1      18.498  -2.940  11.268  0.00  0.00    -0.020 C 
ATOM     19  C8  ZIN A   1      19.848  -3.622  11.496  0.00  0.00     0.020 C 
ATOM     20  C9  ZIN A   1      18.415  -2.441   9.823  0.00  0.00     0.020 C 
BRANCH  18  21
ATOM     21  C6  ZIN A   1      17.370  -3.943  11.526  0.00  0.00     0.013 C 
BRANCH  21  22
ATOM     22  C5  ZIN A   1      17.863  -5.356  11.214  0.00  0.00     0.001 C 
BRANCH  22  23
ATOM     23  C4  ZIN A   1      16.953  -5.993  10.162  0.00  0.00     0.000 C 
BRANCH  23  24
ATOM     24  C3  ZIN A   1      17.665  -5.999   8.808  0.00  0.00    -0.000 C 
BRANCH  24  25
ATOM     25  C2  ZIN A   1      19.167  -6.201   9.022  0.00  0.00    -0.005 C 
ATOM     26  C1  ZIN A   1      19.945  -5.351   8.015  0.00  0.00     0.005 C 
ENDBRANCH  24  25
ENDBRANCH  23  24
ENDBRANCH  22  23
ENDBRANCH  21  22
ENDBRANCH  18  21
ENDBRANCH   1  18
BRANCH   3  27
ATOM     27  O13 ZIN A   1      17.265   1.695  12.161  0.00  0.00    -0.360 OA
ATOM     28  H50 ZIN A   1      17.408   2.435  12.768  0.00  0.00     0.217 HD
ENDBRANCH   3  27
TORSDOF 7
ENDMDL
MODEL 4
REMARK VINA RESULT:      -8.1      2.608      7.788
REMARK  7 active torsions:
REMARK  status: ('A' for Active; 'I' for Inactive)
REMARK    1  A    between atoms: C2_2  and  C3_3 
REMARK    2  A    between atoms: C3_3  and  C4_4 
REMARK    3  A    between atoms: C4_4  and  C5_5 
REMARK    4  A    between atoms: C5_5  and  C6_6 
REMARK    5  A    between atoms: C6_6  and  C7_7 
REMARK    6  A    between atoms: C7_7  and  C10_10 
REMARK    7  A    between atoms: C12_12  and  O13_13 
ROOT
ATOM      1  C10 ZIN A   1      18.834  -0.796  11.987  0.00  0.00    -0.045 A 
ATOM      2  C11 ZIN A   1      19.525  -0.015  11.080  0.00  0.00     0.045 A 
ATOM      3  C12 ZIN A   1      19.647  -0.430   9.763  0.00  0.00     0.075 A 
ATOM      4  C14 ZIN A   1      19.077  -1.626   9.352  0.00  0.00     0.013 A 
ATOM      5  C15 ZIN A   1      18.379  -2.406  10.259  0.00  0.00     0.079 A 
ATOM      6  C16 ZIN A   1      18.269  -1.988  11.582  0.00  0.00     0.045 A 
ATOM      7  O17 ZIN A   1      17.787  -3.575   9.900  0.00  0.00    -0.340 OA
ATOM      8  C18 ZIN A   1      18.153  -4.171   8.654  0.00  0.00     0.065 C 
ATOM      9  C19 ZIN A   1      19.554  -4.775   8.763  0.00  0.00     0.046 C 
ATOM     10  C20 ZIN A   1      17.147  -5.266   8.290  0.00  0.00     0.046 C 
ATOM     11  C21 ZIN A   1      18.142  -3.083   7.580  0.00  0.00     0.029 C 
ATOM     12  C23 ZIN A   1      18.421  -3.671   6.199  0.00  0.00     0.015 C 
ATOM     13  C24 ZIN A   1      18.299  -2.554   5.153  0.00  0.00     0.079 C 
ATOM     14  C25 ZIN A   1      19.193  -1.403   5.553  0.00  0.00     0.127 C 
ATOM     15  O26 ZIN A   1      19.963  -0.917   4.759  0.00  0.00    -0.298 OA
ATOM     16  C27 ZIN A   1      19.106  -0.870   6.968  0.00  0.00     0.088 C 
ATOM     17  C28 ZIN A   1      19.230  -2.062   7.921  0.00  0.00     0.038 C 
ENDROOT
BRANCH   1  18
ATOM     18  C7  ZIN A   1      18.703  -0.349  13.420  0.00  0.00    -0.020 C 
ATOM     19  C8  ZIN A   1      17.490   0.572  13.559  0.00  0.00     0.020 C 
ATOM     20  C9  ZIN A   1      19.968   0.405  13.836  0.00  0.00     0.020 C 
BRANCH  18  21
ATOM     21  C6  ZIN A   1      18.520  -1.573  14.321  0.00  0.00     0.013 C 
BRANCH  21  22
ATOM     22  C5  ZIN A   1      18.903  -1.210  15.757  0.00  0.00     0.001 C 
BRANCH  22  23
ATOM     23  C4  ZIN A   1      17.657  -1.260  16.645  0.00  0.00     0.000 C 
BRANCH  23  24
ATOM     24  C3  ZIN A   1      17.766  -0.193  17.736  0.00  0.00    -0.000 C 
BRANCH  24  25
ATOM     25  C2  ZIN A   1      19.218   0.279  17.844  0.00  0.00    -0.005 C 
ATOM     26  C1  ZIN A   1      19.246   1.775  18.164  0.00  0.00     0.005 C 
ENDBRANCH  24  25
ENDBRANCH  23  24
ENDBRANCH  22  23
ENDBRANCH  21  22
ENDBRANCH  18  21
ENDBRANCH   1  18
BRANCH   3  27
ATOM     27  O13 ZIN A   1      20.329   0.337   8.872  0.00  0.00    -0.360 OA
ATOM     28  H50 ZIN A   1      21.061   0.838   9.262  0.00  0.00     0.217 HD
ENDBRANCH   3  27
TORSDOF 7
ENDMDL
MODEL 5
REMARK VINA RESULT:      -7.9      3.468      8.316
REMARK  7 active torsions:
REMARK  status: ('A' for Active; 'I' for Inactive)
REMARK    1  A    between atoms: C2_2  and  C3_3 
REMARK    2  A    between atoms: C3_3  and  C4_4 
REMARK    3  A    between atoms: C4_4  and  C5_5 
REMARK    4  A    between atoms: C5_5  and  C6_6 
REMARK    5  A    between atoms: C6_6  and  C7_7 
REMARK    6  A    between atoms: C7_7  and  C10_10 
REMARK    7  A    between atoms: C12_12  and  O13_13 
ROOT
ATOM      1  C10 ZIN A   1      18.143   2.455  10.540  0.00  0.00    -0.045 A 
ATOM      2  C11 ZIN A   1      17.617   1.349  11.179  0.00  0.00     0.045 A 
ATOM      3  C12 ZIN A   1      17.523   0.141  10.505  0.00  0.00     0.075 A 
ATOM      4  C14 ZIN A   1      17.958   0.039   9.191  0.00  0.00     0.013 A 
ATOM      5  C15 ZIN A   1      18.491   1.146   8.553  0.00  0.00     0.079 A 
ATOM      6  C16 ZIN A   1      18.572   2.357   9.232  0.00  0.00     0.045 A 
ATOM      7  O17 ZIN A   1      18.947   1.090   7.274  0.00  0.00    -0.340 OA
ATOM      8  C18 ZIN A   1      18.585  -0.032   6.467  0.00  0.00     0.065 C 
ATOM      9  C19 ZIN A   1      17.112   0.076   6.065  0.00  0.00     0.046 C 
ATOM     10  C20 ZIN A   1      19.461  -0.070   5.212  0.00  0.00     0.046 C 
ATOM     11  C21 ZIN A   1      18.803  -1.303   7.288  0.00  0.00     0.029 C 
ATOM     12  C23 ZIN A   1      18.536  -2.551   6.450  0.00  0.00     0.015 C 
ATOM     13  C24 ZIN A   1      18.866  -3.791   7.292  0.00  0.00     0.079 C 
ATOM     14  C25 ZIN A   1      18.106  -3.719   8.597  0.00  0.00     0.127 C 
ATOM     15  O26 ZIN A   1      17.457  -4.661   8.983  0.00  0.00    -0.298 OA
ATOM     16  C27 ZIN A   1      18.174  -2.443   9.410  0.00  0.00     0.088 C 
ATOM     17  C28 ZIN A   1      17.837  -1.279   8.476  0.00  0.00     0.038 C 
ENDROOT
BRANCH   1  18
ATOM     18  C7  ZIN A   1      18.242   3.770  11.269  0.00  0.00    -0.020 C 
ATOM     19  C8  ZIN A   1      17.752   4.897  10.357  0.00  0.00     0.020 C 
ATOM     20  C9  ZIN A   1      19.699   4.027  11.660  0.00  0.00     0.020 C 
BRANCH  18  21
ATOM     21  C6  ZIN A   1      17.376   3.721  12.530  0.00  0.00     0.013 C 
BRANCH  21  22
ATOM     22  C5  ZIN A   1      16.828   5.117  12.826  0.00  0.00     0.001 C 
BRANCH  22  23
ATOM     23  C4  ZIN A   1      16.958   5.409  14.322  0.00  0.00     0.000 C 
BRANCH  23  24
ATOM     24  C3  ZIN A   1      17.880   6.614  14.528  0.00  0.00    -0.000 C 
BRANCH  24  25
ATOM     25  C2  ZIN A   1      19.095   6.190  15.356  0.00  0.00    -0.005 C 
ATOM     26  C1  ZIN A   1      20.351   6.240  14.483  0.00  0.00     0.005 C 
ENDBRANCH  24  25
ENDBRANCH  23  24
ENDBRANCH  22  23
ENDBRANCH  21  22
ENDBRANCH  18  21
ENDBRANCH   1  18
BRANCH   3  27
ATOM     27  O13 ZIN A   1      17.003  -0.947  11.133  0.00  0.00    -0.360 OA
ATOM     28  H50 ZIN A   1      16.041  -1.020  11.061  0.00  0.00     0.217 HD
ENDBRANCH   3  27
TORSDOF 7
ENDMDL
MODEL 6
REMARK VINA RESULT:      -7.9      1.415      3.163
REMARK  7 active torsions:
REMARK  status: ('A' for Active; 'I' for Inactive)
REMARK    1  A    between atoms: C2_2  and  C3_3 
REMARK    2  A    between atoms: C3_3  and  C4_4 
REMARK    3  A    between atoms: C4_4  and  C5_5 
REMARK    4  A    between atoms: C5_5  and  C6_6 
REMARK    5  A    between atoms: C6_6  and  C7_7 
REMARK    6  A    between atoms: C7_7  and  C10_10 
REMARK    7  A    between atoms: C12_12  and  O13_13 
ROOT
ATOM      1  C10 ZIN A   1      18.442  -2.222  11.490  0.00  0.00    -0.045 A 
ATOM      2  C11 ZIN A   1      19.089  -2.259  12.711  0.00  0.00     0.045 A 
ATOM      3  C12 ZIN A   1      19.304  -1.084  13.414  0.00  0.00     0.075 A 
ATOM      4  C14 ZIN A   1      18.872   0.129  12.896  0.00  0.00     0.013 A 
ATOM      5  C15 ZIN A   1      18.220   0.165  11.675  0.00  0.00     0.079 A 
ATOM      6  C16 ZIN A   1      18.016  -1.017  10.971  0.00  0.00     0.045 A 
ATOM      7  O17 ZIN A   1      17.761   1.325  11.136  0.00  0.00    -0.340 OA
ATOM      8  C18 ZIN A   1      18.234   2.562  11.673  0.00  0.00     0.065 C 
ATOM      9  C19 ZIN A   1      19.684   2.792  11.240  0.00  0.00     0.046 C 
ATOM     10  C20 ZIN A   1      17.357   3.712  11.172  0.00  0.00     0.046 C 
ATOM     11  C21 ZIN A   1      18.159   2.482  13.198  0.00  0.00     0.029 C 
ATOM     12  C23 ZIN A   1      18.550   3.812  13.838  0.00  0.00     0.015 C 
ATOM     13  C24 ZIN A   1      18.360   3.704  15.358  0.00  0.00     0.079 C 
ATOM     14  C25 ZIN A   1      19.119   2.499  15.865  0.00  0.00     0.127 C 
ATOM     15  O26 ZIN A   1      19.867   2.597  16.808  0.00  0.00    -0.298 OA
ATOM     16  C27 ZIN A   1      18.922   1.168  15.170  0.00  0.00     0.088 C 
ATOM     17  C28 ZIN A   1      19.126   1.393  13.670  0.00  0.00     0.038 C 
ENDROOT
BRANCH   1  18
ATOM     18  C7  ZIN A   1      18.210  -3.498  10.722  0.00  0.00    -0.020 C 
ATOM     19  C8  ZIN A   1      17.146  -4.335  11.434  0.00  0.00     0.020 C 
ATOM     20  C9  ZIN A   1      19.517  -4.291  10.645  0.00  0.00     0.020 C 
BRANCH  18  21
ATOM     21  C6  ZIN A   1      17.733  -3.162   9.307  0.00  0.00     0.013 C 
BRANCH  21  22
ATOM     22  C5  ZIN A   1      18.872  -3.403   8.315  0.00  0.00     0.001 C 
BRANCH  22  23
ATOM     23  C4  ZIN A   1      18.811  -2.351   7.205  0.00  0.00     0.000 C 
BRANCH  23  24
ATOM     24  C3  ZIN A   1      19.396  -1.033   7.719  0.00  0.00    -0.000 C 
BRANCH  24  25
ATOM     25  C2  ZIN A   1      18.588   0.137   7.154  0.00  0.00    -0.005 C 
ATOM     26  C1  ZIN A   1      19.006   1.432   7.855  0.00  0.00     0.005 C 
ENDBRANCH  24  25
ENDBRANCH  23  24
ENDBRANCH  22  23
ENDBRANCH  21  22
ENDBRANCH  18  21
ENDBRANCH   1  18
BRANCH   3  27
ATOM     27  O13 ZIN A   1      19.942  -1.119  14.614  0.00  0.00    -0.360 OA
ATOM     28  H50 ZIN A   1      20.751  -1.650  14.614  0.00  0.00     0.217 HD
ENDBRANCH   3  27
TORSDOF 7
ENDMDL
MODEL 7
REMARK VINA RESULT:      -7.8      1.647      2.583
REMARK  7 active torsions:
REMARK  status: ('A' for Active; 'I' for Inactive)
REMARK    1  A    between atoms: C2_2  and  C3_3 
REMARK    2  A    between atoms: C3_3  and  C4_4 
REMARK    3  A    between atoms: C4_4  and  C5_5 
REMARK    4  A    between atoms: C5_5  and  C6_6 
REMARK    5  A    between atoms: C6_6  and  C7_7 
REMARK    6  A    between atoms: C7_7  and  C10_10 
REMARK    7  A    between atoms: C12_12  and  O13_13 
ROOT
ATOM      1  C10 ZIN A   1      18.621   0.353  11.673  0.00  0.00    -0.045 A 
ATOM      2  C11 ZIN A   1      18.209   1.653  11.899  0.00  0.00     0.045 A 
ATOM      3  C12 ZIN A   1      18.094   2.126  13.197  0.00  0.00     0.075 A 
ATOM      4  C14 ZIN A   1      18.391   1.298  14.271  0.00  0.00     0.013 A 
ATOM      5  C15 ZIN A   1      18.810  -0.003  14.044  0.00  0.00     0.079 A 
ATOM      6  C16 ZIN A   1      18.913  -0.473  12.739  0.00  0.00     0.045 A 
ATOM      7  O17 ZIN A   1      19.131  -0.844  15.061  0.00  0.00    -0.340 OA
ATOM      8  C18 ZIN A   1      18.730  -0.496  16.388  0.00  0.00     0.065 C 
ATOM      9  C19 ZIN A   1      17.221  -0.694  16.540  0.00  0.00     0.046 C 
ATOM     10  C20 ZIN A   1      19.470  -1.377  17.399  0.00  0.00     0.046 C 
ATOM     11  C21 ZIN A   1      19.084   0.972  16.626  0.00  0.00     0.029 C 
ATOM     12  C23 ZIN A   1      18.781   1.384  18.065  0.00  0.00     0.015 C 
ATOM     13  C24 ZIN A   1      19.247   2.832  18.273  0.00  0.00     0.079 C 
ATOM     14  C25 ZIN A   1      18.626   3.708  17.208  0.00  0.00     0.127 C 
ATOM     15  O26 ZIN A   1      18.059   4.731  17.509  0.00  0.00    -0.298 OA
ATOM     16  C27 ZIN A   1      18.728   3.279  15.759  0.00  0.00     0.088 C 
ATOM     17  C28 ZIN A   1      18.249   1.828  15.670  0.00  0.00     0.038 C 
ENDROOT
BRANCH   1  18
ATOM     18  C7  ZIN A   1      18.744  -0.164  10.263  0.00  0.00    -0.020 C 
ATOM     19  C8  ZIN A   1      17.936  -1.454  10.121  0.00  0.00     0.020 C 
ATOM     20  C9  ZIN A   1      20.215  -0.445   9.950  0.00  0.00     0.020 C 
BRANCH  18  21
ATOM     21  C6  ZIN A   1      18.206   0.885   9.286  0.00  0.00     0.013 C 
BRANCH  21  22
ATOM     22  C5  ZIN A   1      19.351   1.404   8.415  0.00  0.00     0.001 C 
BRANCH  22  23
ATOM     23  C4  ZIN A   1      18.930   1.366   6.944  0.00  0.00     0.000 C 
BRANCH  23  24
ATOM     24  C3  ZIN A   1      17.762   0.391   6.774  0.00  0.00    -0.000 C 
BRANCH  24  25
ATOM     25  C2  ZIN A   1      18.012  -0.495   5.551  0.00  0.00    -0.005 C 
ATOM     26  C1  ZIN A   1      19.241   0.014   4.795  0.00  0.00     0.005 C 
ENDBRANCH  24  25
ENDBRANCH  23  24
ENDBRANCH  22  23
ENDBRANCH  21  22
ENDBRANCH  18  21
ENDBRANCH   1  18
BRANCH   3  27
ATOM     27  O13 ZIN A   1      17.686   3.404  13.419  0.00  0.00    -0.360 OA
ATOM     28  H50 ZIN A   1      16.964   3.481  14.058  0.00  0.00     0.217 HD
ENDBRANCH   3  27
TORSDOF 7
ENDMDL
MODEL 8
REMARK VINA RESULT:      -7.6      2.262      4.129
REMARK  7 active torsions:
REMARK  status: ('A' for Active; 'I' for Inactive)
REMARK    1  A    between atoms: C2_2  and  C3_3 
REMARK    2  A    between atoms: C3_3  and  C4_4 
REMARK    3  A    between atoms: C4_4  and  C5_5 
REMARK    4  A    between atoms: C5_5  and  C6_6 
REMARK    5  A    between atoms: C6_6  and  C7_7 
REMARK    6  A    between atoms: C7_7  and  C10_10 
REMARK    7  A    between atoms: C12_12  and  O13_13 
ROOT
ATOM      1  C10 ZIN A   1      18.789   0.926  11.030  0.00  0.00    -0.045 A 
ATOM      2  C11 ZIN A   1      19.470   0.137  11.938  0.00  0.00     0.045 A 
ATOM      3  C12 ZIN A   1      19.595   0.552  13.255  0.00  0.00     0.075 A 
ATOM      4  C14 ZIN A   1      19.037   1.755  13.665  0.00  0.00     0.013 A 
ATOM      5  C15 ZIN A   1      18.350   2.542  12.755  0.00  0.00     0.079 A 
ATOM      6  C16 ZIN A   1      18.237   2.125  11.433  0.00  0.00     0.045 A 
ATOM      7  O17 ZIN A   1      17.770   3.718  13.114  0.00  0.00    -0.340 OA
ATOM      8  C18 ZIN A   1      18.141   4.311  14.360  0.00  0.00     0.065 C 
ATOM      9  C19 ZIN A   1      19.550   4.898  14.252  0.00  0.00     0.046 C 
ATOM     10  C20 ZIN A   1      17.147   5.417  14.721  0.00  0.00     0.046 C 
ATOM     11  C21 ZIN A   1      18.116   3.223  15.434  0.00  0.00     0.029 C 
ATOM     12  C23 ZIN A   1      18.400   3.809  16.816  0.00  0.00     0.015 C 
ATOM     13  C24 ZIN A   1      18.264   2.695  17.862  0.00  0.00     0.079 C 
ATOM     14  C25 ZIN A   1      19.145   1.533  17.463  0.00  0.00     0.127 C 
ATOM     15  O26 ZIN A   1      19.908   1.039  18.259  0.00  0.00    -0.298 OA
ATOM     16  C27 ZIN A   1      19.054   1.000  16.048  0.00  0.00     0.088 C 
ATOM     17  C28 ZIN A   1      19.193   2.189  15.095  0.00  0.00     0.038 C 
ENDROOT
BRANCH   1  18
ATOM     18  C7  ZIN A   1      18.655   0.480   9.596  0.00  0.00    -0.020 C 
ATOM     19  C8  ZIN A   1      17.317  -0.237   9.408  0.00  0.00     0.020 C 
ATOM     20  C9  ZIN A   1      19.800  -0.475   9.251  0.00  0.00     0.020 C 
BRANCH  18  21
ATOM     21  C6  ZIN A   1      18.713   1.700   8.674  0.00  0.00     0.013 C 
BRANCH  21  22
ATOM     22  C5  ZIN A   1      19.487   1.343   7.405  0.00  0.00     0.001 C 
BRANCH  22  23
ATOM     23  C4  ZIN A   1      18.505   1.137   6.250  0.00  0.00     0.000 C 
BRANCH  23  24
ATOM     24  C3  ZIN A   1      19.200   0.377   5.118  0.00  0.00    -0.000 C 
BRANCH  24  25
ATOM     25  C2  ZIN A   1      19.173  -1.123   5.420  0.00  0.00    -0.005 C 
ATOM     26  C1  ZIN A   1      17.829  -1.708   4.980  0.00  0.00     0.005 C 
ENDBRANCH  24  25
ENDBRANCH  23  24
ENDBRANCH  22  23
ENDBRANCH  21  22
ENDBRANCH  18  21
ENDBRANCH   1  18
BRANCH   3  27
ATOM     27  O13 ZIN A   1      20.266  -0.223  14.147  0.00  0.00    -0.360 OA
ATOM     28  H50 ZIN A   1      20.924   0.259  14.669  0.00  0.00     0.217 HD
ENDBRANCH   3  27
TORSDOF 7
ENDMDL
MODEL 9
REMARK VINA RESULT:      -7.3      1.388      3.332
REMARK  7 active torsions:
REMARK  status: ('A' for Active; 'I' for Inactive)
REMARK    1  A    between atoms: C2_2  and  C3_3 
REMARK    2  A    between atoms: C3_3  and  C4_4 
REMARK    3  A    between atoms: C4_4  and  C5_5 
REMARK    4  A    between atoms: C5_5  and  C6_6 
REMARK    5  A    between atoms: C6_6  and  C7_7 
REMARK    6  A    between atoms: C7_7  and  C10_10 
REMARK    7  A    between atoms: C12_12  and  O13_13 
ROOT
ATOM      1  C10 ZIN A   1      18.632   0.874  11.781  0.00  0.00    -0.045 A 
ATOM      2  C11 ZIN A   1      18.201   2.133  12.156  0.00  0.00     0.045 A 
ATOM      3  C12 ZIN A   1      18.086   2.451  13.500  0.00  0.00     0.075 A 
ATOM      4  C14 ZIN A   1      18.403   1.511  14.470  0.00  0.00     0.013 A 
ATOM      5  C15 ZIN A   1      18.841   0.251  14.094  0.00  0.00     0.079 A 
ATOM      6  C16 ZIN A   1      18.944  -0.064  12.743  0.00  0.00     0.045 A 
ATOM      7  O17 ZIN A   1      19.181  -0.696  15.007  0.00  0.00    -0.340 OA
ATOM      8  C18 ZIN A   1      18.784  -0.510  16.366  0.00  0.00     0.065 C 
ATOM      9  C19 ZIN A   1      17.278  -0.748  16.501  0.00  0.00     0.046 C 
ATOM     10  C20 ZIN A   1      19.543  -1.488  17.266  0.00  0.00     0.046 C 
ATOM     11  C21 ZIN A   1      19.116   0.927  16.770  0.00  0.00     0.029 C 
ATOM     12  C23 ZIN A   1      18.815   1.167  18.247  0.00  0.00     0.015 C 
ATOM     13  C24 ZIN A   1      19.259   2.588  18.618  0.00  0.00     0.079 C 
ATOM     14  C25 ZIN A   1      18.618   3.570  17.665  0.00  0.00     0.127 C 
ATOM     15  O26 ZIN A   1      18.037   4.543  18.083  0.00  0.00    -0.298 OA
ATOM     16  C27 ZIN A   1      18.718   3.312  16.175  0.00  0.00     0.088 C 
ATOM     17  C28 ZIN A   1      18.261   1.874  15.922  0.00  0.00     0.038 C 
ENDROOT
BRANCH   1  18
ATOM     18  C7  ZIN A   1      18.754   0.524  10.320  0.00  0.00    -0.020 C 
ATOM     19  C8  ZIN A   1      19.252   1.745   9.543  0.00  0.00     0.020 C 
ATOM     20  C9  ZIN A   1      17.386   0.099   9.782  0.00  0.00     0.020 C 
BRANCH  18  21
ATOM     21  C6  ZIN A   1      19.749  -0.627  10.152  0.00  0.00     0.013 C 
BRANCH  21  22
ATOM     22  C5  ZIN A   1      18.985  -1.926   9.893  0.00  0.00     0.001 C 
BRANCH  22  23
ATOM     23  C4  ZIN A   1      19.676  -3.078  10.626  0.00  0.00     0.000 C 
BRANCH  23  24
ATOM     24  C3  ZIN A   1      18.845  -3.476  11.848  0.00  0.00    -0.000 C 
BRANCH  24  25
ATOM     25  C2  ZIN A   1      17.375  -3.607  11.444  0.00  0.00    -0.005 C 
ATOM     26  C1  ZIN A   1      17.040  -5.081  11.206  0.00  0.00     0.005 C 
ENDBRANCH  24  25
ENDBRANCH  23  24
ENDBRANCH  22  23
ENDBRANCH  21  22
ENDBRANCH  18  21
ENDBRANCH   1  18
BRANCH   3  27
ATOM     27  O13 ZIN A   1      17.660   3.688  13.869  0.00  0.00    -0.360 OA
ATOM     28  H50 ZIN A   1      16.952   3.680  14.529  0.00  0.00     0.217 HD
ENDBRANCH   3  27
TORSDOF 7
ENDMDL
