MODEL 1
REMARK VINA RESULT:      -8.6      0.000      0.000
REMARK  0 active torsions:
REMARK  status: ('A' for Active; 'I' for Inactive)
ROOT
ATOM      1  C1  ZIN A   1      19.515  -3.195  10.949  0.00  0.00     0.269 C 
ATOM      2  N2  ZIN A   1      18.068  -2.944  10.955  0.00  0.00    -0.072 N 
ATOM      3  H3  ZIN A   1      17.645  -3.404  11.749  0.00  0.00     0.279 HD
ATOM      4  C4  ZIN A   1      17.469  -3.452   9.710  0.00  0.00     0.249 C 
ATOM      5  C5  ZIN A   1      18.207  -2.814   8.536  0.00  0.00     0.125 C 
ATOM      6  N6  ZIN A   1      18.088  -1.338   8.584  0.00  0.00    -0.255 NA
ATOM      7  C7  ZIN A   1      18.587  -0.877   7.385  0.00  0.00     0.112 A 
ATOM      8  N8  ZIN A   1      18.876  -1.895   6.548  0.00  0.00    -0.248 NA
ATOM      9  C9  ZIN A   1      19.285  -1.732   5.316  0.00  0.00     0.118 A 
ATOM     10  C10 ZIN A   1      19.436  -0.456   4.807  0.00  0.00     0.020 A 
ATOM     11  C11 ZIN A   1      19.190   0.615   5.638  0.00  0.00     0.012 A 
ATOM     12  C12 ZIN A   1      18.794   0.409   6.973  0.00  0.00    -0.013 A 
ATOM     13  C13 ZIN A   1      18.751   1.651   7.763  0.00  0.00     0.081 C 
ATOM     14  C14 ZIN A   1      18.490   1.709   9.212  0.00  0.00    -0.046 A 
ATOM     15  C15 ZIN A   1      18.462   3.023   9.717  0.00  0.00     0.008 A 
ATOM     16  C16 ZIN A   1      18.158   3.297  11.026  0.00  0.00     0.001 A 
ATOM     17  C17 ZIN A   1      17.858   2.253  11.882  0.00  0.00     0.001 A 
ATOM     18  C18 ZIN A   1      17.915   0.967  11.404  0.00  0.00     0.009 A 
ATOM     19  C19 ZIN A   1      18.273   0.683  10.077  0.00  0.00    -0.032 A 
ATOM     20  C20 ZIN A   1      18.461  -0.780   9.829  0.00  0.00     0.124 C 
ATOM     21  C22 ZIN A   1      17.814  -1.503  11.024  0.00  0.00     0.259 C 
ENDROOT
TORSDOF 0
ENDMDL
MODEL 2
REMARK VINA RESULT:      -8.5      1.179      4.552
REMARK  0 active torsions:
REMARK  status: ('A' for Active; 'I' for Inactive)
ROOT
ATOM      1  C1  ZIN A   1      17.503  -3.479  10.349  0.00  0.00     0.269 C 
ATOM      2  N2  ZIN A   1      18.943  -3.576  10.072  0.00  0.00    -0.072 N 
ATOM      3  H3  ZIN A   1      19.222  -4.546  10.058  0.00  0.00     0.279 HD
ATOM      4  C4  ZIN A   1      19.700  -2.855  11.108  0.00  0.00     0.249 C 
ATOM      5  C5  ZIN A   1      19.172  -1.424  11.169  0.00  0.00     0.125 C 
ATOM      6  N6  ZIN A   1      19.344  -0.748   9.861  0.00  0.00    -0.255 NA
ATOM      7  C7  ZIN A   1      19.048   0.581  10.078  0.00  0.00     0.112 A 
ATOM      8  N8  ZIN A   1      18.846   0.832  11.388  0.00  0.00    -0.248 NA
ATOM      9  C9  ZIN A   1      18.634   2.027  11.877  0.00  0.00     0.118 A 
ATOM     10  C10 ZIN A   1      18.613   3.120  11.031  0.00  0.00     0.020 A 
ATOM     11  C11 ZIN A   1      18.776   2.906   9.679  0.00  0.00     0.012 A 
ATOM     12  C12 ZIN A   1      18.959   1.604   9.178  0.00  0.00    -0.013 A 
ATOM     13  C13 ZIN A   1      18.934   1.541   7.706  0.00  0.00     0.081 C 
ATOM     14  C14 ZIN A   1      18.978   0.292   6.925  0.00  0.00    -0.046 A 
ATOM     15  C15 ZIN A   1      18.984   0.510   5.534  0.00  0.00     0.008 A 
ATOM     16  C16 ZIN A   1      19.100  -0.518   4.633  0.00  0.00     0.001 A 
ATOM     17  C17 ZIN A   1      19.225  -1.813   5.100  0.00  0.00     0.001 A 
ATOM     18  C18 ZIN A   1      19.187  -2.036   6.454  0.00  0.00     0.009 A 
ATOM     19  C19 ZIN A   1      19.020  -0.990   7.374  0.00  0.00    -0.032 A 
ATOM     20  C20 ZIN A   1      18.812  -1.478   8.773  0.00  0.00     0.124 C 
ATOM     21  C22 ZIN A   1      19.243  -2.957   8.779  0.00  0.00     0.259 C 
ENDROOT
TORSDOF 0
ENDMDL
MODEL 3
REMARK VINA RESULT:      -8.2      3.455      6.838
REMARK  0 active torsions:
REMARK  status: ('A' for Active; 'I' for Inactive)
ROOT
ATOM      1  C1  ZIN A   1      19.702   5.120  13.454  0.00  0.00     0.269 C 
ATOM      2  N2  ZIN A   1      18.334   4.965  12.939  0.00  0.00    -0.072 N 
ATOM      3  H3  ZIN A   1      17.977   5.861  12.644  0.00  0.00     0.279 HD
ATOM      4  C4  ZIN A   1      17.468   4.404  13.989  0.00  0.00     0.249 C 
ATOM      5  C5  ZIN A   1      18.100   3.105  14.480  0.00  0.00     0.125 C 
ATOM      6  N6  ZIN A   1      18.232   2.134  13.368  0.00  0.00    -0.255 NA
ATOM      7  C7  ZIN A   1      18.599   0.939  13.948  0.00  0.00     0.112 A 
ATOM      8  N8  ZIN A   1      18.580   1.019  15.294  0.00  0.00    -0.248 NA
ATOM      9  C9  ZIN A   1      18.804   0.003  16.088  0.00  0.00     0.118 A 
ATOM     10  C10 ZIN A   1      19.077  -1.240  15.550  0.00  0.00     0.020 A 
ATOM     11  C11 ZIN A   1      19.146  -1.361  14.179  0.00  0.00     0.012 A 
ATOM     12  C12 ZIN A   1      18.943  -0.241  13.351  0.00  0.00    -0.013 A 
ATOM     13  C13 ZIN A   1      19.232  -0.509  11.932  0.00  0.00     0.081 C 
ATOM     14  C14 ZIN A   1      19.221   0.513  10.871  0.00  0.00    -0.046 A 
ATOM     15  C15 ZIN A   1      19.489  -0.012   9.592  0.00  0.00     0.008 A 
ATOM     16  C16 ZIN A   1      19.449   0.762   8.461  0.00  0.00     0.001 A 
ATOM     17  C17 ZIN A   1      19.126   2.102   8.570  0.00  0.00     0.001 A 
ATOM     18  C18 ZIN A   1      18.895   2.628   9.817  0.00  0.00     0.009 A 
ATOM     19  C19 ZIN A   1      18.983   1.848  10.980  0.00  0.00    -0.032 A 
ATOM     20  C20 ZIN A   1      18.887   2.663  12.232  0.00  0.00     0.124 C 
ATOM     21  C22 ZIN A   1      18.333   4.035  11.807  0.00  0.00     0.259 C 
ENDROOT
TORSDOF 0
ENDMDL
MODEL 4
REMARK VINA RESULT:      -8.2      4.196      7.923
REMARK  0 active torsions:
REMARK  status: ('A' for Active; 'I' for Inactive)
ROOT
ATOM      1  C1  ZIN A   1      19.593   4.197  12.768  0.00  0.00     0.269 C 
ATOM      2  N2  ZIN A   1      18.127   4.090  12.750  0.00  0.00    -0.072 N 
ATOM      3  H3  ZIN A   1      17.744   4.770  12.110  0.00  0.00     0.279 HD
ATOM      4  C4  ZIN A   1      17.595   4.322  14.103  0.00  0.00     0.249 C 
ATOM      5  C5  ZIN A   1      18.280   3.347  15.055  0.00  0.00     0.125 C 
ATOM      6  N6  ZIN A   1      18.016   1.946  14.647  0.00  0.00    -0.255 NA
ATOM      7  C7  ZIN A   1      18.481   1.156  15.676  0.00  0.00     0.112 A 
ATOM      8  N8  ZIN A   1      18.877   1.901  16.728  0.00  0.00    -0.248 NA
ATOM      9  C9  ZIN A   1      19.281   1.399  17.867  0.00  0.00     0.118 A 
ATOM     10  C10 ZIN A   1      19.312   0.028  18.038  0.00  0.00     0.020 A 
ATOM     11  C11 ZIN A   1      18.954  -0.774  16.977  0.00  0.00     0.012 A 
ATOM     12  C12 ZIN A   1      18.566  -0.205  15.749  0.00  0.00    -0.013 A 
ATOM     13  C13 ZIN A   1      18.393  -1.201  14.678  0.00  0.00     0.081 C 
ATOM     14  C14 ZIN A   1      18.112  -0.871  13.270  0.00  0.00    -0.046 A 
ATOM     15  C15 ZIN A   1      17.950  -2.008  12.455  0.00  0.00     0.008 A 
ATOM     16  C16 ZIN A   1      17.607  -1.916  11.131  0.00  0.00     0.001 A 
ATOM     17  C17 ZIN A   1      17.401  -0.668  10.572  0.00  0.00     0.001 A 
ATOM     18  C18 ZIN A   1      17.589   0.447  11.352  0.00  0.00     0.009 A 
ATOM     19  C19 ZIN A   1      17.987   0.355  12.694  0.00  0.00    -0.032 A 
ATOM     20  C20 ZIN A   1      18.320   1.686  13.290  0.00  0.00     0.124 C 
ATOM     21  C22 ZIN A   1      17.733   2.742  12.335  0.00  0.00     0.259 C 
ENDROOT
TORSDOF 0
ENDMDL
MODEL 5
REMARK VINA RESULT:      -8.1      1.155      1.293
REMARK  0 active torsions:
REMARK  status: ('A' for Active; 'I' for Inactive)
ROOT
ATOM      1  C1  ZIN A   1      19.472  -2.121  12.557  0.00  0.00     0.269 C 
ATOM      2  N2  ZIN A   1      18.019  -1.910  12.515  0.00  0.00    -0.072 N 
ATOM      3  H3  ZIN A   1      17.612  -2.163  13.403  0.00  0.00     0.279 HD
ATOM      4  C4  ZIN A   1      17.427  -2.727  11.444  0.00  0.00     0.249 C 
ATOM      5  C5  ZIN A   1      18.144  -2.390  10.140  0.00  0.00     0.125 C 
ATOM      6  N6  ZIN A   1      17.989  -0.952   9.816  0.00  0.00    -0.255 NA
ATOM      7  C7  ZIN A   1      18.472  -0.796   8.534  0.00  0.00     0.112 A 
ATOM      8  N8  ZIN A   1      18.781  -1.986   7.977  0.00  0.00    -0.248 NA
ATOM      9  C9  ZIN A   1      19.180  -2.129   6.740  0.00  0.00     0.118 A 
ATOM     10  C10 ZIN A   1      19.298  -1.020   5.924  0.00  0.00     0.020 A 
ATOM     11  C11 ZIN A   1      19.029   0.220   6.461  0.00  0.00     0.012 A 
ATOM     12  C12 ZIN A   1      18.645   0.348   7.809  0.00  0.00    -0.013 A 
ATOM     13  C13 ZIN A   1      18.576   1.748   8.262  0.00  0.00     0.081 C 
ATOM     14  C14 ZIN A   1      18.320   2.163   9.652  0.00  0.00    -0.046 A 
ATOM     15  C15 ZIN A   1      18.262   3.561   9.811  0.00  0.00     0.008 A 
ATOM     16  C16 ZIN A   1      17.957   4.148  11.012  0.00  0.00     0.001 A 
ATOM     17  C17 ZIN A   1      17.687   3.347  12.106  0.00  0.00     0.001 A 
ATOM     18  C18 ZIN A   1      17.773   1.984  11.967  0.00  0.00     0.009 A 
ATOM     19  C19 ZIN A   1      18.132   1.384  10.750  0.00  0.00    -0.032 A 
ATOM     20  C20 ZIN A   1      18.354  -0.091  10.877  0.00  0.00     0.124 C 
ATOM     21  C22 ZIN A   1      17.730  -0.504  12.222  0.00  0.00     0.259 C 
ENDROOT
TORSDOF 0
ENDMDL
MODEL 6
REMARK VINA RESULT:      -8.1      3.356      6.179
REMARK  0 active torsions:
REMARK  status: ('A' for Active; 'I' for Inactive)
ROOT
ATOM      1  C1  ZIN A   1      17.748  -0.328  14.618  0.00  0.00     0.269 C 
ATOM      2  N2  ZIN A   1      19.166   0.039  14.512  0.00  0.00    -0.072 N 
ATOM      3  H3  ZIN A   1      19.738  -0.690  14.914  0.00  0.00     0.279 HD
ATOM      4  C4  ZIN A   1      19.406   1.307  15.219  0.00  0.00     0.249 C 
ATOM      5  C5  ZIN A   1      18.449   2.353  14.655  0.00  0.00     0.125 C 
ATOM      6  N6  ZIN A   1      18.675   2.539  13.202  0.00  0.00    -0.255 NA
ATOM      7  C7  ZIN A   1      17.930   3.640  12.839  0.00  0.00     0.112 A 
ATOM      8  N8  ZIN A   1      17.378   4.237  13.915  0.00  0.00    -0.248 NA
ATOM      9  C9  ZIN A   1      16.692   5.350  13.859  0.00  0.00     0.118 A 
ATOM     10  C10 ZIN A   1      16.507   5.981  12.643  0.00  0.00     0.020 A 
ATOM     11  C11 ZIN A   1      17.021   5.387  11.511  0.00  0.00     0.012 A 
ATOM     12  C12 ZIN A   1      17.716   4.165  11.596  0.00  0.00    -0.013 A 
ATOM     13  C13 ZIN A   1      18.034   3.587  10.280  0.00  0.00     0.081 C 
ATOM     14  C14 ZIN A   1      18.645   2.261  10.078  0.00  0.00    -0.046 A 
ATOM     15  C15 ZIN A   1      18.884   1.962   8.723  0.00  0.00     0.008 A 
ATOM     16  C16 ZIN A   1      19.517   0.812   8.328  0.00  0.00     0.001 A 
ATOM     17  C17 ZIN A   1      19.946  -0.086   9.288  0.00  0.00     0.001 A 
ATOM     18  C18 ZIN A   1      19.687   0.183  10.610  0.00  0.00     0.009 A 
ATOM     19  C19 ZIN A   1      18.997   1.337  11.011  0.00  0.00    -0.032 A 
ATOM     20  C20 ZIN A   1      18.656   1.330  12.468  0.00  0.00     0.124 C 
ATOM     21  C22 ZIN A   1      19.526   0.231  13.105  0.00  0.00     0.259 C 
ENDROOT
TORSDOF 0
ENDMDL
MODEL 7
REMARK VINA RESULT:      -8.0      1.768      4.720
REMARK  0 active torsions:
REMARK  status: ('A' for Active; 'I' for Inactive)
ROOT
ATOM      1  C1  ZIN A   1      17.271  -4.332   9.810  0.00  0.00     0.269 C 
ATOM      2  N2  ZIN A   1      18.639  -4.367   9.274  0.00  0.00    -0.072 N 
ATOM      3  H3  ZIN A   1      18.734  -5.141   8.632  0.00  0.00     0.279 HD
ATOM      4  C4  ZIN A   1      19.602  -4.514  10.377  0.00  0.00     0.249 C 
ATOM      5  C5  ZIN A   1      19.353  -3.389  11.377  0.00  0.00     0.125 C 
ATOM      6  N6  ZIN A   1      19.530  -2.067  10.730  0.00  0.00    -0.255 NA
ATOM      7  C7  ZIN A   1      19.503  -1.138  11.748  0.00  0.00     0.112 A 
ATOM      8  N8  ZIN A   1      19.465  -1.735  12.957  0.00  0.00    -0.248 NA
ATOM      9  C9  ZIN A   1      19.518  -1.086  14.092  0.00  0.00     0.118 A 
ATOM     10  C10 ZIN A   1      19.624   0.292  14.090  0.00  0.00     0.020 A 
ATOM     11  C11 ZIN A   1      19.626   0.947  12.878  0.00  0.00     0.012 A 
ATOM     12  C12 ZIN A   1      19.523   0.225  11.673  0.00  0.00    -0.013 A 
ATOM     13  C13 ZIN A   1      19.359   1.089  10.492  0.00  0.00     0.081 C 
ATOM     14  C14 ZIN A   1      19.105   0.596   9.127  0.00  0.00    -0.046 A 
ATOM     15  C15 ZIN A   1      19.030   1.626   8.170  0.00  0.00     0.008 A 
ATOM     16  C16 ZIN A   1      18.877   1.372   6.832  0.00  0.00     0.001 A 
ATOM     17  C17 ZIN A   1      18.804   0.061   6.398  0.00  0.00     0.001 A 
ATOM     18  C18 ZIN A   1      18.844  -0.948   7.328  0.00  0.00     0.009 A 
ATOM     19  C19 ZIN A   1      18.952  -0.687   8.703  0.00  0.00    -0.032 A 
ATOM     20  C20 ZIN A   1      18.780  -1.915   9.540  0.00  0.00     0.124 C 
ATOM     21  C22 ZIN A   1      18.933  -3.111   8.582  0.00  0.00     0.259 C 
ENDROOT
TORSDOF 0
ENDMDL
MODEL 8
REMARK VINA RESULT:      -7.9      1.826      2.948
REMARK  0 active torsions:
REMARK  status: ('A' for Active; 'I' for Inactive)
ROOT
ATOM      1  C1  ZIN A   1      19.626  -4.550  10.418  0.00  0.00     0.269 C 
ATOM      2  N2  ZIN A   1      18.243  -4.321  10.857  0.00  0.00    -0.072 N 
ATOM      3  H3  ZIN A   1      17.862  -5.173  11.241  0.00  0.00     0.279 HD
ATOM      4  C4  ZIN A   1      17.425  -3.879   9.715  0.00  0.00     0.249 C 
ATOM      5  C5  ZIN A   1      18.094  -2.655   9.099  0.00  0.00     0.125 C 
ATOM      6  N6  ZIN A   1      18.198  -1.560  10.093  0.00  0.00    -0.255 NA
ATOM      7  C7  ZIN A   1      18.605  -0.446   9.391  0.00  0.00     0.112 A 
ATOM      8  N8  ZIN A   1      18.634  -0.684   8.064  0.00  0.00    -0.248 NA
ATOM      9  C9  ZIN A   1      18.903   0.227   7.165  0.00  0.00     0.118 A 
ATOM     10  C10 ZIN A   1      19.174   1.523   7.562  0.00  0.00     0.020 A 
ATOM     11  C11 ZIN A   1      19.193   1.805   8.911  0.00  0.00     0.012 A 
ATOM     12  C12 ZIN A   1      18.943   0.793   9.857  0.00  0.00    -0.013 A 
ATOM     13  C13 ZIN A   1      19.182   1.225  11.245  0.00  0.00     0.081 C 
ATOM     14  C14 ZIN A   1      19.117   0.335  12.418  0.00  0.00    -0.046 A 
ATOM     15  C15 ZIN A   1      19.344   1.006  13.635  0.00  0.00     0.008 A 
ATOM     16  C16 ZIN A   1      19.251   0.372  14.847  0.00  0.00     0.001 A 
ATOM     17  C17 ZIN A   1      18.912  -0.968  14.885  0.00  0.00     0.001 A 
ATOM     18  C18 ZIN A   1      18.721  -1.636  13.700  0.00  0.00     0.009 A 
ATOM     19  C19 ZIN A   1      18.864  -1.000  12.458  0.00  0.00    -0.032 A 
ATOM     20  C20 ZIN A   1      18.803  -1.957  11.309  0.00  0.00     0.124 C 
ATOM     21  C22 ZIN A   1      18.213  -3.263  11.870  0.00  0.00     0.259 C 
ENDROOT
TORSDOF 0
ENDMDL
MODEL 9
REMARK VINA RESULT:      -7.9      1.120      1.581
REMARK  0 active torsions:
REMARK  status: ('A' for Active; 'I' for Inactive)
ROOT
ATOM      1  C1  ZIN A   1      19.200  -3.133  12.165  0.00  0.00     0.269 C 
ATOM      2  N2  ZIN A   1      17.792  -2.734  12.035  0.00  0.00    -0.072 N 
ATOM      3  H3  ZIN A   1      17.340  -2.781  12.936  0.00  0.00     0.279 HD
ATOM      4  C4  ZIN A   1      17.107  -3.627  11.086  0.00  0.00     0.249 C 
ATOM      5  C5  ZIN A   1      17.883  -3.609   9.773  0.00  0.00     0.125 C 
ATOM      6  N6  ZIN A   1      17.937  -2.235   9.218  0.00  0.00    -0.255 NA
ATOM      7  C7  ZIN A   1      18.456  -2.359   7.947  0.00  0.00     0.112 A 
ATOM      8  N8  ZIN A   1      18.603  -3.654   7.599  0.00  0.00    -0.248 NA
ATOM      9  C9  ZIN A   1      18.996  -4.051   6.416  0.00  0.00     0.118 A 
ATOM     10  C10 ZIN A   1      19.282  -3.117   5.439  0.00  0.00     0.020 A 
ATOM     11  C11 ZIN A   1      19.183  -1.780   5.761  0.00  0.00     0.012 A 
ATOM     12  C12 ZIN A   1      18.801  -1.383   7.056  0.00  0.00    -0.013 A 
ATOM     13  C13 ZIN A   1      18.923   0.069   7.276  0.00  0.00     0.081 C 
ATOM     14  C14 ZIN A   1      18.707   0.736   8.571  0.00  0.00    -0.046 A 
ATOM     15  C15 ZIN A   1      18.844   2.136   8.503  0.00  0.00     0.008 A 
ATOM     16  C16 ZIN A   1      18.608   2.948   9.582  0.00  0.00     0.001 A 
ATOM     17  C17 ZIN A   1      18.211   2.381  10.779  0.00  0.00     0.001 A 
ATOM     18  C18 ZIN A   1      18.106   1.014  10.863  0.00  0.00     0.009 A 
ATOM     19  C19 ZIN A   1      18.395   0.180   9.772  0.00  0.00    -0.032 A 
ATOM     20  C20 ZIN A   1      18.405  -1.271  10.140  0.00  0.00     0.124 C 
ATOM     21  C22 ZIN A   1      17.709  -1.369  11.510  0.00  0.00     0.259 C 
ENDROOT
TORSDOF 0
ENDMDL
