MODEL 1
REMARK VINA RESULT:      -9.6      0.000      0.000
REMARK  8 active torsions:
REMARK  status: ('A' for Active; 'I' for Inactive)
REMARK    1  A    between atoms: O2_2  and  C3_3 
REMARK    2  A    between atoms: C5_5  and  N6_6 
REMARK    3  A    between atoms: C9_9  and  N10_10 
REMARK    4  A    between atoms: C21_21  and  N22_22 
REMARK    5  A    between atoms: N22_22  and  C23_23 
REMARK    6  A    between atoms: C28_28  and  N29_29 
REMARK    7  A    between atoms: N29_29  and  C30_30 
REMARK    8  A    between atoms: C35_35  and  P36_36 
ROOT
ATOM      1  C3  ZIN A   1      19.662  -0.195   9.035  0.00  0.00     0.097 A 
ATOM      2  C4  ZIN A   1      19.163  -1.199   8.222  0.00  0.00     0.062 A 
ATOM      3  C5  ZIN A   1      18.581  -0.878   7.003  0.00  0.00     0.013 A 
ATOM      4  C19 ZIN A   1      18.499   0.448   6.600  0.00  0.00     0.026 A 
ATOM      5  C20 ZIN A   1      18.998   1.451   7.410  0.00  0.00     0.034 A 
ATOM      6  C21 ZIN A   1      19.574   1.135   8.631  0.00  0.00     0.082 A 
ENDROOT
BRANCH   6   7
ATOM      7  N22 ZIN A   1      20.080   2.153   9.453  0.00  0.00    -0.185 N 
ATOM      8  H67 ZIN A   1      21.003   2.438   9.362  0.00  0.00     0.184 HD
BRANCH   7   9
ATOM      9  C23 ZIN A   1      19.261   2.753  10.395  0.00  0.00     0.728 A 
ATOM     10  N40 ZIN A   1      19.533   2.593  11.683  0.00  0.00    -0.043 NA
ATOM     11  C28 ZIN A   1      18.770   3.158  12.611  0.00  0.00     0.170 A 
ATOM     12  C26 ZIN A   1      17.667   3.919  12.211  0.00  0.00     0.098 A 
ATOM     13  C25 ZIN A   1      17.417   4.057  10.859  0.00  0.00     0.164 A 
ATOM     14 Cl27 ZIN A   1      16.635   4.673  13.386  0.00  0.00    -0.079 Cl
ATOM     15  N24 ZIN A   1      18.223   3.469   9.988  0.00  0.00    -0.073 NA
BRANCH  11  16
ATOM     16  N29 ZIN A   1      19.059   2.992  13.957  0.00  0.00    -0.338 N 
ATOM     17  H69 ZIN A   1      19.554   3.676  14.435  0.00  0.00     0.167 HD
BRANCH  16  18
ATOM     18  C30 ZIN A   1      18.638   1.839  14.625  0.00  0.00     0.047 A 
ATOM     19  C35 ZIN A   1      18.579   1.820  16.013  0.00  0.00     0.030 A 
ATOM     20  C34 ZIN A   1      18.157   0.682  16.669  0.00  0.00     0.017 A 
ATOM     21  C33 ZIN A   1      17.805  -0.444  15.947  0.00  0.00     0.001 A 
ATOM     22  C32 ZIN A   1      17.869  -0.431  14.566  0.00  0.00     0.002 A 
ATOM     23  C31 ZIN A   1      18.283   0.706  13.903  0.00  0.00     0.030 A 
BRANCH  19  24
ATOM     24  P36 ZIN A   1      19.040   3.296  16.961  0.00  0.00     0.103 P 
ATOM     25  C37 ZIN A   1      17.814   4.614  16.670  0.00  0.00     0.091 C 
ATOM     26  C38 ZIN A   1      19.084   2.888  18.737  0.00  0.00     0.091 C 
ATOM     27  O39 ZIN A   1      20.377   3.763  16.529  0.00  0.00    -0.318 OA
ENDBRANCH  19  24
ENDBRANCH  16  18
ENDBRANCH  11  16
ENDBRANCH   7   9
ENDBRANCH   6   7
BRANCH   1  28
ATOM     28  O2  ZIN A   1      20.233  -0.508  10.229  0.00  0.00    -0.354 OA
ATOM     29  C1  ZIN A   1      19.581  -1.504  11.020  0.00  0.00     0.210 C 
ENDBRANCH   1  28
BRANCH   3  30
ATOM     30  N6  ZIN A   1      18.076  -1.891   6.181  0.00  0.00    -0.283 NA
ATOM     31  C18 ZIN A   1      17.689  -1.359   4.868  0.00  0.00     0.098 C 
ATOM     32  C17 ZIN A   1      17.010  -2.460   4.050  0.00  0.00     0.050 C 
ATOM     33  C9  ZIN A   1      17.977  -3.635   3.881  0.00  0.00     0.225 C 
ATOM     34  C8  ZIN A   1      18.402  -4.139   5.263  0.00  0.00     0.050 C 
ATOM     35  C7  ZIN A   1      19.041  -2.989   6.045  0.00  0.00     0.098 C 
BRANCH  33  36
ATOM     36  N10 ZIN A   1      17.310  -4.719   3.147  0.00  0.00     0.096 N 
ATOM     37  C16 ZIN A   1      16.907  -5.801   4.056  0.00  0.00     0.303 C 
ATOM     38  C15 ZIN A   1      16.291  -6.943   3.245  0.00  0.00     0.302 C 
ATOM     39  N13 ZIN A   1      15.137  -6.436   2.489  0.00  0.00     0.087 N 
ATOM     40  C12 ZIN A   1      15.541  -5.354   1.580  0.00  0.00     0.302 C 
ATOM     41  C14 ZIN A   1      14.471  -7.520   1.755  0.00  0.00     0.310 C 
ATOM     42  C11 ZIN A   1      16.157  -4.212   2.391  0.00  0.00     0.303 C 
ENDBRANCH  33  36
ENDBRANCH   3  30
TORSDOF 8
ENDMDL
MODEL 2
REMARK VINA RESULT:      -9.2      2.555      3.189
REMARK  8 active torsions:
REMARK  status: ('A' for Active; 'I' for Inactive)
REMARK    1  A    between atoms: O2_2  and  C3_3 
REMARK    2  A    between atoms: C5_5  and  N6_6 
REMARK    3  A    between atoms: C9_9  and  N10_10 
REMARK    4  A    between atoms: C21_21  and  N22_22 
REMARK    5  A    between atoms: N22_22  and  C23_23 
REMARK    6  A    between atoms: C28_28  and  N29_29 
REMARK    7  A    between atoms: N29_29  and  C30_30 
REMARK    8  A    between atoms: C35_35  and  P36_36 
ROOT
ATOM      1  C3  ZIN A   1      18.815  -0.054   8.029  0.00  0.00     0.097 A 
ATOM      2  C4  ZIN A   1      18.303  -1.299   7.704  0.00  0.00     0.062 A 
ATOM      3  C5  ZIN A   1      18.421  -2.352   8.601  0.00  0.00     0.013 A 
ATOM      4  C19 ZIN A   1      19.051  -2.158   9.823  0.00  0.00     0.026 A 
ATOM      5  C20 ZIN A   1      19.562  -0.915  10.149  0.00  0.00     0.034 A 
ATOM      6  C21 ZIN A   1      19.452   0.138   9.254  0.00  0.00     0.082 A 
ENDROOT
BRANCH   6   7
ATOM      7  N22 ZIN A   1      19.970   1.399   9.586  0.00  0.00    -0.185 N 
ATOM      8  H67 ZIN A   1      20.819   1.688   9.213  0.00  0.00     0.184 HD
BRANCH   7   9
ATOM      9  C23 ZIN A   1      19.272   2.230  10.445  0.00  0.00     0.728 A 
ATOM     10  N40 ZIN A   1      19.507   2.157  11.747  0.00  0.00    -0.043 NA
ATOM     11  C28 ZIN A   1      18.857   2.945  12.597  0.00  0.00     0.170 A 
ATOM     12  C26 ZIN A   1      17.913   3.847  12.099  0.00  0.00     0.098 A 
ATOM     13  C25 ZIN A   1      17.696   3.888  10.735  0.00  0.00     0.164 A 
ATOM     14 Cl27 ZIN A   1      17.032   4.893  13.169  0.00  0.00    -0.079 Cl
ATOM     15  N24 ZIN A   1      18.383   3.076   9.945  0.00  0.00    -0.073 NA
BRANCH  11  16
ATOM     16  N29 ZIN A   1      19.107   2.869  13.959  0.00  0.00    -0.338 N 
ATOM     17  H69 ZIN A   1      19.599   3.578  14.402  0.00  0.00     0.167 HD
BRANCH  16  18
ATOM     18  C30 ZIN A   1      18.652   1.771  14.693  0.00  0.00     0.047 A 
ATOM     19  C35 ZIN A   1      18.570   1.844  16.078  0.00  0.00     0.030 A 
ATOM     20  C34 ZIN A   1      18.114   0.760  16.800  0.00  0.00     0.017 A 
ATOM     21  C33 ZIN A   1      17.750  -0.404  16.146  0.00  0.00     0.001 A 
ATOM     22  C32 ZIN A   1      17.836  -0.483  14.769  0.00  0.00     0.002 A 
ATOM     23  C31 ZIN A   1      18.285   0.600  14.041  0.00  0.00     0.030 A 
BRANCH  19  24
ATOM     24  P36 ZIN A   1      19.047   3.370  16.936  0.00  0.00     0.103 P 
ATOM     25  C37 ZIN A   1      17.900   4.710  16.476  0.00  0.00     0.091 C 
ATOM     26  C38 ZIN A   1      18.976   3.101  18.738  0.00  0.00     0.091 C 
ATOM     27  O39 ZIN A   1      20.425   3.745  16.548  0.00  0.00    -0.318 OA
ENDBRANCH  19  24
ENDBRANCH  16  18
ENDBRANCH  11  16
ENDBRANCH   7   9
ENDBRANCH   6   7
BRANCH   1  28
ATOM     28  O2  ZIN A   1      18.699   0.979   7.153  0.00  0.00    -0.354 OA
ATOM     29  C1  ZIN A   1      19.093   0.731   5.802  0.00  0.00     0.210 C 
ENDBRANCH   1  28
BRANCH   3  30
ATOM     30  N6  ZIN A   1      17.905  -3.611   8.273  0.00  0.00    -0.283 NA
ATOM     31  C18 ZIN A   1      18.979  -4.532   7.878  0.00  0.00     0.098 C 
ATOM     32  C17 ZIN A   1      18.368  -5.848   7.390  0.00  0.00     0.050 C 
ATOM     33  C9  ZIN A   1      17.529  -6.464   8.512  0.00  0.00     0.225 C 
ATOM     34  C8  ZIN A   1      16.449  -5.465   8.939  0.00  0.00     0.050 C 
ATOM     35  C7  ZIN A   1      17.116  -4.161   9.382  0.00  0.00     0.098 C 
BRANCH  33  36
ATOM     36  N10 ZIN A   1      16.893  -7.698   8.031  0.00  0.00     0.096 N 
ATOM     37  C16 ZIN A   1      15.453  -7.499   7.815  0.00  0.00     0.303 C 
ATOM     38  C15 ZIN A   1      14.814  -8.824   7.392  0.00  0.00     0.302 C 
ATOM     39  N13 ZIN A   1      15.466  -9.309   6.167  0.00  0.00     0.087 N 
ATOM     40  C12 ZIN A   1      16.906  -9.509   6.384  0.00  0.00     0.302 C 
ATOM     41  C14 ZIN A   1      14.830 -10.543   5.687  0.00  0.00     0.310 C 
ATOM     42  C11 ZIN A   1      17.544  -8.183   6.806  0.00  0.00     0.303 C 
ENDBRANCH  33  36
ENDBRANCH   3  30
TORSDOF 8
ENDMDL
MODEL 3
REMARK VINA RESULT:      -9.0      2.262      4.355
REMARK  8 active torsions:
REMARK  status: ('A' for Active; 'I' for Inactive)
REMARK    1  A    between atoms: O2_2  and  C3_3 
REMARK    2  A    between atoms: C5_5  and  N6_6 
REMARK    3  A    between atoms: C9_9  and  N10_10 
REMARK    4  A    between atoms: C21_21  and  N22_22 
REMARK    5  A    between atoms: N22_22  and  C23_23 
REMARK    6  A    between atoms: C28_28  and  N29_29 
REMARK    7  A    between atoms: N29_29  and  C30_30 
REMARK    8  A    between atoms: C35_35  and  P36_36 
ROOT
ATOM      1  C3  ZIN A   1      18.228   4.389  11.042  0.00  0.00     0.097 A 
ATOM      2  C4  ZIN A   1      17.898   3.395  10.137  0.00  0.00     0.062 A 
ATOM      3  C5  ZIN A   1      18.751   2.315   9.952  0.00  0.00     0.013 A 
ATOM      4  C19 ZIN A   1      19.933   2.231  10.674  0.00  0.00     0.026 A 
ATOM      5  C20 ZIN A   1      20.264   3.222  11.578  0.00  0.00     0.034 A 
ATOM      6  C21 ZIN A   1      19.419   4.305  11.762  0.00  0.00     0.082 A 
ENDROOT
BRANCH   6   7
ATOM      7  N22 ZIN A   1      19.755   5.311  12.680  0.00  0.00    -0.185 N 
ATOM      8  H67 ZIN A   1      20.243   6.096  12.383  0.00  0.00     0.184 HD
BRANCH   7   9
ATOM      9  C23 ZIN A   1      19.392   5.185  14.011  0.00  0.00     0.728 A 
ATOM     10  N40 ZIN A   1      18.764   4.087  14.407  0.00  0.00    -0.043 NA
ATOM     11  C28 ZIN A   1      18.407   3.933  15.677  0.00  0.00     0.170 A 
ATOM     12  C26 ZIN A   1      18.694   4.952  16.591  0.00  0.00     0.098 A 
ATOM     13  C25 ZIN A   1      19.345   6.082  16.134  0.00  0.00     0.164 A 
ATOM     14 Cl27 ZIN A   1      18.241   4.802  18.260  0.00  0.00    -0.079 Cl
ATOM     15  N24 ZIN A   1      19.677   6.166  14.854  0.00  0.00    -0.073 NA
BRANCH  11  16
ATOM     16  N29 ZIN A   1      17.754   2.782  16.090  0.00  0.00    -0.338 N 
ATOM     17  H69 ZIN A   1      17.112   2.822  16.817  0.00  0.00     0.167 HD
BRANCH  16  18
ATOM     18  C30 ZIN A   1      18.021   1.563  15.461  0.00  0.00     0.047 A 
ATOM     19  C35 ZIN A   1      18.512   0.492  16.197  0.00  0.00     0.030 A 
ATOM     20  C34 ZIN A   1      18.769  -0.713  15.574  0.00  0.00     0.017 A 
ATOM     21  C33 ZIN A   1      18.549  -0.851  14.215  0.00  0.00     0.001 A 
ATOM     22  C32 ZIN A   1      18.066   0.215  13.478  0.00  0.00     0.002 A 
ATOM     23  C31 ZIN A   1      17.801   1.420  14.097  0.00  0.00     0.030 A 
BRANCH  19  24
ATOM     24  P36 ZIN A   1      18.800   0.671  17.979  0.00  0.00     0.103 P 
ATOM     25  C37 ZIN A   1      17.279   1.273  18.784  0.00  0.00     0.091 C 
ATOM     26  C38 ZIN A   1      19.264  -0.944  18.685  0.00  0.00     0.091 C 
ATOM     27  O39 ZIN A   1      19.895   1.641  18.207  0.00  0.00    -0.318 OA
ENDBRANCH  19  24
ENDBRANCH  16  18
ENDBRANCH  11  16
ENDBRANCH   7   9
ENDBRANCH   6   7
BRANCH   1  28
ATOM     28  O2  ZIN A   1      17.394   5.447  11.225  0.00  0.00    -0.354 OA
ATOM     29  C1  ZIN A   1      16.246   5.234  12.048  0.00  0.00     0.210 C 
ENDBRANCH   1  28
BRANCH   3  30
ATOM     30  N6  ZIN A   1      18.418   1.310   9.036  0.00  0.00    -0.283 NA
ATOM     31  C18 ZIN A   1      19.354   1.299   7.905  0.00  0.00     0.098 C 
ATOM     32  C17 ZIN A   1      18.879   0.288   6.857  0.00  0.00     0.050 C 
ATOM     33  C9  ZIN A   1      18.800  -1.102   7.494  0.00  0.00     0.225 C 
ATOM     34  C8  ZIN A   1      17.856  -1.051   8.699  0.00  0.00     0.050 C 
ATOM     35  C7  ZIN A   1      18.363  -0.002   9.693  0.00  0.00     0.098 C 
BRANCH  33  36
ATOM     36  N10 ZIN A   1      18.288  -2.065   6.510  0.00  0.00     0.096 N 
ATOM     37  C16 ZIN A   1      17.991  -1.405   5.231  0.00  0.00     0.303 C 
ATOM     38  C15 ZIN A   1      17.386  -2.423   4.262  0.00  0.00     0.302 C 
ATOM     39  N13 ZIN A   1      18.330  -3.534   4.072  0.00  0.00     0.087 N 
ATOM     40  C12 ZIN A   1      18.626  -4.195   5.351  0.00  0.00     0.302 C 
ATOM     41  C14 ZIN A   1      17.817  -4.497   3.088  0.00  0.00     0.310 C 
ATOM     42  C11 ZIN A   1      19.231  -3.176   6.320  0.00  0.00     0.303 C 
ENDBRANCH  33  36
ENDBRANCH   3  30
TORSDOF 8
ENDMDL
MODEL 4
REMARK VINA RESULT:      -9.0      4.626     11.654
REMARK  8 active torsions:
REMARK  status: ('A' for Active; 'I' for Inactive)
REMARK    1  A    between atoms: O2_2  and  C3_3 
REMARK    2  A    between atoms: C5_5  and  N6_6 
REMARK    3  A    between atoms: C9_9  and  N10_10 
REMARK    4  A    between atoms: C21_21  and  N22_22 
REMARK    5  A    between atoms: N22_22  and  C23_23 
REMARK    6  A    between atoms: C28_28  and  N29_29 
REMARK    7  A    between atoms: N29_29  and  C30_30 
REMARK    8  A    between atoms: C35_35  and  P36_36 
ROOT
ATOM      1  C3  ZIN A   1      19.316  -1.585   6.155  0.00  0.00     0.097 A 
ATOM      2  C4  ZIN A   1      19.233  -0.675   7.195  0.00  0.00     0.062 A 
ATOM      3  C5  ZIN A   1      18.810  -1.093   8.450  0.00  0.00     0.013 A 
ATOM      4  C19 ZIN A   1      18.472  -2.422   8.662  0.00  0.00     0.026 A 
ATOM      5  C20 ZIN A   1      18.555  -3.332   7.625  0.00  0.00     0.034 A 
ATOM      6  C21 ZIN A   1      18.970  -2.918   6.369  0.00  0.00     0.082 A 
ENDROOT
BRANCH   6   7
ATOM      7  N22 ZIN A   1      19.054  -3.843   5.317  0.00  0.00    -0.185 N 
ATOM      8  H67 ZIN A   1      19.912  -4.225   5.074  0.00  0.00     0.184 HD
BRANCH   7   9
ATOM      9  C23 ZIN A   1      17.913  -4.209   4.624  0.00  0.00     0.728 A 
ATOM     10  N40 ZIN A   1      17.385  -5.406   4.834  0.00  0.00    -0.043 NA
ATOM     11  C28 ZIN A   1      16.288  -5.785   4.188  0.00  0.00     0.170 A 
ATOM     12  C26 ZIN A   1      15.701  -4.906   3.274  0.00  0.00     0.098 A 
ATOM     13  C25 ZIN A   1      16.286  -3.669   3.081  0.00  0.00     0.164 A 
ATOM     14 Cl27 ZIN A   1      14.271  -5.357   2.399  0.00  0.00    -0.079 Cl
ATOM     15  N24 ZIN A   1      17.378  -3.355   3.763  0.00  0.00    -0.073 NA
BRANCH  11  16
ATOM     16  N29 ZIN A   1      15.736  -7.037   4.414  0.00  0.00    -0.338 N 
ATOM     17  H69 ZIN A   1      15.899  -7.760   3.788  0.00  0.00     0.167 HD
BRANCH  16  18
ATOM     18  C30 ZIN A   1      14.941  -7.257   5.542  0.00  0.00     0.047 A 
ATOM     19  C35 ZIN A   1      15.234  -8.304   6.407  0.00  0.00     0.030 A 
ATOM     20  C34 ZIN A   1      14.451  -8.515   7.524  0.00  0.00     0.017 A 
ATOM     21  C33 ZIN A   1      13.368  -7.692   7.777  0.00  0.00     0.001 A 
ATOM     22  C32 ZIN A   1      13.070  -6.653   6.914  0.00  0.00     0.002 A 
ATOM     23  C31 ZIN A   1      13.852  -6.433   5.799  0.00  0.00     0.030 A 
BRANCH  19  24
ATOM     24  P36 ZIN A   1      16.654  -9.384   6.077  0.00  0.00     0.103 P 
ATOM     25  C37 ZIN A   1      16.895 -10.519   7.483  0.00  0.00     0.091 C 
ATOM     26  C38 ZIN A   1      16.345 -10.349   4.562  0.00  0.00     0.091 C 
ATOM     27  O39 ZIN A   1      17.870  -8.558   5.897  0.00  0.00    -0.318 OA
ENDBRANCH  19  24
ENDBRANCH  16  18
ENDBRANCH  11  16
ENDBRANCH   7   9
ENDBRANCH   6   7
BRANCH   1  28
ATOM     28  O2  ZIN A   1      19.730  -1.178   4.925  0.00  0.00    -0.354 OA
ATOM     29  C1  ZIN A   1      19.022  -0.089   4.330  0.00  0.00     0.210 C 
ENDBRANCH   1  28
BRANCH   3  30
ATOM     30  N6  ZIN A   1      18.725  -0.173   9.501  0.00  0.00    -0.283 NA
ATOM     31  C18 ZIN A   1      19.104   1.174   9.054  0.00  0.00     0.098 C 
ATOM     32  C17 ZIN A   1      19.139   2.120  10.256  0.00  0.00     0.050 C 
ATOM     33  C9  ZIN A   1      17.758   2.150  10.917  0.00  0.00     0.225 C 
ATOM     34  C8  ZIN A   1      17.367   0.728  11.329  0.00  0.00     0.050 C 
ATOM     35  C7  ZIN A   1      17.383  -0.177  10.096  0.00  0.00     0.098 C 
BRANCH  33  36
ATOM     36  N10 ZIN A   1      17.801   3.012  12.106  0.00  0.00     0.096 N 
ATOM     37  C16 ZIN A   1      18.086   2.227  13.316  0.00  0.00     0.303 C 
ATOM     38  C15 ZIN A   1      18.042   3.145  14.540  0.00  0.00     0.302 C 
ATOM     39  N13 ZIN A   1      19.024   4.226  14.372  0.00  0.00     0.087 N 
ATOM     40  C12 ZIN A   1      18.738   5.011  13.163  0.00  0.00     0.302 C 
ATOM     41  C14 ZIN A   1      19.066   5.088  15.561  0.00  0.00     0.310 C 
ATOM     42  C11 ZIN A   1      18.782   4.093  11.939  0.00  0.00     0.303 C 
ENDBRANCH  33  36
ENDBRANCH   3  30
TORSDOF 8
ENDMDL
MODEL 5
REMARK VINA RESULT:      -8.7      3.058      4.680
REMARK  8 active torsions:
REMARK  status: ('A' for Active; 'I' for Inactive)
REMARK    1  A    between atoms: O2_2  and  C3_3 
REMARK    2  A    between atoms: C5_5  and  N6_6 
REMARK    3  A    between atoms: C9_9  and  N10_10 
REMARK    4  A    between atoms: C21_21  and  N22_22 
REMARK    5  A    between atoms: N22_22  and  C23_23 
REMARK    6  A    between atoms: C28_28  and  N29_29 
REMARK    7  A    between atoms: N29_29  and  C30_30 
REMARK    8  A    between atoms: C35_35  and  P36_36 
ROOT
ATOM      1  C3  ZIN A   1      18.880  -1.828  10.340  0.00  0.00     0.097 A 
ATOM      2  C4  ZIN A   1      18.289  -2.783   9.529  0.00  0.00     0.062 A 
ATOM      3  C5  ZIN A   1      18.493  -4.132   9.786  0.00  0.00     0.013 A 
ATOM      4  C19 ZIN A   1      19.289  -4.523  10.854  0.00  0.00     0.026 A 
ATOM      5  C20 ZIN A   1      19.879  -3.571  11.664  0.00  0.00     0.034 A 
ATOM      6  C21 ZIN A   1      19.682  -2.223  11.408  0.00  0.00     0.082 A 
ENDROOT
BRANCH   6   7
ATOM      7  N22 ZIN A   1      20.282  -1.257  12.230  0.00  0.00    -0.185 N 
ATOM      8  H67 ZIN A   1      21.157  -0.904  12.006  0.00  0.00     0.184 HD
BRANCH   7   9
ATOM      9  C23 ZIN A   1      19.625  -0.808  13.364  0.00  0.00     0.728 A 
ATOM     10  N40 ZIN A   1      19.035   0.379  13.341  0.00  0.00    -0.043 NA
ATOM     11  C28 ZIN A   1      18.393   0.835  14.411  0.00  0.00     0.170 A 
ATOM     12  C26 ZIN A   1      18.356   0.049  15.567  0.00  0.00     0.098 A 
ATOM     13  C25 ZIN A   1      18.987  -1.179  15.548  0.00  0.00     0.164 A 
ATOM     14 Cl27 ZIN A   1      17.536   0.605  16.992  0.00  0.00    -0.079 Cl
ATOM     15  N24 ZIN A   1      19.605  -1.574  14.445  0.00  0.00    -0.073 NA
BRANCH  11  16
ATOM     16  N29 ZIN A   1      17.773   2.076  14.383  0.00  0.00    -0.338 N 
ATOM     17  H69 ZIN A   1      16.814   2.136  14.255  0.00  0.00     0.167 HD
BRANCH  16  18
ATOM     18  C30 ZIN A   1      18.532   3.239  14.539  0.00  0.00     0.047 A 
ATOM     19  C35 ZIN A   1      18.785   4.057  13.445  0.00  0.00     0.030 A 
ATOM     20  C34 ZIN A   1      19.529   5.209  13.603  0.00  0.00     0.017 A 
ATOM     21  C33 ZIN A   1      20.032   5.544  14.847  0.00  0.00     0.001 A 
ATOM     22  C32 ZIN A   1      19.787   4.728  15.937  0.00  0.00     0.002 A 
ATOM     23  C31 ZIN A   1      19.039   3.579  15.787  0.00  0.00     0.030 A 
BRANCH  19  24
ATOM     24  P36 ZIN A   1      18.125   3.620  11.812  0.00  0.00     0.103 P 
ATOM     25  C37 ZIN A   1      17.514   5.123  10.981  0.00  0.00     0.091 C 
ATOM     26  C38 ZIN A   1      19.443   2.862  10.807  0.00  0.00     0.091 C 
ATOM     27  O39 ZIN A   1      17.011   2.658  11.972  0.00  0.00    -0.318 OA
ENDBRANCH  19  24
ENDBRANCH  16  18
ENDBRANCH  11  16
ENDBRANCH   7   9
ENDBRANCH   6   7
BRANCH   1  28
ATOM     28  O2  ZIN A   1      18.681  -0.506  10.090  0.00  0.00    -0.354 OA
ATOM     29  C1  ZIN A   1      17.358  -0.107   9.725  0.00  0.00     0.210 C 
ENDBRANCH   1  28
BRANCH   3  30
ATOM     30  N6  ZIN A   1      17.898  -5.098   8.968  0.00  0.00    -0.283 NA
ATOM     31  C18 ZIN A   1      16.453  -5.180   9.217  0.00  0.00     0.098 C 
ATOM     32  C17 ZIN A   1      15.860  -6.340   8.413  0.00  0.00     0.050 C 
ATOM     33  C9  ZIN A   1      16.129  -6.113   6.923  0.00  0.00     0.225 C 
ATOM     34  C8  ZIN A   1      17.638  -5.982   6.698  0.00  0.00     0.050 C 
ATOM     35  C7  ZIN A   1      18.178  -4.832   7.551  0.00  0.00     0.098 C 
BRANCH  33  36
ATOM     36  N10 ZIN A   1      15.614  -7.252   6.151  0.00  0.00     0.096 N 
ATOM     37  C16 ZIN A   1      14.483  -7.888   6.841  0.00  0.00     0.303 C 
ATOM     38  C15 ZIN A   1      14.029  -9.115   6.047  0.00  0.00     0.302 C 
ATOM     39  N13 ZIN A   1      13.649  -8.702   4.688  0.00  0.00     0.087 N 
ATOM     40  C12 ZIN A   1      14.781  -8.066   3.998  0.00  0.00     0.302 C 
ATOM     41  C14 ZIN A   1      13.135  -9.841   3.916  0.00  0.00     0.310 C 
ATOM     42  C11 ZIN A   1      15.235  -6.839   4.793  0.00  0.00     0.303 C 
ENDBRANCH  33  36
ENDBRANCH   3  30
TORSDOF 8
ENDMDL
MODEL 6
REMARK VINA RESULT:      -8.7      4.728     11.724
REMARK  8 active torsions:
REMARK  status: ('A' for Active; 'I' for Inactive)
REMARK    1  A    between atoms: O2_2  and  C3_3 
REMARK    2  A    between atoms: C5_5  and  N6_6 
REMARK    3  A    between atoms: C9_9  and  N10_10 
REMARK    4  A    between atoms: C21_21  and  N22_22 
REMARK    5  A    between atoms: N22_22  and  C23_23 
REMARK    6  A    between atoms: C28_28  and  N29_29 
REMARK    7  A    between atoms: N29_29  and  C30_30 
REMARK    8  A    between atoms: C35_35  and  P36_36 
ROOT
ATOM      1  C3  ZIN A   1      19.335  -2.042   6.381  0.00  0.00     0.097 A 
ATOM      2  C4  ZIN A   1      19.286  -1.305   7.553  0.00  0.00     0.062 A 
ATOM      3  C5  ZIN A   1      18.812  -1.889   8.720  0.00  0.00     0.013 A 
ATOM      4  C19 ZIN A   1      18.387  -3.210   8.713  0.00  0.00     0.026 A 
ATOM      5  C20 ZIN A   1      18.435  -3.948   7.545  0.00  0.00     0.034 A 
ATOM      6  C21 ZIN A   1      18.902  -3.367   6.376  0.00  0.00     0.082 A 
ENDROOT
BRANCH   6   7
ATOM      7  N22 ZIN A   1      18.950  -4.116   5.191  0.00  0.00    -0.185 N 
ATOM      8  H67 ZIN A   1      19.803  -4.431   4.850  0.00  0.00     0.184 HD
BRANCH   7   9
ATOM      9  C23 ZIN A   1      17.782  -4.406   4.506  0.00  0.00     0.728 A 
ATOM     10  N40 ZIN A   1      17.185  -5.572   4.712  0.00  0.00    -0.043 NA
ATOM     11  C28 ZIN A   1      16.061  -5.878   4.074  0.00  0.00     0.170 A 
ATOM     12  C26 ZIN A   1      15.520  -4.956   3.173  0.00  0.00     0.098 A 
ATOM     13  C25 ZIN A   1      16.176  -3.755   2.985  0.00  0.00     0.164 A 
ATOM     14 Cl27 ZIN A   1      14.056  -5.312   2.310  0.00  0.00    -0.079 Cl
ATOM     15  N24 ZIN A   1      17.291  -3.513   3.659  0.00  0.00    -0.073 NA
BRANCH  11  16
ATOM     16  N29 ZIN A   1      15.436  -7.096   4.294  0.00  0.00    -0.338 N 
ATOM     17  H69 ZIN A   1      15.505  -7.803   3.634  0.00  0.00     0.167 HD
BRANCH  16  18
ATOM     18  C30 ZIN A   1      14.706  -7.305   5.467  0.00  0.00     0.047 A 
ATOM     19  C35 ZIN A   1      14.983  -8.402   6.274  0.00  0.00     0.030 A 
ATOM     20  C34 ZIN A   1      14.265  -8.602   7.436  0.00  0.00     0.017 A 
ATOM     21  C33 ZIN A   1      13.262  -7.718   7.791  0.00  0.00     0.001 A 
ATOM     22  C32 ZIN A   1      12.979  -6.629   6.987  0.00  0.00     0.002 A 
ATOM     23  C31 ZIN A   1      13.698  -6.420   5.828  0.00  0.00     0.030 A 
BRANCH  19  24
ATOM     24  P36 ZIN A   1      16.299  -9.561   5.809  0.00  0.00     0.103 P 
ATOM     25  C37 ZIN A   1      16.694 -10.634   7.229  0.00  0.00     0.091 C 
ATOM     26  C38 ZIN A   1      15.738 -10.587   4.410  0.00  0.00     0.091 C 
ATOM     27  O39 ZIN A   1      17.507  -8.804   5.412  0.00  0.00    -0.318 OA
ENDBRANCH  19  24
ENDBRANCH  16  18
ENDBRANCH  11  16
ENDBRANCH   7   9
ENDBRANCH   6   7
BRANCH   1  28
ATOM     28  O2  ZIN A   1      19.799  -1.473   5.238  0.00  0.00    -0.354 OA
ATOM     29  C1  ZIN A   1      19.173  -0.259   4.816  0.00  0.00     0.210 C 
ENDBRANCH   1  28
BRANCH   3  30
ATOM     30  N6  ZIN A   1      18.762  -1.144   9.904  0.00  0.00    -0.283 NA
ATOM     31  C18 ZIN A   1      17.493  -0.413  10.012  0.00  0.00     0.098 C 
ATOM     32  C17 ZIN A   1      17.531   0.498  11.241  0.00  0.00     0.050 C 
ATOM     33  C9  ZIN A   1      17.763  -0.350  12.494  0.00  0.00     0.225 C 
ATOM     34  C8  ZIN A   1      19.066  -1.138  12.334  0.00  0.00     0.050 C 
ATOM     35  C7  ZIN A   1      18.982  -2.003  11.074  0.00  0.00     0.098 C 
BRANCH  33  36
ATOM     36  N10 ZIN A   1      17.859   0.525  13.670  0.00  0.00     0.096 N 
ATOM     37  C16 ZIN A   1      18.781  -0.034  14.669  0.00  0.00     0.303 C 
ATOM     38  C15 ZIN A   1      18.792   0.863  15.909  0.00  0.00     0.302 C 
ATOM     39  N13 ZIN A   1      19.199   2.222  15.522  0.00  0.00     0.087 N 
ATOM     40  C12 ZIN A   1      18.277   2.781  14.524  0.00  0.00     0.302 C 
ATOM     41  C14 ZIN A   1      19.295   3.097  16.699  0.00  0.00     0.310 C 
ATOM     42  C11 ZIN A   1      18.266   1.883  13.284  0.00  0.00     0.303 C 
ENDBRANCH  33  36
ENDBRANCH   3  30
TORSDOF 8
ENDMDL
MODEL 7
REMARK VINA RESULT:      -8.4      2.608      3.204
REMARK  8 active torsions:
REMARK  status: ('A' for Active; 'I' for Inactive)
REMARK    1  A    between atoms: O2_2  and  C3_3 
REMARK    2  A    between atoms: C5_5  and  N6_6 
REMARK    3  A    between atoms: C9_9  and  N10_10 
REMARK    4  A    between atoms: C21_21  and  N22_22 
REMARK    5  A    between atoms: N22_22  and  C23_23 
REMARK    6  A    between atoms: C28_28  and  N29_29 
REMARK    7  A    between atoms: N29_29  and  C30_30 
REMARK    8  A    between atoms: C35_35  and  P36_36 
ROOT
ATOM      1  C3  ZIN A   1      19.303  -2.090  10.698  0.00  0.00     0.097 A 
ATOM      2  C4  ZIN A   1      18.702  -3.237  10.205  0.00  0.00     0.062 A 
ATOM      3  C5  ZIN A   1      18.302  -3.292   8.876  0.00  0.00     0.013 A 
ATOM      4  C19 ZIN A   1      18.504  -2.201   8.043  0.00  0.00     0.026 A 
ATOM      5  C20 ZIN A   1      19.105  -1.056   8.533  0.00  0.00     0.034 A 
ATOM      6  C21 ZIN A   1      19.500  -0.994   9.861  0.00  0.00     0.082 A 
ENDROOT
BRANCH   6   7
ATOM      7  N22 ZIN A   1      20.110   0.168  10.358  0.00  0.00    -0.185 N 
ATOM      8  H67 ZIN A   1      21.040   0.148  10.635  0.00  0.00     0.184 HD
BRANCH   7   9
ATOM      9  C23 ZIN A   1      19.384   1.343  10.455  0.00  0.00     0.728 A 
ATOM     10  N40 ZIN A   1      18.854   1.681  11.622  0.00  0.00    -0.043 NA
ATOM     11  C28 ZIN A   1      18.157   2.805  11.748  0.00  0.00     0.170 A 
ATOM     12  C26 ZIN A   1      17.980   3.623  10.628  0.00  0.00     0.098 A 
ATOM     13  C25 ZIN A   1      18.545   3.231   9.430  0.00  0.00     0.164 A 
ATOM     14 Cl27 ZIN A   1      17.071   5.098  10.740  0.00  0.00    -0.079 Cl
ATOM     15  N24 ZIN A   1      19.233   2.100   9.377  0.00  0.00    -0.073 NA
BRANCH  11  16
ATOM     16  N29 ZIN A   1      17.607   3.158  12.971  0.00  0.00    -0.338 N 
ATOM     17  H69 ZIN A   1      16.874   3.792  13.009  0.00  0.00     0.167 HD
BRANCH  16  18
ATOM     18  C30 ZIN A   1      18.112   2.603  14.150  0.00  0.00     0.047 A 
ATOM     19  C35 ZIN A   1      18.915   3.364  14.990  0.00  0.00     0.030 A 
ATOM     20  C34 ZIN A   1      19.406   2.815  16.158  0.00  0.00     0.017 A 
ATOM     21  C33 ZIN A   1      19.109   1.505  16.486  0.00  0.00     0.001 A 
ATOM     22  C32 ZIN A   1      18.315   0.742  15.649  0.00  0.00     0.002 A 
ATOM     23  C31 ZIN A   1      17.815   1.288  14.483  0.00  0.00     0.030 A 
BRANCH  19  24
ATOM     24  P36 ZIN A   1      19.305   5.084  14.562  0.00  0.00     0.103 P 
ATOM     25  C37 ZIN A   1      17.775   6.075  14.570  0.00  0.00     0.091 C 
ATOM     26  C38 ZIN A   1      20.476   5.763  15.782  0.00  0.00     0.091 C 
ATOM     27  O39 ZIN A   1      19.915   5.130  13.214  0.00  0.00    -0.318 OA
ENDBRANCH  19  24
ENDBRANCH  16  18
ENDBRANCH  11  16
ENDBRANCH   7   9
ENDBRANCH   6   7
BRANCH   1  28
ATOM     28  O2  ZIN A   1      19.696  -2.034  11.998  0.00  0.00    -0.354 OA
ATOM     29  C1  ZIN A   1      18.666  -1.942  12.984  0.00  0.00     0.210 C 
ENDBRANCH   1  28
BRANCH   3  30
ATOM     30  N6  ZIN A   1      17.693  -4.450   8.377  0.00  0.00    -0.283 NA
ATOM     31  C18 ZIN A   1      17.992  -4.627   6.950  0.00  0.00     0.098 C 
ATOM     32  C17 ZIN A   1      17.197  -5.816   6.406  0.00  0.00     0.050 C 
ATOM     33  C9  ZIN A   1      17.574  -7.078   7.187  0.00  0.00     0.225 C 
ATOM     34  C8  ZIN A   1      17.299  -6.849   8.676  0.00  0.00     0.050 C 
ATOM     35  C7  ZIN A   1      18.092  -5.630   9.154  0.00  0.00     0.098 C 
BRANCH  33  36
ATOM     36  N10 ZIN A   1      16.771  -8.211   6.708  0.00  0.00     0.096 N 
ATOM     37  C16 ZIN A   1      15.341  -7.991   6.967  0.00  0.00     0.303 C 
ATOM     38  C15 ZIN A   1      14.550  -9.225   6.528  0.00  0.00     0.302 C 
ATOM     39  N13 ZIN A   1      14.792  -9.476   5.100  0.00  0.00     0.087 N 
ATOM     40  C12 ZIN A   1      16.222  -9.698   4.842  0.00  0.00     0.302 C 
ATOM     41  C14 ZIN A   1      13.990 -10.610   4.622  0.00  0.00     0.310 C 
ATOM     42  C11 ZIN A   1      17.014  -8.463   5.281  0.00  0.00     0.303 C 
ENDBRANCH  33  36
ENDBRANCH   3  30
TORSDOF 8
ENDMDL
MODEL 8
REMARK VINA RESULT:      -8.3      1.531      1.948
REMARK  8 active torsions:
REMARK  status: ('A' for Active; 'I' for Inactive)
REMARK    1  A    between atoms: O2_2  and  C3_3 
REMARK    2  A    between atoms: C5_5  and  N6_6 
REMARK    3  A    between atoms: C9_9  and  N10_10 
REMARK    4  A    between atoms: C21_21  and  N22_22 
REMARK    5  A    between atoms: N22_22  and  C23_23 
REMARK    6  A    between atoms: C28_28  and  N29_29 
REMARK    7  A    between atoms: N29_29  and  C30_30 
REMARK    8  A    between atoms: C35_35  and  P36_36 
ROOT
ATOM      1  C3  ZIN A   1      19.436  -1.370  10.557  0.00  0.00     0.097 A 
ATOM      2  C4  ZIN A   1      18.944  -2.403   9.776  0.00  0.00     0.062 A 
ATOM      3  C5  ZIN A   1      18.795  -2.226   8.407  0.00  0.00     0.013 A 
ATOM      4  C19 ZIN A   1      19.138  -1.016   7.821  0.00  0.00     0.026 A 
ATOM      5  C20 ZIN A   1      19.630   0.016   8.599  0.00  0.00     0.034 A 
ATOM      6  C21 ZIN A   1      19.775  -0.154   9.967  0.00  0.00     0.082 A 
ENDROOT
BRANCH   6   7
ATOM      7  N22 ZIN A   1      20.275   0.894  10.756  0.00  0.00    -0.185 N 
ATOM      8  H67 ZIN A   1      21.219   0.927  10.977  0.00  0.00     0.184 HD
BRANCH   7   9
ATOM      9  C23 ZIN A   1      19.420   1.879  11.219  0.00  0.00     0.728 A 
ATOM     10  N40 ZIN A   1      19.003   1.835  12.477  0.00  0.00    -0.043 NA
ATOM     11  C28 ZIN A   1      18.187   2.768  12.953  0.00  0.00     0.170 A 
ATOM     12  C26 ZIN A   1      17.764   3.796  12.104  0.00  0.00     0.098 A 
ATOM     13  C25 ZIN A   1      18.218   3.802  10.800  0.00  0.00     0.164 A 
ATOM     14 Cl27 ZIN A   1      16.692   5.035  12.677  0.00  0.00    -0.079 Cl
ATOM     15  N24 ZIN A   1      19.036   2.842  10.393  0.00  0.00    -0.073 NA
BRANCH  11  16
ATOM     16  N29 ZIN A   1      17.756   2.721  14.270  0.00  0.00    -0.338 N 
ATOM     17  H69 ZIN A   1      17.283   3.476  14.653  0.00  0.00     0.167 HD
BRANCH  16  18
ATOM     18  C30 ZIN A   1      18.004   1.586  15.046  0.00  0.00     0.047 A 
ATOM     19  C35 ZIN A   1      18.454   1.721  16.353  0.00  0.00     0.030 A 
ATOM     20  C34 ZIN A   1      18.693   0.598  17.120  0.00  0.00     0.017 A 
ATOM     21  C33 ZIN A   1      18.494  -0.662  16.583  0.00  0.00     0.001 A 
ATOM     22  C32 ZIN A   1      18.053  -0.800  15.280  0.00  0.00     0.002 A 
ATOM     23  C31 ZIN A   1      17.806   0.319  14.511  0.00  0.00     0.030 A 
BRANCH  19  24
ATOM     24  P36 ZIN A   1      18.714   3.372  17.058  0.00  0.00     0.103 P 
ATOM     25  C37 ZIN A   1      18.888   3.241  18.868  0.00  0.00     0.091 C 
ATOM     26  C38 ZIN A   1      20.228   4.103  16.353  0.00  0.00     0.091 C 
ATOM     27  O39 ZIN A   1      17.554   4.234  16.736  0.00  0.00    -0.318 OA
ENDBRANCH  19  24
ENDBRANCH  16  18
ENDBRANCH  11  16
ENDBRANCH   7   9
ENDBRANCH   6   7
BRANCH   1  28
ATOM     28  O2  ZIN A   1      19.584  -1.541  11.898  0.00  0.00    -0.354 OA
ATOM     29  C1  ZIN A   1      19.154  -2.790  12.444  0.00  0.00     0.210 C 
ENDBRANCH   1  28
BRANCH   3  30
ATOM     30  N6  ZIN A   1      18.297  -3.269   7.618  0.00  0.00    -0.283 NA
ATOM     31  C18 ZIN A   1      18.852  -3.211   6.259  0.00  0.00     0.098 C 
ATOM     32  C17 ZIN A   1      18.179  -4.273   5.387  0.00  0.00     0.050 C 
ATOM     33  C9  ZIN A   1      18.418  -5.656   5.998  0.00  0.00     0.225 C 
ATOM     34  C8  ZIN A   1      17.874  -5.674   7.430  0.00  0.00     0.050 C 
ATOM     35  C7  ZIN A   1      18.557  -4.571   8.243  0.00  0.00     0.098 C 
BRANCH  33  36
ATOM     36  N10 ZIN A   1      17.725  -6.674   5.197  0.00  0.00     0.096 N 
ATOM     37  C16 ZIN A   1      16.543  -7.187   5.905  0.00  0.00     0.303 C 
ATOM     38  C15 ZIN A   1      15.897  -8.299   5.075  0.00  0.00     0.302 C 
ATOM     39  N13 ZIN A   1      15.529  -7.770   3.754  0.00  0.00     0.087 N 
ATOM     40  C12 ZIN A   1      16.711  -7.258   3.047  0.00  0.00     0.302 C 
ATOM     41  C14 ZIN A   1      14.836  -8.789   2.953  0.00  0.00     0.310 C 
ATOM     42  C11 ZIN A   1      17.357  -6.146   3.876  0.00  0.00     0.303 C 
ENDBRANCH  33  36
ENDBRANCH   3  30
TORSDOF 8
ENDMDL
MODEL 9
REMARK VINA RESULT:      -8.2      4.514     11.594
REMARK  8 active torsions:
REMARK  status: ('A' for Active; 'I' for Inactive)
REMARK    1  A    between atoms: O2_2  and  C3_3 
REMARK    2  A    between atoms: C5_5  and  N6_6 
REMARK    3  A    between atoms: C9_9  and  N10_10 
REMARK    4  A    between atoms: C21_21  and  N22_22 
REMARK    5  A    between atoms: N22_22  and  C23_23 
REMARK    6  A    between atoms: C28_28  and  N29_29 
REMARK    7  A    between atoms: N29_29  and  C30_30 
REMARK    8  A    between atoms: C35_35  and  P36_36 
ROOT
ATOM      1  C3  ZIN A   1      19.228  -2.315   6.477  0.00  0.00     0.097 A 
ATOM      2  C4  ZIN A   1      19.158  -1.580   7.649  0.00  0.00     0.062 A 
ATOM      3  C5  ZIN A   1      18.614  -2.150   8.792  0.00  0.00     0.013 A 
ATOM      4  C19 ZIN A   1      18.141  -3.454   8.762  0.00  0.00     0.026 A 
ATOM      5  C20 ZIN A   1      18.211  -4.189   7.593  0.00  0.00     0.034 A 
ATOM      6  C21 ZIN A   1      18.747  -3.622   6.447  0.00  0.00     0.082 A 
ENDROOT
BRANCH   6   7
ATOM      7  N22 ZIN A   1      18.818  -4.369   5.261  0.00  0.00    -0.185 N 
ATOM      8  H67 ZIN A   1      19.659  -4.769   4.989  0.00  0.00     0.184 HD
BRANCH   7   9
ATOM      9  C23 ZIN A   1      17.687  -4.534   4.479  0.00  0.00     0.728 A 
ATOM     10  N40 ZIN A   1      16.881  -5.559   4.716  0.00  0.00    -0.043 NA
ATOM     11  C28 ZIN A   1      15.787  -5.743   3.986  0.00  0.00     0.170 A 
ATOM     12  C26 ZIN A   1      15.501  -4.843   2.955  0.00  0.00     0.098 A 
ATOM     13  C25 ZIN A   1      16.370  -3.791   2.738  0.00  0.00     0.164 A 
ATOM     14 Cl27 ZIN A   1      14.087  -5.044   1.968  0.00  0.00    -0.079 Cl
ATOM     15  N24 ZIN A   1      17.441  -3.666   3.508  0.00  0.00    -0.073 NA
BRANCH  11  16
ATOM     16  N29 ZIN A   1      14.943  -6.814   4.239  0.00  0.00    -0.338 N 
ATOM     17  H69 ZIN A   1      14.005  -6.759   4.001  0.00  0.00     0.167 HD
BRANCH  16  18
ATOM     18  C30 ZIN A   1      15.445  -7.972   4.840  0.00  0.00     0.047 A 
ATOM     19  C35 ZIN A   1      15.063  -8.308   6.132  0.00  0.00     0.030 A 
ATOM     20  C34 ZIN A   1      15.555  -9.456   6.720  0.00  0.00     0.017 A 
ATOM     21  C33 ZIN A   1      16.438 -10.265   6.027  0.00  0.00     0.001 A 
ATOM     22  C32 ZIN A   1      16.825  -9.930   4.743  0.00  0.00     0.002 A 
ATOM     23  C31 ZIN A   1      16.331  -8.788   4.147  0.00  0.00     0.030 A 
BRANCH  19  24
ATOM     24  P36 ZIN A   1      13.905  -7.248   7.041  0.00  0.00     0.103 P 
ATOM     25  C37 ZIN A   1      12.787  -8.285   8.040  0.00  0.00     0.091 C 
ATOM     26  C38 ZIN A   1      14.838  -6.130   8.138  0.00  0.00     0.091 C 
ATOM     27  O39 ZIN A   1      13.111  -6.448   6.082  0.00  0.00    -0.318 OA
ENDBRANCH  19  24
ENDBRANCH  16  18
ENDBRANCH  11  16
ENDBRANCH   7   9
ENDBRANCH   6   7
BRANCH   1  28
ATOM     28  O2  ZIN A   1      19.760  -1.759   5.356  0.00  0.00    -0.354 OA
ATOM     29  C1  ZIN A   1      19.118  -0.589   4.843  0.00  0.00     0.210 C 
ENDBRANCH   1  28
BRANCH   3  30
ATOM     30  N6  ZIN A   1      18.542  -1.407   9.977  0.00  0.00    -0.283 NA
ATOM     31  C18 ZIN A   1      17.616  -0.277   9.833  0.00  0.00     0.098 C 
ATOM     32  C17 ZIN A   1      17.672   0.592  11.093  0.00  0.00     0.050 C 
ATOM     33  C9  ZIN A   1      17.289  -0.255  12.309  0.00  0.00     0.225 C 
ATOM     34  C8  ZIN A   1      18.239  -1.453  12.407  0.00  0.00     0.050 C 
ATOM     35  C7  ZIN A   1      18.166  -2.262  11.110  0.00  0.00     0.098 C 
BRANCH  33  36
ATOM     36  N10 ZIN A   1      17.397   0.558  13.528  0.00  0.00     0.096 N 
ATOM     37  C16 ZIN A   1      17.905  -0.242  14.652  0.00  0.00     0.303 C 
ATOM     38  C15 ZIN A   1      17.926   0.617  15.918  0.00  0.00     0.302 C 
ATOM     39  N13 ZIN A   1      18.772   1.798  15.691  0.00  0.00     0.087 N 
ATOM     40  C12 ZIN A   1      18.265   2.598  14.568  0.00  0.00     0.302 C 
ATOM     41  C14 ZIN A   1      18.880   2.610  16.910  0.00  0.00     0.310 C 
ATOM     42  C11 ZIN A   1      18.243   1.738  13.301  0.00  0.00     0.303 C 
ENDBRANCH  33  36
ENDBRANCH   3  30
TORSDOF 8
ENDMDL
