MODEL 1
REMARK VINA RESULT:      -4.5      0.000      0.000
REMARK  3 active torsions:
REMARK  status: ('A' for Active; 'I' for Inactive)
REMARK    1  A    between atoms: C2_2  and  O3_3 
REMARK    2  A    between atoms: C2_2  and  P4_4 
REMARK    3  A    between atoms: C2_2  and  P8_8 
ROOT
ATOM      1  C1  ZIN A   1      18.895   0.702   6.293  0.00  0.00     0.077 C 
ATOM      2  C2  ZIN A   1      18.162  -0.620   6.529  0.00  0.00     0.281 C 
ENDROOT
BRANCH   2   3
ATOM      3  O3  ZIN A   1      16.797  -0.486   6.129  0.00  0.00    -0.365 OA
ATOM      4  H15 ZIN A   1      16.546   0.416   5.885  0.00  0.00     0.212 HD
ENDBRANCH   2   3
BRANCH   2   5
ATOM      5  P4  ZIN A   1      18.955  -1.938   5.551  0.00  0.00     0.309 P 
ATOM      6  O5  ZIN A   1      19.948  -2.738   6.462  0.00  0.00    -0.637 OA
ATOM      7  O6  ZIN A   1      17.858  -2.908   4.995  0.00  0.00    -0.637 OA
ATOM      8  O7  ZIN A   1      19.742  -1.299   4.355  0.00  0.00    -0.637 OA
ENDBRANCH   2   5
BRANCH   2   9
ATOM      9  P8  ZIN A   1      18.238  -1.048   8.300  0.00  0.00     0.309 P 
ATOM     10  O9  ZIN A   1      17.819  -2.545   8.494  0.00  0.00    -0.637 OA
ATOM     11  O10 ZIN A   1      19.701  -0.843   8.824  0.00  0.00    -0.637 OA
ATOM     12  O11 ZIN A   1      17.262  -0.123   9.103  0.00  0.00    -0.637 OA
ENDBRANCH   2   9
TORSDOF 3
ENDMDL
MODEL 2
REMARK VINA RESULT:      -4.5      4.190      5.393
REMARK  3 active torsions:
REMARK  status: ('A' for Active; 'I' for Inactive)
REMARK    1  A    between atoms: C2_2  and  O3_3 
REMARK    2  A    between atoms: C2_2  and  P4_4 
REMARK    3  A    between atoms: C2_2  and  P8_8 
ROOT
ATOM      1  C1  ZIN A   1      17.425  -0.132   8.914  0.00  0.00     0.077 C 
ATOM      2  C2  ZIN A   1      18.206   0.127  10.204  0.00  0.00     0.281 C 
ENDROOT
BRANCH   2   3
ATOM      3  O3  ZIN A   1      19.445  -0.583  10.162  0.00  0.00    -0.365 OA
ATOM      4  H15 ZIN A   1      19.421  -1.442  10.606  0.00  0.00     0.212 HD
ENDBRANCH   2   3
BRANCH   2   5
ATOM      5  P4  ZIN A   1      18.535   1.913  10.367  0.00  0.00     0.309 P 
ATOM      6  O5  ZIN A   1      17.258   2.629  10.927  0.00  0.00    -0.637 OA
ATOM      7  O6  ZIN A   1      19.733   2.136  11.351  0.00  0.00    -0.637 OA
ATOM      8  O7  ZIN A   1      18.894   2.508   8.963  0.00  0.00    -0.637 OA
ENDBRANCH   2   5
BRANCH   2   9
ATOM      9  P8  ZIN A   1      17.226  -0.443  11.632  0.00  0.00     0.309 P 
ATOM     10  O9  ZIN A   1      17.885   0.071  12.956  0.00  0.00    -0.637 OA
ATOM     11  O10 ZIN A   1      15.768   0.118  11.522  0.00  0.00    -0.637 OA
ATOM     12  O11 ZIN A   1      17.182  -2.010  11.643  0.00  0.00    -0.637 OA
ENDBRANCH   2   9
TORSDOF 3
ENDMDL
MODEL 3
REMARK VINA RESULT:      -4.4      8.220     10.339
REMARK  3 active torsions:
REMARK  status: ('A' for Active; 'I' for Inactive)
REMARK    1  A    between atoms: C2_2  and  O3_3 
REMARK    2  A    between atoms: C2_2  and  P4_4 
REMARK    3  A    between atoms: C2_2  and  P8_8 
ROOT
ATOM      1  C1  ZIN A   1      18.637  -1.059  16.585  0.00  0.00     0.077 C 
ATOM      2  C2  ZIN A   1      18.075   0.352  16.402  0.00  0.00     0.281 C 
ENDROOT
BRANCH   2   3
ATOM      3  O3  ZIN A   1      16.678   0.351  16.702  0.00  0.00    -0.365 OA
ATOM      4  H15 ZIN A   1      16.401   1.067  17.290  0.00  0.00     0.212 HD
ENDBRANCH   2   3
BRANCH   2   5
ATOM      5  P4  ZIN A   1      18.936   1.500  17.526  0.00  0.00     0.309 P 
ATOM      6  O5  ZIN A   1      19.749   2.543  16.685  0.00  0.00    -0.637 OA
ATOM      7  O6  ZIN A   1      17.885   2.251  18.413  0.00  0.00    -0.637 OA
ATOM      8  O7  ZIN A   1      19.915   0.694  18.446  0.00  0.00    -0.637 OA
ENDBRANCH   2   5
BRANCH   2   9
ATOM      9  P8  ZIN A   1      18.326   0.888  14.678  0.00  0.00     0.309 P 
ATOM     10  O9  ZIN A   1      17.469  -0.009  13.722  0.00  0.00    -0.637 OA
ATOM     11  O10 ZIN A   1      17.886   2.383  14.526  0.00  0.00    -0.637 OA
ATOM     12  O11 ZIN A   1      19.842   0.750  14.304  0.00  0.00    -0.637 OA
ENDBRANCH   2   9
TORSDOF 3
ENDMDL
MODEL 4
REMARK VINA RESULT:      -4.4      0.942      3.721
REMARK  3 active torsions:
REMARK  status: ('A' for Active; 'I' for Inactive)
REMARK    1  A    between atoms: C2_2  and  O3_3 
REMARK    2  A    between atoms: C2_2  and  P4_4 
REMARK    3  A    between atoms: C2_2  and  P8_8 
ROOT
ATOM      1  C1  ZIN A   1      16.956  -0.054   6.174  0.00  0.00     0.077 C 
ATOM      2  C2  ZIN A   1      18.368  -0.407   6.645  0.00  0.00     0.281 C 
ENDROOT
BRANCH   2   3
ATOM      3  O3  ZIN A   1      19.213   0.738   6.518  0.00  0.00    -0.365 OA
ATOM      4  H15 ZIN A   1      18.790   1.492   6.084  0.00  0.00     0.212 HD
ENDBRANCH   2   3
BRANCH   2   5
ATOM      5  P4  ZIN A   1      18.313  -0.930   8.390  0.00  0.00     0.309 P 
ATOM      6  O5  ZIN A   1      17.820  -2.416   8.475  0.00  0.00    -0.637 OA
ATOM      7  O6  ZIN A   1      19.745  -0.818   9.015  0.00  0.00    -0.637 OA
ATOM      8  O7  ZIN A   1      17.324  -0.007   9.181  0.00  0.00    -0.637 OA
ENDBRANCH   2   5
BRANCH   2   9
ATOM      9  P8  ZIN A   1      19.028  -1.766   5.625  0.00  0.00     0.309 P 
ATOM     10  O9  ZIN A   1      19.979  -2.657   6.493  0.00  0.00    -0.637 OA
ATOM     11  O10 ZIN A   1      17.842  -2.638   5.087  0.00  0.00    -0.637 OA
ATOM     12  O11 ZIN A   1      19.827  -1.171   4.415  0.00  0.00    -0.637 OA
ENDBRANCH   2   9
TORSDOF 3
ENDMDL
MODEL 5
REMARK VINA RESULT:      -4.3      3.998      5.409
REMARK  3 active torsions:
REMARK  status: ('A' for Active; 'I' for Inactive)
REMARK    1  A    between atoms: C2_2  and  O3_3 
REMARK    2  A    between atoms: C2_2  and  P4_4 
REMARK    3  A    between atoms: C2_2  and  P8_8 
ROOT
ATOM      1  C1  ZIN A   1      19.445  -0.501   9.902  0.00  0.00     0.077 C 
ATOM      2  C2  ZIN A   1      18.125   0.249  10.095  0.00  0.00     0.281 C 
ENDROOT
BRANCH   2   3
ATOM      3  O3  ZIN A   1      17.313   0.091   8.930  0.00  0.00    -0.365 OA
ATOM      4  H15 ZIN A   1      16.956   0.922   8.585  0.00  0.00     0.212 HD
ENDBRANCH   2   3
BRANCH   2   5
ATOM      5  P4  ZIN A   1      17.249  -0.429  11.543  0.00  0.00     0.309 P 
ATOM      6  O5  ZIN A   1      15.783   0.125  11.572  0.00  0.00    -0.637 OA
ATOM      7  O6  ZIN A   1      17.214  -1.992  11.448  0.00  0.00    -0.637 OA
ATOM      8  O7  ZIN A   1      17.995  -0.001  12.853  0.00  0.00    -0.637 OA
ENDBRANCH   2   5
BRANCH   2   9
ATOM      9  P8  ZIN A   1      18.465   2.019  10.365  0.00  0.00     0.309 P 
ATOM     10  O9  ZIN A   1      19.692   2.175  11.327  0.00  0.00    -0.637 OA
ATOM     11  O10 ZIN A   1      18.787   2.704   8.993  0.00  0.00    -0.637 OA
ATOM     12  O11 ZIN A   1      17.208   2.701  11.006  0.00  0.00    -0.637 OA
ENDBRANCH   2   9
TORSDOF 3
ENDMDL
MODEL 6
REMARK VINA RESULT:      -4.3      4.707      6.137
REMARK  3 active torsions:
REMARK  status: ('A' for Active; 'I' for Inactive)
REMARK    1  A    between atoms: C2_2  and  O3_3 
REMARK    2  A    between atoms: C2_2  and  P4_4 
REMARK    3  A    between atoms: C2_2  and  P8_8 
ROOT
ATOM      1  C1  ZIN A   1      19.807   0.617  13.699  0.00  0.00     0.077 C 
ATOM      2  C2  ZIN A   1      20.175   0.700  12.216  0.00  0.00     0.281 C 
ENDROOT
BRANCH   2   3
ATOM      3  O3  ZIN A   1      21.597   0.680  12.076  0.00  0.00    -0.365 OA
ATOM      4  H15 ZIN A   1      21.958   1.451  11.617  0.00  0.00     0.212 HD
ENDBRANCH   2   3
BRANCH   2   5
ATOM      5  P4  ZIN A   1      19.458  -0.724  11.333  0.00  0.00     0.309 P 
ATOM      6  O5  ZIN A   1      20.141  -0.865   9.929  0.00  0.00    -0.637 OA
ATOM      7  O6  ZIN A   1      19.698  -2.030  12.164  0.00  0.00    -0.637 OA
ATOM      8  O7  ZIN A   1      17.918  -0.501  11.144  0.00  0.00    -0.637 OA
ENDBRANCH   2   5
BRANCH   2   9
ATOM      9  P8  ZIN A   1      19.516   2.247  11.512  0.00  0.00     0.309 P 
ATOM     10  O9  ZIN A   1      19.331   2.080   9.966  0.00  0.00    -0.637 OA
ATOM     11  O10 ZIN A   1      18.132   2.572  12.171  0.00  0.00    -0.637 OA
ATOM     12  O11 ZIN A   1      20.517   3.418  11.796  0.00  0.00    -0.637 OA
ENDBRANCH   2   9
TORSDOF 3
ENDMDL
MODEL 7
REMARK VINA RESULT:      -4.3      5.164      6.942
REMARK  3 active torsions:
REMARK  status: ('A' for Active; 'I' for Inactive)
REMARK    1  A    between atoms: C2_2  and  O3_3 
REMARK    2  A    between atoms: C2_2  and  P4_4 
REMARK    3  A    between atoms: C2_2  and  P8_8 
ROOT
ATOM      1  C1  ZIN A   1      19.339   2.409   9.867  0.00  0.00     0.077 C 
ATOM      2  C2  ZIN A   1      19.628   2.359  11.369  0.00  0.00     0.281 C 
ENDROOT
BRANCH   2   3
ATOM      3  O3  ZIN A   1      20.899   2.958  11.630  0.00  0.00    -0.365 OA
ATOM      4  H15 ZIN A   1      21.015   3.826  11.219  0.00  0.00     0.212 HD
ENDBRANCH   2   3
BRANCH   2   5
ATOM      5  P4  ZIN A   1      18.331   3.269  12.269  0.00  0.00     0.309 P 
ATOM      6  O5  ZIN A   1      16.975   3.149  11.493  0.00  0.00    -0.637 OA
ATOM      7  O6  ZIN A   1      18.167   2.664  13.704  0.00  0.00    -0.637 OA
ATOM      8  O7  ZIN A   1      18.735   4.779  12.382  0.00  0.00    -0.637 OA
ENDBRANCH   2   5
BRANCH   2   9
ATOM      9  P8  ZIN A   1      19.649   0.623  11.925  0.00  0.00     0.309 P 
ATOM     10  O9  ZIN A   1      18.184   0.070  11.966  0.00  0.00    -0.637 OA
ATOM     11  O10 ZIN A   1      20.503  -0.234  10.930  0.00  0.00    -0.637 OA
ATOM     12  O11 ZIN A   1      20.280   0.541  13.358  0.00  0.00    -0.637 OA
ENDBRANCH   2   9
TORSDOF 3
ENDMDL
MODEL 8
REMARK VINA RESULT:      -4.3      4.477      6.722
REMARK  3 active torsions:
REMARK  status: ('A' for Active; 'I' for Inactive)
REMARK    1  A    between atoms: C2_2  and  O3_3 
REMARK    2  A    between atoms: C2_2  and  P4_4 
REMARK    3  A    between atoms: C2_2  and  P8_8 
ROOT
ATOM      1  C1  ZIN A   1      19.843   2.172  11.735  0.00  0.00     0.077 C 
ATOM      2  C2  ZIN A   1      20.158   0.713  12.071  0.00  0.00     0.281 C 
ENDROOT
BRANCH   2   3
ATOM      3  O3  ZIN A   1      21.570   0.552  12.217  0.00  0.00    -0.365 OA
ATOM      4  H15 ZIN A   1      22.009   1.300  12.645  0.00  0.00     0.212 HD
ENDBRANCH   2   3
BRANCH   2   5
ATOM      5  P4  ZIN A   1      19.330   0.256  13.630  0.00  0.00     0.309 P 
ATOM      6  O5  ZIN A   1      19.941  -1.081  14.172  0.00  0.00    -0.637 OA
ATOM      7  O6  ZIN A   1      19.542   1.393  14.686  0.00  0.00    -0.637 OA
ATOM      8  O7  ZIN A   1      17.797   0.063  13.370  0.00  0.00    -0.637 OA
ENDBRANCH   2   5
BRANCH   2   9
ATOM      9  P8  ZIN A   1      19.559  -0.363  10.727  0.00  0.00     0.309 P 
ATOM     10  O9  ZIN A   1      18.127   0.097  10.288  0.00  0.00    -0.637 OA
ATOM     11  O10 ZIN A   1      20.535  -0.267   9.506  0.00  0.00    -0.637 OA
ATOM     12  O11 ZIN A   1      19.500  -1.846  11.232  0.00  0.00    -0.637 OA
ENDBRANCH   2   9
TORSDOF 3
ENDMDL
MODEL 9
REMARK VINA RESULT:      -4.2      5.539      6.677
REMARK  3 active torsions:
REMARK  status: ('A' for Active; 'I' for Inactive)
REMARK    1  A    between atoms: C2_2  and  O3_3 
REMARK    2  A    between atoms: C2_2  and  P4_4 
REMARK    3  A    between atoms: C2_2  and  P8_8 
ROOT
ATOM      1  C1  ZIN A   1      20.061   0.011  10.296  0.00  0.00     0.077 C 
ATOM      2  C2  ZIN A   1      20.156   0.439  11.762  0.00  0.00     0.281 C 
ENDROOT
BRANCH   2   3
ATOM      3  O3  ZIN A   1      21.531   0.537  12.141  0.00  0.00    -0.365 OA
ATOM      4  H15 ZIN A   1      22.035   1.184  11.629  0.00  0.00     0.212 HD
ENDBRANCH   2   3
BRANCH   2   5
ATOM      5  P4  ZIN A   1      19.351   2.060  11.975  0.00  0.00     0.309 P 
ATOM      6  O5  ZIN A   1      18.037   2.106  11.122  0.00  0.00    -0.637 OA
ATOM      7  O6  ZIN A   1      19.001   2.276  13.487  0.00  0.00    -0.637 OA
ATOM      8  O7  ZIN A   1      20.323   3.193  11.498  0.00  0.00    -0.637 OA
ENDBRANCH   2   5
BRANCH   2   9
ATOM      9  P8  ZIN A   1      19.322  -0.796  12.812  0.00  0.00     0.309 P 
ATOM     10  O9  ZIN A   1      19.830  -0.657  14.287  0.00  0.00    -0.637 OA
ATOM     11  O10 ZIN A   1      17.774  -0.558  12.769  0.00  0.00    -0.637 OA
ATOM     12  O11 ZIN A   1      19.643  -2.235  12.281  0.00  0.00    -0.637 OA
ENDBRANCH   2   9
TORSDOF 3
ENDMDL
