MODEL 1
REMARK VINA RESULT:      -8.3      0.000      0.000
REMARK  5 active torsions:
REMARK  status: ('A' for Active; 'I' for Inactive)
REMARK    1  A    between atoms: O2_2  and  C3_3 
REMARK    2  A    between atoms: C5_5  and  C6_6 
REMARK    3  A    between atoms: C14_13  and  O16_14 
REMARK    4  A    between atoms: C29_25  and  O30_26 
REMARK    5  A    between atoms: C32_28  and  O33_29 
ROOT
ATOM      1  C6  ZIN A   1      18.794   2.483  12.993  0.00  0.00     0.066 C 
ATOM      2  C8  ZIN A   1      18.580   1.527  14.154  0.00  0.00    -0.037 A 
ATOM      3  C9  ZIN A   1      19.106   1.929  15.383  0.00  0.00     0.048 A 
ATOM      4  C10 ZIN A   1      18.925   1.093  16.472  0.00  0.00     0.105 A 
ATOM      5  C11 ZIN A   1      18.230  -0.120  16.340  0.00  0.00     0.105 A 
ATOM      6  C12 ZIN A   1      17.715  -0.513  15.117  0.00  0.00     0.050 A 
ATOM      7  C13 ZIN A   1      17.908   0.331  14.021  0.00  0.00    -0.019 A 
ATOM      8  C14 ZIN A   1      17.354  -0.158  12.695  0.00  0.00     0.158 C 
ATOM      9  C17 ZIN A   1      18.052   0.607  11.587  0.00  0.00     0.058 C 
ATOM     10  C19 ZIN A   1      17.371   0.534  10.211  0.00  0.00     0.187 C 
ATOM     11  O20 ZIN A   1      17.728   1.821   9.597  0.00  0.00    -0.321 OA
ATOM     12  C21 ZIN A   1      18.017   2.742  10.546  0.00  0.00     0.264 C 
ATOM     13  O22 ZIN A   1      18.390   3.873  10.345  0.00  0.00    -0.265 OA
ATOM     14  C23 ZIN A   1      17.810   2.118  11.901  0.00  0.00     0.107 C 
ATOM     15  O25 ZIN A   1      18.194  -0.735  17.544  0.00  0.00    -0.323 OA
ATOM     16  C26 ZIN A   1      19.209  -0.086  18.339  0.00  0.00     0.352 C 
ATOM     17  O27 ZIN A   1      19.322   1.230  17.758  0.00  0.00    -0.323 OA
ENDROOT
BRANCH   1  18
ATOM     18  C5  ZIN A   1      18.550   3.899  13.446  0.00  0.00    -0.043 A 
ATOM     19  C4  ZIN A   1      19.610   4.679  13.869  0.00  0.00     0.047 A 
ATOM     20  C3  ZIN A   1      19.390   5.983  14.286  0.00  0.00     0.104 A 
ATOM     21  C32 ZIN A   1      18.101   6.503  14.286  0.00  0.00     0.135 A 
ATOM     22  C29 ZIN A   1      17.038   5.717  13.856  0.00  0.00     0.104 A 
ATOM     23  C28 ZIN A   1      17.267   4.414  13.440  0.00  0.00     0.047 A 
BRANCH  20  24
ATOM     24  O2  ZIN A   1      20.433   6.750  14.701  0.00  0.00    -0.353 OA
ATOM     25  C1  ZIN A   1      21.517   6.078  15.346  0.00  0.00     0.210 C 
ENDBRANCH  20  24
BRANCH  21  26
ATOM     26  O33 ZIN A   1      17.881   7.782  14.696  0.00  0.00    -0.351 OA
ATOM     27  C34 ZIN A   1      17.733   7.996  16.101  0.00  0.00     0.210 C 
ENDBRANCH  21  26
BRANCH  22  28
ATOM     28  O30 ZIN A   1      15.777   6.222  13.849  0.00  0.00    -0.353 OA
ATOM     29  C31 ZIN A   1      14.966   5.958  14.996  0.00  0.00     0.210 C 
ENDBRANCH  22  28
ENDBRANCH   1  18
BRANCH   8  30
ATOM     30  O16 ZIN A   1      17.608  -1.558  12.553  0.00  0.00    -0.390 OA
ATOM     31  H41 ZIN A   1      18.526  -1.772  12.340  0.00  0.00     0.210 HD
ENDBRANCH   8  30
TORSDOF 5
ENDMDL
MODEL 2
REMARK VINA RESULT:      -8.2      0.014      2.270
REMARK  5 active torsions:
REMARK  status: ('A' for Active; 'I' for Inactive)
REMARK    1  A    between atoms: O2_2  and  C3_3 
REMARK    2  A    between atoms: C5_5  and  C6_6 
REMARK    3  A    between atoms: C14_13  and  O16_14 
REMARK    4  A    between atoms: C29_25  and  O30_26 
REMARK    5  A    between atoms: C32_28  and  O33_29 
ROOT
ATOM      1  C6  ZIN A   1      18.801   2.487  12.997  0.00  0.00     0.066 C 
ATOM      2  C8  ZIN A   1      18.583   1.528  14.155  0.00  0.00    -0.037 A 
ATOM      3  C9  ZIN A   1      19.105   1.925  15.387  0.00  0.00     0.048 A 
ATOM      4  C10 ZIN A   1      18.919   1.086  16.472  0.00  0.00     0.105 A 
ATOM      5  C11 ZIN A   1      18.224  -0.125  16.334  0.00  0.00     0.105 A 
ATOM      6  C12 ZIN A   1      17.712  -0.514  15.108  0.00  0.00     0.050 A 
ATOM      7  C13 ZIN A   1      17.910   0.333  14.016  0.00  0.00    -0.019 A 
ATOM      8  C14 ZIN A   1      17.360  -0.151  12.687  0.00  0.00     0.158 C 
ATOM      9  C17 ZIN A   1      18.062   0.617  11.583  0.00  0.00     0.058 C 
ATOM     10  C19 ZIN A   1      17.385   0.549  10.205  0.00  0.00     0.187 C 
ATOM     11  O20 ZIN A   1      17.745   1.837   9.596  0.00  0.00    -0.321 OA
ATOM     12  C21 ZIN A   1      18.032   2.755  10.549  0.00  0.00     0.264 C 
ATOM     13  O22 ZIN A   1      18.407   3.887  10.352  0.00  0.00    -0.265 OA
ATOM     14  C23 ZIN A   1      17.820   2.127  11.901  0.00  0.00     0.107 C 
ATOM     15  O25 ZIN A   1      18.184  -0.744  17.536  0.00  0.00    -0.323 OA
ATOM     16  C26 ZIN A   1      19.197  -0.099  18.336  0.00  0.00     0.352 C 
ATOM     17  O27 ZIN A   1      19.313   1.218  17.760  0.00  0.00    -0.323 OA
ENDROOT
BRANCH   1  18
ATOM     18  C5  ZIN A   1      18.557   3.902  13.454  0.00  0.00    -0.043 A 
ATOM     19  C4  ZIN A   1      17.274   4.416  13.449  0.00  0.00     0.047 A 
ATOM     20  C3  ZIN A   1      17.045   5.718  13.869  0.00  0.00     0.104 A 
ATOM     21  C32 ZIN A   1      18.109   6.508  14.289  0.00  0.00     0.135 A 
ATOM     22  C29 ZIN A   1      19.397   5.986  14.298  0.00  0.00     0.104 A 
ATOM     23  C28 ZIN A   1      19.617   4.683  13.876  0.00  0.00     0.047 A 
BRANCH  20  24
ATOM     24  O2  ZIN A   1      15.782   6.222  13.864  0.00  0.00    -0.353 OA
ATOM     25  C1  ZIN A   1      14.972   5.955  15.011  0.00  0.00     0.210 C 
ENDBRANCH  20  24
BRANCH  21  26
ATOM     26  O33 ZIN A   1      17.888   7.786  14.702  0.00  0.00    -0.351 OA
ATOM     27  C34 ZIN A   1      17.728   7.995  16.106  0.00  0.00     0.210 C 
ENDBRANCH  21  26
BRANCH  22  28
ATOM     28  O30 ZIN A   1      20.440   6.753  14.712  0.00  0.00    -0.353 OA
ATOM     29  C31 ZIN A   1      21.521   6.082  15.360  0.00  0.00     0.210 C 
ENDBRANCH  22  28
ENDBRANCH   1  18
BRANCH   8  30
ATOM     30  O16 ZIN A   1      17.612  -1.551  12.540  0.00  0.00    -0.390 OA
ATOM     31  H41 ZIN A   1      17.593  -1.860  11.625  0.00  0.00     0.210 HD
ENDBRANCH   8  30
TORSDOF 5
ENDMDL
MODEL 3
REMARK VINA RESULT:      -7.7      1.753      5.795
REMARK  5 active torsions:
REMARK  status: ('A' for Active; 'I' for Inactive)
REMARK    1  A    between atoms: O2_2  and  C3_3 
REMARK    2  A    between atoms: C5_5  and  C6_6 
REMARK    3  A    between atoms: C14_13  and  O16_14 
REMARK    4  A    between atoms: C29_25  and  O30_26 
REMARK    5  A    between atoms: C32_28  and  O33_29 
ROOT
ATOM      1  C6  ZIN A   1      17.401   2.355  13.472  0.00  0.00     0.066 C 
ATOM      2  C8  ZIN A   1      18.093   2.053  14.790  0.00  0.00    -0.037 A 
ATOM      3  C9  ZIN A   1      18.125   0.711  15.173  0.00  0.00     0.048 A 
ATOM      4  C10 ZIN A   1      18.755   0.389  16.363  0.00  0.00     0.105 A 
ATOM      5  C11 ZIN A   1      19.346   1.385  17.156  0.00  0.00     0.105 A 
ATOM      6  C12 ZIN A   1      19.308   2.714  16.771  0.00  0.00     0.050 A 
ATOM      7  C13 ZIN A   1      18.664   3.033  15.574  0.00  0.00    -0.019 A 
ATOM      8  C14 ZIN A   1      18.619   4.506  15.211  0.00  0.00     0.158 C 
ATOM      9  C17 ZIN A   1      17.511   4.703  14.192  0.00  0.00     0.058 C 
ATOM     10  C19 ZIN A   1      17.556   6.034  13.426  0.00  0.00     0.187 C 
ATOM     11  O20 ZIN A   1      16.959   5.687  12.128  0.00  0.00    -0.321 OA
ATOM     12  C21 ZIN A   1      17.082   4.361  11.881  0.00  0.00     0.264 C 
ATOM     13  O22 ZIN A   1      16.644   3.777  10.919  0.00  0.00    -0.265 OA
ATOM     14  C23 ZIN A   1      17.844   3.730  13.017  0.00  0.00     0.107 C 
ATOM     15  O25 ZIN A   1      19.889   0.806  18.250  0.00  0.00    -0.323 OA
ATOM     16  C26 ZIN A   1      19.292  -0.505  18.329  0.00  0.00     0.352 C 
ATOM     17  O27 ZIN A   1      18.930  -0.809  16.966  0.00  0.00    -0.323 OA
ENDROOT
BRANCH   1  18
ATOM     18  C5  ZIN A   1      17.795   1.327  12.442  0.00  0.00    -0.043 A 
ATOM     19  C4  ZIN A   1      18.704   1.655  11.454  0.00  0.00     0.047 A 
ATOM     20  C3  ZIN A   1      19.069   0.711  10.505  0.00  0.00     0.104 A 
ATOM     21  C32 ZIN A   1      18.513  -0.563  10.544  0.00  0.00     0.135 A 
ATOM     22  C29 ZIN A   1      17.603  -0.889  11.542  0.00  0.00     0.104 A 
ATOM     23  C28 ZIN A   1      17.243   0.060  12.487  0.00  0.00     0.047 A 
BRANCH  20  24
ATOM     24  O2  ZIN A   1      19.965   1.034   9.534  0.00  0.00    -0.353 OA
ATOM     25  C1  ZIN A   1      19.472   1.779   8.418  0.00  0.00     0.210 C 
ENDBRANCH  20  24
BRANCH  21  26
ATOM     26  O33 ZIN A   1      18.869  -1.491   9.614  0.00  0.00    -0.351 OA
ATOM     27  C34 ZIN A   1      18.019  -1.622   8.473  0.00  0.00     0.210 C 
ENDBRANCH  21  26
BRANCH  22  28
ATOM     28  O30 ZIN A   1      17.060  -2.135  11.587  0.00  0.00    -0.353 OA
ATOM     29  C31 ZIN A   1      17.869  -3.175  12.141  0.00  0.00     0.210 C 
ENDBRANCH  22  28
ENDBRANCH   1  18
BRANCH   8  30
ATOM     30  O16 ZIN A   1      18.347   5.284  16.379  0.00  0.00    -0.390 OA
ATOM     31  H41 ZIN A   1      19.135   5.521  16.886  0.00  0.00     0.210 HD
ENDBRANCH   8  30
TORSDOF 5
ENDMDL
MODEL 4
REMARK VINA RESULT:      -7.7      3.911      7.814
REMARK  5 active torsions:
REMARK  status: ('A' for Active; 'I' for Inactive)
REMARK    1  A    between atoms: O2_2  and  C3_3 
REMARK    2  A    between atoms: C5_5  and  C6_6 
REMARK    3  A    between atoms: C14_13  and  O16_14 
REMARK    4  A    between atoms: C29_25  and  O30_26 
REMARK    5  A    between atoms: C32_28  and  O33_29 
ROOT
ATOM      1  C6  ZIN A   1      17.493  -2.275   9.618  0.00  0.00     0.066 C 
ATOM      2  C8  ZIN A   1      18.171  -2.041   8.279  0.00  0.00    -0.037 A 
ATOM      3  C9  ZIN A   1      18.156  -0.728   7.806  0.00  0.00     0.048 A 
ATOM      4  C10 ZIN A   1      18.772  -0.468   6.593  0.00  0.00     0.105 A 
ATOM      5  C11 ZIN A   1      19.394  -1.495   5.867  0.00  0.00     0.105 A 
ATOM      6  C12 ZIN A   1      19.401  -2.795   6.341  0.00  0.00     0.050 A 
ATOM      7  C13 ZIN A   1      18.771  -3.053   7.560  0.00  0.00    -0.019 A 
ATOM      8  C14 ZIN A   1      18.776  -4.499   8.023  0.00  0.00     0.158 C 
ATOM      9  C17 ZIN A   1      17.679  -4.662   9.058  0.00  0.00     0.058 C 
ATOM     10  C19 ZIN A   1      17.770  -5.935   9.913  0.00  0.00     0.187 C 
ATOM     11  O20 ZIN A   1      17.166  -5.521  11.188  0.00  0.00    -0.321 OA
ATOM     12  C21 ZIN A   1      17.245  -4.178  11.343  0.00  0.00     0.264 C 
ATOM     13  O22 ZIN A   1      16.791  -3.544  12.265  0.00  0.00    -0.265 OA
ATOM     14  C23 ZIN A   1      17.982  -3.601  10.163  0.00  0.00     0.107 C 
ATOM     15  O25 ZIN A   1      19.915  -0.974   4.733  0.00  0.00    -0.323 OA
ATOM     16  C26 ZIN A   1      19.273   0.308   4.568  0.00  0.00     0.352 C 
ATOM     17  O27 ZIN A   1      18.905   0.692   5.909  0.00  0.00    -0.323 OA
ENDROOT
BRANCH   1  18
ATOM     18  C5  ZIN A   1      17.855  -1.167  10.573  0.00  0.00    -0.043 A 
ATOM     19  C4  ZIN A   1      18.793  -1.390  11.563  0.00  0.00     0.047 A 
ATOM     20  C3  ZIN A   1      19.129  -0.373  12.444  0.00  0.00     0.104 A 
ATOM     21  C32 ZIN A   1      18.516   0.870  12.335  0.00  0.00     0.135 A 
ATOM     22  C29 ZIN A   1      17.576   1.091  11.335  0.00  0.00     0.104 A 
ATOM     23  C28 ZIN A   1      17.246   0.069  10.458  0.00  0.00     0.047 A 
BRANCH  20  24
ATOM     24  O2  ZIN A   1      20.053  -0.593  13.418  0.00  0.00    -0.353 OA
ATOM     25  C1  ZIN A   1      19.640  -1.374  14.541  0.00  0.00     0.210 C 
ENDBRANCH  20  24
BRANCH  21  26
ATOM     26  O33 ZIN A   1      18.843   1.870  13.198  0.00  0.00    -0.351 OA
ATOM     27  C34 ZIN A   1      18.066   1.976  14.392  0.00  0.00     0.210 C 
ENDBRANCH  21  26
BRANCH  22  28
ATOM     28  O30 ZIN A   1      16.977   2.306  11.221  0.00  0.00    -0.353 OA
ATOM     29  C31 ZIN A   1      17.662   3.298  10.453  0.00  0.00     0.210 C 
ENDBRANCH  22  28
ENDBRANCH   1  18
BRANCH   8  30
ATOM     30  O16 ZIN A   1      18.527  -5.362   6.911  0.00  0.00    -0.390 OA
ATOM     31  H41 ZIN A   1      18.536  -4.914   6.055  0.00  0.00     0.210 HD
ENDBRANCH   8  30
TORSDOF 5
ENDMDL
MODEL 5
REMARK VINA RESULT:      -7.7      5.069      9.446
REMARK  5 active torsions:
REMARK  status: ('A' for Active; 'I' for Inactive)
REMARK    1  A    between atoms: O2_2  and  C3_3 
REMARK    2  A    between atoms: C5_5  and  C6_6 
REMARK    3  A    between atoms: C14_13  and  O16_14 
REMARK    4  A    between atoms: C29_25  and  O30_26 
REMARK    5  A    between atoms: C32_28  and  O33_29 
ROOT
ATOM      1  C6  ZIN A   1      17.998  -1.698   8.411  0.00  0.00     0.066 C 
ATOM      2  C8  ZIN A   1      18.592  -1.260   9.739  0.00  0.00    -0.037 A 
ATOM      3  C9  ZIN A   1      18.275  -2.052  10.844  0.00  0.00     0.048 A 
ATOM      4  C10 ZIN A   1      18.804  -1.695  12.073  0.00  0.00     0.105 A 
ATOM      5  C11 ZIN A   1      19.636  -0.572  12.199  0.00  0.00     0.105 A 
ATOM      6  C12 ZIN A   1      19.943   0.211  11.099  0.00  0.00     0.050 A 
ATOM      7  C13 ZIN A   1      19.400  -0.150   9.864  0.00  0.00    -0.019 A 
ATOM      8  C14 ZIN A   1      19.737   0.757   8.695  0.00  0.00     0.158 C 
ATOM      9  C17 ZIN A   1      18.716   0.509   7.601  0.00  0.00     0.058 C 
ATOM     10  C19 ZIN A   1      19.102   1.041   6.212  0.00  0.00     0.187 C 
ATOM     11  O20 ZIN A   1      18.432   0.102   5.301  0.00  0.00    -0.321 OA
ATOM     12  C21 ZIN A   1      18.205  -1.083   5.914  0.00  0.00     0.264 C 
ATOM     13  O22 ZIN A   1      17.628  -2.030   5.434  0.00  0.00    -0.265 OA
ATOM     14  C23 ZIN A   1      18.781  -1.023   7.305  0.00  0.00     0.107 C 
ATOM     15  O25 ZIN A   1      20.013  -0.452  13.492  0.00  0.00    -0.323 OA
ATOM     16  C26 ZIN A   1      19.096  -1.277  14.240  0.00  0.00     0.352 C 
ATOM     17  O27 ZIN A   1      18.664  -2.272  13.288  0.00  0.00    -0.323 OA
ENDROOT
BRANCH   1  18
ATOM     18  C5  ZIN A   1      18.108  -3.195   8.273  0.00  0.00    -0.043 A 
ATOM     19  C4  ZIN A   1      19.239  -3.753   7.707  0.00  0.00     0.047 A 
ATOM     20  C3  ZIN A   1      19.344  -5.130   7.578  0.00  0.00     0.104 A 
ATOM     21  C32 ZIN A   1      18.308  -5.948   8.012  0.00  0.00     0.135 A 
ATOM     22  C29 ZIN A   1      17.175  -5.383   8.585  0.00  0.00     0.104 A 
ATOM     23  C28 ZIN A   1      17.077  -4.005   8.710  0.00  0.00     0.047 A 
BRANCH  20  24
ATOM     24  O2  ZIN A   1      20.458  -5.678   7.022  0.00  0.00    -0.353 OA
ATOM     25  C1  ZIN A   1      21.658  -5.636   7.796  0.00  0.00     0.210 C 
ENDBRANCH  20  24
BRANCH  21  26
ATOM     26  O33 ZIN A   1      18.408  -7.300   7.887  0.00  0.00    -0.351 OA
ATOM     27  C34 ZIN A   1      17.683  -7.906   6.814  0.00  0.00     0.210 C 
ENDBRANCH  21  26
BRANCH  22  28
ATOM     28  O30 ZIN A   1      16.160  -6.179   9.015  0.00  0.00    -0.353 OA
ATOM     29  C31 ZIN A   1      14.877  -5.974   8.420  0.00  0.00     0.210 C 
ENDBRANCH  22  28
ENDBRANCH   1  18
BRANCH   8  30
ATOM     30  O16 ZIN A   1      19.680   2.124   9.111  0.00  0.00    -0.390 OA
ATOM     31  H41 ZIN A   1      20.101   2.740   8.497  0.00  0.00     0.210 HD
ENDBRANCH   8  30
TORSDOF 5
ENDMDL
MODEL 6
REMARK VINA RESULT:      -7.7      5.079      9.704
REMARK  5 active torsions:
REMARK  status: ('A' for Active; 'I' for Inactive)
REMARK    1  A    between atoms: O2_2  and  C3_3 
REMARK    2  A    between atoms: C5_5  and  C6_6 
REMARK    3  A    between atoms: C14_13  and  O16_14 
REMARK    4  A    between atoms: C29_25  and  O30_26 
REMARK    5  A    between atoms: C32_28  and  O33_29 
ROOT
ATOM      1  C6  ZIN A   1      17.997  -1.707   8.408  0.00  0.00     0.066 C 
ATOM      2  C8  ZIN A   1      18.592  -1.270   9.735  0.00  0.00    -0.037 A 
ATOM      3  C9  ZIN A   1      18.276  -2.063  10.840  0.00  0.00     0.048 A 
ATOM      4  C10 ZIN A   1      18.805  -1.708  12.069  0.00  0.00     0.105 A 
ATOM      5  C11 ZIN A   1      19.638  -0.585  12.195  0.00  0.00     0.105 A 
ATOM      6  C12 ZIN A   1      19.945   0.199  11.096  0.00  0.00     0.050 A 
ATOM      7  C13 ZIN A   1      19.401  -0.161   9.862  0.00  0.00    -0.019 A 
ATOM      8  C14 ZIN A   1      19.738   0.747   8.693  0.00  0.00     0.158 C 
ATOM      9  C17 ZIN A   1      18.716   0.501   7.599  0.00  0.00     0.058 C 
ATOM     10  C19 ZIN A   1      19.102   1.034   6.211  0.00  0.00     0.187 C 
ATOM     11  O20 ZIN A   1      18.430   0.097   5.299  0.00  0.00    -0.321 OA
ATOM     12  C21 ZIN A   1      18.203  -1.089   5.911  0.00  0.00     0.264 C 
ATOM     13  O22 ZIN A   1      17.625  -2.035   5.431  0.00  0.00    -0.265 OA
ATOM     14  C23 ZIN A   1      18.780  -1.031   7.301  0.00  0.00     0.107 C 
ATOM     15  O25 ZIN A   1      20.017  -0.467  13.488  0.00  0.00    -0.323 OA
ATOM     16  C26 ZIN A   1      19.099  -1.293  14.236  0.00  0.00     0.352 C 
ATOM     17  O27 ZIN A   1      18.665  -2.286  13.283  0.00  0.00    -0.323 OA
ENDROOT
BRANCH   1  18
ATOM     18  C5  ZIN A   1      18.106  -3.203   8.268  0.00  0.00    -0.043 A 
ATOM     19  C4  ZIN A   1      17.074  -4.012   8.705  0.00  0.00     0.047 A 
ATOM     20  C3  ZIN A   1      17.169  -5.390   8.578  0.00  0.00     0.104 A 
ATOM     21  C32 ZIN A   1      18.307  -5.957   8.016  0.00  0.00     0.135 A 
ATOM     22  C29 ZIN A   1      19.340  -5.140   7.573  0.00  0.00     0.104 A 
ATOM     23  C28 ZIN A   1      19.237  -3.763   7.704  0.00  0.00     0.047 A 
BRANCH  20  24
ATOM     24  O2  ZIN A   1      16.153  -6.185   9.008  0.00  0.00    -0.353 OA
ATOM     25  C1  ZIN A   1      14.871  -5.979   8.413  0.00  0.00     0.210 C 
ENDBRANCH  20  24
BRANCH  21  26
ATOM     26  O33 ZIN A   1      18.405  -7.309   7.890  0.00  0.00    -0.351 OA
ATOM     27  C34 ZIN A   1      17.687  -7.912   6.811  0.00  0.00     0.210 C 
ENDBRANCH  21  26
BRANCH  22  28
ATOM     28  O30 ZIN A   1      20.453  -5.689   7.019  0.00  0.00    -0.353 OA
ATOM     29  C31 ZIN A   1      21.656  -5.634   7.788  0.00  0.00     0.210 C 
ENDBRANCH  22  28
ENDBRANCH   1  18
BRANCH   8  30
ATOM     30  O16 ZIN A   1      19.682   2.113   9.111  0.00  0.00    -0.390 OA
ATOM     31  H41 ZIN A   1      18.787   2.437   9.278  0.00  0.00     0.210 HD
ENDBRANCH   8  30
TORSDOF 5
ENDMDL
MODEL 7
REMARK VINA RESULT:      -7.7      3.923      7.975
REMARK  5 active torsions:
REMARK  status: ('A' for Active; 'I' for Inactive)
REMARK    1  A    between atoms: O2_2  and  C3_3 
REMARK    2  A    between atoms: C5_5  and  C6_6 
REMARK    3  A    between atoms: C14_13  and  O16_14 
REMARK    4  A    between atoms: C29_25  and  O30_26 
REMARK    5  A    between atoms: C32_28  and  O33_29 
ROOT
ATOM      1  C6  ZIN A   1      17.514  -2.312   9.650  0.00  0.00     0.066 C 
ATOM      2  C8  ZIN A   1      18.179  -2.087   8.303  0.00  0.00    -0.037 A 
ATOM      3  C9  ZIN A   1      18.165  -0.776   7.823  0.00  0.00     0.048 A 
ATOM      4  C10 ZIN A   1      18.769  -0.524   6.602  0.00  0.00     0.105 A 
ATOM      5  C11 ZIN A   1      19.378  -1.558   5.875  0.00  0.00     0.105 A 
ATOM      6  C12 ZIN A   1      19.385  -2.856   6.355  0.00  0.00     0.050 A 
ATOM      7  C13 ZIN A   1      18.767  -3.105   7.582  0.00  0.00    -0.019 A 
ATOM      8  C14 ZIN A   1      18.770  -4.548   8.052  0.00  0.00     0.158 C 
ATOM      9  C17 ZIN A   1      17.683  -4.702   9.099  0.00  0.00     0.058 C 
ATOM     10  C19 ZIN A   1      17.778  -5.971   9.959  0.00  0.00     0.187 C 
ATOM     11  O20 ZIN A   1      17.189  -5.549  11.238  0.00  0.00    -0.321 OA
ATOM     12  C21 ZIN A   1      17.276  -4.205  11.386  0.00  0.00     0.264 C 
ATOM     13  O22 ZIN A   1      16.835  -3.565  12.310  0.00  0.00    -0.265 OA
ATOM     14  C23 ZIN A   1      18.003  -3.637  10.196  0.00  0.00     0.107 C 
ATOM     15  O25 ZIN A   1      19.889  -1.044   4.733  0.00  0.00    -0.323 OA
ATOM     16  C26 ZIN A   1      19.252   0.240   4.568  0.00  0.00     0.352 C 
ATOM     17  O27 ZIN A   1      18.900   0.631   5.912  0.00  0.00    -0.323 OA
ENDROOT
BRANCH   1  18
ATOM     18  C5  ZIN A   1      17.891  -1.200  10.596  0.00  0.00    -0.043 A 
ATOM     19  C4  ZIN A   1      17.309   0.046  10.460  0.00  0.00     0.047 A 
ATOM     20  C3  ZIN A   1      17.653   1.071  11.329  0.00  0.00     0.104 A 
ATOM     21  C32 ZIN A   1      18.589   0.846  12.332  0.00  0.00     0.135 A 
ATOM     22  C29 ZIN A   1      19.167  -0.410  12.467  0.00  0.00     0.104 A 
ATOM     23  C28 ZIN A   1      18.818  -1.430  11.595  0.00  0.00     0.047 A 
BRANCH  20  24
ATOM     24  O2  ZIN A   1      17.080   2.297  11.195  0.00  0.00    -0.353 OA
ATOM     25  C1  ZIN A   1      17.752   3.241  10.358  0.00  0.00     0.210 C 
ENDBRANCH  20  24
BRANCH  21  26
ATOM     26  O33 ZIN A   1      18.929   1.850  13.186  0.00  0.00    -0.351 OA
ATOM     27  C34 ZIN A   1      18.126   2.002  14.358  0.00  0.00     0.210 C 
ENDBRANCH  21  26
BRANCH  22  28
ATOM     28  O30 ZIN A   1      20.079  -0.637  13.450  0.00  0.00    -0.353 OA
ATOM     29  C31 ZIN A   1      19.627  -1.348  14.603  0.00  0.00     0.210 C 
ENDBRANCH  22  28
ENDBRANCH   1  18
BRANCH   8  30
ATOM     30  O16 ZIN A   1      18.505  -5.416   6.947  0.00  0.00    -0.390 OA
ATOM     31  H41 ZIN A   1      17.880  -5.055   6.304  0.00  0.00     0.210 HD
ENDBRANCH   8  30
TORSDOF 5
ENDMDL
MODEL 8
REMARK VINA RESULT:      -7.6      1.774      5.987
REMARK  5 active torsions:
REMARK  status: ('A' for Active; 'I' for Inactive)
REMARK    1  A    between atoms: O2_2  and  C3_3 
REMARK    2  A    between atoms: C5_5  and  C6_6 
REMARK    3  A    between atoms: C14_13  and  O16_14 
REMARK    4  A    between atoms: C29_25  and  O30_26 
REMARK    5  A    between atoms: C32_28  and  O33_29 
ROOT
ATOM      1  C6  ZIN A   1      17.377   2.309  13.418  0.00  0.00     0.066 C 
ATOM      2  C8  ZIN A   1      18.062   2.019  14.742  0.00  0.00    -0.037 A 
ATOM      3  C9  ZIN A   1      18.099   0.680  15.134  0.00  0.00     0.048 A 
ATOM      4  C10 ZIN A   1      18.723   0.369  16.331  0.00  0.00     0.105 A 
ATOM      5  C11 ZIN A   1      19.302   1.374  17.121  0.00  0.00     0.105 A 
ATOM      6  C12 ZIN A   1      19.258   2.700  16.728  0.00  0.00     0.050 A 
ATOM      7  C13 ZIN A   1      18.620   3.007  15.524  0.00  0.00    -0.019 A 
ATOM      8  C14 ZIN A   1      18.568   4.478  15.152  0.00  0.00     0.158 C 
ATOM      9  C17 ZIN A   1      17.467   4.661  14.125  0.00  0.00     0.058 C 
ATOM     10  C19 ZIN A   1      17.509   5.988  13.350  0.00  0.00     0.187 C 
ATOM     11  O20 ZIN A   1      16.923   5.630  12.050  0.00  0.00    -0.321 OA
ATOM     12  C21 ZIN A   1      17.055   4.303  11.813  0.00  0.00     0.264 C 
ATOM     13  O22 ZIN A   1      16.628   3.710  10.851  0.00  0.00    -0.265 OA
ATOM     14  C23 ZIN A   1      17.814   3.683  12.958  0.00  0.00     0.107 C 
ATOM     15  O25 ZIN A   1      19.842   0.804  18.222  0.00  0.00    -0.323 OA
ATOM     16  C26 ZIN A   1      19.252  -0.510  18.306  0.00  0.00     0.352 C 
ATOM     17  O27 ZIN A   1      18.901  -0.824  16.942  0.00  0.00    -0.323 OA
ENDROOT
BRANCH   1  18
ATOM     18  C5  ZIN A   1      17.783   1.276  12.397  0.00  0.00    -0.043 A 
ATOM     19  C4  ZIN A   1      17.203   0.022  12.418  0.00  0.00     0.047 A 
ATOM     20  C3  ZIN A   1      17.574  -0.930  11.480  0.00  0.00     0.104 A 
ATOM     21  C32 ZIN A   1      18.536  -0.625  10.524  0.00  0.00     0.135 A 
ATOM     22  C29 ZIN A   1      19.113   0.639  10.505  0.00  0.00     0.104 A 
ATOM     23  C28 ZIN A   1      18.737   1.586  11.445  0.00  0.00     0.047 A 
BRANCH  20  24
ATOM     24  O2  ZIN A   1      17.002  -2.164  11.501  0.00  0.00    -0.353 OA
ATOM     25  C1  ZIN A   1      17.760  -3.222  12.091  0.00  0.00     0.210 C 
ENDBRANCH  20  24
BRANCH  21  26
ATOM     26  O33 ZIN A   1      18.902  -1.557   9.603  0.00  0.00    -0.351 OA
ATOM     27  C34 ZIN A   1      18.129  -1.622   8.404  0.00  0.00     0.210 C 
ENDBRANCH  21  26
BRANCH  22  28
ATOM     28  O30 ZIN A   1      20.051   0.945   9.569  0.00  0.00    -0.353 OA
ATOM     29  C31 ZIN A   1      19.626   1.741   8.461  0.00  0.00     0.210 C 
ENDBRANCH  22  28
ENDBRANCH   1  18
BRANCH   8  30
ATOM     30  O16 ZIN A   1      18.284   5.261  16.314  0.00  0.00    -0.390 OA
ATOM     31  H41 ZIN A   1      18.215   4.745  17.129  0.00  0.00     0.210 HD
ENDBRANCH   8  30
TORSDOF 5
ENDMDL
MODEL 9
REMARK VINA RESULT:      -7.5      1.293      5.062
REMARK  5 active torsions:
REMARK  status: ('A' for Active; 'I' for Inactive)
REMARK    1  A    between atoms: O2_2  and  C3_3 
REMARK    2  A    between atoms: C5_5  and  C6_6 
REMARK    3  A    between atoms: C14_13  and  O16_14 
REMARK    4  A    between atoms: C29_25  and  O30_26 
REMARK    5  A    between atoms: C32_28  and  O33_29 
ROOT
ATOM      1  C6  ZIN A   1      18.025   2.518  14.488  0.00  0.00     0.066 C 
ATOM      2  C8  ZIN A   1      18.553   2.053  13.141  0.00  0.00    -0.037 A 
ATOM      3  C9  ZIN A   1      18.146   2.796  12.033  0.00  0.00     0.048 A 
ATOM      4  C10 ZIN A   1      18.612   2.413  10.786  0.00  0.00     0.105 A 
ATOM      5  C11 ZIN A   1      19.471   1.312  10.647  0.00  0.00     0.105 A 
ATOM      6  C12 ZIN A   1      19.868   0.578  11.751  0.00  0.00     0.050 A 
ATOM      7  C13 ZIN A   1      19.388   0.965  13.004  0.00  0.00    -0.019 A 
ATOM      8  C14 ZIN A   1      19.824   0.109  14.180  0.00  0.00     0.158 C 
ATOM      9  C17 ZIN A   1      18.862   0.364  15.325  0.00  0.00     0.058 C 
ATOM     10  C19 ZIN A   1      19.347  -0.108  16.704  0.00  0.00     0.187 C 
ATOM     11  O20 ZIN A   1      18.702   0.841  17.624  0.00  0.00    -0.321 OA
ATOM     12  C21 ZIN A   1      18.401   1.997  16.986  0.00  0.00     0.264 C 
ATOM     13  O22 ZIN A   1      17.822   2.942  17.469  0.00  0.00    -0.265 OA
ATOM     14  C23 ZIN A   1      18.894   1.906  15.566  0.00  0.00     0.107 C 
ATOM     15  O25 ZIN A   1      19.775   1.159   9.338  0.00  0.00    -0.323 OA
ATOM     16  C26 ZIN A   1      18.788   1.930   8.620  0.00  0.00     0.352 C 
ATOM     17  O27 ZIN A   1      18.381   2.943   9.563  0.00  0.00    -0.323 OA
ENDROOT
BRANCH   1  18
ATOM     18  C5  ZIN A   1      18.094   4.022  14.570  0.00  0.00    -0.043 A 
ATOM     19  C4  ZIN A   1      16.934   4.769  14.488  0.00  0.00     0.047 A 
ATOM     20  C3  ZIN A   1      16.993   6.153  14.563  0.00  0.00     0.104 A 
ATOM     21  C32 ZIN A   1      18.220   6.788  14.715  0.00  0.00     0.135 A 
ATOM     22  C29 ZIN A   1      19.383   6.032  14.803  0.00  0.00     0.104 A 
ATOM     23  C28 ZIN A   1      19.316   4.649  14.726  0.00  0.00     0.047 A 
BRANCH  20  24
ATOM     24  O2  ZIN A   1      15.852   6.888  14.483  0.00  0.00    -0.353 OA
ATOM     25  C1  ZIN A   1      14.650   6.275  14.954  0.00  0.00     0.210 C 
ENDBRANCH  20  24
BRANCH  21  26
ATOM     26  O33 ZIN A   1      18.282   8.146  14.790  0.00  0.00    -0.351 OA
ATOM     27  C34 ZIN A   1      17.756   8.754  15.971  0.00  0.00     0.210 C 
ENDBRANCH  21  26
BRANCH  22  28
ATOM     28  O30 ZIN A   1      20.585   6.648  14.956  0.00  0.00    -0.353 OA
ATOM     29  C31 ZIN A   1      21.662   5.853  15.456  0.00  0.00     0.210 C 
ENDBRANCH  22  28
ENDBRANCH   1  18
BRANCH   8  30
ATOM     30  O16 ZIN A   1      19.787  -1.272  13.813  0.00  0.00    -0.390 OA
ATOM     31  H41 ZIN A   1      20.160  -1.458  12.941  0.00  0.00     0.210 HD
ENDBRANCH   8  30
TORSDOF 5
ENDMDL
