MODEL 1
REMARK VINA RESULT:      -3.3      0.000      0.000
REMARK  3 active torsions:
REMARK  status: ('A' for Active; 'I' for Inactive)
REMARK    1  A    between atoms: S2_2  and  C5_5 
REMARK    2  A    between atoms: C5_5  and  C6_6 
REMARK    3  A    between atoms: C6_6  and  S7_7 
ROOT
ATOM      1  O1  ZIN A   1      17.806  -1.668   4.730  0.00  0.00    -0.595 OA
ATOM      2  S2  ZIN A   1      19.108  -1.542   5.365  0.00  0.00     0.102 S 
ATOM      3  O3  ZIN A   1      19.693  -2.858   5.575  0.00  0.00    -0.595 OA
ATOM      4  O4  ZIN A   1      19.990  -0.729   4.543  0.00  0.00    -0.595 OA
ENDROOT
BRANCH   2   5
ATOM      5  C5  ZIN A   1      18.898  -0.734   6.975  0.00  0.00     0.175 C 
BRANCH   5   6
ATOM      6  C6  ZIN A   1      18.885   0.784   6.785  0.00  0.00     0.088 C 
BRANCH   6   7
ATOM      7  S7  ZIN A   1      19.277   1.595   8.360  0.00  0.00    -0.181 SA
ATOM      8  H12 ZIN A   1      20.534   2.037   8.169  0.00  0.00     0.101 HD
ENDBRANCH   6   7
ENDBRANCH   5   6
ENDBRANCH   2   5
TORSDOF 3
ENDMDL
MODEL 2
REMARK VINA RESULT:      -3.2      0.270      1.581
REMARK  3 active torsions:
REMARK  status: ('A' for Active; 'I' for Inactive)
REMARK    1  A    between atoms: S2_2  and  C5_5 
REMARK    2  A    between atoms: C5_5  and  C6_6 
REMARK    3  A    between atoms: C6_6  and  S7_7 
ROOT
ATOM      1  O1  ZIN A   1      19.969  -0.722   4.545  0.00  0.00    -0.595 OA
ATOM      2  S2  ZIN A   1      19.063  -1.620   5.243  0.00  0.00     0.102 S 
ATOM      3  O3  ZIN A   1      17.835  -1.785   4.480  0.00  0.00    -0.595 OA
ATOM      4  O4  ZIN A   1      19.699  -2.911   5.451  0.00  0.00    -0.595 OA
ENDROOT
BRANCH   2   5
ATOM      5  C5  ZIN A   1      18.654  -0.902   6.857  0.00  0.00     0.175 C 
BRANCH   5   6
ATOM      6  C6  ZIN A   1      18.468   0.610   6.709  0.00  0.00     0.088 C 
BRANCH   6   7
ATOM      7  S7  ZIN A   1      19.231   1.454   8.123  0.00  0.00    -0.181 SA
ATOM      8  H12 ZIN A   1      20.366   0.758   8.316  0.00  0.00     0.101 HD
ENDBRANCH   6   7
ENDBRANCH   5   6
ENDBRANCH   2   5
TORSDOF 3
ENDMDL
MODEL 3
REMARK VINA RESULT:      -3.1     11.222     11.889
REMARK  3 active torsions:
REMARK  status: ('A' for Active; 'I' for Inactive)
REMARK    1  A    between atoms: S2_2  and  C5_5 
REMARK    2  A    between atoms: C5_5  and  C6_6 
REMARK    3  A    between atoms: C6_6  and  S7_7 
ROOT
ATOM      1  O1  ZIN A   1      17.637   1.142  18.617  0.00  0.00    -0.595 OA
ATOM      2  S2  ZIN A   1      19.002   1.221  18.123  0.00  0.00     0.102 S 
ATOM      3  O3  ZIN A   1      19.686   2.358  18.721  0.00  0.00    -0.595 OA
ATOM      4  O4  ZIN A   1      19.716  -0.009  18.426  0.00  0.00    -0.595 OA
ENDROOT
BRANCH   2   5
ATOM      5  C5  ZIN A   1      18.961   1.446  16.324  0.00  0.00     0.175 C 
BRANCH   5   6
ATOM      6  C6  ZIN A   1      17.880   0.546  15.723  0.00  0.00     0.088 C 
BRANCH   6   7
ATOM      7  S7  ZIN A   1      18.646  -0.959  15.057  0.00  0.00    -0.181 SA
ATOM      8  H12 ZIN A   1      19.962  -0.691  15.142  0.00  0.00     0.101 HD
ENDBRANCH   6   7
ENDBRANCH   5   6
ENDBRANCH   2   5
TORSDOF 3
ENDMDL
MODEL 4
REMARK VINA RESULT:      -3.0     11.815     12.207
REMARK  3 active torsions:
REMARK  status: ('A' for Active; 'I' for Inactive)
REMARK    1  A    between atoms: S2_2  and  C5_5 
REMARK    2  A    between atoms: C5_5  and  C6_6 
REMARK    3  A    between atoms: C6_6  and  S7_7 
ROOT
ATOM      1  O1  ZIN A   1      17.636   1.266  18.622  0.00  0.00    -0.595 OA
ATOM      2  S2  ZIN A   1      19.015   1.445  18.196  0.00  0.00     0.102 S 
ATOM      3  O3  ZIN A   1      19.655   2.480  18.994  0.00  0.00    -0.595 OA
ATOM      4  O4  ZIN A   1      19.745   0.194  18.322  0.00  0.00    -0.595 OA
ENDROOT
BRANCH   2   5
ATOM      5  C5  ZIN A   1      19.028   1.957  16.456  0.00  0.00     0.175 C 
BRANCH   5   6
ATOM      6  C6  ZIN A   1      19.619   3.364  16.344  0.00  0.00     0.088 C 
BRANCH   6   7
ATOM      7  S7  ZIN A   1      18.275   4.582  16.293  0.00  0.00    -0.181 SA
ATOM      8  H12 ZIN A   1      18.627   5.379  15.267  0.00  0.00     0.101 HD
ENDBRANCH   6   7
ENDBRANCH   5   6
ENDBRANCH   2   5
TORSDOF 3
ENDMDL
MODEL 5
REMARK VINA RESULT:      -2.9      5.842      6.262
REMARK  3 active torsions:
REMARK  status: ('A' for Active; 'I' for Inactive)
REMARK    1  A    between atoms: S2_2  and  C5_5 
REMARK    2  A    between atoms: C5_5  and  C6_6 
REMARK    3  A    between atoms: C6_6  and  S7_7 
ROOT
ATOM      1  O1  ZIN A   1      17.113  -1.892  11.805  0.00  0.00    -0.595 OA
ATOM      2  S2  ZIN A   1      17.153  -0.442  11.908  0.00  0.00     0.102 S 
ATOM      3  O3  ZIN A   1      15.877   0.124  11.499  0.00  0.00    -0.595 OA
ATOM      4  O4  ZIN A   1      17.462  -0.045  13.273  0.00  0.00    -0.595 OA
ENDROOT
BRANCH   2   5
ATOM      5  C5  ZIN A   1      18.450   0.187  10.808  0.00  0.00     0.175 C 
BRANCH   5   6
ATOM      6  C6  ZIN A   1      17.849   1.217   9.849  0.00  0.00     0.088 C 
BRANCH   6   7
ATOM      7  S7  ZIN A   1      18.028   2.879  10.556  0.00  0.00    -0.181 SA
ATOM      8  H12 ZIN A   1      19.353   3.101  10.474  0.00  0.00     0.101 HD
ENDBRANCH   6   7
ENDBRANCH   5   6
ENDBRANCH   2   5
TORSDOF 3
ENDMDL
MODEL 6
REMARK VINA RESULT:      -2.9     11.044     11.716
REMARK  3 active torsions:
REMARK  status: ('A' for Active; 'I' for Inactive)
REMARK    1  A    between atoms: S2_2  and  C5_5 
REMARK    2  A    between atoms: C5_5  and  C6_6 
REMARK    3  A    between atoms: C6_6  and  S7_7 
ROOT
ATOM      1  O1  ZIN A   1      19.823   1.887  18.414  0.00  0.00    -0.595 OA
ATOM      2  S2  ZIN A   1      18.850   0.857  18.084  0.00  0.00     0.102 S 
ATOM      3  O3  ZIN A   1      19.449  -0.462  18.225  0.00  0.00    -0.595 OA
ATOM      4  O4  ZIN A   1      17.686   0.972  18.948  0.00  0.00    -0.595 OA
ENDROOT
BRANCH   2   5
ATOM      5  C5  ZIN A   1      18.325   1.078  16.362  0.00  0.00     0.175 C 
BRANCH   5   6
ATOM      6  C6  ZIN A   1      19.148   2.196  15.718  0.00  0.00     0.088 C 
BRANCH   6   7
ATOM      7  S7  ZIN A   1      18.482   2.565  14.071  0.00  0.00    -0.181 SA
ATOM      8  H12 ZIN A   1      18.891   3.829  13.856  0.00  0.00     0.101 HD
ENDBRANCH   6   7
ENDBRANCH   5   6
ENDBRANCH   2   5
TORSDOF 3
ENDMDL
MODEL 7
REMARK VINA RESULT:      -2.9      2.035      3.178
REMARK  3 active torsions:
REMARK  status: ('A' for Active; 'I' for Inactive)
REMARK    1  A    between atoms: S2_2  and  C5_5 
REMARK    2  A    between atoms: C5_5  and  C6_6 
REMARK    3  A    between atoms: C6_6  and  S7_7 
ROOT
ATOM      1  O1  ZIN A   1      17.598  -1.028   4.813  0.00  0.00    -0.595 OA
ATOM      2  S2  ZIN A   1      18.911  -0.880   5.420  0.00  0.00     0.102 S 
ATOM      3  O3  ZIN A   1      19.947  -1.271   4.476  0.00  0.00    -0.595 OA
ATOM      4  O4  ZIN A   1      19.114   0.497   5.842  0.00  0.00    -0.595 OA
ENDROOT
BRANCH   2   5
ATOM      5  C5  ZIN A   1      19.009  -1.958   6.875  0.00  0.00     0.175 C 
BRANCH   5   6
ATOM      6  C6  ZIN A   1      19.681  -3.277   6.487  0.00  0.00     0.088 C 
BRANCH   6   7
ATOM      7  S7  ZIN A   1      18.420  -4.455   5.925  0.00  0.00    -0.181 SA
ATOM      8  H12 ZIN A   1      18.968  -5.648   6.221  0.00  0.00     0.101 HD
ENDBRANCH   6   7
ENDBRANCH   5   6
ENDBRANCH   2   5
TORSDOF 3
ENDMDL
MODEL 8
REMARK VINA RESULT:      -2.8      6.133      6.789
REMARK  3 active torsions:
REMARK  status: ('A' for Active; 'I' for Inactive)
REMARK    1  A    between atoms: S2_2  and  C5_5 
REMARK    2  A    between atoms: C5_5  and  C6_6 
REMARK    3  A    between atoms: C6_6  and  S7_7 
ROOT
ATOM      1  O1  ZIN A   1      17.561   5.041   9.695  0.00  0.00    -0.595 OA
ATOM      2  S2  ZIN A   1      18.001   3.941  10.538  0.00  0.00     0.102 S 
ATOM      3  O3  ZIN A   1      18.974   4.413  11.511  0.00  0.00    -0.595 OA
ATOM      4  O4  ZIN A   1      16.863   3.344  11.218  0.00  0.00    -0.595 OA
ENDROOT
BRANCH   2   5
ATOM      5  C5  ZIN A   1      18.784   2.682   9.493  0.00  0.00     0.175 C 
BRANCH   5   6
ATOM      6  C6  ZIN A   1      18.711   1.323  10.193  0.00  0.00     0.088 C 
BRANCH   6   7
ATOM      7  S7  ZIN A   1      17.647   0.206   9.237  0.00  0.00    -0.181 SA
ATOM      8  H12 ZIN A   1      17.202  -0.658  10.167  0.00  0.00     0.101 HD
ENDBRANCH   6   7
ENDBRANCH   5   6
ENDBRANCH   2   5
TORSDOF 3
ENDMDL
MODEL 9
REMARK VINA RESULT:      -2.8      5.896      6.591
REMARK  3 active torsions:
REMARK  status: ('A' for Active; 'I' for Inactive)
REMARK    1  A    between atoms: S2_2  and  C5_5 
REMARK    2  A    between atoms: C5_5  and  C6_6 
REMARK    3  A    between atoms: C6_6  and  S7_7 
ROOT
ATOM      1  O1  ZIN A   1      16.997   1.393  11.313  0.00  0.00    -0.595 OA
ATOM      2  S2  ZIN A   1      17.741   2.640  11.396  0.00  0.00     0.102 S 
ATOM      3  O3  ZIN A   1      16.918   3.747  10.935  0.00  0.00    -0.595 OA
ATOM      4  O4  ZIN A   1      18.174   2.874  12.765  0.00  0.00    -0.595 OA
ENDROOT
BRANCH   2   5
ATOM      5  C5  ZIN A   1      19.205   2.519  10.332  0.00  0.00     0.175 C 
BRANCH   5   6
ATOM      6  C6  ZIN A   1      18.854   1.728   9.071  0.00  0.00     0.088 C 
BRANCH   6   7
ATOM      7  S7  ZIN A   1      19.652   0.099   9.137  0.00  0.00    -0.181 SA
ATOM      8  H12 ZIN A   1      20.197  -0.021   7.913  0.00  0.00     0.101 HD
ENDBRANCH   6   7
ENDBRANCH   5   6
ENDBRANCH   2   5
TORSDOF 3
ENDMDL
