MODEL 1
REMARK VINA RESULT:      -8.9      0.000      0.000
REMARK  5 active torsions:
REMARK  status: ('A' for Active; 'I' for Inactive)
REMARK    1  A    between atoms: C8_7  and  O9_8 
REMARK    2  A    between atoms: C16_15  and  O17_16 
REMARK    3  A    between atoms: C20_19  and  C21_20 
REMARK       I    between atoms: C21_20  and  N22_21 
REMARK    4  A    between atoms: C26_25  and  N28_26 
REMARK    5  A    between atoms: C33_30  and  O35_31 
ROOT
ATOM      1  C1  ZIN A   1      17.987   0.227   7.606  0.00  0.00     0.016 C 
ATOM      2  C2  ZIN A   1      18.464  -0.189   8.999  0.00  0.00     0.027 C 
ATOM      3  C4  ZIN A   1      18.170   0.916   9.981  0.00  0.00    -0.038 A 
ATOM      4  C5  ZIN A   1      18.055   2.220   9.552  0.00  0.00     0.009 A 
ATOM      5  C6  ZIN A   1      17.797   3.233  10.462  0.00  0.00     0.003 A 
ATOM      6  C7  ZIN A   1      17.654   2.948  11.806  0.00  0.00     0.037 A 
ATOM      7  C8  ZIN A   1      17.763   1.639  12.255  0.00  0.00     0.079 A 
ATOM      8  C10 ZIN A   1      18.017   0.612  11.338  0.00  0.00     0.041 A 
ATOM      9  C11 ZIN A   1      18.154  -0.782  11.783  0.00  0.00     0.131 C 
ATOM     10  O12 ZIN A   1      18.369  -1.064  13.087  0.00  0.00    -0.190 OA
ATOM     11  C13 ZIN A   1      18.061  -1.805  10.854  0.00  0.00     0.036 C 
ATOM     12  C14 ZIN A   1      18.284  -3.111  11.271  0.00  0.00     0.201 C 
ATOM     13  O15 ZIN A   1      18.550  -3.306  12.442  0.00  0.00    -0.289 OA
ATOM     14  C16 ZIN A   1      18.209  -4.299  10.350  0.00  0.00     0.196 C 
ATOM     15  C18 ZIN A   1      19.630  -4.699  10.002  0.00  0.00     0.210 C 
ATOM     16  O19 ZIN A   1      20.554  -4.390  10.727  0.00  0.00    -0.288 OA
ATOM     17  C20 ZIN A   1      19.868  -5.466   8.781  0.00  0.00     0.115 C 
ATOM     18  C24 ZIN A   1      18.872  -5.607   7.847  0.00  0.00     0.138 C 
ATOM     19  O25 ZIN A   1      19.129  -6.292   6.723  0.00  0.00    -0.193 OA
ATOM     20  C26 ZIN A   1      17.505  -5.020   8.039  0.00  0.00     0.292 C 
ATOM     21  C31 ZIN A   1      17.502  -3.896   9.057  0.00  0.00     0.105 C 
ATOM     22  C33 ZIN A   1      18.146  -2.627   8.511  0.00  0.00     0.138 C 
ATOM     23  C36 ZIN A   1      17.737  -1.461   9.425  0.00  0.00     0.063 C 
ENDROOT
BRANCH  17  24
ATOM     24  C21 ZIN A   1      21.180  -6.091   8.550  0.00  0.00     0.255 C 
ATOM     25  N22 ZIN A   1      22.036  -5.551   7.660  0.00  0.00    -0.366 N 
ATOM     26  H46 ZIN A   1      21.762  -4.790   7.124  0.00  0.00     0.159 HD
ATOM     27  H47 ZIN A   1      22.926  -5.923   7.555  0.00  0.00     0.159 HD
ATOM     28  O23 ZIN A   1      21.493  -7.095   9.163  0.00  0.00    -0.268 OA
ENDBRANCH  17  24
BRANCH  14  29
ATOM     29  O17 ZIN A   1      17.511  -5.374  10.982  0.00  0.00    -0.373 OA
ATOM     30  H45 ZIN A   1      16.627  -5.534  10.624  0.00  0.00     0.211 HD
ENDBRANCH  14  29
BRANCH  20  31
ATOM     31  N28 ZIN A   1      16.594  -6.077   8.497  0.00  0.00     0.091 N 
ATOM     32  C29 ZIN A   1      15.193  -5.646   8.393  0.00  0.00     0.310 C 
ATOM     33  C30 ZIN A   1      16.817  -7.324   7.750  0.00  0.00     0.310 C 
ENDBRANCH  20  31
BRANCH  22  34
ATOM     34  O35 ZIN A   1      17.673  -2.377   7.186  0.00  0.00    -0.394 OA
ATOM     35  H54 ZIN A   1      18.373  -2.171   6.550  0.00  0.00     0.210 HD
ENDBRANCH  22  34
BRANCH   7  36
ATOM     36  O9  ZIN A   1      17.625   1.357  13.575  0.00  0.00    -0.360 OA
ATOM     37  H44 ZIN A   1      18.450   1.107  14.012  0.00  0.00     0.217 HD
ENDBRANCH   7  36
TORSDOF 5
ENDMDL
MODEL 2
REMARK VINA RESULT:      -8.7      4.831      9.765
REMARK  5 active torsions:
REMARK  status: ('A' for Active; 'I' for Inactive)
REMARK    1  A    between atoms: C8_7  and  O9_8 
REMARK    2  A    between atoms: C16_15  and  O17_16 
REMARK    3  A    between atoms: C20_19  and  C21_20 
REMARK       I    between atoms: C21_20  and  N22_21 
REMARK    4  A    between atoms: C26_25  and  N28_26 
REMARK    5  A    between atoms: C33_30  and  O35_31 
ROOT
ATOM      1  C1  ZIN A   1      18.188  -0.252  15.152  0.00  0.00     0.016 C 
ATOM      2  C2  ZIN A   1      18.570   0.331  13.790  0.00  0.00     0.027 C 
ATOM      3  C4  ZIN A   1      18.274  -0.679  12.710  0.00  0.00    -0.038 A 
ATOM      4  C5  ZIN A   1      18.241  -2.024  13.003  0.00  0.00     0.009 A 
ATOM      5  C6  ZIN A   1      17.981  -2.948  12.002  0.00  0.00     0.003 A 
ATOM      6  C7  ZIN A   1      17.753  -2.531  10.706  0.00  0.00     0.037 A 
ATOM      7  C8  ZIN A   1      17.779  -1.180  10.394  0.00  0.00     0.079 A 
ATOM      8  C10 ZIN A   1      18.035  -0.243  11.403  0.00  0.00     0.041 A 
ATOM      9  C11 ZIN A   1      18.085   1.196  11.104  0.00  0.00     0.131 C 
ATOM     10  O12 ZIN A   1      18.217   1.623   9.829  0.00  0.00    -0.190 OA
ATOM     11  C13 ZIN A   1      17.996   2.110  12.140  0.00  0.00     0.036 C 
ATOM     12  C14 ZIN A   1      18.136   3.463  11.855  0.00  0.00     0.201 C 
ATOM     13  O15 ZIN A   1      18.330   3.791  10.700  0.00  0.00    -0.289 OA
ATOM     14  C16 ZIN A   1      18.057   4.542  12.901  0.00  0.00     0.196 C 
ATOM     15  C18 ZIN A   1      19.476   4.975  13.219  0.00  0.00     0.210 C 
ATOM     16  O19 ZIN A   1      20.372   4.790  12.422  0.00  0.00    -0.288 OA
ATOM     17  C20 ZIN A   1      19.743   5.621  14.503  0.00  0.00     0.115 C 
ATOM     18  C24 ZIN A   1      18.794   5.613  15.494  0.00  0.00     0.138 C 
ATOM     19  O25 ZIN A   1      19.080   6.188  16.671  0.00  0.00    -0.193 OA
ATOM     20  C26 ZIN A   1      17.446   4.981  15.306  0.00  0.00     0.292 C 
ATOM     21  C31 ZIN A   1      17.440   3.971  14.176  0.00  0.00     0.105 C 
ATOM     22  C33 ZIN A   1      18.169   2.685  14.551  0.00  0.00     0.138 C 
ATOM     23  C36 ZIN A   1      17.764   1.602  13.538  0.00  0.00     0.063 C 
ENDROOT
BRANCH  17  24
ATOM     24  C21 ZIN A   1      21.037   6.284  14.735  0.00  0.00     0.255 C 
ATOM     25  N22 ZIN A   1      21.956   5.706  15.534  0.00  0.00    -0.366 N 
ATOM     26  H46 ZIN A   1      21.741   4.888  16.009  0.00  0.00     0.159 HD
ATOM     27  H47 ZIN A   1      22.833   6.109  15.635  0.00  0.00     0.159 HD
ATOM     28  O23 ZIN A   1      21.277   7.353  14.206  0.00  0.00    -0.268 OA
ENDBRANCH  17  24
BRANCH  14  29
ATOM     29  O17 ZIN A   1      17.279   5.640  12.422  0.00  0.00    -0.373 OA
ATOM     30  H45 ZIN A   1      16.821   5.464  11.588  0.00  0.00     0.211 HD
ENDBRANCH  14  29
BRANCH  20  31
ATOM     31  N28 ZIN A   1      16.465   6.032  15.010  0.00  0.00     0.091 N 
ATOM     32  C29 ZIN A   1      15.301   5.932  15.900  0.00  0.00     0.310 C 
ATOM     33  C30 ZIN A   1      17.080   7.365  15.095  0.00  0.00     0.310 C 
ENDBRANCH  20  31
BRANCH  22  34
ATOM     34  O35 ZIN A   1      17.780   2.275  15.863  0.00  0.00    -0.394 OA
ATOM     35  H54 ZIN A   1      17.703   1.316  15.970  0.00  0.00     0.210 HD
ENDBRANCH  22  34
BRANCH   7  36
ATOM     36  O9  ZIN A   1      17.557  -0.768   9.121  0.00  0.00    -0.360 OA
ATOM     37  H44 ZIN A   1      17.399  -1.490   8.497  0.00  0.00     0.217 HD
ENDBRANCH   7  36
TORSDOF 5
ENDMDL
MODEL 3
REMARK VINA RESULT:      -7.3      4.057      6.916
REMARK  5 active torsions:
REMARK  status: ('A' for Active; 'I' for Inactive)
REMARK    1  A    between atoms: C8_7  and  O9_8 
REMARK    2  A    between atoms: C16_15  and  O17_16 
REMARK    3  A    between atoms: C20_19  and  C21_20 
REMARK       I    between atoms: C21_20  and  N22_21 
REMARK    4  A    between atoms: C26_25  and  N28_26 
REMARK    5  A    between atoms: C33_30  and  O35_31 
ROOT
ATOM      1  C1  ZIN A   1      16.687  -7.309   8.598  0.00  0.00     0.016 C 
ATOM      2  C2  ZIN A   1      16.882  -5.857   8.155  0.00  0.00     0.027 C 
ATOM      3  C4  ZIN A   1      17.602  -5.095   9.239  0.00  0.00    -0.038 A 
ATOM      4  C5  ZIN A   1      17.530  -5.508  10.550  0.00  0.00     0.009 A 
ATOM      5  C6  ZIN A   1      18.184  -4.795  11.542  0.00  0.00     0.003 A 
ATOM      6  C7  ZIN A   1      18.912  -3.664  11.229  0.00  0.00     0.037 A 
ATOM      7  C8  ZIN A   1      18.998  -3.235   9.912  0.00  0.00     0.079 A 
ATOM      8  C10 ZIN A   1      18.345  -3.956   8.906  0.00  0.00     0.041 A 
ATOM      9  C11 ZIN A   1      18.403  -3.520   7.503  0.00  0.00     0.131 C 
ATOM     10  O12 ZIN A   1      18.793  -2.264   7.195  0.00  0.00    -0.190 OA
ATOM     11  C13 ZIN A   1      18.054  -4.408   6.499  0.00  0.00     0.036 C 
ATOM     12  C14 ZIN A   1      18.025  -3.957   5.185  0.00  0.00     0.201 C 
ATOM     13  O15 ZIN A   1      18.310  -2.795   4.968  0.00  0.00    -0.289 OA
ATOM     14  C16 ZIN A   1      17.660  -4.832   4.017  0.00  0.00     0.196 C 
ATOM     15  C18 ZIN A   1      16.229  -4.510   3.631  0.00  0.00     0.210 C 
ATOM     16  O19 ZIN A   1      15.734  -3.442   3.930  0.00  0.00    -0.288 OA
ATOM     17  C20 ZIN A   1      15.457  -5.506   2.891  0.00  0.00     0.115 C 
ATOM     18  C24 ZIN A   1      15.924  -6.790   2.765  0.00  0.00     0.138 C 
ATOM     19  O25 ZIN A   1      15.179  -7.689   2.105  0.00  0.00    -0.193 OA
ATOM     20  C26 ZIN A   1      17.240  -7.224   3.340  0.00  0.00     0.292 C 
ATOM     21  C31 ZIN A   1      17.716  -6.298   4.443  0.00  0.00     0.105 C 
ATOM     22  C33 ZIN A   1      16.913  -6.476   5.727  0.00  0.00     0.138 C 
ATOM     23  C36 ZIN A   1      17.706  -5.825   6.871  0.00  0.00     0.063 C 
ENDROOT
BRANCH  17  24
ATOM     24  C21 ZIN A   1      14.172  -5.131   2.278  0.00  0.00     0.255 C 
ATOM     25  N22 ZIN A   1      14.127  -4.759   0.984  0.00  0.00    -0.366 N 
ATOM     26  H46 ZIN A   1      14.948  -4.674   0.474  0.00  0.00     0.159 HD
ATOM     27  H47 ZIN A   1      13.273  -4.576   0.561  0.00  0.00     0.159 HD
ATOM     28  O23 ZIN A   1      13.152  -5.157   2.940  0.00  0.00    -0.268 OA
ENDBRANCH  17  24
BRANCH  14  29
ATOM     29  O17 ZIN A   1      18.552  -4.600   2.925  0.00  0.00    -0.373 OA
ATOM     30  H45 ZIN A   1      19.149  -5.338   2.740  0.00  0.00     0.211 HD
ENDBRANCH  14  29
BRANCH  20  31
ATOM     31  N28 ZIN A   1      18.244  -7.243   2.269  0.00  0.00     0.091 N 
ATOM     32  C29 ZIN A   1      18.884  -8.561   2.172  0.00  0.00     0.310 C 
ATOM     33  C30 ZIN A   1      17.650  -6.850   0.984  0.00  0.00     0.310 C 
ENDBRANCH  20  31
BRANCH  22  34
ATOM     34  O35 ZIN A   1      16.742  -7.867   6.001  0.00  0.00    -0.394 OA
ATOM     35  H54 ZIN A   1      15.822  -8.166   5.970  0.00  0.00     0.210 HD
ENDBRANCH  22  34
BRANCH   7  36
ATOM     36  O9  ZIN A   1      19.712  -2.124   9.602  0.00  0.00    -0.360 OA
ATOM     37  H44 ZIN A   1      19.169  -1.336   9.457  0.00  0.00     0.217 HD
ENDBRANCH   7  36
TORSDOF 5
ENDMDL
