MODEL 1
REMARK VINA RESULT:      -9.0      0.000      0.000
REMARK  6 active torsions:
REMARK  status: ('A' for Active; 'I' for Inactive)
REMARK    1  A    between atoms: C2_2  and  C3_3 
REMARK    2  A    between atoms: C2_2  and  C23_23 
REMARK    3  A    between atoms: C3_3  and  C4_4 
REMARK    4  A    between atoms: C4_4  and  C5_5 
REMARK    5  A    between atoms: C5_5  and  N6_6 
REMARK    6  A    between atoms: C10_10  and  N11_11 
ROOT
ATOM      1  N6  <0> d   1      18.651  -3.751  10.453  0.00  0.00    -0.068 N 
ATOM      2  H7  <0> d   1      19.081  -3.090   9.823  0.00  0.00     0.280 HD
ATOM      3  C8  <0> d   1      17.443  -3.158  11.037  0.00  0.00     0.264 C 
ATOM      4  C9  <0> d   1      17.805  -2.020  11.946  0.00  0.00     0.026 C 
ATOM      5  C10 <0> d   1      19.007  -1.851  12.434  0.00  0.00     0.021 C 
ATOM      6  C21 <0> d   1      20.143  -2.784  12.122  0.00  0.00     0.085 C 
ATOM      7  C22 <0> d   1      19.593  -4.086  11.533  0.00  0.00     0.241 C 
ENDROOT
BRANCH   1   8
ATOM      8  C5  <0> d   1      18.294  -4.970   9.716  0.00  0.00     0.235 C 
BRANCH   8   9
ATOM      9  C4  <0> d   1      18.945  -4.939   8.332  0.00  0.00     0.035 C 
BRANCH   9  10
ATOM     10  C3  <0> d   1      18.266  -3.870   7.473  0.00  0.00     0.085 C 
BRANCH  10  11
ATOM     11  C2  <0> d   1      19.311  -2.947   6.901  0.00  0.00     0.159 C 
ATOM     12  O1  <0> d   1      20.224  -3.398   6.241  0.00  0.00    -0.292 OA
BRANCH  11  13
ATOM     13  C23 <0> d   1      19.229  -1.501   7.149  0.00  0.00     0.010 A 
ATOM     14  C29 <0> d   1      19.372  -1.001   8.449  0.00  0.00     0.018 A 
ATOM     15  C28 <0> d   1      19.300   0.355   8.674  0.00  0.00     0.043 A 
ATOM     16  C26 <0> d   1      19.077   1.226   7.618  0.00  0.00     0.116 A 
ATOM     17  C25 <0> d   1      18.929   0.738   6.329  0.00  0.00     0.043 A 
ATOM     18  F27 <0> d   1      19.002   2.556   7.847  0.00  0.00    -0.206 F 
ATOM     19  C24 <0> d   1      19.004  -0.617   6.089  0.00  0.00     0.018 A 
ENDBRANCH  11  13
ENDBRANCH  10  11
ENDBRANCH   9  10
ENDBRANCH   8   9
ENDBRANCH   1   8
BRANCH   5  20
ATOM     20  N11 <0> d   1      19.243  -0.765  13.276  0.00  0.00    -0.266 N 
ATOM     21  C20 <0> d   1      18.802  -0.642  14.593  0.00  0.00     0.070 A 
ATOM     22  C15 <0> d   1      19.263   0.591  15.059  0.00  0.00     0.063 A 
ATOM     23  C19 <0> d   1      18.071  -1.468  15.433  0.00  0.00     0.032 A 
ATOM     24  N14 <0> d   1      19.962   1.183  14.009  0.00  0.00    -0.306 N 
ATOM     25  C16 <0> d   1      18.977   0.989  16.355  0.00  0.00     0.032 A 
ATOM     26  C12 <0> d   1      19.932   0.346  12.954  0.00  0.00     0.332 A 
ATOM     27  H39 <0> d   1      20.396   2.050  14.034  0.00  0.00     0.171 HD
ATOM     28  O13 <0> d   1      20.450   0.562  11.875  0.00  0.00    -0.246 OA
ATOM     29  C17 <0> d   1      18.242   0.162  17.183  0.00  0.00     0.002 A 
ATOM     30  C18 <0> d   1      17.791  -1.062  16.723  0.00  0.00     0.002 A 
ENDBRANCH   5  20
TORSDOF 6
ENDMDL
MODEL 2
REMARK VINA RESULT:      -8.9      2.524      7.033
REMARK  6 active torsions:
REMARK  status: ('A' for Active; 'I' for Inactive)
REMARK    1  A    between atoms: C2_2  and  C3_3 
REMARK    2  A    between atoms: C2_2  and  C23_23 
REMARK    3  A    between atoms: C3_3  and  C4_4 
REMARK    4  A    between atoms: C4_4  and  C5_5 
REMARK    5  A    between atoms: C5_5  and  N6_6 
REMARK    6  A    between atoms: C10_10  and  N11_11 
ROOT
ATOM      1  N6  <0> d   1      18.266  -1.161  13.162  0.00  0.00    -0.068 N 
ATOM      2  H7  <0> d   1      18.036  -2.143  13.174  0.00  0.00     0.280 HD
ATOM      3  C8  <0> d   1      17.234  -0.424  12.423  0.00  0.00     0.264 C 
ATOM      4  C9  <0> d   1      17.271  -0.790  10.968  0.00  0.00     0.026 C 
ATOM      5  C10 <0> d   1      18.301  -1.364  10.402  0.00  0.00     0.021 C 
ATOM      6  C21 <0> d   1      19.548  -1.716  11.165  0.00  0.00     0.085 C 
ATOM      7  C22 <0> d   1      19.564  -0.966  12.499  0.00  0.00     0.241 C 
ENDROOT
BRANCH   1   8
ATOM      8  C5  <0> d   1      18.337  -0.658  14.541  0.00  0.00     0.235 C 
BRANCH   8   9
ATOM      9  C4  <0> d   1      17.683   0.723  14.615  0.00  0.00     0.035 C 
BRANCH   9  10
ATOM     10  C3  <0> d   1      18.730   1.762  15.023  0.00  0.00     0.085 C 
BRANCH  10  11
ATOM     11  C2  <0> d   1      18.386   3.092  14.404  0.00  0.00     0.159 C 
ATOM     12  O1  <0> d   1      18.091   4.033  15.111  0.00  0.00    -0.292 OA
BRANCH  11  13
ATOM     13  C23 <0> d   1      18.401   3.248  12.943  0.00  0.00     0.010 A 
ATOM     14  C29 <0> d   1      17.379   3.955  12.300  0.00  0.00     0.018 A 
ATOM     15  C28 <0> d   1      17.402   4.102  10.931  0.00  0.00     0.043 A 
ATOM     16  C26 <0> d   1      18.431   3.543  10.188  0.00  0.00     0.116 A 
ATOM     17  C25 <0> d   1      19.445   2.837  10.817  0.00  0.00     0.043 A 
ATOM     18  F27 <0> d   1      18.445   3.687   8.844  0.00  0.00    -0.206 F 
ATOM     19  C24 <0> d   1      19.436   2.686  12.187  0.00  0.00     0.018 A 
ENDBRANCH  11  13
ENDBRANCH  10  11
ENDBRANCH   9  10
ENDBRANCH   8   9
ENDBRANCH   1   8
BRANCH   5  20
ATOM     20  N11 <0> d   1      18.241  -1.660   9.041  0.00  0.00    -0.266 N 
ATOM     21  C20 <0> d   1      18.491  -0.766   8.000  0.00  0.00     0.070 A 
ATOM     22  C15 <0> d   1      18.324  -1.477   6.810  0.00  0.00     0.063 A 
ATOM     23  C19 <0> d   1      18.857   0.571   7.960  0.00  0.00     0.032 A 
ATOM     24  N14 <0> d   1      17.970  -2.777   7.164  0.00  0.00    -0.306 N 
ATOM     25  C16 <0> d   1      18.513  -0.840   5.593  0.00  0.00     0.032 A 
ATOM     26  C12 <0> d   1      17.929  -2.855   8.507  0.00  0.00     0.332 A 
ATOM     27  H39 <0> d   1      17.785  -3.503   6.547  0.00  0.00     0.171 HD
ATOM     28  O13 <0> d   1      17.651  -3.855   9.143  0.00  0.00    -0.246 OA
ATOM     29  C17 <0> d   1      18.871   0.494   5.564  0.00  0.00     0.002 A 
ATOM     30  C18 <0> d   1      19.043   1.197   6.743  0.00  0.00     0.002 A 
ENDBRANCH   5  20
TORSDOF 6
ENDMDL
MODEL 3
REMARK VINA RESULT:      -8.8      2.039      3.120
REMARK  6 active torsions:
REMARK  status: ('A' for Active; 'I' for Inactive)
REMARK    1  A    between atoms: C2_2  and  C3_3 
REMARK    2  A    between atoms: C2_2  and  C23_23 
REMARK    3  A    between atoms: C3_3  and  C4_4 
REMARK    4  A    between atoms: C4_4  and  C5_5 
REMARK    5  A    between atoms: C5_5  and  N6_6 
REMARK    6  A    between atoms: C10_10  and  N11_11 
ROOT
ATOM      1  N6  <0> d   1      18.544  -2.759  10.666  0.00  0.00    -0.068 N 
ATOM      2  H7  <0> d   1      18.399  -2.195   9.843  0.00  0.00     0.280 HD
ATOM      3  C8  <0> d   1      17.510  -2.450  11.661  0.00  0.00     0.264 C 
ATOM      4  C9  <0> d   1      17.685  -1.054  12.182  0.00  0.00     0.026 C 
ATOM      5  C10 <0> d   1      18.800  -0.381  12.058  0.00  0.00     0.021 C 
ATOM      6  C21 <0> d   1      20.013  -0.947  11.374  0.00  0.00     0.085 C 
ATOM      7  C22 <0> d   1      19.866  -2.465  11.240  0.00  0.00     0.241 C 
ENDROOT
BRANCH   1   8
ATOM      8  C5  <0> d   1      18.469  -4.182  10.305  0.00  0.00     0.235 C 
BRANCH   8   9
ATOM      9  C4  <0> d   1      19.277  -4.427   9.029  0.00  0.00     0.035 C 
BRANCH   9  10
ATOM     10  C3  <0> d   1      18.502  -3.887   7.824  0.00  0.00     0.085 C 
BRANCH  10  11
ATOM     11  C2  <0> d   1      19.435  -3.101   6.938  0.00  0.00     0.159 C 
ATOM     12  O1  <0> d   1      20.341  -3.664   6.361  0.00  0.00    -0.292 OA
BRANCH  11  13
ATOM     13  C23 <0> d   1      19.250  -1.652   6.780  0.00  0.00     0.010 A 
ATOM     14  C29 <0> d   1      19.327  -1.067   5.511  0.00  0.00     0.018 A 
ATOM     15  C28 <0> d   1      19.147   0.290   5.369  0.00  0.00     0.043 A 
ATOM     16  C26 <0> d   1      18.899   1.080   6.481  0.00  0.00     0.116 A 
ATOM     17  C25 <0> d   1      18.826   0.509   7.743  0.00  0.00     0.043 A 
ATOM     18  F27 <0> d   1      18.728   2.413   6.335  0.00  0.00    -0.206 F 
ATOM     19  C24 <0> d   1      18.999  -0.849   7.898  0.00  0.00     0.018 A 
ENDBRANCH  11  13
ENDBRANCH  10  11
ENDBRANCH   9  10
ENDBRANCH   8   9
ENDBRANCH   1   8
BRANCH   5  20
ATOM     20  N11 <0> d   1      18.866   0.910  12.581  0.00  0.00    -0.266 N 
ATOM     21  C20 <0> d   1      18.525   2.082  11.908  0.00  0.00     0.070 A 
ATOM     22  C15 <0> d   1      18.737   3.135  12.800  0.00  0.00     0.063 A 
ATOM     23  C19 <0> d   1      18.042   2.342  10.634  0.00  0.00     0.032 A 
ATOM     24  N14 <0> d   1      19.209   2.572  13.983  0.00  0.00    -0.306 N 
ATOM     25  C16 <0> d   1      18.476   4.438  12.404  0.00  0.00     0.032 A 
ATOM     26  C12 <0> d   1      19.275   1.237  13.821  0.00  0.00     0.332 A 
ATOM     27  H39 <0> d   1      19.448   3.059  14.788  0.00  0.00     0.171 HD
ATOM     28  O13 <0> d   1      19.648   0.447  14.668  0.00  0.00    -0.246 OA
ATOM     29  C17 <0> d   1      18.002   4.688  11.131  0.00  0.00     0.002 A 
ATOM     30  C18 <0> d   1      17.785   3.644  10.249  0.00  0.00     0.002 A 
ENDBRANCH   5  20
TORSDOF 6
ENDMDL
MODEL 4
REMARK VINA RESULT:      -8.7      2.881      6.980
REMARK  6 active torsions:
REMARK  status: ('A' for Active; 'I' for Inactive)
REMARK    1  A    between atoms: C2_2  and  C3_3 
REMARK    2  A    between atoms: C2_2  and  C23_23 
REMARK    3  A    between atoms: C3_3  and  C4_4 
REMARK    4  A    between atoms: C4_4  and  C5_5 
REMARK    5  A    between atoms: C5_5  and  N6_6 
REMARK    6  A    between atoms: C10_10  and  N11_11 
ROOT
ATOM      1  N6  <0> d   1      19.019   0.969   8.126  0.00  0.00    -0.068 N 
ATOM      2  H7  <0> d   1      19.513   0.859   7.254  0.00  0.00     0.280 HD
ATOM      3  C8  <0> d   1      19.744   0.270   9.193  0.00  0.00     0.264 C 
ATOM      4  C9  <0> d   1      19.699  -1.214   8.971  0.00  0.00     0.026 C 
ATOM      5  C10 <0> d   1      18.829  -1.791   8.183  0.00  0.00     0.021 C 
ATOM      6  C21 <0> d   1      17.791  -1.015   7.420  0.00  0.00     0.085 C 
ATOM      7  C22 <0> d   1      17.670   0.395   8.005  0.00  0.00     0.241 C 
ENDROOT
BRANCH   1   8
ATOM      8  C5  <0> d   1      18.917   2.398   8.455  0.00  0.00     0.235 C 
BRANCH   8   9
ATOM      9  C4  <0> d   1      19.168   2.596   9.951  0.00  0.00     0.035 C 
BRANCH   9  10
ATOM     10  C3  <0> d   1      17.895   3.124  10.617  0.00  0.00     0.085 C 
BRANCH  10  11
ATOM     11  C2  <0> d   1      17.799   2.581  12.019  0.00  0.00     0.159 C 
ATOM     12  O1  <0> d   1      17.608   3.335  12.950  0.00  0.00    -0.292 OA
BRANCH  11  13
ATOM     13  C23 <0> d   1      17.944   1.138  12.259  0.00  0.00     0.010 A 
ATOM     14  C29 <0> d   1      18.992   0.659  13.055  0.00  0.00     0.018 A 
ATOM     15  C28 <0> d   1      19.118  -0.693  13.281  0.00  0.00     0.043 A 
ATOM     16  C26 <0> d   1      18.216  -1.581  12.715  0.00  0.00     0.116 A 
ATOM     17  C25 <0> d   1      17.179  -1.115  11.922  0.00  0.00     0.043 A 
ATOM     18  F27 <0> d   1      18.349  -2.908  12.937  0.00  0.00    -0.206 F 
ATOM     19  C24 <0> d   1      17.037   0.236  11.692  0.00  0.00     0.018 A 
ENDBRANCH  11  13
ENDBRANCH  10  11
ENDBRANCH   9  10
ENDBRANCH   8   9
ENDBRANCH   1   8
BRANCH   5  20
ATOM     20  N11 <0> d   1      18.863  -3.178   8.047  0.00  0.00    -0.266 N 
ATOM     21  C20 <0> d   1      18.205  -4.095   8.866  0.00  0.00     0.070 A 
ATOM     22  C15 <0> d   1      18.507  -5.366   8.372  0.00  0.00     0.063 A 
ATOM     23  C19 <0> d   1      17.372  -3.962   9.967  0.00  0.00     0.032 A 
ATOM     24  N14 <0> d   1      19.345  -5.183   7.275  0.00  0.00    -0.306 N 
ATOM     25  C16 <0> d   1      17.983  -6.490   8.992  0.00  0.00     0.032 A 
ATOM     26  C12 <0> d   1      19.540  -3.861   7.105  0.00  0.00     0.332 A 
ATOM     27  H39 <0> d   1      19.724  -5.887   6.726  0.00  0.00     0.171 HD
ATOM     28  O13 <0> d   1      20.224  -3.360   6.232  0.00  0.00    -0.246 OA
ATOM     29  C17 <0> d   1      17.160  -6.348  10.092  0.00  0.00     0.002 A 
ATOM     30  C18 <0> d   1      16.855  -5.089  10.577  0.00  0.00     0.002 A 
ENDBRANCH   5  20
TORSDOF 6
ENDMDL
MODEL 5
REMARK VINA RESULT:      -8.6      3.017      4.398
REMARK  6 active torsions:
REMARK  status: ('A' for Active; 'I' for Inactive)
REMARK    1  A    between atoms: C2_2  and  C3_3 
REMARK    2  A    between atoms: C2_2  and  C23_23 
REMARK    3  A    between atoms: C3_3  and  C4_4 
REMARK    4  A    between atoms: C4_4  and  C5_5 
REMARK    5  A    between atoms: C5_5  and  N6_6 
REMARK    6  A    between atoms: C10_10  and  N11_11 
ROOT
ATOM      1  N6  <0> d   1      18.725  -1.069  11.750  0.00  0.00    -0.068 N 
ATOM      2  H7  <0> d   1      19.416  -0.334  11.752  0.00  0.00     0.280 HD
ATOM      3  C8  <0> d   1      17.412  -0.509  12.088  0.00  0.00     0.264 C 
ATOM      4  C9  <0> d   1      17.394  -0.041  13.514  0.00  0.00     0.026 C 
ATOM      5  C10 <0> d   1      18.270  -0.431  14.405  0.00  0.00     0.021 C 
ATOM      6  C21 <0> d   1      19.384  -1.385  14.076  0.00  0.00     0.085 C 
ATOM      7  C22 <0> d   1      19.086  -2.087  12.749  0.00  0.00     0.241 C 
ENDROOT
BRANCH   1   8
ATOM      8  C5  <0> d   1      18.669  -1.685  10.417  0.00  0.00     0.235 C 
BRANCH   8   9
ATOM      9  C4  <0> d   1      18.461  -0.599   9.361  0.00  0.00     0.035 C 
BRANCH   9  10
ATOM     10  C3  <0> d   1      19.665   0.347   9.358  0.00  0.00     0.085 C 
BRANCH  10  11
ATOM     11  C2  <0> d   1      19.195   1.757   9.109  0.00  0.00     0.159 C 
ATOM     12  O1  <0> d   1      19.051   2.156   7.972  0.00  0.00    -0.292 OA
BRANCH  11  13
ATOM     13  C23 <0> d   1      18.919   2.651  10.242  0.00  0.00     0.010 A 
ATOM     14  C29 <0> d   1      19.925   2.938  11.172  0.00  0.00     0.018 A 
ATOM     15  C28 <0> d   1      19.662   3.781  12.228  0.00  0.00     0.043 A 
ATOM     16  C26 <0> d   1      18.401   4.337  12.378  0.00  0.00     0.116 A 
ATOM     17  C25 <0> d   1      17.397   4.053  11.464  0.00  0.00     0.043 A 
ATOM     18  F27 <0> d   1      18.148   5.160  13.420  0.00  0.00    -0.206 F 
ATOM     19  C24 <0> d   1      17.649   3.215  10.399  0.00  0.00     0.018 A 
ENDBRANCH  11  13
ENDBRANCH  10  11
ENDBRANCH   9  10
ENDBRANCH   8   9
ENDBRANCH   1   8
BRANCH   5  20
ATOM     20  N11 <0> d   1      18.166   0.056  15.707  0.00  0.00    -0.266 N 
ATOM     21  C20 <0> d   1      18.590   1.309  16.146  0.00  0.00     0.070 A 
ATOM     22  C15 <0> d   1      18.292   1.381  17.508  0.00  0.00     0.063 A 
ATOM     23  C19 <0> d   1      19.183   2.390  15.512  0.00  0.00     0.032 A 
ATOM     24  N14 <0> d   1      17.704   0.167  17.857  0.00  0.00    -0.306 N 
ATOM     25  C16 <0> d   1      18.601   2.528  18.223  0.00  0.00     0.032 A 
ATOM     26  C12 <0> d   1      17.642  -0.606  16.756  0.00  0.00     0.332 A 
ATOM     27  H39 <0> d   1      17.392  -0.079  18.742  0.00  0.00     0.171 HD
ATOM     28  O13 <0> d   1      17.182  -1.732  16.715  0.00  0.00    -0.246 OA
ATOM     29  C17 <0> d   1      19.198   3.597  17.584  0.00  0.00     0.002 A 
ATOM     30  C18 <0> d   1      19.487   3.529  16.233  0.00  0.00     0.002 A 
ENDBRANCH   5  20
TORSDOF 6
ENDMDL
MODEL 6
REMARK VINA RESULT:      -8.5      3.326      5.065
REMARK  6 active torsions:
REMARK  status: ('A' for Active; 'I' for Inactive)
REMARK    1  A    between atoms: C2_2  and  C3_3 
REMARK    2  A    between atoms: C2_2  and  C23_23 
REMARK    3  A    between atoms: C3_3  and  C4_4 
REMARK    4  A    between atoms: C4_4  and  C5_5 
REMARK    5  A    between atoms: C5_5  and  N6_6 
REMARK    6  A    between atoms: C10_10  and  N11_11 
ROOT
ATOM      1  N6  <0> d   1      18.493  -0.078   7.138  0.00  0.00    -0.068 N 
ATOM      2  H7  <0> d   1      19.165  -0.708   7.548  0.00  0.00     0.280 HD
ATOM      3  C8  <0> d   1      19.064   1.271   7.065  0.00  0.00     0.264 C 
ATOM      4  C9  <0> d   1      19.249   1.836   8.443  0.00  0.00     0.026 C 
ATOM      5  C10 <0> d   1      18.638   1.361   9.498  0.00  0.00     0.021 C 
ATOM      6  C21 <0> d   1      17.692   0.194   9.424  0.00  0.00     0.085 C 
ATOM      7  C22 <0> d   1      17.279  -0.043   7.969  0.00  0.00     0.241 C 
ENDROOT
BRANCH   1   8
ATOM      8  C5  <0> d   1      18.149  -0.541   5.786  0.00  0.00     0.235 C 
BRANCH   8   9
ATOM      9  C4  <0> d   1      19.059  -1.708   5.399  0.00  0.00     0.035 C 
BRANCH   9  10
ATOM     10  C3  <0> d   1      18.464  -3.015   5.929  0.00  0.00     0.085 C 
BRANCH  10  11
ATOM     11  C2  <0> d   1      19.446  -3.673   6.863  0.00  0.00     0.159 C 
ATOM     12  O1  <0> d   1      20.582  -3.890   6.494  0.00  0.00    -0.292 OA
BRANCH  11  13
ATOM     13  C23 <0> d   1      19.027  -4.056   8.218  0.00  0.00     0.010 A 
ATOM     14  C29 <0> d   1      17.872  -3.500   8.781  0.00  0.00     0.018 A 
ATOM     15  C28 <0> d   1      17.482  -3.868  10.049  0.00  0.00     0.043 A 
ATOM     16  C26 <0> d   1      18.235  -4.780  10.773  0.00  0.00     0.116 A 
ATOM     17  C25 <0> d   1      19.383  -5.331  10.224  0.00  0.00     0.043 A 
ATOM     18  F27 <0> d   1      17.848  -5.133  12.019  0.00  0.00    -0.206 F 
ATOM     19  C24 <0> d   1      19.782  -4.976   8.954  0.00  0.00     0.018 A 
ENDBRANCH  11  13
ENDBRANCH  10  11
ENDBRANCH   9  10
ENDBRANCH   8   9
ENDBRANCH   1   8
BRANCH   5  20
ATOM     20  N11 <0> d   1      18.871   1.958  10.735  0.00  0.00    -0.266 N 
ATOM     21  C20 <0> d   1      18.251   3.112  11.214  0.00  0.00     0.070 A 
ATOM     22  C15 <0> d   1      18.773   3.351  12.487  0.00  0.00     0.063 A 
ATOM     23  C19 <0> d   1      17.289   3.962  10.692  0.00  0.00     0.032 A 
ATOM     24  N14 <0> d   1      19.699   2.342  12.739  0.00  0.00    -0.306 N 
ATOM     25  C16 <0> d   1      18.336   4.445  13.218  0.00  0.00     0.032 A 
ATOM     26  C12 <0> d   1      19.735   1.522  11.671  0.00  0.00     0.332 A 
ATOM     27  H39 <0> d   1      20.228   2.245  13.547  0.00  0.00     0.171 HD
ATOM     28  O13 <0> d   1      20.442   0.537  11.567  0.00  0.00    -0.246 OA
ATOM     29  C17 <0> d   1      17.381   5.290  12.686  0.00  0.00     0.002 A 
ATOM     30  C18 <0> d   1      16.859   5.049  11.428  0.00  0.00     0.002 A 
ENDBRANCH   5  20
TORSDOF 6
ENDMDL
MODEL 7
REMARK VINA RESULT:      -8.5      3.289      8.646
REMARK  6 active torsions:
REMARK  status: ('A' for Active; 'I' for Inactive)
REMARK    1  A    between atoms: C2_2  and  C3_3 
REMARK    2  A    between atoms: C2_2  and  C23_23 
REMARK    3  A    between atoms: C3_3  and  C4_4 
REMARK    4  A    between atoms: C4_4  and  C5_5 
REMARK    5  A    between atoms: C5_5  and  N6_6 
REMARK    6  A    between atoms: C10_10  and  N11_11 
ROOT
ATOM      1  N6  <0> d   1      18.738   3.916  12.675  0.00  0.00    -0.068 N 
ATOM      2  H7  <0> d   1      18.524   3.220  13.372  0.00  0.00     0.280 HD
ATOM      3  C8  <0> d   1      17.622   4.021  11.727  0.00  0.00     0.264 C 
ATOM      4  C9  <0> d   1      17.505   2.764  10.916  0.00  0.00     0.026 C 
ATOM      5  C10 <0> d   1      18.476   1.893  10.804  0.00  0.00     0.021 C 
ATOM      6  C21 <0> d   1      19.803   2.072  11.487  0.00  0.00     0.085 C 
ATOM      7  C22 <0> d   1      19.954   3.526  11.945  0.00  0.00     0.241 C 
ENDROOT
BRANCH   1   8
ATOM      8  C5  <0> d   1      18.952   5.215  13.328  0.00  0.00     0.235 C 
BRANCH   8   9
ATOM      9  C4  <0> d   1      19.411   4.992  14.770  0.00  0.00     0.035 C 
BRANCH   9  10
ATOM     10  C3  <0> d   1      18.457   4.016  15.464  0.00  0.00     0.085 C 
BRANCH  10  11
ATOM     11  C2  <0> d   1      19.251   3.046  16.300  0.00  0.00     0.159 C 
ATOM     12  O1  <0> d   1      20.203   3.438  16.943  0.00  0.00    -0.292 OA
BRANCH  11  13
ATOM     13  C23 <0> d   1      18.877   1.626  16.331  0.00  0.00     0.010 A 
ATOM     14  C29 <0> d   1      18.993   0.843  15.176  0.00  0.00     0.018 A 
ATOM     15  C28 <0> d   1      18.646  -0.489  15.213  0.00  0.00     0.043 A 
ATOM     16  C26 <0> d   1      18.175  -1.053  16.388  0.00  0.00     0.116 A 
ATOM     17  C25 <0> d   1      18.053  -0.284  17.535  0.00  0.00     0.043 A 
ATOM     18  F27 <0> d   1      17.832  -2.361  16.416  0.00  0.00    -0.206 F 
ATOM     19  C24 <0> d   1      18.401   1.049  17.513  0.00  0.00     0.018 A 
ENDBRANCH  11  13
ENDBRANCH  10  11
ENDBRANCH   9  10
ENDBRANCH   8   9
ENDBRANCH   1   8
BRANCH   5  20
ATOM     20  N11 <0> d   1      18.272   0.758  10.021  0.00  0.00    -0.266 N 
ATOM     21  C20 <0> d   1      18.484   0.665   8.647  0.00  0.00     0.070 A 
ATOM     22  C15 <0> d   1      18.162  -0.642   8.276  0.00  0.00     0.063 A 
ATOM     23  C19 <0> d   1      18.931   1.564   7.690  0.00  0.00     0.032 A 
ATOM     24  N14 <0> d   1      17.757  -1.301   9.435  0.00  0.00    -0.306 N 
ATOM     25  C16 <0> d   1      18.279  -1.033   6.951  0.00  0.00     0.032 A 
ATOM     26  C12 <0> d   1      17.834  -0.436  10.464  0.00  0.00     0.332 A 
ATOM     27  H39 <0> d   1      17.469  -2.226   9.490  0.00  0.00     0.171 HD
ATOM     28  O13 <0> d   1      17.551  -0.695  11.619  0.00  0.00    -0.246 OA
ATOM     29  C17 <0> d   1      18.720  -0.128   6.004  0.00  0.00     0.002 A 
ATOM     30  C18 <0> d   1      19.045   1.165   6.372  0.00  0.00     0.002 A 
ENDBRANCH   5  20
TORSDOF 6
ENDMDL
MODEL 8
REMARK VINA RESULT:      -8.4      2.580      4.057
REMARK  6 active torsions:
REMARK  status: ('A' for Active; 'I' for Inactive)
REMARK    1  A    between atoms: C2_2  and  C3_3 
REMARK    2  A    between atoms: C2_2  and  C23_23 
REMARK    3  A    between atoms: C3_3  and  C4_4 
REMARK    4  A    between atoms: C4_4  and  C5_5 
REMARK    5  A    between atoms: C5_5  and  N6_6 
REMARK    6  A    between atoms: C10_10  and  N11_11 
ROOT
ATOM      1  N6  <0> d   1      18.876  -1.039   8.362  0.00  0.00    -0.068 N 
ATOM      2  H7  <0> d   1      18.522  -0.141   8.071  0.00  0.00     0.280 HD
ATOM      3  C8  <0> d   1      17.859  -1.733   9.160  0.00  0.00     0.264 C 
ATOM      4  C9  <0> d   1      17.644  -1.023  10.465  0.00  0.00     0.026 C 
ATOM      5  C10 <0> d   1      18.500  -0.167  10.961  0.00  0.00     0.021 C 
ATOM      6  C21 <0> d   1      19.783   0.188  10.263  0.00  0.00     0.085 C 
ATOM      7  C22 <0> d   1      20.084  -0.851   9.180  0.00  0.00     0.241 C 
ENDROOT
BRANCH   1   8
ATOM      8  C5  <0> d   1      19.205  -1.844   7.177  0.00  0.00     0.235 C 
BRANCH   8   9
ATOM      9  C4  <0> d   1      18.738  -3.285   7.394  0.00  0.00     0.035 C 
BRANCH   9  10
ATOM     10  C3  <0> d   1      19.832  -4.250   6.930  0.00  0.00     0.085 C 
BRANCH  10  11
ATOM     11  C2  <0> d   1      20.171  -5.201   8.050  0.00  0.00     0.159 C 
ATOM     12  O1  <0> d   1      21.120  -5.949   7.943  0.00  0.00    -0.292 OA
BRANCH  11  13
ATOM     13  C23 <0> d   1      19.348  -5.225   9.267  0.00  0.00     0.010 A 
ATOM     14  C29 <0> d   1      19.751  -4.513  10.402  0.00  0.00     0.018 A 
ATOM     15  C28 <0> d   1      18.972  -4.535  11.538  0.00  0.00     0.043 A 
ATOM     16  C26 <0> d   1      17.795  -5.269  11.561  0.00  0.00     0.116 A 
ATOM     17  C25 <0> d   1      17.393  -5.982  10.441  0.00  0.00     0.043 A 
ATOM     18  F27 <0> d   1      17.038  -5.291  12.680  0.00  0.00    -0.206 F 
ATOM     19  C24 <0> d   1      18.160  -5.964   9.297  0.00  0.00     0.018 A 
ENDBRANCH  11  13
ENDBRANCH  10  11
ENDBRANCH   9  10
ENDBRANCH   8   9
ENDBRANCH   1   8
BRANCH   5  20
ATOM     20  N11 <0> d   1      18.212   0.437  12.184  0.00  0.00    -0.266 N 
ATOM     21  C20 <0> d   1      18.477  -0.101  13.443  0.00  0.00     0.070 A 
ATOM     22  C15 <0> d   1      18.034   0.832  14.382  0.00  0.00     0.063 A 
ATOM     23  C19 <0> d   1      19.063  -1.284  13.868  0.00  0.00     0.032 A 
ATOM     24  N14 <0> d   1      17.507   1.905  13.666  0.00  0.00    -0.306 N 
ATOM     25  C16 <0> d   1      18.172   0.568  15.736  0.00  0.00     0.032 A 
ATOM     26  C12 <0> d   1      17.628   1.639  12.352  0.00  0.00     0.332 A 
ATOM     27  H39 <0> d   1      17.119   2.707  14.050  0.00  0.00     0.171 HD
ATOM     28  O13 <0> d   1      17.265   2.373  11.452  0.00  0.00    -0.246 OA
ATOM     29  C17 <0> d   1      18.751  -0.616  16.150  0.00  0.00     0.002 A 
ATOM     30  C18 <0> d   1      19.195  -1.539  15.220  0.00  0.00     0.002 A 
ENDBRANCH   5  20
TORSDOF 6
ENDMDL
MODEL 9
REMARK VINA RESULT:      -8.4      2.488      7.021
REMARK  6 active torsions:
REMARK  status: ('A' for Active; 'I' for Inactive)
REMARK    1  A    between atoms: C2_2  and  C3_3 
REMARK    2  A    between atoms: C2_2  and  C23_23 
REMARK    3  A    between atoms: C3_3  and  C4_4 
REMARK    4  A    between atoms: C4_4  and  C5_5 
REMARK    5  A    between atoms: C5_5  and  N6_6 
REMARK    6  A    between atoms: C10_10  and  N11_11 
ROOT
ATOM      1  N6  <0> d   1      19.097  -2.966  11.263  0.00  0.00    -0.068 N 
ATOM      2  H7  <0> d   1      19.446  -2.296  10.594  0.00  0.00     0.280 HD
ATOM      3  C8  <0> d   1      19.912  -4.185  11.209  0.00  0.00     0.264 C 
ATOM      4  C9  <0> d   1      19.715  -4.890   9.900  0.00  0.00     0.026 C 
ATOM      5  C10 <0> d   1      18.694  -4.662   9.113  0.00  0.00     0.021 C 
ATOM      6  C21 <0> d   1      17.622  -3.664   9.451  0.00  0.00     0.085 C 
ATOM      7  C22 <0> d   1      17.703  -3.305  10.937  0.00  0.00     0.241 C 
ENDROOT
BRANCH   1   8
ATOM      8  C5  <0> d   1      19.160  -2.390  12.613  0.00  0.00     0.235 C 
BRANCH   8   9
ATOM      9  C4  <0> d   1      18.014  -1.393  12.797  0.00  0.00     0.035 C 
BRANCH   9  10
ATOM     10  C3  <0> d   1      18.404  -0.049  12.178  0.00  0.00     0.085 C 
BRANCH  10  11
ATOM     11  C2  <0> d   1      17.417   0.311  11.097  0.00  0.00     0.159 C 
ATOM     12  O1  <0> d   1      16.232   0.363  11.351  0.00  0.00    -0.292 OA
BRANCH  11  13
ATOM     13  C23 <0> d   1      17.891   0.591   9.735  0.00  0.00     0.010 A 
ATOM     14  C29 <0> d   1      18.813   1.619   9.508  0.00  0.00     0.018 A 
ATOM     15  C28 <0> d   1      19.257   1.873   8.230  0.00  0.00     0.043 A 
ATOM     16  C26 <0> d   1      18.785   1.119   7.166  0.00  0.00     0.116 A 
ATOM     17  C25 <0> d   1      17.867   0.103   7.382  0.00  0.00     0.043 A 
ATOM     18  F27 <0> d   1      19.221   1.377   5.913  0.00  0.00    -0.206 F 
ATOM     19  C24 <0> d   1      17.418  -0.165   8.657  0.00  0.00     0.018 A 
ENDBRANCH  11  13
ENDBRANCH  10  11
ENDBRANCH   9  10
ENDBRANCH   8   9
ENDBRANCH   1   8
BRANCH   5  20
ATOM     20  N11 <0> d   1      18.596  -5.373   7.918  0.00  0.00    -0.266 N 
ATOM     21  C20 <0> d   1      17.791  -6.489   7.696  0.00  0.00     0.070 A 
ATOM     22  C15 <0> d   1      17.996  -6.877   6.370  0.00  0.00     0.063 A 
ATOM     23  C19 <0> d   1      16.899  -7.193   8.491  0.00  0.00     0.032 A 
ATOM     24  N14 <0> d   1      18.925  -5.991   5.830  0.00  0.00    -0.306 N 
ATOM     25  C16 <0> d   1      17.317  -7.972   5.859  0.00  0.00     0.032 A 
ATOM     26  C12 <0> d   1      19.265  -5.101   6.782  0.00  0.00     0.332 A 
ATOM     27  H39 <0> d   1      19.268  -6.011   4.923  0.00  0.00     0.171 HD
ATOM     28  O13 <0> d   1      20.058  -4.189   6.637  0.00  0.00    -0.246 OA
ATOM     29  C17 <0> d   1      16.435  -8.671   6.661  0.00  0.00     0.002 A 
ATOM     30  C18 <0> d   1      16.227  -8.283   7.972  0.00  0.00     0.002 A 
ENDBRANCH   5  20
TORSDOF 6
ENDMDL
