MODEL 1
REMARK VINA RESULT:      -3.9      0.000      0.000
REMARK  4 active torsions:
REMARK  status: ('A' for Active; 'I' for Inactive)
REMARK    1  A    between atoms: N1_1  and  C5_5 
REMARK    2  A    between atoms: C5_5  and  C7_6 
REMARK    3  A    between atoms: C5_5  and  C11_10 
REMARK    4  A    between atoms: C7_6  and  C8_7 
ROOT
ATOM      1  C5  <0> d   1      18.253  -0.255   6.126  0.00  0.00     0.293 C 
ENDROOT
BRANCH   1   2
ATOM      2  N1  <0> d   1      17.489  -1.042   7.102  0.00  0.00    -0.065 N 
ATOM      3  H2  <0> d   1      17.401  -1.992   6.774  0.00  0.00     0.275 HD
ATOM      4  H3  <0> d   1      16.570  -0.639   7.214  0.00  0.00     0.275 HD
ATOM      5  H4  <0> d   1      17.969  -1.035   7.990  0.00  0.00     0.275 HD
ENDBRANCH   1   2
BRANCH   1   6
ATOM      6  C7  <0> d   1      18.889   0.948   6.826  0.00  0.00     0.157 C 
BRANCH   6   7
ATOM      7  C8  <0> d   1      18.925   0.703   8.313  0.00  0.00     0.175 C 
ATOM      8  O9  <0> d   1      18.076   1.199   9.033  0.00  0.00    -0.648 OA
ATOM      9  O10 <0> d   1      19.803   0.006   8.794  0.00  0.00    -0.648 OA
ENDBRANCH   6   7
ENDBRANCH   1   6
BRANCH   1  10
ATOM     10  C11 <0> d   1      19.333  -1.114   5.523  0.00  0.00     0.205 C 
ATOM     11  O12 <0> d   1      19.604  -2.193   6.022  0.00  0.00    -0.646 OA
ATOM     12  O13 <0> d   1      19.936  -0.732   4.535  0.00  0.00    -0.646 OA
ENDBRANCH   1  10
TORSDOF 4
ENDMDL
MODEL 2
REMARK VINA RESULT:      -3.8      8.314     10.231
REMARK  4 active torsions:
REMARK  status: ('A' for Active; 'I' for Inactive)
REMARK    1  A    between atoms: N1_1  and  C5_5 
REMARK    2  A    between atoms: C5_5  and  C7_6 
REMARK    3  A    between atoms: C5_5  and  C11_10 
REMARK    4  A    between atoms: C7_6  and  C8_7 
ROOT
ATOM      1  C5  <0> d   1      18.348   0.948  16.820  0.00  0.00     0.293 C 
ENDROOT
BRANCH   1   2
ATOM      2  N1  <0> d   1      19.141   1.509  15.719  0.00  0.00    -0.065 N 
ATOM      3  H2  <0> d   1      20.097   1.195  15.797  0.00  0.00     0.275 HD
ATOM      4  H3  <0> d   1      19.113   2.517  15.763  0.00  0.00     0.275 HD
ATOM      5  H4  <0> d   1      18.757   1.201  14.837  0.00  0.00     0.275 HD
ENDBRANCH   1   2
BRANCH   1   6
ATOM      6  C7  <0> d   1      17.704  -0.364  16.369  0.00  0.00     0.157 C 
BRANCH   6   7
ATOM      7  C8  <0> d   1      18.328  -0.810  15.071  0.00  0.00     0.175 C 
ATOM      8  O9  <0> d   1      19.398  -1.395  15.079  0.00  0.00    -0.648 OA
ATOM      9  O10 <0> d   1      17.763  -0.587  14.014  0.00  0.00    -0.648 OA
ENDBRANCH   6   7
ENDBRANCH   1   6
BRANCH   1  10
ATOM     10  C11 <0> d   1      19.244   0.688  18.002  0.00  0.00     0.205 C 
ATOM     11  O12 <0> d   1      19.798   1.618  18.564  0.00  0.00    -0.646 OA
ATOM     12  O13 <0> d   1      19.415  -0.452  18.398  0.00  0.00    -0.646 OA
ENDBRANCH   1  10
TORSDOF 4
ENDMDL
MODEL 3
REMARK VINA RESULT:      -3.7      1.140      3.649
REMARK  4 active torsions:
REMARK  status: ('A' for Active; 'I' for Inactive)
REMARK    1  A    between atoms: N1_1  and  C5_5 
REMARK    2  A    between atoms: C5_5  and  C7_6 
REMARK    3  A    between atoms: C5_5  and  C11_10 
REMARK    4  A    between atoms: C7_6  and  C8_7 
ROOT
ATOM      1  C5  <0> d   1      18.435  -0.009   7.217  0.00  0.00     0.293 C 
ENDROOT
BRANCH   1   2
ATOM      2  N1  <0> d   1      17.042  -0.470   7.161  0.00  0.00    -0.065 N 
ATOM      3  H2  <0> d   1      16.997  -1.441   7.435  0.00  0.00     0.275 HD
ATOM      4  H3  <0> d   1      16.692  -0.371   6.220  0.00  0.00     0.275 HD
ATOM      5  H4  <0> d   1      16.479   0.083   7.789  0.00  0.00     0.275 HD
ENDBRANCH   1   2
BRANCH   1   6
ATOM      6  C7  <0> d   1      18.814   0.635   5.881  0.00  0.00     0.157 C 
BRANCH   6   7
ATOM      7  C8  <0> d   1      18.937  -0.434   4.826  0.00  0.00     0.175 C 
ATOM      8  O9  <0> d   1      17.945  -0.823   4.233  0.00  0.00    -0.648 OA
ATOM      9  O10 <0> d   1      20.030  -0.909   4.564  0.00  0.00    -0.648 OA
ENDBRANCH   6   7
ENDBRANCH   1   6
BRANCH   1  10
ATOM     10  C11 <0> d   1      18.585   1.003   8.323  0.00  0.00     0.205 C 
ATOM     11  O12 <0> d   1      17.785   1.024   9.243  0.00  0.00    -0.646 OA
ATOM     12  O13 <0> d   1      19.507   1.799   8.299  0.00  0.00    -0.646 OA
ENDBRANCH   1  10
TORSDOF 4
ENDMDL
MODEL 4
REMARK VINA RESULT:      -3.6      3.531      4.469
REMARK  4 active torsions:
REMARK  status: ('A' for Active; 'I' for Inactive)
REMARK    1  A    between atoms: N1_1  and  C5_5 
REMARK    2  A    between atoms: C5_5  and  C7_6 
REMARK    3  A    between atoms: C5_5  and  C11_10 
REMARK    4  A    between atoms: C7_6  and  C8_7 
ROOT
ATOM      1  C5  <0> d   1      20.131  -0.921  10.588  0.00  0.00     0.293 C 
ENDROOT
BRANCH   1   2
ATOM      2  N1  <0> d   1      21.513  -0.551  10.917  0.00  0.00    -0.065 N 
ATOM      3  H2  <0> d   1      21.846  -1.130  11.674  0.00  0.00     0.275 HD
ATOM      4  H3  <0> d   1      21.545   0.418  11.196  0.00  0.00     0.275 HD
ATOM      5  H4  <0> d   1      22.100  -0.688  10.108  0.00  0.00     0.275 HD
ENDBRANCH   1   2
BRANCH   1   6
ATOM      6  C7  <0> d   1      19.174  -0.253  11.579  0.00  0.00     0.157 C 
BRANCH   6   7
ATOM      7  C8  <0> d   1      19.943   0.707  12.449  0.00  0.00     0.175 C 
ATOM      8  O9  <0> d   1      20.138   1.850  12.072  0.00  0.00    -0.648 OA
ATOM      9  O10 <0> d   1      20.369   0.341  13.532  0.00  0.00    -0.648 OA
ENDBRANCH   6   7
ENDBRANCH   1   6
BRANCH   1  10
ATOM     10  C11 <0> d   1      19.807  -0.463   9.190  0.00  0.00     0.205 C 
ATOM     11  O12 <0> d   1      19.771   0.728   8.932  0.00  0.00    -0.646 OA
ATOM     12  O13 <0> d   1      19.583  -1.283   8.317  0.00  0.00    -0.646 OA
ENDBRANCH   1  10
TORSDOF 4
ENDMDL
MODEL 5
REMARK VINA RESULT:      -3.6      8.259      9.642
REMARK  4 active torsions:
REMARK  status: ('A' for Active; 'I' for Inactive)
REMARK    1  A    between atoms: N1_1  and  C5_5 
REMARK    2  A    between atoms: C5_5  and  C7_6 
REMARK    3  A    between atoms: C5_5  and  C11_10 
REMARK    4  A    between atoms: C7_6  and  C8_7 
ROOT
ATOM      1  C5  <0> d   1      18.732   0.262  15.820  0.00  0.00     0.293 C 
ENDROOT
BRANCH   1   2
ATOM      2  N1  <0> d   1      17.428   0.936  15.837  0.00  0.00    -0.065 N 
ATOM      3  H2  <0> d   1      16.804   0.448  16.462  0.00  0.00     0.275 HD
ATOM      4  H3  <0> d   1      17.037   0.938  14.906  0.00  0.00     0.275 HD
ATOM      5  H4  <0> d   1      17.544   1.888  16.154  0.00  0.00     0.275 HD
ENDBRANCH   1   2
BRANCH   1   6
ATOM      6  C7  <0> d   1      18.954  -0.452  17.155  0.00  0.00     0.157 C 
BRANCH   6   7
ATOM      7  C8  <0> d   1      18.933   0.557  18.275  0.00  0.00     0.175 C 
ATOM      8  O9  <0> d   1      19.933   1.205  18.530  0.00  0.00    -0.648 OA
ATOM      9  O10 <0> d   1      17.914   0.727  18.923  0.00  0.00    -0.648 OA
ENDBRANCH   6   7
ENDBRANCH   1   6
BRANCH   1  10
ATOM     10  C11 <0> d   1      18.763  -0.744  14.700  0.00  0.00     0.205 C 
ATOM     11  O12 <0> d   1      17.854  -0.782  13.889  0.00  0.00    -0.646 OA
ATOM     12  O13 <0> d   1      19.699  -1.519  14.603  0.00  0.00    -0.646 OA
ENDBRANCH   1  10
TORSDOF 4
ENDMDL
MODEL 6
REMARK VINA RESULT:      -3.5      5.201      6.344
REMARK  4 active torsions:
REMARK  status: ('A' for Active; 'I' for Inactive)
REMARK    1  A    between atoms: N1_1  and  C5_5 
REMARK    2  A    between atoms: C5_5  and  C7_6 
REMARK    3  A    between atoms: C5_5  and  C11_10 
REMARK    4  A    between atoms: C7_6  and  C8_7 
ROOT
ATOM      1  C5  <0> d   1      18.443   3.947  11.097  0.00  0.00     0.293 C 
ENDROOT
BRANCH   1   2
ATOM      2  N1  <0> d   1      18.225   3.569  12.499  0.00  0.00    -0.065 N 
ATOM      3  H2  <0> d   1      17.256   3.322  12.635  0.00  0.00     0.275 HD
ATOM      4  H3  <0> d   1      18.460   4.347  13.098  0.00  0.00     0.275 HD
ATOM      5  H4  <0> d   1      18.809   2.779  12.730  0.00  0.00     0.275 HD
ENDBRANCH   1   2
BRANCH   1   6
ATOM      6  C7  <0> d   1      18.556   2.684  10.240  0.00  0.00     0.157 C 
BRANCH   6   7
ATOM      7  C8  <0> d   1      18.110   1.490  11.045  0.00  0.00     0.175 C 
ATOM      8  O9  <0> d   1      18.938   0.752  11.551  0.00  0.00    -0.648 OA
ATOM      9  O10 <0> d   1      16.920   1.263  11.191  0.00  0.00    -0.648 OA
ENDBRANCH   6   7
ENDBRANCH   1   6
BRANCH   1  10
ATOM     10  C11 <0> d   1      17.284   4.779  10.615  0.00  0.00     0.205 C 
ATOM     11  O12 <0> d   1      16.201   4.697  11.170  0.00  0.00    -0.646 OA
ATOM     12  O13 <0> d   1      17.429   5.537   9.671  0.00  0.00    -0.646 OA
ENDBRANCH   1  10
TORSDOF 4
ENDMDL
MODEL 7
REMARK VINA RESULT:      -3.5      4.531      5.075
REMARK  4 active torsions:
REMARK  status: ('A' for Active; 'I' for Inactive)
REMARK    1  A    between atoms: N1_1  and  C5_5 
REMARK    2  A    between atoms: C5_5  and  C7_6 
REMARK    3  A    between atoms: C5_5  and  C11_10 
REMARK    4  A    between atoms: C7_6  and  C8_7 
ROOT
ATOM      1  C5  <0> d   1      18.037   0.254  10.679  0.00  0.00     0.293 C 
ENDROOT
BRANCH   1   2
ATOM      2  N1  <0> d   1      17.575   0.645   9.341  0.00  0.00    -0.065 N 
ATOM      3  H2  <0> d   1      17.995   0.040   8.650  0.00  0.00     0.275 HD
ATOM      4  H3  <0> d   1      17.843   1.600   9.158  0.00  0.00     0.275 HD
ATOM      5  H4  <0> d   1      16.571   0.562   9.294  0.00  0.00     0.275 HD
ENDBRANCH   1   2
BRANCH   1   6
ATOM      6  C7  <0> d   1      18.467   1.502  11.454  0.00  0.00     0.157 C 
BRANCH   6   7
ATOM      7  C8  <0> d   1      18.039   2.734  10.700  0.00  0.00     0.175 C 
ATOM      8  O9  <0> d   1      16.976   3.270  10.963  0.00  0.00    -0.648 OA
ATOM      9  O10 <0> d   1      18.756   3.196   9.828  0.00  0.00    -0.648 OA
ENDBRANCH   6   7
ENDBRANCH   1   6
BRANCH   1  10
ATOM     10  C11 <0> d   1      16.918  -0.434  11.416  0.00  0.00     0.205 C 
ATOM     11  O12 <0> d   1      17.080  -1.560  11.856  0.00  0.00    -0.646 OA
ATOM     12  O13 <0> d   1      15.852   0.134  11.573  0.00  0.00    -0.646 OA
ENDBRANCH   1  10
TORSDOF 4
ENDMDL
MODEL 8
REMARK VINA RESULT:      -3.5      3.594      5.160
REMARK  4 active torsions:
REMARK  status: ('A' for Active; 'I' for Inactive)
REMARK    1  A    between atoms: N1_1  and  C5_5 
REMARK    2  A    between atoms: C5_5  and  C7_6 
REMARK    3  A    between atoms: C5_5  and  C11_10 
REMARK    4  A    between atoms: C7_6  and  C8_7 
ROOT
ATOM      1  C5  <0> d   1      18.904   2.688   9.746  0.00  0.00     0.293 C 
ENDROOT
BRANCH   1   2
ATOM      2  N1  <0> d   1      19.985   2.470  10.716  0.00  0.00    -0.065 N 
ATOM      3  H2  <0> d   1      19.757   2.932  11.584  0.00  0.00     0.275 HD
ATOM      4  H3  <0> d   1      20.846   2.848  10.350  0.00  0.00     0.275 HD
ATOM      5  H4  <0> d   1      20.095   1.481  10.881  0.00  0.00     0.275 HD
ENDBRANCH   1   2
BRANCH   1   6
ATOM      6  C7  <0> d   1      18.436   1.340   9.192  0.00  0.00     0.157 C 
BRANCH   6   7
ATOM      7  C8  <0> d   1      19.213   0.229   9.852  0.00  0.00     0.175 C 
ATOM      8  O9  <0> d   1      18.842  -0.221  10.923  0.00  0.00    -0.648 OA
ATOM      9  O10 <0> d   1      20.211  -0.220   9.314  0.00  0.00    -0.648 OA
ENDBRANCH   6   7
ENDBRANCH   1   6
BRANCH   1  10
ATOM     10  C11 <0> d   1      17.751   3.379  10.425  0.00  0.00     0.205 C 
ATOM     11  O12 <0> d   1      17.074   2.777  11.241  0.00  0.00    -0.646 OA
ATOM     12  O13 <0> d   1      17.496   4.541  10.161  0.00  0.00    -0.646 OA
ENDBRANCH   1  10
TORSDOF 4
ENDMDL
MODEL 9
REMARK VINA RESULT:      -3.4      2.175      4.439
REMARK  4 active torsions:
REMARK  status: ('A' for Active; 'I' for Inactive)
REMARK    1  A    between atoms: N1_1  and  C5_5 
REMARK    2  A    between atoms: C5_5  and  C7_6 
REMARK    3  A    between atoms: C5_5  and  C11_10 
REMARK    4  A    between atoms: C7_6  and  C8_7 
ROOT
ATOM      1  C5  <0> d   1      18.510   1.296   9.552  0.00  0.00     0.293 C 
ENDROOT
BRANCH   1   2
ATOM      2  N1  <0> d   1      17.377   0.400   9.288  0.00  0.00    -0.065 N 
ATOM      3  H2  <0> d   1      17.384   0.125   8.317  0.00  0.00     0.275 HD
ATOM      4  H3  <0> d   1      16.513   0.880   9.495  0.00  0.00     0.275 HD
ATOM      5  H4  <0> d   1      17.453  -0.421   9.870  0.00  0.00     0.275 HD
ENDBRANCH   1   2
BRANCH   1   6
ATOM      6  C7  <0> d   1      19.168   1.691   8.228  0.00  0.00     0.157 C 
BRANCH   6   7
ATOM      7  C8  <0> d   1      18.832   0.666   7.175  0.00  0.00     0.175 C 
ATOM      8  O9  <0> d   1      18.139   0.976   6.222  0.00  0.00    -0.648 OA
ATOM      9  O10 <0> d   1      19.255  -0.474   7.277  0.00  0.00    -0.648 OA
ENDBRANCH   6   7
ENDBRANCH   1   6
BRANCH   1  10
ATOM     10  C11 <0> d   1      18.020   2.532  10.258  0.00  0.00     0.205 C 
ATOM     11  O12 <0> d   1      17.138   2.447  11.096  0.00  0.00    -0.646 OA
ATOM     12  O13 <0> d   1      18.506   3.618   9.993  0.00  0.00    -0.646 OA
ENDBRANCH   1  10
TORSDOF 4
ENDMDL
