MODEL 1
REMARK VINA RESULT:      -6.1      0.000      0.000
REMARK  1 active torsions:
REMARK  status: ('A' for Active; 'I' for Inactive)
REMARK    1  A    between atoms: C4_3  and  C6_4 
ROOT
ATOM      1  C1  ZIN A   1      17.253   0.172   6.652  0.00  0.00     0.046 C 
ATOM      2  C2  ZIN A   1      18.783   0.125   6.670  0.00  0.00     0.251 C 
ATOM      3  C4  ZIN A   1      19.267  -0.218   8.081  0.00  0.00     0.187 C 
ATOM      4  O12 ZIN A   1      18.804  -1.524   8.436  0.00  0.00    -0.377 OA
ATOM      5  C13 ZIN A   1      19.243  -2.552   7.544  0.00  0.00     0.199 C 
ATOM      6  C14 ZIN A   1      18.759  -2.233   6.127  0.00  0.00     0.298 C 
ATOM      7  N15 ZIN A   1      19.253  -0.905   5.732  0.00  0.00     0.093 N 
ATOM      8  C16 ZIN A   1      18.857  -0.584   4.354  0.00  0.00     0.310 C 
ENDROOT
BRANCH   3   9
ATOM      9  C6  ZIN A   1      18.723   0.792   9.059  0.00  0.00    -0.027 A 
ATOM     10  C11 ZIN A   1      19.024   2.132   8.908  0.00  0.00     0.010 A 
ATOM     11  C10 ZIN A   1      18.522   3.059   9.802  0.00  0.00     0.001 A 
ATOM     12  C9  ZIN A   1      17.725   2.644  10.852  0.00  0.00     0.000 A 
ATOM     13  C8  ZIN A   1      17.428   1.303  11.007  0.00  0.00     0.001 A 
ATOM     14  C7  ZIN A   1      17.927   0.376  10.110  0.00  0.00     0.010 A 
ENDBRANCH   3   9
TORSDOF 1
ENDMDL
MODEL 2
REMARK VINA RESULT:      -6.0      2.548      4.847
REMARK  1 active torsions:
REMARK  status: ('A' for Active; 'I' for Inactive)
REMARK    1  A    between atoms: C4_3  and  C6_4 
ROOT
ATOM      1  C1  ZIN A   1      19.718  -0.826  10.335  0.00  0.00     0.046 C 
ATOM      2  C2  ZIN A   1      19.266   0.580  10.738  0.00  0.00     0.251 C 
ATOM      3  C4  ZIN A   1      17.915   0.888  10.089  0.00  0.00     0.187 C 
ATOM      4  O12 ZIN A   1      16.933  -0.026  10.585  0.00  0.00    -0.377 OA
ATOM      5  C13 ZIN A   1      16.773   0.017  12.006  0.00  0.00     0.199 C 
ATOM      6  C14 ZIN A   1      18.113  -0.300  12.675  0.00  0.00     0.298 C 
ATOM      7  N15 ZIN A   1      19.130   0.651  12.201  0.00  0.00     0.093 N 
ATOM      8  C16 ZIN A   1      20.420   0.417  12.863  0.00  0.00     0.310 C 
ENDROOT
BRANCH   3   9
ATOM      9  C6  ZIN A   1      18.030   0.740   8.593  0.00  0.00    -0.027 A 
ATOM     10  C11 ZIN A   1      18.955   1.491   7.894  0.00  0.00     0.010 A 
ATOM     11  C10 ZIN A   1      19.064   1.352   6.523  0.00  0.00     0.001 A 
ATOM     12  C9  ZIN A   1      18.241   0.468   5.850  0.00  0.00     0.000 A 
ATOM     13  C8  ZIN A   1      17.312  -0.279   6.549  0.00  0.00     0.001 A 
ATOM     14  C7  ZIN A   1      17.206  -0.144   7.921  0.00  0.00     0.010 A 
ENDBRANCH   3   9
TORSDOF 1
ENDMDL
MODEL 3
REMARK VINA RESULT:      -5.8      3.284      6.059
REMARK  1 active torsions:
REMARK  status: ('A' for Active; 'I' for Inactive)
REMARK    1  A    between atoms: C4_3  and  C6_4 
ROOT
ATOM      1  C1  ZIN A   1      17.376   4.228  10.443  0.00  0.00     0.046 C 
ATOM      2  C2  ZIN A   1      17.645   3.254  11.592  0.00  0.00     0.251 C 
ATOM      3  C4  ZIN A   1      18.831   2.355  11.233  0.00  0.00     0.187 C 
ATOM      4  O12 ZIN A   1      20.005   3.159  11.085  0.00  0.00    -0.377 OA
ATOM      5  C13 ZIN A   1      20.341   3.908  12.256  0.00  0.00     0.199 C 
ATOM      6  C14 ZIN A   1      19.170   4.822  12.625  0.00  0.00     0.298 C 
ATOM      7  N15 ZIN A   1      17.959   4.009  12.814  0.00  0.00     0.093 N 
ATOM      8  C16 ZIN A   1      16.822   4.843  13.226  0.00  0.00     0.310 C 
ENDROOT
BRANCH   3   9
ATOM      9  C6  ZIN A   1      18.546   1.637   9.939  0.00  0.00    -0.027 A 
ATOM     10  C11 ZIN A   1      17.574   0.655   9.894  0.00  0.00     0.010 A 
ATOM     11  C10 ZIN A   1      17.309  -0.000   8.706  0.00  0.00     0.001 A 
ATOM     12  C9  ZIN A   1      18.022   0.320   7.566  0.00  0.00     0.000 A 
ATOM     13  C8  ZIN A   1      18.998   1.298   7.613  0.00  0.00     0.001 A 
ATOM     14  C7  ZIN A   1      19.260   1.957   8.800  0.00  0.00     0.010 A 
ENDBRANCH   3   9
TORSDOF 1
ENDMDL
MODEL 4
REMARK VINA RESULT:      -5.8      5.725      8.384
REMARK  1 active torsions:
REMARK  status: ('A' for Active; 'I' for Inactive)
REMARK    1  A    between atoms: C4_3  and  C6_4 
ROOT
ATOM      1  C1  ZIN A   1      17.278  -0.421  16.351  0.00  0.00     0.046 C 
ATOM      2  C2  ZIN A   1      18.783  -0.185  16.208  0.00  0.00     0.251 C 
ATOM      3  C4  ZIN A   1      19.070   0.498  14.869  0.00  0.00     0.187 C 
ATOM      4  O12 ZIN A   1      18.442   1.784  14.851  0.00  0.00    -0.377 OA
ATOM      5  C13 ZIN A   1      18.875   2.650  15.904  0.00  0.00     0.199 C 
ATOM      6  C14 ZIN A   1      18.587   1.988  17.254  0.00  0.00     0.298 C 
ATOM      7  N15 ZIN A   1      19.252   0.677  17.303  0.00  0.00     0.093 N 
ATOM      8  C16 ZIN A   1      19.048   0.031  18.607  0.00  0.00     0.310 C 
ENDROOT
BRANCH   3   9
ATOM      9  C6  ZIN A   1      18.522  -0.345  13.746  0.00  0.00    -0.027 A 
ATOM     10  C11 ZIN A   1      17.533   0.159  12.922  0.00  0.00     0.010 A 
ATOM     11  C10 ZIN A   1      17.034  -0.612  11.890  0.00  0.00     0.001 A 
ATOM     12  C9  ZIN A   1      17.517  -1.891  11.687  0.00  0.00     0.000 A 
ATOM     13  C8  ZIN A   1      18.502  -2.397  12.514  0.00  0.00     0.001 A 
ATOM     14  C7  ZIN A   1      19.005  -1.624  13.544  0.00  0.00     0.010 A 
ENDBRANCH   3   9
TORSDOF 1
ENDMDL
MODEL 5
REMARK VINA RESULT:      -5.7      4.083      5.555
REMARK  1 active torsions:
REMARK  status: ('A' for Active; 'I' for Inactive)
REMARK    1  A    between atoms: C4_3  and  C6_4 
ROOT
ATOM      1  C1  ZIN A   1      17.459  -1.507  11.949  0.00  0.00     0.046 C 
ATOM      2  C2  ZIN A   1      17.902  -0.044  11.883  0.00  0.00     0.251 C 
ATOM      3  C4  ZIN A   1      19.059   0.184  12.858  0.00  0.00     0.187 C 
ATOM      4  O12 ZIN A   1      20.179  -0.611  12.457  0.00  0.00    -0.377 OA
ATOM      5  C13 ZIN A   1      20.640  -0.329  11.133  0.00  0.00     0.199 C 
ATOM      6  C14 ZIN A   1      19.499  -0.562  10.140  0.00  0.00     0.298 C 
ATOM      7  N15 ZIN A   1      18.348   0.272  10.517  0.00  0.00     0.093 N 
ATOM      8  C16 ZIN A   1      17.249   0.120   9.555  0.00  0.00     0.310 C 
ENDROOT
BRANCH   3   9
ATOM      9  C6  ZIN A   1      18.632  -0.212  14.248  0.00  0.00    -0.027 A 
ATOM     10  C11 ZIN A   1      19.275  -1.247  14.899  0.00  0.00     0.010 A 
ATOM     11  C10 ZIN A   1      18.886  -1.609  16.176  0.00  0.00     0.001 A 
ATOM     12  C9  ZIN A   1      17.848  -0.940  16.797  0.00  0.00     0.000 A 
ATOM     13  C8  ZIN A   1      17.201   0.092  16.143  0.00  0.00     0.001 A 
ATOM     14  C7  ZIN A   1      17.593   0.456  14.869  0.00  0.00     0.010 A 
ENDBRANCH   3   9
TORSDOF 1
ENDMDL
MODEL 6
REMARK VINA RESULT:      -5.7      2.426      5.027
REMARK  1 active torsions:
REMARK  status: ('A' for Active; 'I' for Inactive)
REMARK    1  A    between atoms: C4_3  and  C6_4 
ROOT
ATOM      1  C1  ZIN A   1      18.681   2.848   9.880  0.00  0.00     0.046 C 
ATOM      2  C2  ZIN A   1      18.031   1.626  10.533  0.00  0.00     0.251 C 
ATOM      3  C4  ZIN A   1      18.593   0.350   9.901  0.00  0.00     0.187 C 
ATOM      4  O12 ZIN A   1      19.997   0.270  10.167  0.00  0.00    -0.377 OA
ATOM      5  C13 ZIN A   1      20.320   0.266  11.560  0.00  0.00     0.199 C 
ATOM      6  C14 ZIN A   1      19.775   1.541  12.209  0.00  0.00     0.298 C 
ATOM      7  N15 ZIN A   1      18.325   1.625  11.974  0.00  0.00     0.093 N 
ATOM      8  C16 ZIN A   1      17.752   2.808  12.631  0.00  0.00     0.310 C 
ENDROOT
BRANCH   3   9
ATOM      9  C6  ZIN A   1      18.364   0.382   8.412  0.00  0.00    -0.027 A 
ATOM     10  C11 ZIN A   1      17.215  -0.169   7.878  0.00  0.00     0.010 A 
ATOM     11  C10 ZIN A   1      17.002  -0.135   6.513  0.00  0.00     0.001 A 
ATOM     12  C9  ZIN A   1      17.943   0.442   5.681  0.00  0.00     0.000 A 
ATOM     13  C8  ZIN A   1      19.095   0.988   6.214  0.00  0.00     0.001 A 
ATOM     14  C7  ZIN A   1      19.306   0.959   7.580  0.00  0.00     0.010 A 
ENDBRANCH   3   9
TORSDOF 1
ENDMDL
MODEL 7
REMARK VINA RESULT:      -5.7      2.645      4.089
REMARK  1 active torsions:
REMARK  status: ('A' for Active; 'I' for Inactive)
REMARK    1  A    between atoms: C4_3  and  C6_4 
ROOT
ATOM      1  C1  ZIN A   1      17.482   0.768  10.666  0.00  0.00     0.046 C 
ATOM      2  C2  ZIN A   1      18.739   1.340  10.007  0.00  0.00     0.251 C 
ATOM      3  C4  ZIN A   1      19.419   2.320  10.966  0.00  0.00     0.187 C 
ATOM      4  O12 ZIN A   1      19.844   1.616  12.137  0.00  0.00    -0.377 OA
ATOM      5  C13 ZIN A   1      20.751   0.544  11.866  0.00  0.00     0.199 C 
ATOM      6  C14 ZIN A   1      20.085  -0.454  10.916  0.00  0.00     0.298 C 
ATOM      7  N15 ZIN A   1      19.669   0.246   9.690  0.00  0.00     0.093 N 
ATOM      8  C16 ZIN A   1      19.075  -0.690   8.726  0.00  0.00     0.310 C 
ENDROOT
BRANCH   3   9
ATOM      9  C6  ZIN A   1      18.445   3.402  11.355  0.00  0.00    -0.027 A 
ATOM     10  C11 ZIN A   1      17.789   4.125  10.377  0.00  0.00     0.010 A 
ATOM     11  C10 ZIN A   1      16.892   5.114  10.733  0.00  0.00     0.001 A 
ATOM     12  C9  ZIN A   1      16.657   5.387  12.068  0.00  0.00     0.000 A 
ATOM     13  C8  ZIN A   1      17.317   4.667  13.046  0.00  0.00     0.001 A 
ATOM     14  C7  ZIN A   1      18.211   3.674  12.690  0.00  0.00     0.010 A 
ENDBRANCH   3   9
TORSDOF 1
ENDMDL
MODEL 8
REMARK VINA RESULT:      -5.6      1.766      4.912
REMARK  1 active torsions:
REMARK  status: ('A' for Active; 'I' for Inactive)
REMARK    1  A    between atoms: C4_3  and  C6_4 
ROOT
ATOM      1  C1  ZIN A   1      19.668   1.174   8.925  0.00  0.00     0.046 C 
ATOM      2  C2  ZIN A   1      18.146   1.324   8.876  0.00  0.00     0.251 C 
ATOM      3  C4  ZIN A   1      17.513  -0.009   8.468  0.00  0.00     0.187 C 
ATOM      4  O12 ZIN A   1      17.804  -0.994   9.464  0.00  0.00    -0.377 OA
ATOM      5  C13 ZIN A   1      17.333  -0.650  10.769  0.00  0.00     0.199 C 
ATOM      6  C14 ZIN A   1      17.963   0.677  11.200  0.00  0.00     0.298 C 
ATOM      7  N15 ZIN A   1      17.647   1.712  10.204  0.00  0.00     0.093 N 
ATOM      8  C16 ZIN A   1      18.187   3.017  10.610  0.00  0.00     0.310 C 
ENDROOT
BRANCH   3   9
ATOM      9  C6  ZIN A   1      18.079  -0.450   7.142  0.00  0.00    -0.027 A 
ATOM     10  C11 ZIN A   1      18.735  -1.662   7.040  0.00  0.00     0.010 A 
ATOM     11  C10 ZIN A   1      19.251  -2.069   5.824  0.00  0.00     0.001 A 
ATOM     12  C9  ZIN A   1      19.117  -1.259   4.712  0.00  0.00     0.000 A 
ATOM     13  C8  ZIN A   1      18.466  -0.045   4.815  0.00  0.00     0.001 A 
ATOM     14  C7  ZIN A   1      17.946   0.360   6.030  0.00  0.00     0.010 A 
ENDBRANCH   3   9
TORSDOF 1
ENDMDL
MODEL 9
REMARK VINA RESULT:      -5.5      4.558      5.623
REMARK  1 active torsions:
REMARK  status: ('A' for Active; 'I' for Inactive)
REMARK    1  A    between atoms: C4_3  and  C6_4 
ROOT
ATOM      1  C1  ZIN A   1      17.007   0.236  12.223  0.00  0.00     0.046 C 
ATOM      2  C2  ZIN A   1      18.535   0.264  12.156  0.00  0.00     0.251 C 
ATOM      3  C4  ZIN A   1      19.046   1.604  12.693  0.00  0.00     0.187 C 
ATOM      4  O12 ZIN A   1      18.685   1.729  14.072  0.00  0.00    -0.377 OA
ATOM      5  C13 ZIN A   1      19.203   0.683  14.898  0.00  0.00     0.199 C 
ATOM      6  C14 ZIN A   1      18.695  -0.667  14.384  0.00  0.00     0.298 C 
ATOM      7  N15 ZIN A   1      19.084  -0.827  12.975  0.00  0.00     0.093 N 
ATOM      8  C16 ZIN A   1      18.664  -2.137  12.458  0.00  0.00     0.310 C 
ENDROOT
BRANCH   3   9
ATOM      9  C6  ZIN A   1      18.426   2.730  11.906  0.00  0.00    -0.027 A 
ATOM     10  C11 ZIN A   1      17.616   3.653  12.542  0.00  0.00     0.010 A 
ATOM     11  C10 ZIN A   1      17.051   4.688  11.822  0.00  0.00     0.001 A 
ATOM     12  C9  ZIN A   1      17.288   4.796  10.464  0.00  0.00     0.000 A 
ATOM     13  C8  ZIN A   1      18.093   3.871   9.828  0.00  0.00     0.001 A 
ATOM     14  C7  ZIN A   1      18.663   2.837  10.548  0.00  0.00     0.010 A 
ENDBRANCH   3   9
TORSDOF 1
ENDMDL
