MODEL 1
REMARK VINA RESULT:      -8.2      0.000      0.000
REMARK  4 active torsions:
REMARK  status: ('A' for Active; 'I' for Inactive)
REMARK    1  A    between atoms: C5_5  and  O6_6 
REMARK    2  A    between atoms: C13_12  and  O14_13 
REMARK    3  A    between atoms: N20_19  and  C22_21 
REMARK    4  A    between atoms: C22_21  and  C23_22 
ROOT
ATOM      1  O1  ZIN A   1      19.466   0.462  14.879  0.00  0.00    -0.295 OA
ATOM      2  C2  ZIN A   1      19.221  -0.112  13.846  0.00  0.00     0.157 C 
ATOM      3  C3  ZIN A   1      17.943  -0.890  13.745  0.00  0.00     0.084 C 
ATOM      4  C4  ZIN A   1      17.306  -0.684  12.370  0.00  0.00     0.048 C 
ATOM      5  C5  ZIN A   1      18.314  -1.092  11.295  0.00  0.00     0.102 C 
ATOM      6  C7  ZIN A   1      17.695  -0.919   9.905  0.00  0.00     0.227 C 
ATOM      7  C9  ZIN A   1      17.217   0.491   9.601  0.00  0.00     0.075 C 
ATOM      8  C10 ZIN A   1      18.025   1.554  10.269  0.00  0.00    -0.046 A 
ATOM      9  C11 ZIN A   1      17.810   2.915  10.139  0.00  0.00     0.011 A 
ATOM     10  C12 ZIN A   1      18.590   3.815  10.848  0.00  0.00     0.040 A 
ATOM     11  C13 ZIN A   1      19.601   3.426  11.725  0.00  0.00     0.099 A 
ATOM     12  C15 ZIN A   1      19.838   2.053  11.854  0.00  0.00     0.110 A 
ATOM     13  C16 ZIN A   1      19.068   1.190  11.088  0.00  0.00    -0.001 A 
ATOM     14  C17 ZIN A   1      19.540  -0.197  11.363  0.00  0.00     0.058 C 
ATOM     15  C18 ZIN A   1      20.539  -0.626  10.292  0.00  0.00     0.048 C 
ATOM     16  C19 ZIN A   1      19.859  -0.521   8.922  0.00  0.00     0.236 C 
ATOM     17  N20 ZIN A   1      18.664  -1.343   8.887  0.00  0.00    -0.063 N 
ATOM     18  H21 ZIN A   1      18.915  -2.302   9.078  0.00  0.00     0.280 HD
ATOM     19  C26 ZIN A   1      20.205  -0.008  12.717  0.00  0.00     0.214 C 
ATOM     20  O28 ZIN A   1      20.688   1.352  12.633  0.00  0.00    -0.334 OA
ENDROOT
BRANCH  17  21
ATOM     21  C22 ZIN A   1      18.055  -1.256   7.554  0.00  0.00     0.240 C 
BRANCH  21  22
ATOM     22  C23 ZIN A   1      18.948  -0.413   6.640  0.00  0.00     0.011 A 
ATOM     23  C25 ZIN A   1      18.270   0.663   5.789  0.00  0.00     0.007 A 
ATOM     24  C24 ZIN A   1      18.801  -0.612   5.130  0.00  0.00     0.007 A 
ENDBRANCH  21  22
ENDBRANCH  17  21
BRANCH   5  25
ATOM     25  O6  ZIN A   1      18.701  -2.453  11.494  0.00  0.00    -0.386 OA
ATOM     26  H33 ZIN A   1      19.543  -2.686  11.081  0.00  0.00     0.210 HD
ENDBRANCH   5  25
BRANCH  11  27
ATOM     27  O14 ZIN A   1      20.326   4.342  12.422  0.00  0.00    -0.358 OA
ATOM     28  H38 ZIN A   1      21.094   4.684  11.942  0.00  0.00     0.217 HD
ENDBRANCH  11  27
TORSDOF 4
ENDMDL
MODEL 2
REMARK VINA RESULT:      -8.1      2.364      5.969
REMARK  4 active torsions:
REMARK  status: ('A' for Active; 'I' for Inactive)
REMARK    1  A    between atoms: C5_5  and  O6_6 
REMARK    2  A    between atoms: C13_12  and  O14_13 
REMARK    3  A    between atoms: N20_19  and  C22_21 
REMARK    4  A    between atoms: C22_21  and  C23_22 
ROOT
ATOM      1  O1  ZIN A   1      19.383   1.324   7.740  0.00  0.00    -0.295 OA
ATOM      2  C2  ZIN A   1      19.294   1.573   8.918  0.00  0.00     0.157 C 
ATOM      3  C3  ZIN A   1      18.228   2.527   9.369  0.00  0.00     0.084 C 
ATOM      4  C4  ZIN A   1      17.586   2.028  10.663  0.00  0.00     0.048 C 
ATOM      5  C5  ZIN A   1      18.679   1.849  11.717  0.00  0.00     0.102 C 
ATOM      6  C7  ZIN A   1      18.062   1.372  13.035  0.00  0.00     0.227 C 
ATOM      7  C9  ZIN A   1      17.283   0.073  12.931  0.00  0.00     0.075 C 
ATOM      8  C10 ZIN A   1      17.816  -0.864  11.897  0.00  0.00    -0.046 A 
ATOM      9  C11 ZIN A   1      17.301  -2.118  11.619  0.00  0.00     0.011 A 
ATOM     10  C12 ZIN A   1      17.844  -2.884  10.600  0.00  0.00     0.040 A 
ATOM     11  C13 ZIN A   1      18.900  -2.456   9.799  0.00  0.00     0.099 A 
ATOM     12  C15 ZIN A   1      19.440  -1.195  10.080  0.00  0.00     0.110 A 
ATOM     13  C16 ZIN A   1      18.900  -0.483  11.141  0.00  0.00    -0.001 A 
ATOM     14  C17 ZIN A   1      19.670   0.788  11.266  0.00  0.00     0.058 C 
ATOM     15  C18 ZIN A   1      20.758   0.631  12.323  0.00  0.00     0.048 C 
ATOM     16  C19 ZIN A   1      20.097   0.237  13.650  0.00  0.00     0.236 C 
ATOM     17  N20 ZIN A   1      19.121   1.234  14.043  0.00  0.00    -0.063 N 
ATOM     18  H21 ZIN A   1      19.580   2.129  14.137  0.00  0.00     0.280 HD
ATOM     19  C26 ZIN A   1      20.249   0.909   9.866  0.00  0.00     0.214 C 
ATOM     20  O28 ZIN A   1      20.413  -0.475   9.483  0.00  0.00    -0.334 OA
ENDROOT
BRANCH  17  21
ATOM     21  C22 ZIN A   1      18.533   0.854  15.334  0.00  0.00     0.240 C 
BRANCH  21  22
ATOM     22  C23 ZIN A   1      19.076  -0.512  15.758  0.00  0.00     0.011 A 
ATOM     23  C25 ZIN A   1      18.066  -1.554  16.247  0.00  0.00     0.007 A 
ATOM     24  C24 ZIN A   1      19.005  -0.871  17.244  0.00  0.00     0.007 A 
ENDBRANCH  21  22
ENDBRANCH  17  21
BRANCH   5  25
ATOM     25  O6  ZIN A   1      19.362   3.089  11.915  0.00  0.00    -0.386 OA
ATOM     26  H33 ZIN A   1      19.466   3.613  11.109  0.00  0.00     0.210 HD
ENDBRANCH   5  25
BRANCH  11  27
ATOM     27  O14 ZIN A   1      19.386  -3.229   8.791  0.00  0.00    -0.358 OA
ATOM     28  H38 ZIN A   1      20.027  -2.778   8.224  0.00  0.00     0.217 HD
ENDBRANCH  11  27
TORSDOF 4
ENDMDL
MODEL 3
REMARK VINA RESULT:      -7.9      2.768      4.762
REMARK  4 active torsions:
REMARK  status: ('A' for Active; 'I' for Inactive)
REMARK    1  A    between atoms: C5_5  and  O6_6 
REMARK    2  A    between atoms: C13_12  and  O14_13 
REMARK    3  A    between atoms: N20_19  and  C22_21 
REMARK    4  A    between atoms: C22_21  and  C23_22 
ROOT
ATOM      1  O1  ZIN A   1      19.057   3.569  13.335  0.00  0.00    -0.295 OA
ATOM      2  C2  ZIN A   1      19.073   2.576  12.650  0.00  0.00     0.157 C 
ATOM      3  C3  ZIN A   1      20.344   2.215  11.942  0.00  0.00     0.084 C 
ATOM      4  C4  ZIN A   1      20.576   0.706  12.009  0.00  0.00     0.048 C 
ATOM      5  C5  ZIN A   1      19.364  -0.006  11.409  0.00  0.00     0.102 C 
ATOM      6  C7  ZIN A   1      19.578  -1.522  11.439  0.00  0.00     0.227 C 
ATOM      7  C9  ZIN A   1      19.829  -2.093  12.824  0.00  0.00     0.075 C 
ATOM      8  C10 ZIN A   1      19.132  -1.349  13.915  0.00  0.00    -0.046 A 
ATOM      9  C11 ZIN A   1      19.180  -1.676  15.258  0.00  0.00     0.011 A 
ATOM     10  C12 ZIN A   1      18.535  -0.883  16.193  0.00  0.00     0.040 A 
ATOM     11  C13 ZIN A   1      17.830   0.271  15.861  0.00  0.00     0.099 A 
ATOM     12  C15 ZIN A   1      17.761   0.606  14.504  0.00  0.00     0.110 A 
ATOM     13  C16 ZIN A   1      18.377  -0.243  13.597  0.00  0.00    -0.001 A 
ATOM     14  C17 ZIN A   1      18.122   0.297  12.231  0.00  0.00     0.058 C 
ATOM     15  C18 ZIN A   1      16.921  -0.411  11.612  0.00  0.00     0.048 C 
ATOM     16  C19 ZIN A   1      17.205  -1.918  11.580  0.00  0.00     0.236 C 
ATOM     17  N20 ZIN A   1      18.418  -2.187  10.833  0.00  0.00    -0.063 N 
ATOM     18  H21 ZIN A   1      18.314  -1.834   9.893  0.00  0.00     0.280 HD
ATOM     19  C26 ZIN A   1      17.822   1.752  12.552  0.00  0.00     0.214 C 
ATOM     20  O28 ZIN A   1      17.212   1.657  13.859  0.00  0.00    -0.334 OA
ENDROOT
BRANCH  17  21
ATOM     21  C22 ZIN A   1      18.645  -3.637  10.785  0.00  0.00     0.240 C 
BRANCH  21  22
ATOM     22  C23 ZIN A   1      17.361  -4.367  11.182  0.00  0.00     0.011 A 
ATOM     23  C25 ZIN A   1      17.486  -5.529  12.171  0.00  0.00     0.007 A 
ATOM     24  C24 ZIN A   1      17.187  -5.808  10.696  0.00  0.00     0.007 A 
ENDBRANCH  21  22
ENDBRANCH  17  21
BRANCH   5  25
ATOM     25  O6  ZIN A   1      19.167   0.435  10.063  0.00  0.00    -0.386 OA
ATOM     26  H33 ZIN A   1      18.253   0.673   9.857  0.00  0.00     0.210 HD
ENDBRANCH   5  25
BRANCH  11  27
ATOM     27  O14 ZIN A   1      17.233   1.038  16.814  0.00  0.00    -0.358 OA
ATOM     28  H38 ZIN A   1      16.420   0.655  17.174  0.00  0.00     0.217 HD
ENDBRANCH  11  27
TORSDOF 4
ENDMDL
MODEL 4
REMARK VINA RESULT:      -7.7      2.155      5.035
REMARK  4 active torsions:
REMARK  status: ('A' for Active; 'I' for Inactive)
REMARK    1  A    between atoms: C5_5  and  O6_6 
REMARK    2  A    between atoms: C13_12  and  O14_13 
REMARK    3  A    between atoms: N20_19  and  C22_21 
REMARK    4  A    between atoms: C22_21  and  C23_22 
ROOT
ATOM      1  O1  ZIN A   1      19.268  -3.768   9.639  0.00  0.00    -0.295 OA
ATOM      2  C2  ZIN A   1      19.196  -2.780  10.328  0.00  0.00     0.157 C 
ATOM      3  C3  ZIN A   1      20.413  -2.349  11.091  0.00  0.00     0.084 C 
ATOM      4  C4  ZIN A   1      20.558  -0.828  11.039  0.00  0.00     0.048 C 
ATOM      5  C5  ZIN A   1      19.282  -0.194  11.590  0.00  0.00     0.102 C 
ATOM      6  C7  ZIN A   1      19.407   1.333  11.574  0.00  0.00     0.227 C 
ATOM      7  C9  ZIN A   1      19.682   1.927  10.203  0.00  0.00     0.075 C 
ATOM      8  C10 ZIN A   1      19.076   1.149   9.081  0.00  0.00    -0.046 A 
ATOM      9  C11 ZIN A   1      19.161   1.487   7.742  0.00  0.00     0.011 A 
ATOM     10  C12 ZIN A   1      18.604   0.663   6.778  0.00  0.00     0.040 A 
ATOM     11  C13 ZIN A   1      17.955  -0.533   7.076  0.00  0.00     0.099 A 
ATOM     12  C15 ZIN A   1      17.849  -0.880   8.427  0.00  0.00     0.110 A 
ATOM     13  C16 ZIN A   1      18.376  -0.001   9.363  0.00  0.00    -0.001 A 
ATOM     14  C17 ZIN A   1      18.096  -0.564  10.715  0.00  0.00     0.058 C 
ATOM     15  C18 ZIN A   1      16.829   0.068  11.285  0.00  0.00     0.048 C 
ATOM     16  C19 ZIN A   1      17.022   1.589  11.334  0.00  0.00     0.236 C 
ATOM     17  N20 ZIN A   1      18.185   1.925  12.133  0.00  0.00    -0.063 N 
ATOM     18  H21 ZIN A   1      18.063   1.561  13.067  0.00  0.00     0.280 HD
ATOM     19  C26 ZIN A   1      17.896  -2.032  10.377  0.00  0.00     0.214 C 
ATOM     20  O28 ZIN A   1      17.337  -1.965   9.045  0.00  0.00    -0.334 OA
ENDROOT
BRANCH  17  21
ATOM     21  C22 ZIN A   1      18.324   3.385  12.196  0.00  0.00     0.240 C 
BRANCH  21  22
ATOM     22  C23 ZIN A   1      17.130   4.041  11.498  0.00  0.00     0.011 A 
ATOM     23  C25 ZIN A   1      17.427   5.133  10.468  0.00  0.00     0.007 A 
ATOM     24  C24 ZIN A   1      16.835   5.506  11.829  0.00  0.00     0.007 A 
ENDBRANCH  21  22
ENDBRANCH  17  21
BRANCH   5  25
ATOM     25  O6  ZIN A   1      19.055  -0.653  12.925  0.00  0.00    -0.386 OA
ATOM     26  H33 ZIN A   1      19.850  -0.978  13.368  0.00  0.00     0.210 HD
ENDBRANCH   5  25
BRANCH  11  27
ATOM     27  O14 ZIN A   1      17.445  -1.328   6.096  0.00  0.00    -0.358 OA
ATOM     28  H38 ZIN A   1      17.818  -1.159   5.219  0.00  0.00     0.217 HD
ENDBRANCH  11  27
TORSDOF 4
ENDMDL
MODEL 5
REMARK VINA RESULT:      -7.4      1.773      4.217
REMARK  4 active torsions:
REMARK  status: ('A' for Active; 'I' for Inactive)
REMARK    1  A    between atoms: C5_5  and  O6_6 
REMARK    2  A    between atoms: C13_12  and  O14_13 
REMARK    3  A    between atoms: N20_19  and  C22_21 
REMARK    4  A    between atoms: C22_21  and  C23_22 
ROOT
ATOM      1  O1  ZIN A   1      18.531  -1.066  14.269  0.00  0.00    -0.295 OA
ATOM      2  C2  ZIN A   1      18.712  -0.482  13.229  0.00  0.00     0.157 C 
ATOM      3  C3  ZIN A   1      20.074   0.083  12.952  0.00  0.00     0.084 C 
ATOM      4  C4  ZIN A   1      20.454  -0.146  11.489  0.00  0.00     0.048 C 
ATOM      5  C5  ZIN A   1      19.381   0.481  10.599  0.00  0.00     0.102 C 
ATOM      6  C7  ZIN A   1      19.747   0.288   9.124  0.00  0.00     0.227 C 
ATOM      7  C9  ZIN A   1      19.928  -1.160   8.705  0.00  0.00     0.075 C 
ATOM      8  C10 ZIN A   1      19.060  -2.114   9.458  0.00  0.00    -0.046 A 
ATOM      9  C11 ZIN A   1      19.019  -3.482   9.254  0.00  0.00     0.011 A 
ATOM     10  C12 ZIN A   1      18.213  -4.282  10.048  0.00  0.00     0.040 A 
ATOM     11  C13 ZIN A   1      17.425  -3.785  11.084  0.00  0.00     0.099 A 
ATOM     12  C15 ZIN A   1      17.447  -2.401  11.292  0.00  0.00     0.110 A 
ATOM     13  C16 ZIN A   1      18.228  -1.632  10.442  0.00  0.00    -0.001 A 
ATOM     14  C17 ZIN A   1      18.044  -0.205  10.831  0.00  0.00     0.058 C 
ATOM     15  C18 ZIN A   1      16.984   0.441   9.943  0.00  0.00     0.048 C 
ATOM     16  C19 ZIN A   1      17.424   0.305   8.480  0.00  0.00     0.236 C 
ATOM     17  N20 ZIN A   1      18.723   0.922   8.284  0.00  0.00    -0.063 N 
ATOM     18  H21 ZIN A   1      18.669   1.896   8.542  0.00  0.00     0.280 HD
ATOM     19  C26 ZIN A   1      17.568  -0.360  12.266  0.00  0.00     0.214 C 
ATOM     20  O28 ZIN A   1      16.853  -1.616  12.215  0.00  0.00    -0.334 OA
ENDROOT
BRANCH  17  21
ATOM     21  C22 ZIN A   1      19.102   0.813   6.870  0.00  0.00     0.240 C 
BRANCH  21  22
ATOM     22  C23 ZIN A   1      17.976   0.128   6.092  0.00  0.00     0.011 A 
ATOM     23  C25 ZIN A   1      18.273  -1.245   5.483  0.00  0.00     0.007 A 
ATOM     24  C24 ZIN A   1      18.149  -0.016   4.578  0.00  0.00     0.007 A 
ENDBRANCH  21  22
ENDBRANCH  17  21
BRANCH   5  25
ATOM     25  O6  ZIN A   1      19.264   1.873  10.898  0.00  0.00    -0.386 OA
ATOM     26  H33 ZIN A   1      18.653   2.070  11.621  0.00  0.00     0.210 HD
ENDBRANCH   5  25
BRANCH  11  27
ATOM     27  O14 ZIN A   1      16.667  -4.608  11.858  0.00  0.00    -0.358 OA
ATOM     28  H38 ZIN A   1      16.791  -4.478  12.809  0.00  0.00     0.217 HD
ENDBRANCH  11  27
TORSDOF 4
ENDMDL
MODEL 6
REMARK VINA RESULT:      -7.3      2.237      5.139
REMARK  4 active torsions:
REMARK  status: ('A' for Active; 'I' for Inactive)
REMARK    1  A    between atoms: C5_5  and  O6_6 
REMARK    2  A    between atoms: C13_12  and  O14_13 
REMARK    3  A    between atoms: N20_19  and  C22_21 
REMARK    4  A    between atoms: C22_21  and  C23_22 
ROOT
ATOM      1  O1  ZIN A   1      19.164  -5.229  10.106  0.00  0.00    -0.295 OA
ATOM      2  C2  ZIN A   1      19.113  -4.210  10.750  0.00  0.00     0.157 C 
ATOM      3  C3  ZIN A   1      20.296  -3.836  11.592  0.00  0.00     0.084 C 
ATOM      4  C4  ZIN A   1      20.556  -2.332  11.498  0.00  0.00     0.048 C 
ATOM      5  C5  ZIN A   1      19.291  -1.586  11.922  0.00  0.00     0.102 C 
ATOM      6  C7  ZIN A   1      19.530  -0.075  11.861  0.00  0.00     0.227 C 
ATOM      7  C9  ZIN A   1      19.953   0.441  10.496  0.00  0.00     0.075 C 
ATOM      8  C10 ZIN A   1      19.379  -0.338   9.358  0.00  0.00    -0.046 A 
ATOM      9  C11 ZIN A   1      19.592  -0.063   8.019  0.00  0.00     0.011 A 
ATOM     10  C12 ZIN A   1      19.052  -0.885   7.043  0.00  0.00     0.040 A 
ATOM     11  C13 ZIN A   1      18.295  -2.019   7.331  0.00  0.00     0.099 A 
ATOM     12  C15 ZIN A   1      18.060  -2.300   8.681  0.00  0.00     0.110 A 
ATOM     13  C16 ZIN A   1      18.576  -1.423   9.624  0.00  0.00    -0.001 A 
ATOM     14  C17 ZIN A   1      18.152  -1.907  10.968  0.00  0.00     0.058 C 
ATOM     15  C18 ZIN A   1      16.896  -1.164  11.413  0.00  0.00     0.048 C 
ATOM     16  C19 ZIN A   1      17.196   0.340  11.422  0.00  0.00     0.236 C 
ATOM     17  N20 ZIN A   1      18.316   0.625  12.299  0.00  0.00    -0.063 N 
ATOM     18  H21 ZIN A   1      18.095   0.310  13.232  0.00  0.00     0.280 HD
ATOM     19  C26 ZIN A   1      17.871  -3.371  10.668  0.00  0.00     0.214 C 
ATOM     20  O28 ZIN A   1      17.423  -3.320   9.295  0.00  0.00    -0.334 OA
ENDROOT
BRANCH  17  21
ATOM     21  C22 ZIN A   1      18.556   2.074  12.321  0.00  0.00     0.240 C 
BRANCH  21  22
ATOM     22  C23 ZIN A   1      17.557   2.770  11.395  0.00  0.00     0.011 A 
ATOM     23  C25 ZIN A   1      18.124   3.657  10.284  0.00  0.00     0.007 A 
ATOM     24  C24 ZIN A   1      17.441   4.292  11.497  0.00  0.00     0.007 A 
ENDBRANCH  21  22
ENDBRANCH  17  21
BRANCH   5  25
ATOM     25  O6  ZIN A   1      18.929  -1.973  13.250  0.00  0.00    -0.386 OA
ATOM     26  H33 ZIN A   1      18.131  -2.516  13.296  0.00  0.00     0.210 HD
ENDBRANCH   5  25
BRANCH  11  27
ATOM     27  O14 ZIN A   1      17.805  -2.815   6.343  0.00  0.00    -0.358 OA
ATOM     28  H38 ZIN A   1      18.278  -2.735   5.502  0.00  0.00     0.217 HD
ENDBRANCH  11  27
TORSDOF 4
ENDMDL
MODEL 7
REMARK VINA RESULT:      -7.1      2.410      5.614
REMARK  4 active torsions:
REMARK  status: ('A' for Active; 'I' for Inactive)
REMARK    1  A    between atoms: C5_5  and  O6_6 
REMARK    2  A    between atoms: C13_12  and  O14_13 
REMARK    3  A    between atoms: N20_19  and  C22_21 
REMARK    4  A    between atoms: C22_21  and  C23_22 
ROOT
ATOM      1  O1  ZIN A   1      19.428  -1.232   7.699  0.00  0.00    -0.295 OA
ATOM      2  C2  ZIN A   1      19.082  -0.298   8.380  0.00  0.00     0.157 C 
ATOM      3  C3  ZIN A   1      17.693   0.238   8.206  0.00  0.00     0.084 C 
ATOM      4  C4  ZIN A   1      17.085   0.582   9.566  0.00  0.00     0.048 C 
ATOM      5  C5  ZIN A   1      18.001   1.580  10.276  0.00  0.00     0.102 C 
ATOM      6  C7  ZIN A   1      17.405   1.963  11.634  0.00  0.00     0.227 C 
ATOM      7  C9  ZIN A   1      17.163   0.789  12.568  0.00  0.00     0.075 C 
ATOM      8  C10 ZIN A   1      18.142  -0.325  12.394  0.00  0.00    -0.046 A 
ATOM      9  C11 ZIN A   1      18.154  -1.495  13.133  0.00  0.00     0.011 A 
ATOM     10  C12 ZIN A   1      19.078  -2.488  12.853  0.00  0.00     0.040 A 
ATOM     11  C13 ZIN A   1      20.019  -2.391  11.830  0.00  0.00     0.099 A 
ATOM     12  C15 ZIN A   1      20.028  -1.207  11.085  0.00  0.00     0.110 A 
ATOM     13  C16 ZIN A   1      19.119  -0.218  11.432  0.00  0.00    -0.001 A 
ATOM     14  C17 ZIN A   1      19.359   0.948  10.534  0.00  0.00     0.058 C 
ATOM     15  C18 ZIN A   1      20.263   1.960  11.232  0.00  0.00     0.048 C 
ATOM     16  C19 ZIN A   1      19.596   2.386  12.546  0.00  0.00     0.236 C 
ATOM     17  N20 ZIN A   1      18.282   2.943  12.288  0.00  0.00    -0.063 N 
ATOM     18  H21 ZIN A   1      18.373   3.737  11.672  0.00  0.00     0.280 HD
ATOM     19  C26 ZIN A   1      20.059   0.270   9.368  0.00  0.00     0.214 C 
ATOM     20  O28 ZIN A   1      20.759  -0.814  10.020  0.00  0.00    -0.334 OA
ENDROOT
BRANCH  17  21
ATOM     21  C22 ZIN A   1      17.683   3.378  13.556  0.00  0.00     0.240 C 
BRANCH  21  22
ATOM     22  C23 ZIN A   1      17.554   4.902  13.562  0.00  0.00     0.011 A 
ATOM     23  C25 ZIN A   1      16.222   5.497  14.025  0.00  0.00     0.007 A 
ATOM     24  C24 ZIN A   1      16.603   5.536  12.544  0.00  0.00     0.007 A 
ENDBRANCH  21  22
ENDBRANCH  17  21
BRANCH   5  25
ATOM     25  O6  ZIN A   1      18.161   2.745   9.463  0.00  0.00    -0.386 OA
ATOM     26  H33 ZIN A   1      17.912   3.568   9.905  0.00  0.00     0.210 HD
ENDBRANCH   5  25
BRANCH  11  27
ATOM     27  O14 ZIN A   1      20.892  -3.401  11.570  0.00  0.00    -0.358 OA
ATOM     28  H38 ZIN A   1      21.411  -3.680  12.338  0.00  0.00     0.217 HD
ENDBRANCH  11  27
TORSDOF 4
ENDMDL
MODEL 8
REMARK VINA RESULT:      -7.1      2.485      6.183
REMARK  4 active torsions:
REMARK  status: ('A' for Active; 'I' for Inactive)
REMARK    1  A    between atoms: C5_5  and  O6_6 
REMARK    2  A    between atoms: C13_12  and  O14_13 
REMARK    3  A    between atoms: N20_19  and  C22_21 
REMARK    4  A    between atoms: C22_21  and  C23_22 
ROOT
ATOM      1  O1  ZIN A   1      18.380  -1.840   6.305  0.00  0.00    -0.295 OA
ATOM      2  C2  ZIN A   1      18.416  -1.138   7.286  0.00  0.00     0.157 C 
ATOM      3  C3  ZIN A   1      17.325  -0.128   7.483  0.00  0.00     0.084 C 
ATOM      4  C4  ZIN A   1      16.906  -0.083   8.952  0.00  0.00     0.048 C 
ATOM      5  C5  ZIN A   1      18.135   0.226   9.806  0.00  0.00     0.102 C 
ATOM      6  C7  ZIN A   1      17.741   0.301  11.284  0.00  0.00     0.227 C 
ATOM      7  C9  ZIN A   1      17.089  -0.959  11.826  0.00  0.00     0.075 C 
ATOM      8  C10 ZIN A   1      17.579  -2.212  11.178  0.00  0.00    -0.046 A 
ATOM      9  C11 ZIN A   1      17.161  -3.491  11.503  0.00  0.00     0.011 A 
ATOM     10  C12 ZIN A   1      17.645  -4.583  10.800  0.00  0.00     0.040 A 
ATOM     11  C13 ZIN A   1      18.543  -4.474   9.740  0.00  0.00     0.099 A 
ATOM     12  C15 ZIN A   1      18.984  -3.187   9.411  0.00  0.00     0.110 A 
ATOM     13  C16 ZIN A   1      18.515  -2.128  10.173  0.00  0.00    -0.001 A 
ATOM     14  C17 ZIN A   1      19.162  -0.885   9.664  0.00  0.00     0.058 C 
ATOM     15  C18 ZIN A   1      20.386  -0.555  10.512  0.00  0.00     0.048 C 
ATOM     16  C19 ZIN A   1      19.941  -0.402  11.972  0.00  0.00     0.236 C 
ATOM     17  N20 ZIN A   1      18.927   0.628  12.086  0.00  0.00    -0.063 N 
ATOM     18  H21 ZIN A   1      19.302   1.501  11.744  0.00  0.00     0.280 HD
ATOM     19  C26 ZIN A   1      19.545  -1.320   8.258  0.00  0.00     0.214 C 
ATOM     20  O28 ZIN A   1      19.797  -2.733   8.434  0.00  0.00    -0.334 OA
ENDROOT
BRANCH  17  21
ATOM     21  C22 ZIN A   1      18.548   0.781  13.496  0.00  0.00     0.240 C 
BRANCH  21  22
ATOM     22  C23 ZIN A   1      19.344  -0.210  14.348  0.00  0.00     0.011 A 
ATOM     23  C25 ZIN A   1      18.560  -1.303  15.078  0.00  0.00     0.007 A 
ATOM     24  C24 ZIN A   1      19.167  -0.139  15.866  0.00  0.00     0.007 A 
ENDBRANCH  21  22
ENDBRANCH  17  21
BRANCH   5  25
ATOM     25  O6  ZIN A   1      18.709   1.466   9.387  0.00  0.00    -0.386 OA
ATOM     26  H33 ZIN A   1      18.079   2.198   9.351  0.00  0.00     0.210 HD
ENDBRANCH   5  25
BRANCH  11  27
ATOM     27  O14 ZIN A   1      18.973  -5.569   9.058  0.00  0.00    -0.358 OA
ATOM     28  H38 ZIN A   1      19.699  -6.041   9.490  0.00  0.00     0.217 HD
ENDBRANCH  11  27
TORSDOF 4
ENDMDL
MODEL 9
REMARK VINA RESULT:      -7.1      1.880      3.893
REMARK  4 active torsions:
REMARK  status: ('A' for Active; 'I' for Inactive)
REMARK    1  A    between atoms: C5_5  and  O6_6 
REMARK    2  A    between atoms: C13_12  and  O14_13 
REMARK    3  A    between atoms: N20_19  and  C22_21 
REMARK    4  A    between atoms: C22_21  and  C23_22 
ROOT
ATOM      1  O1  ZIN A   1      18.708   3.872  13.481  0.00  0.00    -0.295 OA
ATOM      2  C2  ZIN A   1      18.811   3.079  12.577  0.00  0.00     0.157 C 
ATOM      3  C3  ZIN A   1      20.101   3.027  11.814  0.00  0.00     0.084 C 
ATOM      4  C4  ZIN A   1      20.481   1.577  11.518  0.00  0.00     0.048 C 
ATOM      5  C5  ZIN A   1      19.336   0.914  10.753  0.00  0.00     0.102 C 
ATOM      6  C7  ZIN A   1      19.698  -0.536  10.420  0.00  0.00     0.227 C 
ATOM      7  C9  ZIN A   1      20.025  -1.396  11.628  0.00  0.00     0.075 C 
ATOM      8  C10 ZIN A   1      19.274  -1.008  12.860  0.00  0.00    -0.046 A 
ATOM      9  C11 ZIN A   1      19.375  -1.643  14.085  0.00  0.00     0.011 A 
ATOM     10  C12 ZIN A   1      18.669  -1.166  15.178  0.00  0.00     0.040 A 
ATOM     11  C13 ZIN A   1      17.849  -0.041  15.127  0.00  0.00     0.099 A 
ATOM     12  C15 ZIN A   1      17.727   0.601  13.890  0.00  0.00     0.110 A 
ATOM     13  C16 ZIN A   1      18.410   0.061  12.811  0.00  0.00    -0.001 A 
ATOM     14  C17 ZIN A   1      18.082   0.885  11.613  0.00  0.00     0.058 C 
ATOM     15  C18 ZIN A   1      16.947   0.232  10.830  0.00  0.00     0.048 C 
ATOM     16  C19 ZIN A   1      17.378  -1.187  10.439  0.00  0.00     0.236 C 
ATOM     17  N20 ZIN A   1      18.600  -1.147   9.660  0.00  0.00    -0.063 N 
ATOM     18  H21 ZIN A   1      18.448  -0.591   8.832  0.00  0.00     0.280 HD
ATOM     19  C26 ZIN A   1      17.646   2.184  12.272  0.00  0.00     0.214 C 
ATOM     20  O28 ZIN A   1      17.068   1.717  13.512  0.00  0.00    -0.334 OA
ENDROOT
BRANCH  17  21
ATOM     21  C22 ZIN A   1      18.968  -2.513   9.266  0.00  0.00     0.240 C 
BRANCH  21  22
ATOM     22  C23 ZIN A   1      18.581  -2.743   7.803  0.00  0.00     0.011 A 
ATOM     23  C25 ZIN A   1      19.644  -3.339   6.877  0.00  0.00     0.007 A 
ATOM     24  C24 ZIN A   1      19.255  -1.864   6.747  0.00  0.00     0.007 A 
ENDBRANCH  21  22
ENDBRANCH  17  21
BRANCH   5  25
ATOM     25  O6  ZIN A   1      19.077   1.644   9.552  0.00  0.00    -0.386 OA
ATOM     26  H33 ZIN A   1      18.824   2.565   9.699  0.00  0.00     0.210 HD
ENDBRANCH   5  25
BRANCH  11  27
ATOM     27  O14 ZIN A   1      17.194   0.410  16.231  0.00  0.00    -0.358 OA
ATOM     28  H38 ZIN A   1      17.405  -0.078  17.040  0.00  0.00     0.217 HD
ENDBRANCH  11  27
TORSDOF 4
ENDMDL
