MODEL 1
REMARK VINA RESULT:      -9.8      0.000      0.000
REMARK  12 active torsions:
REMARK  status: ('A' for Active; 'I' for Inactive)
REMARK    1  A    between atoms: C2_2  and  C3_3 
REMARK    2  A    between atoms: C3_3  and  C4_4 
REMARK    3  A    between atoms: C4_4  and  C5_5 
REMARK    4  A    between atoms: C5_5  and  C6_6 
REMARK    5  A    between atoms: C6_6  and  C7_7 
REMARK    6  A    between atoms: C16_16  and  C17_17 
REMARK    7  A    between atoms: C17_17  and  C19_18 
REMARK    8  A    between atoms: C17_17  and  C21_20 
REMARK    9  A    between atoms: C25_24  and  N26_25 
REMARK   10  A    between atoms: N26_25  and  S27_26 
REMARK   11  A    between atoms: S27_26  and  C30_29 
REMARK   12  A    between atoms: C33_32  and  C34_33 
ROOT
ATOM      1  C17 ZIN A   1      19.056   0.192  14.964  0.00  0.00     0.039 C 
ENDROOT
BRANCH   1   2
ATOM      2  C16 ZIN A   1      18.918   0.763  13.552  0.00  0.00     0.163 C 
ATOM      3  C14 ZIN A   1      17.646   0.246  12.906  0.00  0.00     0.144 C 
ATOM      4  C13 ZIN A   1      17.644  -1.190  12.422  0.00  0.00     0.118 C 
ATOM      5  O15 ZIN A   1      16.674   0.950  12.783  0.00  0.00    -0.297 OA
ATOM      6  C4  ZIN A   1      18.878  -1.404  11.536  0.00  0.00     0.077 C 
ATOM      7  O43 ZIN A   1      20.067  -0.979  12.258  0.00  0.00    -0.309 OA
ATOM      8  C41 ZIN A   1      20.077   0.299  12.692  0.00  0.00     0.271 C 
ATOM      9  O42 ZIN A   1      20.980   1.048  12.405  0.00  0.00    -0.264 OA
BRANCH   6  10
ATOM     10  C3  ZIN A   1      19.000  -2.887  11.181  0.00  0.00     0.038 C 
BRANCH  10  11
ATOM     11  C2  ZIN A   1      18.014  -3.697  12.026  0.00  0.00    -0.002 C 
ATOM     12  C1  ZIN A   1      17.487  -4.875  11.204  0.00  0.00     0.005 C 
ENDBRANCH  10  11
ENDBRANCH   6  10
BRANCH   6  13
ATOM     13  C5  ZIN A   1      18.735  -0.581  10.255  0.00  0.00     0.043 C 
BRANCH  13  14
ATOM     14  C6  ZIN A   1      18.123  -1.452   9.156  0.00  0.00     0.041 C 
BRANCH  14  15
ATOM     15  C7  ZIN A   1      18.481  -0.884   7.807  0.00  0.00    -0.058 A 
ATOM     16  C12 ZIN A   1      18.320   0.467   7.561  0.00  0.00     0.007 A 
ATOM     17  C11 ZIN A   1      18.652   0.988   6.324  0.00  0.00     0.001 A 
ATOM     18  C10 ZIN A   1      19.137   0.158   5.331  0.00  0.00     0.000 A 
ATOM     19  C9  ZIN A   1      19.294  -1.193   5.576  0.00  0.00     0.001 A 
ATOM     20  C8  ZIN A   1      18.965  -1.715   6.813  0.00  0.00     0.007 A 
ENDBRANCH  14  15
ENDBRANCH  13  14
ENDBRANCH   6  13
ENDBRANCH   1   2
BRANCH   1  21
ATOM     21  C19 ZIN A   1      17.945  -0.831  15.210  0.00  0.00     0.006 C 
ATOM     22  C20 ZIN A   1      18.498  -1.998  16.032  0.00  0.00     0.006 C 
ENDBRANCH   1  21
BRANCH   1  23
ATOM     23  C21 ZIN A   1      18.943   1.307  15.971  0.00  0.00    -0.051 A 
ATOM     24  C40 ZIN A   1      19.408   2.569  15.655  0.00  0.00     0.040 A 
ATOM     25  C25 ZIN A   1      19.298   3.599  16.581  0.00  0.00     0.070 A 
ATOM     26  C24 ZIN A   1      18.731   3.353  17.825  0.00  0.00     0.032 A 
ATOM     27  C23 ZIN A   1      18.273   2.088  18.136  0.00  0.00     0.003 A 
ATOM     28  C22 ZIN A   1      18.379   1.066  17.210  0.00  0.00     0.007 A 
BRANCH  25  29
ATOM     29  N26 ZIN A   1      19.762   4.878  16.264  0.00  0.00    -0.159 NA
BRANCH  29  30
ATOM     30  S27 ZIN A   1      18.851   5.875  15.306  0.00  0.00     0.301 S 
ATOM     31  O28 ZIN A   1      17.549   5.898  15.873  0.00  0.00    -0.197 OA
ATOM     32  O29 ZIN A   1      19.627   7.046  15.092  0.00  0.00    -0.197 OA
BRANCH  30  33
ATOM     33  C30 ZIN A   1      18.694   5.088  13.736  0.00  0.00     0.173 A 
ATOM     34  N39 ZIN A   1      19.778   4.789  13.046  0.00  0.00    -0.247 NA
ATOM     35  C38 ZIN A   1      19.709   4.197  11.870  0.00  0.00     0.134 A 
ATOM     36  C33 ZIN A   1      18.487   3.877  11.310  0.00  0.00     0.065 A 
ATOM     37  C32 ZIN A   1      17.326   4.181  12.002  0.00  0.00     0.021 A 
ATOM     38  C31 ZIN A   1      17.437   4.800  13.239  0.00  0.00     0.047 A 
BRANCH  36  39
ATOM     39  C34 ZIN A   1      18.417   3.205   9.962  0.00  0.00     0.418 C 
ATOM     40  F35 ZIN A   1      19.617   2.530   9.716  0.00  0.00    -0.166 F 
ATOM     41  F36 ZIN A   1      17.357   2.293   9.951  0.00  0.00    -0.166 F 
ATOM     42  F37 ZIN A   1      18.213   4.170   8.970  0.00  0.00    -0.166 F 
ENDBRANCH  36  39
ENDBRANCH  30  33
ENDBRANCH  29  30
ENDBRANCH  25  29
ENDBRANCH   1  23
TORSDOF 12
ENDMDL
MODEL 2
REMARK VINA RESULT:      -9.6      4.539      9.340
REMARK  12 active torsions:
REMARK  status: ('A' for Active; 'I' for Inactive)
REMARK    1  A    between atoms: C2_2  and  C3_3 
REMARK    2  A    between atoms: C3_3  and  C4_4 
REMARK    3  A    between atoms: C4_4  and  C5_5 
REMARK    4  A    between atoms: C5_5  and  C6_6 
REMARK    5  A    between atoms: C6_6  and  C7_7 
REMARK    6  A    between atoms: C16_16  and  C17_17 
REMARK    7  A    between atoms: C17_17  and  C19_18 
REMARK    8  A    between atoms: C17_17  and  C21_20 
REMARK    9  A    between atoms: C25_24  and  N26_25 
REMARK   10  A    between atoms: N26_25  and  S27_26 
REMARK   11  A    between atoms: S27_26  and  C30_29 
REMARK   12  A    between atoms: C33_32  and  C34_33 
ROOT
ATOM      1  C17 ZIN A   1      18.832   0.181   9.322  0.00  0.00     0.039 C 
ENDROOT
BRANCH   1   2
ATOM      2  C16 ZIN A   1      18.242  -0.746  10.387  0.00  0.00     0.163 C 
ATOM      3  C14 ZIN A   1      17.239   0.014  11.236  0.00  0.00     0.144 C 
ATOM      4  C13 ZIN A   1      17.787   0.987  12.258  0.00  0.00     0.118 C 
ATOM      5  O15 ZIN A   1      16.051  -0.151  11.101  0.00  0.00    -0.297 OA
ATOM      6  C4  ZIN A   1      18.837   0.259  13.106  0.00  0.00     0.077 C 
ATOM      7  O43 ZIN A   1      19.819  -0.360  12.229  0.00  0.00    -0.309 OA
ATOM      8  C41 ZIN A   1      19.338  -1.229  11.315  0.00  0.00     0.271 C 
ATOM      9  O42 ZIN A   1      19.769  -2.355  11.239  0.00  0.00    -0.264 OA
BRANCH   6  10
ATOM     10  C3  ZIN A   1      19.536   1.262  14.027  0.00  0.00     0.038 C 
BRANCH  10  11
ATOM     11  C2  ZIN A   1      18.607   2.450  14.286  0.00  0.00    -0.002 C 
ATOM     12  C1  ZIN A   1      18.912   3.045  15.661  0.00  0.00     0.005 C 
ENDBRANCH  10  11
ENDBRANCH   6  10
BRANCH   6  13
ATOM     13  C5  ZIN A   1      18.154  -0.819  13.950  0.00  0.00     0.043 C 
BRANCH  13  14
ATOM     14  C6  ZIN A   1      19.076  -1.225  15.102  0.00  0.00     0.041 C 
BRANCH  14  15
ATOM     15  C7  ZIN A   1      18.603  -0.576  16.377  0.00  0.00    -0.058 A 
ATOM     16  C12 ZIN A   1      19.501  -0.322  17.397  0.00  0.00     0.007 A 
ATOM     17  C11 ZIN A   1      19.068   0.277  18.566  0.00  0.00     0.001 A 
ATOM     18  C10 ZIN A   1      17.737   0.614  18.718  0.00  0.00     0.000 A 
ATOM     19  C9  ZIN A   1      16.838   0.356  17.699  0.00  0.00     0.001 A 
ATOM     20  C8  ZIN A   1      17.271  -0.240  16.529  0.00  0.00     0.007 A 
ENDBRANCH  14  15
ENDBRANCH  13  14
ENDBRANCH   6  13
ENDBRANCH   1   2
BRANCH   1  21
ATOM     21  C19 ZIN A   1      18.080   1.514   9.333  0.00  0.00     0.006 C 
ATOM     22  C20 ZIN A   1      19.083   2.666   9.422  0.00  0.00     0.006 C 
ENDBRANCH   1  21
BRANCH   1  23
ATOM     23  C21 ZIN A   1      18.695  -0.460   7.966  0.00  0.00    -0.051 A 
ATOM     24  C40 ZIN A   1      19.353  -1.645   7.694  0.00  0.00     0.040 A 
ATOM     25  C25 ZIN A   1      19.221  -2.239   6.446  0.00  0.00     0.070 A 
ATOM     26  C24 ZIN A   1      18.438  -1.635   5.471  0.00  0.00     0.032 A 
ATOM     27  C23 ZIN A   1      17.787  -0.449   5.747  0.00  0.00     0.003 A 
ATOM     28  C22 ZIN A   1      17.915   0.138   6.994  0.00  0.00     0.007 A 
BRANCH  25  29
ATOM     29  N26 ZIN A   1      19.881  -3.439   6.169  0.00  0.00    -0.159 NA
BRANCH  29  30
ATOM     30  S27 ZIN A   1      19.098  -4.882   6.386  0.00  0.00     0.301 S 
ATOM     31  O28 ZIN A   1      17.922  -4.825   5.592  0.00  0.00    -0.197 OA
ATOM     32  O29 ZIN A   1      20.082  -5.898   6.245  0.00  0.00    -0.197 OA
BRANCH  30  33
ATOM     33  C30 ZIN A   1      18.562  -4.938   8.064  0.00  0.00     0.173 A 
ATOM     34  N39 ZIN A   1      17.307  -4.658   8.357  0.00  0.00    -0.247 NA
ATOM     35  C38 ZIN A   1      16.861  -4.692   9.598  0.00  0.00     0.134 A 
ATOM     36  C33 ZIN A   1      17.704  -5.012  10.644  0.00  0.00     0.065 A 
ATOM     37  C32 ZIN A   1      19.032  -5.307  10.376  0.00  0.00     0.021 A 
ATOM     38  C31 ZIN A   1      19.465  -5.266   9.058  0.00  0.00     0.047 A 
BRANCH  36  39
ATOM     39  C34 ZIN A   1      17.188  -5.042  12.060  0.00  0.00     0.418 C 
ATOM     40  F35 ZIN A   1      17.778  -4.008  12.793  0.00  0.00    -0.166 F 
ATOM     41  F36 ZIN A   1      15.798  -4.875  12.052  0.00  0.00    -0.166 F 
ATOM     42  F37 ZIN A   1      17.506  -6.272  12.646  0.00  0.00    -0.166 F 
ENDBRANCH  36  39
ENDBRANCH  30  33
ENDBRANCH  29  30
ENDBRANCH  25  29
ENDBRANCH   1  23
TORSDOF 12
ENDMDL
MODEL 3
REMARK VINA RESULT:      -9.4      3.428      7.672
REMARK  12 active torsions:
REMARK  status: ('A' for Active; 'I' for Inactive)
REMARK    1  A    between atoms: C2_2  and  C3_3 
REMARK    2  A    between atoms: C3_3  and  C4_4 
REMARK    3  A    between atoms: C4_4  and  C5_5 
REMARK    4  A    between atoms: C5_5  and  C6_6 
REMARK    5  A    between atoms: C6_6  and  C7_7 
REMARK    6  A    between atoms: C16_16  and  C17_17 
REMARK    7  A    between atoms: C17_17  and  C19_18 
REMARK    8  A    between atoms: C17_17  and  C21_20 
REMARK    9  A    between atoms: C25_24  and  N26_25 
REMARK   10  A    between atoms: N26_25  and  S27_26 
REMARK   11  A    between atoms: S27_26  and  C30_29 
REMARK   12  A    between atoms: C33_32  and  C34_33 
ROOT
ATOM      1  C17 ZIN A   1      18.346  -2.668  11.253  0.00  0.00     0.039 C 
ENDROOT
BRANCH   1   2
ATOM      2  C16 ZIN A   1      18.300  -1.143  11.134  0.00  0.00     0.163 C 
ATOM      3  C14 ZIN A   1      19.574  -0.541  11.697  0.00  0.00     0.144 C 
ATOM      4  C13 ZIN A   1      19.722  -0.509  13.204  0.00  0.00     0.118 C 
ATOM      5  O15 ZIN A   1      20.436  -0.106  10.973  0.00  0.00    -0.297 OA
ATOM      6  C4  ZIN A   1      18.462   0.128  13.802  0.00  0.00     0.077 C 
ATOM      7  O43 ZIN A   1      17.287  -0.564  13.294  0.00  0.00    -0.309 OA
ATOM      8  C41 ZIN A   1      17.147  -0.596  11.952  0.00  0.00     0.271 C 
ATOM      9  O42 ZIN A   1      16.136  -0.203  11.421  0.00  0.00    -0.264 OA
BRANCH   6  10
ATOM     10  C3  ZIN A   1      18.504   0.011  15.327  0.00  0.00     0.038 C 
BRANCH  10  11
ATOM     11  C2  ZIN A   1      19.061  -1.360  15.718  0.00  0.00    -0.002 C 
ATOM     12  C1  ZIN A   1      19.268  -1.412  17.233  0.00  0.00     0.005 C 
ENDBRANCH  10  11
ENDBRANCH   6  10
BRANCH   6  13
ATOM     13  C5  ZIN A   1      18.398   1.604  13.405  0.00  0.00     0.043 C 
BRANCH  13  14
ATOM     14  C6  ZIN A   1      18.023   2.445  14.626  0.00  0.00     0.041 C 
BRANCH  14  15
ATOM     15  C7  ZIN A   1      18.880   3.684  14.667  0.00  0.00    -0.058 A 
ATOM     16  C12 ZIN A   1      19.129   4.389  13.504  0.00  0.00     0.007 A 
ATOM     17  C11 ZIN A   1      19.913   5.528  13.541  0.00  0.00     0.001 A 
ATOM     18  C10 ZIN A   1      20.455   5.955  14.738  0.00  0.00     0.000 A 
ATOM     19  C9  ZIN A   1      20.210   5.247  15.900  0.00  0.00     0.001 A 
ATOM     20  C8  ZIN A   1      19.424   4.110  15.864  0.00  0.00     0.007 A 
ENDBRANCH  14  15
ENDBRANCH  13  14
ENDBRANCH   6  13
ENDBRANCH   1   2
BRANCH   1  21
ATOM     21  C19 ZIN A   1      19.677  -3.090  11.877  0.00  0.00     0.006 C 
ATOM     22  C20 ZIN A   1      20.055  -4.486  11.378  0.00  0.00     0.006 C 
ENDBRANCH   1  21
BRANCH   1  23
ATOM     23  C21 ZIN A   1      18.217  -3.282   9.884  0.00  0.00    -0.051 A 
ATOM     24  C40 ZIN A   1      18.919  -2.749   8.820  0.00  0.00     0.040 A 
ATOM     25  C25 ZIN A   1      18.805  -3.320   7.559  0.00  0.00     0.070 A 
ATOM     26  C24 ZIN A   1      17.976  -4.418   7.369  0.00  0.00     0.032 A 
ATOM     27  C23 ZIN A   1      17.272  -4.943   8.435  0.00  0.00     0.003 A 
ATOM     28  C22 ZIN A   1      17.392  -4.375   9.692  0.00  0.00     0.007 A 
BRANCH  25  29
ATOM     29  N26 ZIN A   1      19.518  -2.787   6.482  0.00  0.00    -0.159 NA
BRANCH  29  30
ATOM     30  S27 ZIN A   1      18.954  -1.441   5.701  0.00  0.00     0.301 S 
ATOM     31  O28 ZIN A   1      19.995  -1.013   4.835  0.00  0.00    -0.197 OA
ATOM     32  O29 ZIN A   1      17.645  -1.759   5.247  0.00  0.00    -0.197 OA
BRANCH  30  33
ATOM     33  C30 ZIN A   1      18.766  -0.176   6.913  0.00  0.00     0.173 A 
ATOM     34  N39 ZIN A   1      19.762   0.657   7.147  0.00  0.00    -0.247 NA
ATOM     35  C38 ZIN A   1      19.664   1.621   8.041  0.00  0.00     0.134 A 
ATOM     36  C33 ZIN A   1      18.508   1.787   8.779  0.00  0.00     0.065 A 
ATOM     37  C32 ZIN A   1      17.441   0.928   8.566  0.00  0.00     0.021 A 
ATOM     38  C31 ZIN A   1      17.578  -0.072   7.613  0.00  0.00     0.047 A 
BRANCH  36  39
ATOM     39  C34 ZIN A   1      18.407   2.888   9.804  0.00  0.00     0.418 C 
ATOM     40  F35 ZIN A   1      17.296   2.662  10.622  0.00  0.00    -0.166 F 
ATOM     41  F36 ZIN A   1      19.567   2.904  10.586  0.00  0.00    -0.166 F 
ATOM     42  F37 ZIN A   1      18.265   4.118   9.153  0.00  0.00    -0.166 F 
ENDBRANCH  36  39
ENDBRANCH  30  33
ENDBRANCH  29  30
ENDBRANCH  25  29
ENDBRANCH   1  23
TORSDOF 12
ENDMDL
MODEL 4
REMARK VINA RESULT:      -9.0      2.676      5.529
REMARK  12 active torsions:
REMARK  status: ('A' for Active; 'I' for Inactive)
REMARK    1  A    between atoms: C2_2  and  C3_3 
REMARK    2  A    between atoms: C3_3  and  C4_4 
REMARK    3  A    between atoms: C4_4  and  C5_5 
REMARK    4  A    between atoms: C5_5  and  C6_6 
REMARK    5  A    between atoms: C6_6  and  C7_7 
REMARK    6  A    between atoms: C16_16  and  C17_17 
REMARK    7  A    between atoms: C17_17  and  C19_18 
REMARK    8  A    between atoms: C17_17  and  C21_20 
REMARK    9  A    between atoms: C25_24  and  N26_25 
REMARK   10  A    between atoms: N26_25  and  S27_26 
REMARK   11  A    between atoms: S27_26  and  C30_29 
REMARK   12  A    between atoms: C33_32  and  C34_33 
ROOT
ATOM      1  C17 ZIN A   1      17.920   2.291  10.331  0.00  0.00     0.039 C 
ENDROOT
BRANCH   1   2
ATOM      2  C16 ZIN A   1      18.130   1.160  11.340  0.00  0.00     0.163 C 
ATOM      3  C14 ZIN A   1      19.569   0.681  11.289  0.00  0.00     0.144 C 
ATOM      4  C13 ZIN A   1      19.976  -0.176  10.109  0.00  0.00     0.118 C 
ATOM      5  O15 ZIN A   1      20.358   0.972  12.155  0.00  0.00    -0.297 OA
ATOM      6  C4  ZIN A   1      18.972  -1.328   9.977  0.00  0.00     0.077 C 
ATOM      7  O43 ZIN A   1      17.622  -0.786   9.933  0.00  0.00    -0.309 OA
ATOM      8  C41 ZIN A   1      17.252  -0.021  10.981  0.00  0.00     0.271 C 
ATOM      9  O42 ZIN A   1      16.252  -0.270  11.612  0.00  0.00    -0.264 OA
BRANCH   6  10
ATOM     10  C3  ZIN A   1      19.252  -2.106   8.689  0.00  0.00     0.038 C 
BRANCH  10  11
ATOM     11  C2  ZIN A   1      18.529  -1.434   7.520  0.00  0.00    -0.002 C 
ATOM     12  C1  ZIN A   1      19.229  -1.801   6.210  0.00  0.00     0.005 C 
ENDBRANCH  10  11
ENDBRANCH   6  10
BRANCH   6  13
ATOM     13  C5  ZIN A   1      19.108  -2.264  11.179  0.00  0.00     0.043 C 
BRANCH  13  14
ATOM     14  C6  ZIN A   1      19.844  -3.536  10.754  0.00  0.00     0.041 C 
BRANCH  14  15
ATOM     15  C7  ZIN A   1      18.841  -4.585  10.348  0.00  0.00    -0.058 A 
ATOM     16  C12 ZIN A   1      19.179  -5.533   9.400  0.00  0.00     0.007 A 
ATOM     17  C11 ZIN A   1      18.260  -6.498   9.030  0.00  0.00     0.001 A 
ATOM     18  C10 ZIN A   1      17.002  -6.509   9.601  0.00  0.00     0.000 A 
ATOM     19  C9  ZIN A   1      16.663  -5.559  10.546  0.00  0.00     0.001 A 
ATOM     20  C8  ZIN A   1      17.582  -4.596  10.918  0.00  0.00     0.007 A 
ENDBRANCH  14  15
ENDBRANCH  13  14
ENDBRANCH   6  13
ENDBRANCH   1   2
BRANCH   1  21
ATOM     21  C19 ZIN A   1      19.200   2.490   9.516  0.00  0.00     0.006 C 
ATOM     22  C20 ZIN A   1      18.909   2.227   8.037  0.00  0.00     0.006 C 
ENDBRANCH   1  21
BRANCH   1  23
ATOM     23  C21 ZIN A   1      17.590   3.565  11.065  0.00  0.00    -0.051 A 
ATOM     24  C40 ZIN A   1      17.498   3.562  12.444  0.00  0.00     0.040 A 
ATOM     25  C25 ZIN A   1      17.200   4.738  13.120  0.00  0.00     0.070 A 
ATOM     26  C24 ZIN A   1      16.984   5.910  12.407  0.00  0.00     0.032 A 
ATOM     27  C23 ZIN A   1      17.073   5.905  11.030  0.00  0.00     0.003 A 
ATOM     28  C22 ZIN A   1      17.375   4.734  10.358  0.00  0.00     0.007 A 
BRANCH  25  29
ATOM     29  N26 ZIN A   1      17.111   4.740  14.514  0.00  0.00    -0.159 NA
BRANCH  29  30
ATOM     30  S27 ZIN A   1      18.472   4.511  15.430  0.00  0.00     0.301 S 
ATOM     31  O28 ZIN A   1      19.575   4.847  14.602  0.00  0.00    -0.197 OA
ATOM     32  O29 ZIN A   1      18.222   5.134  16.683  0.00  0.00    -0.197 OA
BRANCH  30  33
ATOM     33  C30 ZIN A   1      18.600   2.783  15.751  0.00  0.00     0.173 A 
ATOM     34  N39 ZIN A   1      18.319   1.919  14.794  0.00  0.00    -0.247 NA
ATOM     35  C38 ZIN A   1      18.406   0.618  14.988  0.00  0.00     0.134 A 
ATOM     36  C33 ZIN A   1      18.786   0.109  16.215  0.00  0.00     0.065 A 
ATOM     37  C32 ZIN A   1      19.084   0.986  17.247  0.00  0.00     0.021 A 
ATOM     38  C31 ZIN A   1      18.987   2.348  17.005  0.00  0.00     0.047 A 
BRANCH  36  39
ATOM     39  C34 ZIN A   1      18.877  -1.380  16.429  0.00  0.00     0.418 C 
ATOM     40  F35 ZIN A   1      19.750  -1.645  17.489  0.00  0.00    -0.166 F 
ATOM     41  F36 ZIN A   1      17.607  -1.885  16.733  0.00  0.00    -0.166 F 
ATOM     42  F37 ZIN A   1      19.355  -1.990  15.265  0.00  0.00    -0.166 F 
ENDBRANCH  36  39
ENDBRANCH  30  33
ENDBRANCH  29  30
ENDBRANCH  25  29
ENDBRANCH   1  23
TORSDOF 12
ENDMDL
MODEL 5
REMARK VINA RESULT:      -8.9      4.569      8.959
REMARK  12 active torsions:
REMARK  status: ('A' for Active; 'I' for Inactive)
REMARK    1  A    between atoms: C2_2  and  C3_3 
REMARK    2  A    between atoms: C3_3  and  C4_4 
REMARK    3  A    between atoms: C4_4  and  C5_5 
REMARK    4  A    between atoms: C5_5  and  C6_6 
REMARK    5  A    between atoms: C6_6  and  C7_7 
REMARK    6  A    between atoms: C16_16  and  C17_17 
REMARK    7  A    between atoms: C17_17  and  C19_18 
REMARK    8  A    between atoms: C17_17  and  C21_20 
REMARK    9  A    between atoms: C25_24  and  N26_25 
REMARK   10  A    between atoms: N26_25  and  S27_26 
REMARK   11  A    between atoms: S27_26  and  C30_29 
REMARK   12  A    between atoms: C33_32  and  C34_33 
ROOT
ATOM      1  C17 ZIN A   1      18.117  -0.108   9.978  0.00  0.00     0.039 C 
ENDROOT
BRANCH   1   2
ATOM      2  C16 ZIN A   1      18.835   0.934  10.838  0.00  0.00     0.163 C 
ATOM      3  C14 ZIN A   1      19.852   0.254  11.735  0.00  0.00     0.144 C 
ATOM      4  C13 ZIN A   1      19.325  -0.504  12.936  0.00  0.00     0.118 C 
ATOM      5  O15 ZIN A   1      21.035   0.313  11.501  0.00  0.00    -0.297 OA
ATOM      6  C4  ZIN A   1      18.383   0.420  13.717  0.00  0.00     0.077 C 
ATOM      7  O43 ZIN A   1      17.377   0.957  12.813  0.00  0.00    -0.309 OA
ATOM      8  C41 ZIN A   1      17.839   1.634  11.740  0.00  0.00     0.271 C 
ATOM      9  O42 ZIN A   1      17.469   2.760  11.508  0.00  0.00    -0.264 OA
BRANCH   6  10
ATOM     10  C3  ZIN A   1      17.697  -0.373  14.831  0.00  0.00     0.038 C 
BRANCH  10  11
ATOM     11  C2  ZIN A   1      18.611  -1.515  15.282  0.00  0.00    -0.002 C 
ATOM     12  C1  ZIN A   1      19.025  -1.292  16.737  0.00  0.00     0.005 C 
ENDBRANCH  10  11
ENDBRANCH   6  10
BRANCH   6  13
ATOM     13  C5  ZIN A   1      19.187   1.570  14.328  0.00  0.00     0.043 C 
BRANCH  13  14
ATOM     14  C6  ZIN A   1      18.336   2.281  15.383  0.00  0.00     0.041 C 
BRANCH  14  15
ATOM     15  C7  ZIN A   1      18.610   3.763  15.332  0.00  0.00    -0.058 A 
ATOM     16  C12 ZIN A   1      17.845   4.579  14.520  0.00  0.00     0.007 A 
ATOM     17  C11 ZIN A   1      18.093   5.938  14.476  0.00  0.00     0.001 A 
ATOM     18  C10 ZIN A   1      19.111   6.480  15.237  0.00  0.00     0.000 A 
ATOM     19  C9  ZIN A   1      19.879   5.663  16.047  0.00  0.00     0.001 A 
ATOM     20  C8  ZIN A   1      19.629   4.304  16.093  0.00  0.00     0.007 A 
ENDBRANCH  14  15
ENDBRANCH  13  14
ENDBRANCH   6  13
ENDBRANCH   1   2
BRANCH   1  21
ATOM     21  C19 ZIN A   1      18.725  -1.488  10.238  0.00  0.00     0.006 C 
ATOM     22  C20 ZIN A   1      17.613  -2.475  10.601  0.00  0.00     0.006 C 
ENDBRANCH   1  21
BRANCH   1  23
ATOM     23  C21 ZIN A   1      18.278   0.244   8.522  0.00  0.00    -0.051 A 
ATOM     24  C40 ZIN A   1      17.758  -0.590   7.551  0.00  0.00     0.040 A 
ATOM     25  C25 ZIN A   1      17.901  -0.262   6.208  0.00  0.00     0.070 A 
ATOM     26  C24 ZIN A   1      18.576   0.898   5.847  0.00  0.00     0.032 A 
ATOM     27  C23 ZIN A   1      19.097   1.723   6.823  0.00  0.00     0.003 A 
ATOM     28  C22 ZIN A   1      18.949   1.397   8.160  0.00  0.00     0.007 A 
BRANCH  25  29
ATOM     29  N26 ZIN A   1      17.372  -1.099   5.223  0.00  0.00    -0.159 NA
BRANCH  29  30
ATOM     30  S27 ZIN A   1      18.240  -2.405   4.694  0.00  0.00     0.301 S 
ATOM     31  O28 ZIN A   1      17.370  -3.154   3.857  0.00  0.00    -0.197 OA
ATOM     32  O29 ZIN A   1      19.497  -1.903   4.259  0.00  0.00    -0.197 OA
BRANCH  30  33
ATOM     33  C30 ZIN A   1      18.569  -3.417   6.099  0.00  0.00     0.173 A 
ATOM     34  N39 ZIN A   1      17.621  -4.202   6.574  0.00  0.00    -0.247 NA
ATOM     35  C38 ZIN A   1      17.823  -4.979   7.620  0.00  0.00     0.134 A 
ATOM     36  C33 ZIN A   1      19.043  -4.988   8.268  0.00  0.00     0.065 A 
ATOM     37  C32 ZIN A   1      20.062  -4.172   7.802  0.00  0.00     0.021 A 
ATOM     38  C31 ZIN A   1      19.815  -3.372   6.696  0.00  0.00     0.047 A 
BRANCH  36  39
ATOM     39  C34 ZIN A   1      19.264  -5.875   9.467  0.00  0.00     0.418 C 
ATOM     40  F35 ZIN A   1      19.718  -5.102  10.540  0.00  0.00    -0.166 F 
ATOM     41  F36 ZIN A   1      18.059  -6.496   9.816  0.00  0.00    -0.166 F 
ATOM     42  F37 ZIN A   1      20.218  -6.850   9.157  0.00  0.00    -0.166 F 
ENDBRANCH  36  39
ENDBRANCH  30  33
ENDBRANCH  29  30
ENDBRANCH  25  29
ENDBRANCH   1  23
TORSDOF 12
ENDMDL
MODEL 6
REMARK VINA RESULT:      -8.6      3.451      7.569
REMARK  12 active torsions:
REMARK  status: ('A' for Active; 'I' for Inactive)
REMARK    1  A    between atoms: C2_2  and  C3_3 
REMARK    2  A    between atoms: C3_3  and  C4_4 
REMARK    3  A    between atoms: C4_4  and  C5_5 
REMARK    4  A    between atoms: C5_5  and  C6_6 
REMARK    5  A    between atoms: C6_6  and  C7_7 
REMARK    6  A    between atoms: C16_16  and  C17_17 
REMARK    7  A    between atoms: C17_17  and  C19_18 
REMARK    8  A    between atoms: C17_17  and  C21_20 
REMARK    9  A    between atoms: C25_24  and  N26_25 
REMARK   10  A    between atoms: N26_25  and  S27_26 
REMARK   11  A    between atoms: S27_26  and  C30_29 
REMARK   12  A    between atoms: C33_32  and  C34_33 
ROOT
ATOM      1  C17 ZIN A   1      18.974  -2.718  12.049  0.00  0.00     0.039 C 
ENDROOT
BRANCH   1   2
ATOM      2  C16 ZIN A   1      18.789  -1.229  11.747  0.00  0.00     0.163 C 
ATOM      3  C14 ZIN A   1      19.824  -0.416  12.502  0.00  0.00     0.144 C 
ATOM      4  C13 ZIN A   1      19.615  -0.232  13.992  0.00  0.00     0.118 C 
ATOM      5  O15 ZIN A   1      20.778   0.065  11.939  0.00  0.00    -0.297 OA
ATOM      6  C4  ZIN A   1      18.189   0.282  14.220  0.00  0.00     0.077 C 
ATOM      7  O43 ZIN A   1      17.246  -0.602  13.551  0.00  0.00    -0.309 OA
ATOM      8  C41 ZIN A   1      17.426  -0.771  12.224  0.00  0.00     0.271 C 
ATOM      9  O42 ZIN A   1      16.528  -0.564  11.443  0.00  0.00    -0.264 OA
BRANCH   6  10
ATOM     10  C3  ZIN A   1      17.889   0.305  15.721  0.00  0.00     0.038 C 
BRANCH  10  11
ATOM     11  C2  ZIN A   1      18.582  -0.879  16.399  0.00  0.00    -0.002 C 
ATOM     12  C1  ZIN A   1      19.152  -0.432  17.746  0.00  0.00     0.005 C 
ENDBRANCH  10  11
ENDBRANCH   6  10
BRANCH   6  13
ATOM     13  C5  ZIN A   1      18.057   1.695  13.651  0.00  0.00     0.043 C 
BRANCH  13  14
ATOM     14  C6  ZIN A   1      18.421   2.716  14.732  0.00  0.00     0.041 C 
BRANCH  14  15
ATOM     15  C7  ZIN A   1      17.827   4.055  14.378  0.00  0.00    -0.058 A 
ATOM     16  C12 ZIN A   1      17.647   5.012  15.360  0.00  0.00     0.007 A 
ATOM     17  C11 ZIN A   1      17.106   6.242  15.035  0.00  0.00     0.001 A 
ATOM     18  C10 ZIN A   1      16.737   6.512  13.732  0.00  0.00     0.000 A 
ATOM     19  C9  ZIN A   1      16.912   5.554  12.750  0.00  0.00     0.001 A 
ATOM     20  C8  ZIN A   1      17.456   4.325  13.074  0.00  0.00     0.007 A 
ENDBRANCH  14  15
ENDBRANCH  13  14
ENDBRANCH   6  13
ENDBRANCH   1   2
BRANCH   1  21
ATOM     21  C19 ZIN A   1      20.446  -3.095  11.868  0.00  0.00     0.006 C 
ATOM     22  C20 ZIN A   1      20.551  -4.577  11.503  0.00  0.00     0.006 C 
ENDBRANCH   1  21
BRANCH   1  23
ATOM     23  C21 ZIN A   1      18.128  -3.530  11.103  0.00  0.00    -0.051 A 
ATOM     24  C40 ZIN A   1      18.250  -3.347   9.739  0.00  0.00     0.040 A 
ATOM     25  C25 ZIN A   1      17.475  -4.101   8.867  0.00  0.00     0.070 A 
ATOM     26  C24 ZIN A   1      16.572  -5.028   9.370  0.00  0.00     0.032 A 
ATOM     27  C23 ZIN A   1      16.451  -5.203  10.734  0.00  0.00     0.003 A 
ATOM     28  C22 ZIN A   1      17.228  -4.454  11.600  0.00  0.00     0.007 A 
BRANCH  25  29
ATOM     29  N26 ZIN A   1      17.600  -3.922   7.487  0.00  0.00    -0.159 NA
BRANCH  29  30
ATOM     30  S27 ZIN A   1      18.821  -2.983   6.881  0.00  0.00     0.301 S 
ATOM     31  O28 ZIN A   1      20.036  -3.571   7.323  0.00  0.00    -0.197 OA
ATOM     32  O29 ZIN A   1      18.517  -2.764   5.510  0.00  0.00    -0.197 OA
BRANCH  30  33
ATOM     33  C30 ZIN A   1      18.713  -1.412   7.672  0.00  0.00     0.173 A 
ATOM     34  N39 ZIN A   1      19.793  -0.874   8.204  0.00  0.00    -0.247 NA
ATOM     35  C38 ZIN A   1      19.760   0.301   8.801  0.00  0.00     0.134 A 
ATOM     36  C33 ZIN A   1      18.579   1.010   8.902  0.00  0.00     0.065 A 
ATOM     37  C32 ZIN A   1      17.421   0.474   8.360  0.00  0.00     0.021 A 
ATOM     38  C31 ZIN A   1      17.495  -0.762   7.734  0.00  0.00     0.047 A 
BRANCH  36  39
ATOM     39  C34 ZIN A   1      18.548   2.350   9.592  0.00  0.00     0.418 C 
ATOM     40  F35 ZIN A   1      18.585   3.368   8.633  0.00  0.00    -0.166 F 
ATOM     41  F36 ZIN A   1      17.374   2.460  10.344  0.00  0.00    -0.166 F 
ATOM     42  F37 ZIN A   1      19.657   2.465  10.437  0.00  0.00    -0.166 F 
ENDBRANCH  36  39
ENDBRANCH  30  33
ENDBRANCH  29  30
ENDBRANCH  25  29
ENDBRANCH   1  23
TORSDOF 12
ENDMDL
MODEL 7
REMARK VINA RESULT:      -8.6      2.689      4.752
REMARK  12 active torsions:
REMARK  status: ('A' for Active; 'I' for Inactive)
REMARK    1  A    between atoms: C2_2  and  C3_3 
REMARK    2  A    between atoms: C3_3  and  C4_4 
REMARK    3  A    between atoms: C4_4  and  C5_5 
REMARK    4  A    between atoms: C5_5  and  C6_6 
REMARK    5  A    between atoms: C6_6  and  C7_7 
REMARK    6  A    between atoms: C16_16  and  C17_17 
REMARK    7  A    between atoms: C17_17  and  C19_18 
REMARK    8  A    between atoms: C17_17  and  C21_20 
REMARK    9  A    between atoms: C25_24  and  N26_25 
REMARK   10  A    between atoms: N26_25  and  S27_26 
REMARK   11  A    between atoms: S27_26  and  C30_29 
REMARK   12  A    between atoms: C33_32  and  C34_33 
ROOT
ATOM      1  C17 ZIN A   1      18.067   3.290  11.368  0.00  0.00     0.039 C 
ENDROOT
BRANCH   1   2
ATOM      2  C16 ZIN A   1      19.170   2.527  10.631  0.00  0.00     0.163 C 
ATOM      3  C14 ZIN A   1      18.650   2.028   9.296  0.00  0.00     0.144 C 
ATOM      4  C13 ZIN A   1      17.714   0.837   9.314  0.00  0.00     0.118 C 
ATOM      5  O15 ZIN A   1      18.968   2.560   8.260  0.00  0.00    -0.297 OA
ATOM      6  C4  ZIN A   1      18.366  -0.278  10.141  0.00  0.00     0.077 C 
ATOM      7  O43 ZIN A   1      18.747   0.249  11.442  0.00  0.00    -0.309 OA
ATOM      8  C41 ZIN A   1      19.581   1.310  11.435  0.00  0.00     0.271 C 
ATOM      9  O42 ZIN A   1      20.621   1.291  12.049  0.00  0.00    -0.264 OA
BRANCH   6  10
ATOM     10  C3  ZIN A   1      17.369  -1.425  10.327  0.00  0.00     0.038 C 
BRANCH  10  11
ATOM     11  C2  ZIN A   1      17.503  -1.992  11.742  0.00  0.00    -0.002 C 
ATOM     12  C1  ZIN A   1      17.550  -3.519  11.676  0.00  0.00     0.005 C 
ENDBRANCH  10  11
ENDBRANCH   6  10
BRANCH   6  13
ATOM     13  C5  ZIN A   1      19.608  -0.794   9.413  0.00  0.00     0.043 C 
BRANCH  13  14
ATOM     14  C6  ZIN A   1      19.274  -2.107   8.702  0.00  0.00     0.041 C 
BRANCH  14  15
ATOM     15  C7  ZIN A   1      19.210  -1.871   7.215  0.00  0.00    -0.058 A 
ATOM     16  C12 ZIN A   1      19.148  -2.946   6.347  0.00  0.00     0.007 A 
ATOM     17  C11 ZIN A   1      19.086  -2.729   4.983  0.00  0.00     0.001 A 
ATOM     18  C10 ZIN A   1      19.096  -1.440   4.487  0.00  0.00     0.000 A 
ATOM     19  C9  ZIN A   1      19.163  -0.365   5.354  0.00  0.00     0.001 A 
ATOM     20  C8  ZIN A   1      19.221  -0.581   6.718  0.00  0.00     0.007 A 
ENDBRANCH  14  15
ENDBRANCH  13  14
ENDBRANCH   6  13
ENDBRANCH   1   2
BRANCH   1  21
ATOM     21  C19 ZIN A   1      17.360   4.233  10.393  0.00  0.00     0.006 C 
ATOM     22  C20 ZIN A   1      16.377   5.120  11.161  0.00  0.00     0.006 C 
ENDBRANCH   1  21
BRANCH   1  23
ATOM     23  C21 ZIN A   1      18.674   4.092  12.490  0.00  0.00    -0.051 A 
ATOM     24  C40 ZIN A   1      18.090   4.076  13.742  0.00  0.00     0.040 A 
ATOM     25  C25 ZIN A   1      18.654   4.811  14.778  0.00  0.00     0.070 A 
ATOM     26  C24 ZIN A   1      19.796   5.568  14.548  0.00  0.00     0.032 A 
ATOM     27  C23 ZIN A   1      20.371   5.582  13.293  0.00  0.00     0.003 A 
ATOM     28  C22 ZIN A   1      19.811   4.846  12.264  0.00  0.00     0.007 A 
BRANCH  25  29
ATOM     29  N26 ZIN A   1      18.070   4.794  16.047  0.00  0.00    -0.159 NA
BRANCH  29  30
ATOM     30  S27 ZIN A   1      18.827   4.014  17.296  0.00  0.00     0.301 S 
ATOM     31  O28 ZIN A   1      20.214   4.286  17.156  0.00  0.00    -0.197 OA
ATOM     32  O29 ZIN A   1      18.088   4.325  18.470  0.00  0.00    -0.197 OA
BRANCH  30  33
ATOM     33  C30 ZIN A   1      18.630   2.284  17.027  0.00  0.00     0.173 A 
ATOM     34  N39 ZIN A   1      19.166   1.724  15.959  0.00  0.00    -0.247 NA
ATOM     35  C38 ZIN A   1      19.048   0.433  15.720  0.00  0.00     0.134 A 
ATOM     36  C33 ZIN A   1      18.342  -0.384  16.581  0.00  0.00     0.065 A 
ATOM     37  C32 ZIN A   1      17.759   0.169  17.711  0.00  0.00     0.021 A 
ATOM     38  C31 ZIN A   1      17.908   1.530  17.933  0.00  0.00     0.047 A 
BRANCH  36  39
ATOM     39  C34 ZIN A   1      18.207  -1.858  16.297  0.00  0.00     0.418 C 
ATOM     40  F35 ZIN A   1      18.210  -2.068  14.915  0.00  0.00    -0.166 F 
ATOM     41  F36 ZIN A   1      19.280  -2.544  16.876  0.00  0.00    -0.166 F 
ATOM     42  F37 ZIN A   1      17.006  -2.329  16.839  0.00  0.00    -0.166 F 
ENDBRANCH  36  39
ENDBRANCH  30  33
ENDBRANCH  29  30
ENDBRANCH  25  29
ENDBRANCH   1  23
TORSDOF 12
ENDMDL
MODEL 8
REMARK VINA RESULT:      -8.4      3.966      8.345
REMARK  12 active torsions:
REMARK  status: ('A' for Active; 'I' for Inactive)
REMARK    1  A    between atoms: C2_2  and  C3_3 
REMARK    2  A    between atoms: C3_3  and  C4_4 
REMARK    3  A    between atoms: C4_4  and  C5_5 
REMARK    4  A    between atoms: C5_5  and  C6_6 
REMARK    5  A    between atoms: C6_6  and  C7_7 
REMARK    6  A    between atoms: C16_16  and  C17_17 
REMARK    7  A    between atoms: C17_17  and  C19_18 
REMARK    8  A    between atoms: C17_17  and  C21_20 
REMARK    9  A    between atoms: C25_24  and  N26_25 
REMARK   10  A    between atoms: N26_25  and  S27_26 
REMARK   11  A    between atoms: S27_26  and  C30_29 
REMARK   12  A    between atoms: C33_32  and  C34_33 
ROOT
ATOM      1  C17 ZIN A   1      18.068  -2.168  12.314  0.00  0.00     0.039 C 
ENDROOT
BRANCH   1   2
ATOM      2  C16 ZIN A   1      17.933  -0.950  11.398  0.00  0.00     0.163 C 
ATOM      3  C14 ZIN A   1      19.272  -0.249  11.268  0.00  0.00     0.144 C 
ATOM      4  C13 ZIN A   1      19.743   0.577  12.447  0.00  0.00     0.118 C 
ATOM      5  O15 ZIN A   1      19.937  -0.346  10.265  0.00  0.00    -0.297 OA
ATOM      6  C4  ZIN A   1      18.617   1.539  12.846  0.00  0.00     0.077 C 
ATOM      7  O43 ZIN A   1      17.390   0.784  13.050  0.00  0.00    -0.309 OA
ATOM      8  C41 ZIN A   1      16.963   0.045  12.004  0.00  0.00     0.271 C 
ATOM      9  O42 ZIN A   1      15.845   0.173  11.565  0.00  0.00    -0.264 OA
BRANCH   6  10
ATOM     10  C3  ZIN A   1      18.995   2.258  14.143  0.00  0.00     0.038 C 
BRANCH  10  11
ATOM     11  C2  ZIN A   1      18.170   1.690  15.300  0.00  0.00    -0.002 C 
ATOM     12  C1  ZIN A   1      19.097   1.363  16.472  0.00  0.00     0.005 C 
ENDBRANCH  10  11
ENDBRANCH   6  10
BRANCH   6  13
ATOM     13  C5  ZIN A   1      18.406   2.567  11.734  0.00  0.00     0.043 C 
BRANCH  13  14
ATOM     14  C6  ZIN A   1      19.164   3.851  12.077  0.00  0.00     0.041 C 
BRANCH  14  15
ATOM     15  C7  ZIN A   1      18.237   4.811  12.776  0.00  0.00    -0.058 A 
ATOM     16  C12 ZIN A   1      18.716   5.619  13.790  0.00  0.00     0.007 A 
ATOM     17  C11 ZIN A   1      17.867   6.503  14.430  0.00  0.00     0.001 A 
ATOM     18  C10 ZIN A   1      16.536   6.571  14.062  0.00  0.00     0.000 A 
ATOM     19  C9  ZIN A   1      16.056   5.760  13.051  0.00  0.00     0.001 A 
ATOM     20  C8  ZIN A   1      16.906   4.879  12.409  0.00  0.00     0.007 A 
ENDBRANCH  14  15
ENDBRANCH  13  14
ENDBRANCH   6  13
ENDBRANCH   1   2
BRANCH   1  21
ATOM     21  C19 ZIN A   1      19.400  -2.096  13.064  0.00  0.00     0.006 C 
ATOM     22  C20 ZIN A   1      19.135  -1.889  14.557  0.00  0.00     0.006 C 
ENDBRANCH   1  21
BRANCH   1  23
ATOM     23  C21 ZIN A   1      18.026  -3.426  11.486  0.00  0.00    -0.051 A 
ATOM     24  C40 ZIN A   1      19.117  -3.780  10.715  0.00  0.00     0.040 A 
ATOM     25  C25 ZIN A   1      19.081  -4.944   9.956  0.00  0.00     0.070 A 
ATOM     26  C24 ZIN A   1      17.943  -5.741   9.967  0.00  0.00     0.032 A 
ATOM     27  C23 ZIN A   1      16.855  -5.379  10.736  0.00  0.00     0.003 A 
ATOM     28  C22 ZIN A   1      16.896  -4.223  11.495  0.00  0.00     0.007 A 
BRANCH  25  29
ATOM     29  N26 ZIN A   1      20.183  -5.307   9.180  0.00  0.00    -0.159 NA
BRANCH  29  30
ATOM     30  S27 ZIN A   1      20.003  -5.555   7.553  0.00  0.00     0.301 S 
ATOM     31  O28 ZIN A   1      21.302  -5.816   7.040  0.00  0.00    -0.197 OA
ATOM     32  O29 ZIN A   1      18.913  -6.454   7.402  0.00  0.00    -0.197 OA
BRANCH  30  33
ATOM     33  C30 ZIN A   1      19.488  -4.025   6.846  0.00  0.00     0.173 A 
ATOM     34  N39 ZIN A   1      19.696  -2.900   7.503  0.00  0.00    -0.247 NA
ATOM     35  C38 ZIN A   1      19.332  -1.733   7.011  0.00  0.00     0.134 A 
ATOM     36  C33 ZIN A   1      18.704  -1.647   5.784  0.00  0.00     0.065 A 
ATOM     37  C32 ZIN A   1      18.463  -2.808   5.065  0.00  0.00     0.021 A 
ATOM     38  C31 ZIN A   1      18.865  -4.018   5.612  0.00  0.00     0.047 A 
BRANCH  36  39
ATOM     39  C34 ZIN A   1      18.285  -0.309   5.231  0.00  0.00     0.418 C 
ATOM     40  F35 ZIN A   1      19.287   0.633   5.485  0.00  0.00    -0.166 F 
ATOM     41  F36 ZIN A   1      18.085  -0.417   3.850  0.00  0.00    -0.166 F 
ATOM     42  F37 ZIN A   1      17.096   0.098   5.845  0.00  0.00    -0.166 F 
ENDBRANCH  36  39
ENDBRANCH  30  33
ENDBRANCH  29  30
ENDBRANCH  25  29
ENDBRANCH   1  23
TORSDOF 12
ENDMDL
MODEL 9
REMARK VINA RESULT:      -8.3      2.947      4.800
REMARK  12 active torsions:
REMARK  status: ('A' for Active; 'I' for Inactive)
REMARK    1  A    between atoms: C2_2  and  C3_3 
REMARK    2  A    between atoms: C3_3  and  C4_4 
REMARK    3  A    between atoms: C4_4  and  C5_5 
REMARK    4  A    between atoms: C5_5  and  C6_6 
REMARK    5  A    between atoms: C6_6  and  C7_7 
REMARK    6  A    between atoms: C16_16  and  C17_17 
REMARK    7  A    between atoms: C17_17  and  C19_18 
REMARK    8  A    between atoms: C17_17  and  C21_20 
REMARK    9  A    between atoms: C25_24  and  N26_25 
REMARK   10  A    between atoms: N26_25  and  S27_26 
REMARK   11  A    between atoms: S27_26  and  C30_29 
REMARK   12  A    between atoms: C33_32  and  C34_33 
ROOT
ATOM      1  C17 ZIN A   1      19.077   1.516  10.632  0.00  0.00     0.039 C 
ENDROOT
BRANCH   1   2
ATOM      2  C16 ZIN A   1      18.196   0.704   9.680  0.00  0.00     0.163 C 
ATOM      3  C14 ZIN A   1      17.338  -0.267  10.470  0.00  0.00     0.144 C 
ATOM      4  C13 ZIN A   1      18.017  -1.497  11.034  0.00  0.00     0.118 C 
ATOM      5  O15 ZIN A   1      16.160  -0.066  10.642  0.00  0.00    -0.297 OA
ATOM      6  C4  ZIN A   1      18.788  -2.187   9.901  0.00  0.00     0.077 C 
ATOM      7  O43 ZIN A   1      19.661  -1.219   9.255  0.00  0.00    -0.309 OA
ATOM      8  C41 ZIN A   1      19.064  -0.120   8.750  0.00  0.00     0.271 C 
ATOM      9  O42 ZIN A   1      19.216   0.197   7.594  0.00  0.00    -0.264 OA
BRANCH   6  10
ATOM     10  C3  ZIN A   1      19.628  -3.329  10.477  0.00  0.00     0.038 C 
BRANCH  10  11
ATOM     11  C2  ZIN A   1      19.142  -3.658  11.890  0.00  0.00    -0.002 C 
ATOM     12  C1  ZIN A   1      18.312  -4.942  11.856  0.00  0.00     0.005 C 
ENDBRANCH  10  11
ENDBRANCH   6  10
BRANCH   6  13
ATOM     13  C5  ZIN A   1      17.799  -2.747   8.877  0.00  0.00     0.043 C 
BRANCH  13  14
ATOM     14  C6  ZIN A   1      18.382  -4.012   8.244  0.00  0.00     0.041 C 
BRANCH  14  15
ATOM     15  C7  ZIN A   1      18.327  -3.894   6.743  0.00  0.00    -0.058 A 
ATOM     16  C12 ZIN A   1      18.889  -2.798   6.115  0.00  0.00     0.007 A 
ATOM     17  C11 ZIN A   1      18.843  -2.691   4.738  0.00  0.00     0.001 A 
ATOM     18  C10 ZIN A   1      18.226  -3.675   3.989  0.00  0.00     0.000 A 
ATOM     19  C9  ZIN A   1      17.659  -4.769   4.617  0.00  0.00     0.001 A 
ATOM     20  C8  ZIN A   1      17.709  -4.878   5.994  0.00  0.00     0.007 A 
ENDBRANCH  14  15
ENDBRANCH  13  14
ENDBRANCH   6  13
ENDBRANCH   1   2
BRANCH   1  21
ATOM     21  C19 ZIN A   1      19.274   0.735  11.933  0.00  0.00     0.006 C 
ATOM     22  C20 ZIN A   1      20.770   0.586  12.217  0.00  0.00     0.006 C 
ENDBRANCH   1  21
BRANCH   1  23
ATOM     23  C21 ZIN A   1      18.410   2.833  10.933  0.00  0.00    -0.051 A 
ATOM     24  C40 ZIN A   1      18.087   3.159  12.236  0.00  0.00     0.040 A 
ATOM     25  C25 ZIN A   1      17.478   4.376  12.515  0.00  0.00     0.070 A 
ATOM     26  C24 ZIN A   1      17.186   5.256  11.481  0.00  0.00     0.032 A 
ATOM     27  C23 ZIN A   1      17.508   4.922  10.180  0.00  0.00     0.003 A 
ATOM     28  C22 ZIN A   1      18.120   3.712   9.906  0.00  0.00     0.007 A 
BRANCH  25  29
ATOM     29  N26 ZIN A   1      17.154   4.711  13.832  0.00  0.00    -0.159 NA
BRANCH  29  30
ATOM     30  S27 ZIN A   1      18.324   4.692  15.002  0.00  0.00     0.301 S 
ATOM     31  O28 ZIN A   1      19.555   4.954  14.344  0.00  0.00    -0.197 OA
ATOM     32  O29 ZIN A   1      17.832   5.483  16.076  0.00  0.00    -0.197 OA
BRANCH  30  33
ATOM     33  C30 ZIN A   1      18.428   3.041  15.609  0.00  0.00     0.173 A 
ATOM     34  N39 ZIN A   1      19.144   2.785  16.687  0.00  0.00    -0.247 NA
ATOM     35  C38 ZIN A   1      19.246   1.566  17.179  0.00  0.00     0.134 A 
ATOM     36  C33 ZIN A   1      18.610   0.502  16.570  0.00  0.00     0.065 A 
ATOM     37  C32 ZIN A   1      17.852   0.730  15.432  0.00  0.00     0.021 A 
ATOM     38  C31 ZIN A   1      17.763   2.026  14.946  0.00  0.00     0.047 A 
BRANCH  36  39
ATOM     39  C34 ZIN A   1      18.737  -0.889  17.136  0.00  0.00     0.418 C 
ATOM     40  F35 ZIN A   1      19.216  -0.816  18.447  0.00  0.00    -0.166 F 
ATOM     41  F36 ZIN A   1      17.482  -1.510  17.131  0.00  0.00    -0.166 F 
ATOM     42  F37 ZIN A   1      19.627  -1.631  16.353  0.00  0.00    -0.166 F 
ENDBRANCH  36  39
ENDBRANCH  30  33
ENDBRANCH  29  30
ENDBRANCH  25  29
ENDBRANCH   1  23
TORSDOF 12
ENDMDL
