MODEL 1
REMARK VINA RESULT:      -9.2      0.000      0.000
REMARK  13 active torsions:
REMARK  status: ('A' for Active; 'I' for Inactive)
REMARK    1  A    between atoms: C2_2  and  C3_3 
REMARK    2  A    between atoms: C3_3  and  C5_4 
REMARK    3  A    between atoms: C3_3  and  N9_7 
REMARK    4  A    between atoms: C5_4  and  O8_6 
REMARK    5  A    between atoms: N12_10  and  C13_11 
REMARK    6  A    between atoms: C16_14  and  N17_15 
REMARK    7  A    between atoms: N20_18  and  C21_19 
REMARK    8  A    between atoms: C24_22  and  O25_23 
REMARK    9  A    between atoms: O25_23  and  C26_24 
REMARK   10  A    between atoms: C26_24  and  C27_25 
REMARK   11  A    between atoms: C31_28  and  C32_29 
REMARK   12  A    between atoms: C31_28  and  C38_35 
REMARK   13  A    between atoms: C32_29  and  N33_30 
ROOT
ATOM      1  C21 ZIN A   1      18.501  -2.742  12.080  0.00  0.00     0.010 A 
ATOM      2  C22 ZIN A   1      19.778  -3.212  11.807  0.00  0.00     0.026 A 
ATOM      3  C23 ZIN A   1      19.951  -4.302  10.976  0.00  0.00     0.038 A 
ATOM      4  C24 ZIN A   1      18.848  -4.927  10.414  0.00  0.00     0.068 A 
ATOM      5  C47 ZIN A   1      17.571  -4.459  10.685  0.00  0.00     0.038 A 
ATOM      6  C48 ZIN A   1      17.396  -3.373  11.520  0.00  0.00     0.026 A 
ENDROOT
BRANCH   1   7
ATOM      7  N20 ZIN A   1      18.325  -1.639  12.922  0.00  0.00    -0.281 NA
ATOM      8  C19 ZIN A   1      17.645  -0.542  12.219  0.00  0.00     0.110 C 
ATOM      9  C18 ZIN A   1      17.401   0.612  13.194  0.00  0.00     0.110 C 
ATOM     10  N17 ZIN A   1      18.685   1.062  13.749  0.00  0.00    -0.281 NA
ATOM     11  C50 ZIN A   1      19.365  -0.035  14.453  0.00  0.00     0.110 C 
ATOM     12  C49 ZIN A   1      19.609  -1.190  13.477  0.00  0.00     0.110 C 
BRANCH  10  13
ATOM     13  C16 ZIN A   1      18.509   2.164  14.591  0.00  0.00     0.010 A 
ATOM     14  C15 ZIN A   1      18.949   2.110  15.907  0.00  0.00     0.026 A 
ATOM     15  C14 ZIN A   1      18.775   3.199  16.738  0.00  0.00     0.032 A 
ATOM     16  C13 ZIN A   1      18.159   4.346  16.259  0.00  0.00     0.045 A 
ATOM     17  C52 ZIN A   1      17.713   4.398  14.945  0.00  0.00     0.032 A 
ATOM     18  C51 ZIN A   1      17.892   3.312  14.111  0.00  0.00     0.026 A 
BRANCH  16  19
ATOM     19  N12 ZIN A   1      17.980   5.453  17.104  0.00  0.00    -0.256 N 
ATOM     20  C11 ZIN A   1      18.476   6.717  16.892  0.00  0.00     0.242 A 
ATOM     21  N10 ZIN A   1      18.114   7.478  17.875  0.00  0.00    -0.162 NA
ATOM     22  N9  ZIN A   1      17.357   6.706  18.768  0.00  0.00    -0.211 N 
ATOM     23  C53 ZIN A   1      17.297   5.455  18.266  0.00  0.00     0.351 A 
ATOM     24  O54 ZIN A   1      16.723   4.504  18.769  0.00  0.00    -0.244 OA
BRANCH  22  25
ATOM     25  C3  ZIN A   1      16.751   7.172  20.018  0.00  0.00     0.143 C 
BRANCH  25  26
ATOM     26  C2  ZIN A   1      17.612   8.283  20.620  0.00  0.00     0.025 C 
ATOM     27  C1  ZIN A   1      18.875   7.675  21.233  0.00  0.00     0.007 C 
ENDBRANCH  25  26
BRANCH  25  28
ATOM     28  C5  ZIN A   1      15.347   7.709  19.734  0.00  0.00     0.139 C 
ATOM     29  C7  ZIN A   1      14.312   6.829  20.437  0.00  0.00     0.041 C 
BRANCH  28  30
ATOM     30  O8  ZIN A   1      15.107   7.695  18.325  0.00  0.00    -0.394 OA
ATOM     31  H63 ZIN A   1      14.906   8.563  17.952  0.00  0.00     0.210 HD
ENDBRANCH  28  30
ENDBRANCH  25  28
ENDBRANCH  22  25
ENDBRANCH  16  19
ENDBRANCH  10  13
ENDBRANCH   1   7
BRANCH   4  32
ATOM     32  O25 ZIN A   1      19.019  -5.999   9.596  0.00  0.00    -0.351 OA
BRANCH  32  33
ATOM     33  C26 ZIN A   1      19.985  -5.871   8.550  0.00  0.00     0.182 C 
BRANCH  33  34
ATOM     34  C27 ZIN A   1      19.304  -5.335   7.289  0.00  0.00     0.037 C 
ATOM     35  C46 ZIN A   1      19.977  -4.022   6.805  0.00  0.00     0.054 C 
ATOM     36  C31 ZIN A   1      18.813  -3.304   6.086  0.00  0.00     0.109 C 
ATOM     37  O30 ZIN A   1      17.589  -3.854   6.588  0.00  0.00    -0.373 OA
ATOM     38  C29 ZIN A   1      17.870  -4.836   7.598  0.00  0.00     0.176 C 
BRANCH  36  39
ATOM     39  C32 ZIN A   1      18.909  -3.543   4.578  0.00  0.00     0.195 C 
BRANCH  39  40
ATOM     40  N33 ZIN A   1      17.622  -4.032   4.079  0.00  0.00    -0.259 N 
ATOM     41  N37 ZIN A   1      17.209  -5.371   3.985  0.00  0.00    -0.165 NA
ATOM     42  C36 ZIN A   1      15.999  -5.360   3.491  0.00  0.00     0.256 A 
ATOM     43  N35 ZIN A   1      15.636  -4.098   3.264  0.00  0.00    -0.234 NA
ATOM     44  C34 ZIN A   1      16.603  -3.289   3.613  0.00  0.00     0.230 A 
ENDBRANCH  39  40
ENDBRANCH  36  39
BRANCH  36  45
ATOM     45  C38 ZIN A   1      18.865  -1.826   6.375  0.00  0.00     0.017 A 
ATOM     46  C44 ZIN A   1      19.005  -1.380   7.679  0.00  0.00     0.128 A 
ATOM     47  C43 ZIN A   1      19.059  -0.022   7.943  0.00  0.00     0.085 A 
ATOM     48  F45 ZIN A   1      19.099  -2.270   8.691  0.00  0.00    -0.205 F 
ATOM     49  C41 ZIN A   1      18.962   0.889   6.905  0.00  0.00     0.119 A 
ATOM     50  C40 ZIN A   1      18.817   0.441   5.603  0.00  0.00     0.043 A 
ATOM     51  F42 ZIN A   1      19.008   2.214   7.162  0.00  0.00    -0.206 F 
ATOM     52  C39 ZIN A   1      18.768  -0.916   5.339  0.00  0.00     0.016 A 
ENDBRANCH  36  45
ENDBRANCH  33  34
ENDBRANCH  32  33
ENDBRANCH   4  32
TORSDOF 13
ENDMDL
MODEL 2
REMARK VINA RESULT:      -9.2      2.416      3.508
REMARK  13 active torsions:
REMARK  status: ('A' for Active; 'I' for Inactive)
REMARK    1  A    between atoms: C2_2  and  C3_3 
REMARK    2  A    between atoms: C3_3  and  C5_4 
REMARK    3  A    between atoms: C3_3  and  N9_7 
REMARK    4  A    between atoms: C5_4  and  O8_6 
REMARK    5  A    between atoms: N12_10  and  C13_11 
REMARK    6  A    between atoms: C16_14  and  N17_15 
REMARK    7  A    between atoms: N20_18  and  C21_19 
REMARK    8  A    between atoms: C24_22  and  O25_23 
REMARK    9  A    between atoms: O25_23  and  C26_24 
REMARK   10  A    between atoms: C26_24  and  C27_25 
REMARK   11  A    between atoms: C31_28  and  C32_29 
REMARK   12  A    between atoms: C31_28  and  C38_35 
REMARK   13  A    between atoms: C32_29  and  N33_30 
ROOT
ATOM      1  C21 ZIN A   1      18.565  -3.838  10.109  0.00  0.00     0.010 A 
ATOM      2  C22 ZIN A   1      19.667  -4.563   9.677  0.00  0.00     0.026 A 
ATOM      3  C23 ZIN A   1      19.490  -5.760   9.011  0.00  0.00     0.038 A 
ATOM      4  C24 ZIN A   1      18.209  -6.238   8.774  0.00  0.00     0.068 A 
ATOM      5  C47 ZIN A   1      17.106  -5.515   9.205  0.00  0.00     0.038 A 
ATOM      6  C48 ZIN A   1      17.283  -4.321   9.876  0.00  0.00     0.026 A 
ENDROOT
BRANCH   1   7
ATOM      7  N20 ZIN A   1      18.745  -2.626  10.784  0.00  0.00    -0.281 NA
ATOM      8  C19 ZIN A   1      17.502  -2.202  11.445  0.00  0.00     0.110 C 
ATOM      9  C18 ZIN A   1      17.761  -0.918  12.236  0.00  0.00     0.110 C 
ATOM     10  N17 ZIN A   1      18.253   0.125  11.326  0.00  0.00    -0.281 NA
ATOM     11  C50 ZIN A   1      19.496  -0.299  10.666  0.00  0.00     0.110 C 
ATOM     12  C49 ZIN A   1      19.237  -1.584   9.874  0.00  0.00     0.110 C 
BRANCH  10  13
ATOM     13  C16 ZIN A   1      18.433   1.337  12.002  0.00  0.00     0.010 A 
ATOM     14  C15 ZIN A   1      18.384   2.536  11.303  0.00  0.00     0.026 A 
ATOM     15  C14 ZIN A   1      18.561   3.731  11.971  0.00  0.00     0.032 A 
ATOM     16  C13 ZIN A   1      18.790   3.734  13.339  0.00  0.00     0.045 A 
ATOM     17  C52 ZIN A   1      18.845   2.535  14.038  0.00  0.00     0.032 A 
ATOM     18  C51 ZIN A   1      18.661   1.340  13.371  0.00  0.00     0.026 A 
BRANCH  16  19
ATOM     19  N12 ZIN A   1      18.972   4.949  14.018  0.00  0.00    -0.256 N 
ATOM     20  C11 ZIN A   1      20.162   5.622  14.162  0.00  0.00     0.242 A 
ATOM     21  N10 ZIN A   1      19.952   6.701  14.845  0.00  0.00    -0.162 NA
ATOM     22  N9  ZIN A   1      18.589   6.754  15.169  0.00  0.00    -0.211 N 
ATOM     23  C53 ZIN A   1      18.009   5.653  14.649  0.00  0.00     0.351 A 
ATOM     24  O54 ZIN A   1      16.830   5.352  14.728  0.00  0.00    -0.244 OA
BRANCH  22  25
ATOM     25  C3  ZIN A   1      17.920   7.808  15.936  0.00  0.00     0.143 C 
BRANCH  25  26
ATOM     26  C2  ZIN A   1      16.736   8.351  15.134  0.00  0.00     0.025 C 
ATOM     27  C1  ZIN A   1      17.203   9.520  14.264  0.00  0.00     0.007 C 
ENDBRANCH  25  26
BRANCH  25  28
ATOM     28  C5  ZIN A   1      17.418   7.232  17.262  0.00  0.00     0.139 C 
ATOM     29  C7  ZIN A   1      16.827   8.356  18.115  0.00  0.00     0.041 C 
BRANCH  28  30
ATOM     30  O8  ZIN A   1      18.508   6.626  17.961  0.00  0.00    -0.394 OA
ATOM     31  H63 ZIN A   1      18.276   6.295  18.838  0.00  0.00     0.210 HD
ENDBRANCH  28  30
ENDBRANCH  25  28
ENDBRANCH  22  25
ENDBRANCH  16  19
ENDBRANCH  10  13
ENDBRANCH   1   7
BRANCH   4  32
ATOM     32  O25 ZIN A   1      18.034  -7.416   8.118  0.00  0.00    -0.351 OA
BRANCH  32  33
ATOM     33  C26 ZIN A   1      16.715  -7.710   7.652  0.00  0.00     0.182 C 
BRANCH  33  34
ATOM     34  C27 ZIN A   1      16.566  -7.230   6.206  0.00  0.00     0.037 C 
ATOM     35  C46 ZIN A   1      17.795  -6.389   5.767  0.00  0.00     0.054 C 
ATOM     36  C31 ZIN A   1      17.187  -5.453   4.699  0.00  0.00     0.109 C 
ATOM     37  O30 ZIN A   1      15.774  -5.395   4.928  0.00  0.00    -0.373 OA
ATOM     38  C29 ZIN A   1      15.431  -6.182   6.080  0.00  0.00     0.176 C 
BRANCH  36  39
ATOM     39  C32 ZIN A   1      17.463  -6.014   3.302  0.00  0.00     0.195 C 
BRANCH  39  40
ATOM     40  N33 ZIN A   1      16.229  -6.575   2.749  0.00  0.00    -0.259 N 
ATOM     41  N37 ZIN A   1      15.743  -7.880   2.928  0.00  0.00    -0.165 NA
ATOM     42  C36 ZIN A   1      14.618  -7.960   2.268  0.00  0.00     0.256 A 
ATOM     43  N35 ZIN A   1      14.376  -6.787   1.683  0.00  0.00    -0.234 NA
ATOM     44  C34 ZIN A   1      15.338  -5.945   1.964  0.00  0.00     0.230 A 
ENDBRANCH  39  40
ENDBRANCH  36  39
BRANCH  36  45
ATOM     45  C38 ZIN A   1      17.782  -4.075   4.825  0.00  0.00     0.017 A 
ATOM     46  C44 ZIN A   1      17.257  -3.024   4.090  0.00  0.00     0.128 A 
ATOM     47  C43 ZIN A   1      17.801  -1.757   4.211  0.00  0.00     0.085 A 
ATOM     48  F45 ZIN A   1      16.208  -3.235   3.265  0.00  0.00    -0.205 F 
ATOM     49  C41 ZIN A   1      18.876  -1.543   5.056  0.00  0.00     0.119 A 
ATOM     50  C40 ZIN A   1      19.402  -2.595   5.786  0.00  0.00     0.043 A 
ATOM     51  F42 ZIN A   1      19.411  -0.308   5.170  0.00  0.00    -0.206 F 
ATOM     52  C39 ZIN A   1      18.855  -3.860   5.669  0.00  0.00     0.016 A 
ENDBRANCH  36  45
ENDBRANCH  33  34
ENDBRANCH  32  33
ENDBRANCH   4  32
TORSDOF 13
ENDMDL
MODEL 3
REMARK VINA RESULT:      -9.2      2.875      4.928
REMARK  13 active torsions:
REMARK  status: ('A' for Active; 'I' for Inactive)
REMARK    1  A    between atoms: C2_2  and  C3_3 
REMARK    2  A    between atoms: C3_3  and  C5_4 
REMARK    3  A    between atoms: C3_3  and  N9_7 
REMARK    4  A    between atoms: C5_4  and  O8_6 
REMARK    5  A    between atoms: N12_10  and  C13_11 
REMARK    6  A    between atoms: C16_14  and  N17_15 
REMARK    7  A    between atoms: N20_18  and  C21_19 
REMARK    8  A    between atoms: C24_22  and  O25_23 
REMARK    9  A    between atoms: O25_23  and  C26_24 
REMARK   10  A    between atoms: C26_24  and  C27_25 
REMARK   11  A    between atoms: C31_28  and  C32_29 
REMARK   12  A    between atoms: C31_28  and  C38_35 
REMARK   13  A    between atoms: C32_29  and  N33_30 
ROOT
ATOM      1  C21 ZIN A   1      18.115  -0.501   7.093  0.00  0.00     0.010 A 
ATOM      2  C22 ZIN A   1      18.847  -1.667   7.266  0.00  0.00     0.026 A 
ATOM      3  C23 ZIN A   1      18.911  -2.601   6.250  0.00  0.00     0.038 A 
ATOM      4  C24 ZIN A   1      18.244  -2.371   5.056  0.00  0.00     0.068 A 
ATOM      5  C47 ZIN A   1      17.512  -1.206   4.881  0.00  0.00     0.038 A 
ATOM      6  C48 ZIN A   1      17.443  -0.275   5.899  0.00  0.00     0.026 A 
ENDROOT
BRANCH   1   7
ATOM      7  N20 ZIN A   1      18.049   0.444   8.123  0.00  0.00    -0.281 NA
ATOM      8  C19 ZIN A   1      19.349   1.101   8.319  0.00  0.00     0.110 C 
ATOM      9  C18 ZIN A   1      19.215   2.180   9.396  0.00  0.00     0.110 C 
ATOM     10  N17 ZIN A   1      18.745   1.566  10.646  0.00  0.00    -0.281 NA
ATOM     11  C50 ZIN A   1      17.444   0.910  10.450  0.00  0.00     0.110 C 
ATOM     12  C49 ZIN A   1      17.579  -0.170   9.372  0.00  0.00     0.110 C 
BRANCH  10  13
ATOM     13  C16 ZIN A   1      18.679   2.511  11.675  0.00  0.00     0.010 A 
ATOM     14  C15 ZIN A   1      18.904   2.123  12.989  0.00  0.00     0.026 A 
ATOM     15  C14 ZIN A   1      18.839   3.056  14.004  0.00  0.00     0.032 A 
ATOM     16  C13 ZIN A   1      18.548   4.381  13.712  0.00  0.00     0.045 A 
ATOM     17  C52 ZIN A   1      18.317   4.768  12.399  0.00  0.00     0.032 A 
ATOM     18  C51 ZIN A   1      18.388   3.836  11.382  0.00  0.00     0.026 A 
BRANCH  16  19
ATOM     19  N12 ZIN A   1      18.480   5.330  14.744  0.00  0.00    -0.256 N 
ATOM     20  C11 ZIN A   1      19.553   5.900  15.387  0.00  0.00     0.242 A 
ATOM     21  N10 ZIN A   1      19.114   6.728  16.280  0.00  0.00    -0.162 NA
ATOM     22  N9  ZIN A   1      17.712   6.712  16.237  0.00  0.00    -0.211 N 
ATOM     23  C53 ZIN A   1      17.349   5.833  15.281  0.00  0.00     0.351 A 
ATOM     24  O54 ZIN A   1      16.209   5.550  14.956  0.00  0.00    -0.244 OA
BRANCH  22  25
ATOM     25  C3  ZIN A   1      16.810   7.500  17.080  0.00  0.00     0.143 C 
BRANCH  25  26
ATOM     26  C2  ZIN A   1      17.283   7.436  18.534  0.00  0.00     0.025 C 
ATOM     27  C1  ZIN A   1      16.144   7.866  19.461  0.00  0.00     0.007 C 
ENDBRANCH  25  26
BRANCH  25  28
ATOM     28  C5  ZIN A   1      16.811   8.955  16.607  0.00  0.00     0.139 C 
ATOM     29  C7  ZIN A   1      15.890   9.097  15.394  0.00  0.00     0.041 C 
BRANCH  28  30
ATOM     30  O8  ZIN A   1      18.139   9.337  16.244  0.00  0.00    -0.394 OA
ATOM     31  H63 ZIN A   1      18.830   8.824  16.684  0.00  0.00     0.210 HD
ENDBRANCH  28  30
ENDBRANCH  25  28
ENDBRANCH  22  25
ENDBRANCH  16  19
ENDBRANCH  10  13
ENDBRANCH   1   7
BRANCH   4  32
ATOM     32  O25 ZIN A   1      18.307  -3.289   4.054  0.00  0.00    -0.351 OA
BRANCH  32  33
ATOM     33  C26 ZIN A   1      17.072  -3.860   3.617  0.00  0.00     0.182 C 
BRANCH  33  34
ATOM     34  C27 ZIN A   1      16.920  -5.262   4.209  0.00  0.00     0.037 C 
ATOM     35  C46 ZIN A   1      16.253  -5.208   5.610  0.00  0.00     0.054 C 
ATOM     36  C31 ZIN A   1      16.830  -6.467   6.296  0.00  0.00     0.109 C 
ATOM     37  O30 ZIN A   1      18.034  -6.821   5.606  0.00  0.00    -0.373 OA
ATOM     38  C29 ZIN A   1      18.301  -5.872   4.562  0.00  0.00     0.176 C 
BRANCH  36  39
ATOM     39  C32 ZIN A   1      15.822  -7.614   6.204  0.00  0.00     0.195 C 
BRANCH  39  40
ATOM     40  N33 ZIN A   1      16.465  -8.862   6.622  0.00  0.00    -0.259 N 
ATOM     41  N37 ZIN A   1      17.508  -9.534   5.964  0.00  0.00    -0.165 NA
ATOM     42  C36 ZIN A   1      17.780 -10.598   6.673  0.00  0.00     0.256 A 
ATOM     43  N35 ZIN A   1      16.967 -10.634   7.728  0.00  0.00    -0.234 NA
ATOM     44  C34 ZIN A   1      16.170  -9.596   7.710  0.00  0.00     0.230 A 
ENDBRANCH  39  40
ENDBRANCH  36  39
BRANCH  36  45
ATOM     45  C38 ZIN A   1      17.136  -6.169   7.741  0.00  0.00     0.017 A 
ATOM     46  C44 ZIN A   1      16.123  -5.765   8.595  0.00  0.00     0.128 A 
ATOM     47  C43 ZIN A   1      16.405  -5.497   9.923  0.00  0.00     0.085 A 
ATOM     48  F45 ZIN A   1      14.860  -5.642   8.132  0.00  0.00    -0.205 F 
ATOM     49  C41 ZIN A   1      17.699  -5.622  10.395  0.00  0.00     0.119 A 
ATOM     50  C40 ZIN A   1      18.712  -6.022   9.539  0.00  0.00     0.043 A 
ATOM     51  F42 ZIN A   1      17.977  -5.355  11.689  0.00  0.00    -0.206 F 
ATOM     52  C39 ZIN A   1      18.429  -6.294   8.213  0.00  0.00     0.016 A 
ENDBRANCH  36  45
ENDBRANCH  33  34
ENDBRANCH  32  33
ENDBRANCH   4  32
TORSDOF 13
ENDMDL
MODEL 4
REMARK VINA RESULT:      -9.0      2.960     13.112
REMARK  13 active torsions:
REMARK  status: ('A' for Active; 'I' for Inactive)
REMARK    1  A    between atoms: C2_2  and  C3_3 
REMARK    2  A    between atoms: C3_3  and  C5_4 
REMARK    3  A    between atoms: C3_3  and  N9_7 
REMARK    4  A    between atoms: C5_4  and  O8_6 
REMARK    5  A    between atoms: N12_10  and  C13_11 
REMARK    6  A    between atoms: C16_14  and  N17_15 
REMARK    7  A    between atoms: N20_18  and  C21_19 
REMARK    8  A    between atoms: C24_22  and  O25_23 
REMARK    9  A    between atoms: O25_23  and  C26_24 
REMARK   10  A    between atoms: C26_24  and  C27_25 
REMARK   11  A    between atoms: C31_28  and  C32_29 
REMARK   12  A    between atoms: C31_28  and  C38_35 
REMARK   13  A    between atoms: C32_29  and  N33_30 
ROOT
ATOM      1  C21 ZIN A   1      18.392   0.362  15.174  0.00  0.00     0.010 A 
ATOM      2  C22 ZIN A   1      19.230   1.439  14.919  0.00  0.00     0.026 A 
ATOM      3  C23 ZIN A   1      19.399   2.424  15.873  0.00  0.00     0.038 A 
ATOM      4  C24 ZIN A   1      18.732   2.336  17.086  0.00  0.00     0.068 A 
ATOM      5  C47 ZIN A   1      17.895   1.261  17.343  0.00  0.00     0.038 A 
ATOM      6  C48 ZIN A   1      17.720   0.278  16.387  0.00  0.00     0.026 A 
ENDROOT
BRANCH   1   7
ATOM      7  N20 ZIN A   1      18.219  -0.635  14.208  0.00  0.00    -0.281 NA
ATOM      8  C19 ZIN A   1      19.491  -1.312  13.917  0.00  0.00     0.110 C 
ATOM      9  C18 ZIN A   1      19.245  -2.445  12.917  0.00  0.00     0.110 C 
ATOM     10  N17 ZIN A   1      18.651  -1.894  11.691  0.00  0.00    -0.281 NA
ATOM     11  C50 ZIN A   1      17.379  -1.218  11.983  0.00  0.00     0.110 C 
ATOM     12  C49 ZIN A   1      17.626  -0.084  12.983  0.00  0.00     0.110 C 
BRANCH  10  13
ATOM     13  C16 ZIN A   1      18.478  -2.891  10.726  0.00  0.00     0.010 A 
ATOM     14  C15 ZIN A   1      18.853  -4.199  11.004  0.00  0.00     0.026 A 
ATOM     15  C14 ZIN A   1      18.682  -5.183  10.051  0.00  0.00     0.032 A 
ATOM     16  C13 ZIN A   1      18.137  -4.865   8.815  0.00  0.00     0.045 A 
ATOM     17  C52 ZIN A   1      17.768  -3.556   8.534  0.00  0.00     0.032 A 
ATOM     18  C51 ZIN A   1      17.933  -2.572   9.489  0.00  0.00     0.026 A 
BRANCH  16  19
ATOM     19  N12 ZIN A   1      17.965  -5.865   7.845  0.00  0.00    -0.256 N 
ATOM     20  C11 ZIN A   1      18.820  -6.132   6.802  0.00  0.00     0.242 A 
ATOM     21  N10 ZIN A   1      18.343  -7.118   6.112  0.00  0.00    -0.162 NA
ATOM     22  N9  ZIN A   1      17.138  -7.521   6.705  0.00  0.00    -0.211 N 
ATOM     23  C53 ZIN A   1      16.928  -6.723   7.772  0.00  0.00     0.351 A 
ATOM     24  O54 ZIN A   1      15.978  -6.774   8.534  0.00  0.00    -0.244 OA
BRANCH  22  25
ATOM     25  C3  ZIN A   1      16.266  -8.606   6.246  0.00  0.00     0.143 C 
BRANCH  25  26
ATOM     26  C2  ZIN A   1      16.181  -8.580   4.718  0.00  0.00     0.025 C 
ATOM     27  C1  ZIN A   1      15.051  -7.644   4.286  0.00  0.00     0.007 C 
ENDBRANCH  25  26
BRANCH  25  28
ATOM     28  C5  ZIN A   1      16.838  -9.949   6.704  0.00  0.00     0.139 C 
ATOM     29  C7  ZIN A   1      16.150 -10.381   7.999  0.00  0.00     0.041 C 
BRANCH  28  30
ATOM     30  O8  ZIN A   1      18.243  -9.815   6.932  0.00  0.00    -0.394 OA
ATOM     31  H63 ZIN A   1      18.478  -9.080   7.514  0.00  0.00     0.210 HD
ENDBRANCH  28  30
ENDBRANCH  25  28
ENDBRANCH  22  25
ENDBRANCH  16  19
ENDBRANCH  10  13
ENDBRANCH   1   7
BRANCH   4  32
ATOM     32  O25 ZIN A   1      18.900   3.305  18.025  0.00  0.00    -0.351 OA
BRANCH  32  33
ATOM     33  C26 ZIN A   1      17.786   4.165  18.277  0.00  0.00     0.182 C 
BRANCH  33  34
ATOM     34  C27 ZIN A   1      17.801   5.324  17.278  0.00  0.00     0.037 C 
ATOM     35  C46 ZIN A   1      17.206   4.890  15.910  0.00  0.00     0.054 C 
ATOM     36  C31 ZIN A   1      17.936   5.828  14.923  0.00  0.00     0.109 C 
ATOM     37  O30 ZIN A   1      19.132   6.287  15.567  0.00  0.00    -0.373 OA
ATOM     38  C29 ZIN A   1      19.250   5.689  16.867  0.00  0.00     0.176 C 
BRANCH  36  39
ATOM     39  C32 ZIN A   1      17.040   7.021  14.583  0.00  0.00     0.195 C 
BRANCH  39  40
ATOM     40  N33 ZIN A   1      15.666   6.732  14.999  0.00  0.00    -0.259 N 
ATOM     41  N37 ZIN A   1      15.042   7.141  16.189  0.00  0.00    -0.165 NA
ATOM     42  C36 ZIN A   1      13.823   6.672  16.159  0.00  0.00     0.256 A 
ATOM     43  N35 ZIN A   1      13.651   5.989  15.028  0.00  0.00    -0.234 NA
ATOM     44  C34 ZIN A   1      14.752   6.016  14.321  0.00  0.00     0.230 A 
ENDBRANCH  39  40
ENDBRANCH  36  39
BRANCH  36  45
ATOM     45  C38 ZIN A   1      18.288   5.077  13.666  0.00  0.00     0.017 A 
ATOM     46  C44 ZIN A   1      19.592   5.086  13.195  0.00  0.00     0.128 A 
ATOM     47  C43 ZIN A   1      19.915   4.391  12.043  0.00  0.00     0.085 A 
ATOM     48  F45 ZIN A   1      20.547   5.764  13.867  0.00  0.00    -0.205 F 
ATOM     49  C41 ZIN A   1      18.935   3.696  11.356  0.00  0.00     0.119 A 
ATOM     50  C40 ZIN A   1      17.632   3.692  11.825  0.00  0.00     0.043 A 
ATOM     51  F42 ZIN A   1      19.248   3.023  10.228  0.00  0.00    -0.206 F 
ATOM     52  C39 ZIN A   1      17.310   4.383  12.979  0.00  0.00     0.016 A 
ENDBRANCH  36  45
ENDBRANCH  33  34
ENDBRANCH  32  33
ENDBRANCH   4  32
TORSDOF 13
ENDMDL
MODEL 5
REMARK VINA RESULT:      -9.0      2.616      4.334
REMARK  13 active torsions:
REMARK  status: ('A' for Active; 'I' for Inactive)
REMARK    1  A    between atoms: C2_2  and  C3_3 
REMARK    2  A    between atoms: C3_3  and  C5_4 
REMARK    3  A    between atoms: C3_3  and  N9_7 
REMARK    4  A    between atoms: C5_4  and  O8_6 
REMARK    5  A    between atoms: N12_10  and  C13_11 
REMARK    6  A    between atoms: C16_14  and  N17_15 
REMARK    7  A    between atoms: N20_18  and  C21_19 
REMARK    8  A    between atoms: C24_22  and  O25_23 
REMARK    9  A    between atoms: O25_23  and  C26_24 
REMARK   10  A    between atoms: C26_24  and  C27_25 
REMARK   11  A    between atoms: C31_28  and  C32_29 
REMARK   12  A    between atoms: C31_28  and  C38_35 
REMARK   13  A    between atoms: C32_29  and  N33_30 
ROOT
ATOM      1  C21 ZIN A   1      18.258  -0.010   7.978  0.00  0.00     0.010 A 
ATOM      2  C22 ZIN A   1      19.255  -0.937   8.250  0.00  0.00     0.026 A 
ATOM      3  C23 ZIN A   1      19.541  -1.933   7.336  0.00  0.00     0.038 A 
ATOM      4  C24 ZIN A   1      18.831  -2.006   6.147  0.00  0.00     0.068 A 
ATOM      5  C47 ZIN A   1      17.834  -1.082   5.874  0.00  0.00     0.038 A 
ATOM      6  C48 ZIN A   1      17.544  -0.089   6.789  0.00  0.00     0.026 A 
ENDROOT
BRANCH   1   7
ATOM      7  N20 ZIN A   1      17.968   0.998   8.904  0.00  0.00    -0.281 NA
ATOM      8  C19 ZIN A   1      18.903   2.124   8.768  0.00  0.00     0.110 C 
ATOM      9  C18 ZIN A   1      18.504   3.236   9.741  0.00  0.00     0.110 C 
ATOM     10  N17 ZIN A   1      18.513   2.710  11.113  0.00  0.00    -0.281 NA
ATOM     11  C50 ZIN A   1      17.576   1.585  11.249  0.00  0.00     0.110 C 
ATOM     12  C49 ZIN A   1      17.976   0.473  10.276  0.00  0.00     0.110 C 
BRANCH  10  13
ATOM     13  C16 ZIN A   1      18.222   3.719  12.038  0.00  0.00     0.010 A 
ATOM     14  C15 ZIN A   1      17.040   4.438  11.931  0.00  0.00     0.026 A 
ATOM     15  C14 ZIN A   1      16.753   5.433  12.844  0.00  0.00     0.032 A 
ATOM     16  C13 ZIN A   1      17.647   5.715  13.868  0.00  0.00     0.045 A 
ATOM     17  C52 ZIN A   1      18.833   4.999  13.971  0.00  0.00     0.032 A 
ATOM     18  C51 ZIN A   1      19.117   3.999  13.061  0.00  0.00     0.026 A 
BRANCH  16  19
ATOM     19  N12 ZIN A   1      17.358   6.728  14.795  0.00  0.00    -0.256 N 
ATOM     20  C11 ZIN A   1      17.394   8.080  14.550  0.00  0.00     0.242 A 
ATOM     21  N10 ZIN A   1      17.070   8.710  15.633  0.00  0.00    -0.162 NA
ATOM     22  N9  ZIN A   1      16.810   7.758  16.630  0.00  0.00    -0.211 N 
ATOM     23  C53 ZIN A   1      17.002   6.541  16.083  0.00  0.00     0.351 A 
ATOM     24  O54 ZIN A   1      16.872   5.468  16.646  0.00  0.00    -0.244 OA
BRANCH  22  25
ATOM     25  C3  ZIN A   1      16.410   8.037  18.012  0.00  0.00     0.143 C 
BRANCH  25  26
ATOM     26  C2  ZIN A   1      15.025   7.442  18.272  0.00  0.00     0.025 C 
ATOM     27  C1  ZIN A   1      13.961   8.316  17.605  0.00  0.00     0.007 C 
ENDBRANCH  25  26
BRANCH  25  28
ATOM     28  C5  ZIN A   1      17.424   7.411  18.971  0.00  0.00     0.139 C 
ATOM     29  C7  ZIN A   1      16.689   6.549  19.999  0.00  0.00     0.041 C 
BRANCH  28  30
ATOM     30  O8  ZIN A   1      18.144   8.446  19.645  0.00  0.00    -0.394 OA
ATOM     31  H63 ZIN A   1      17.898   9.339  19.370  0.00  0.00     0.210 HD
ENDBRANCH  28  30
ENDBRANCH  25  28
ENDBRANCH  22  25
ENDBRANCH  16  19
ENDBRANCH  10  13
ENDBRANCH   1   7
BRANCH   4  32
ATOM     32  O25 ZIN A   1      19.113  -2.986   5.248  0.00  0.00    -0.351 OA
BRANCH  32  33
ATOM     33  C26 ZIN A   1      18.086  -3.948   4.992  0.00  0.00     0.182 C 
BRANCH  33  34
ATOM     34  C27 ZIN A   1      18.171  -5.072   6.027  0.00  0.00     0.037 C 
ATOM     35  C46 ZIN A   1      17.454  -4.674   7.345  0.00  0.00     0.054 C 
ATOM     36  C31 ZIN A   1      18.226  -5.498   8.399  0.00  0.00     0.109 C 
ATOM     37  O30 ZIN A   1      19.500  -5.835   7.837  0.00  0.00    -0.373 OA
ATOM     38  C29 ZIN A   1      19.627  -5.261   6.527  0.00  0.00     0.176 C 
BRANCH  36  39
ATOM     39  C32 ZIN A   1      17.450  -6.775   8.728  0.00  0.00     0.195 C 
BRANCH  39  40
ATOM     40  N33 ZIN A   1      16.070  -6.642   8.254  0.00  0.00    -0.259 N 
ATOM     41  N37 ZIN A   1      15.061  -5.843   8.814  0.00  0.00    -0.165 NA
ATOM     42  C36 ZIN A   1      13.991  -6.017   8.085  0.00  0.00     0.256 A 
ATOM     43  N35 ZIN A   1      14.269  -6.881   7.109  0.00  0.00    -0.234 NA
ATOM     44  C34 ZIN A   1      15.517  -7.265   7.199  0.00  0.00     0.230 A 
ENDBRANCH  39  40
ENDBRANCH  36  39
BRANCH  36  45
ATOM     45  C38 ZIN A   1      18.420  -4.680   9.650  0.00  0.00     0.017 A 
ATOM     46  C44 ZIN A   1      19.582  -4.814  10.392  0.00  0.00     0.128 A 
ATOM     47  C43 ZIN A   1      19.761  -4.057  11.538  0.00  0.00     0.085 A 
ATOM     48  F45 ZIN A   1      20.544  -5.673   9.991  0.00  0.00    -0.205 F 
ATOM     49  C41 ZIN A   1      18.774  -3.178  11.947  0.00  0.00     0.119 A 
ATOM     50  C40 ZIN A   1      17.611  -3.049  11.206  0.00  0.00     0.043 A 
ATOM     51  F42 ZIN A   1      18.945  -2.444  13.068  0.00  0.00    -0.206 F 
ATOM     52  C39 ZIN A   1      17.435  -3.801  10.060  0.00  0.00     0.016 A 
ENDBRANCH  36  45
ENDBRANCH  33  34
ENDBRANCH  32  33
ENDBRANCH   4  32
TORSDOF 13
ENDMDL
MODEL 6
REMARK VINA RESULT:      -8.7      3.272      5.460
REMARK  13 active torsions:
REMARK  status: ('A' for Active; 'I' for Inactive)
REMARK    1  A    between atoms: C2_2  and  C3_3 
REMARK    2  A    between atoms: C3_3  and  C5_4 
REMARK    3  A    between atoms: C3_3  and  N9_7 
REMARK    4  A    between atoms: C5_4  and  O8_6 
REMARK    5  A    between atoms: N12_10  and  C13_11 
REMARK    6  A    between atoms: C16_14  and  N17_15 
REMARK    7  A    between atoms: N20_18  and  C21_19 
REMARK    8  A    between atoms: C24_22  and  O25_23 
REMARK    9  A    between atoms: O25_23  and  C26_24 
REMARK   10  A    between atoms: C26_24  and  C27_25 
REMARK   11  A    between atoms: C31_28  and  C32_29 
REMARK   12  A    between atoms: C31_28  and  C38_35 
REMARK   13  A    between atoms: C32_29  and  N33_30 
ROOT
ATOM      1  C21 ZIN A   1      18.565  -1.391   6.455  0.00  0.00     0.010 A 
ATOM      2  C22 ZIN A   1      19.181  -2.634   6.433  0.00  0.00     0.026 A 
ATOM      3  C23 ZIN A   1      18.982  -3.486   5.363  0.00  0.00     0.038 A 
ATOM      4  C24 ZIN A   1      18.166  -3.097   4.311  0.00  0.00     0.068 A 
ATOM      5  C47 ZIN A   1      17.549  -1.855   4.331  0.00  0.00     0.038 A 
ATOM      6  C48 ZIN A   1      17.743  -1.005   5.403  0.00  0.00     0.026 A 
ENDROOT
BRANCH   1   7
ATOM      7  N20 ZIN A   1      18.765  -0.529   7.539  0.00  0.00    -0.281 NA
ATOM      8  C19 ZIN A   1      17.600  -0.530   8.435  0.00  0.00     0.110 C 
ATOM      9  C18 ZIN A   1      17.890   0.361   9.646  0.00  0.00     0.110 C 
ATOM     10  N17 ZIN A   1      18.198   1.723   9.187  0.00  0.00    -0.281 NA
ATOM     11  C50 ZIN A   1      19.364   1.723   8.292  0.00  0.00     0.110 C 
ATOM     12  C49 ZIN A   1      19.073   0.832   7.080  0.00  0.00     0.110 C 
BRANCH  10  13
ATOM     13  C16 ZIN A   1      18.398   2.584  10.271  0.00  0.00     0.010 A 
ATOM     14  C15 ZIN A   1      19.140   2.160  11.365  0.00  0.00     0.026 A 
ATOM     15  C14 ZIN A   1      19.338   3.010  12.435  0.00  0.00     0.032 A 
ATOM     16  C13 ZIN A   1      18.795   4.287  12.417  0.00  0.00     0.045 A 
ATOM     17  C52 ZIN A   1      18.048   4.709  11.325  0.00  0.00     0.032 A 
ATOM     18  C51 ZIN A   1      17.855   3.861  10.252  0.00  0.00     0.026 A 
BRANCH  16  19
ATOM     19  N12 ZIN A   1      18.994   5.151  13.505  0.00  0.00    -0.256 N 
ATOM     20  C11 ZIN A   1      20.169   5.790  13.822  0.00  0.00     0.242 A 
ATOM     21  N10 ZIN A   1      19.983   6.503  14.887  0.00  0.00    -0.162 NA
ATOM     22  N9  ZIN A   1      18.652   6.338  15.294  0.00  0.00    -0.211 N 
ATOM     23  C53 ZIN A   1      18.066   5.491  14.423  0.00  0.00     0.351 A 
ATOM     24  O54 ZIN A   1      16.909   5.109  14.455  0.00  0.00    -0.244 OA
BRANCH  22  25
ATOM     25  C3  ZIN A   1      18.016   6.965  16.456  0.00  0.00     0.143 C 
BRANCH  25  26
ATOM     26  C2  ZIN A   1      16.903   7.902  15.985  0.00  0.00     0.025 C 
ATOM     27  C1  ZIN A   1      17.367   9.354  16.118  0.00  0.00     0.007 C 
ENDBRANCH  25  26
BRANCH  25  28
ATOM     28  C5  ZIN A   1      17.425   5.882  17.360  0.00  0.00     0.139 C 
ATOM     29  C7  ZIN A   1      16.178   6.426  18.059  0.00  0.00     0.041 C 
BRANCH  28  30
ATOM     30  O8  ZIN A   1      18.392   5.500  18.340  0.00  0.00    -0.394 OA
ATOM     31  H63 ZIN A   1      19.306   5.679  18.081  0.00  0.00     0.210 HD
ENDBRANCH  28  30
ENDBRANCH  25  28
ENDBRANCH  22  25
ENDBRANCH  16  19
ENDBRANCH  10  13
ENDBRANCH   1   7
BRANCH   4  32
ATOM     32  O25 ZIN A   1      17.971  -3.934   3.258  0.00  0.00    -0.351 OA
BRANCH  32  33
ATOM     33  C26 ZIN A   1      16.617  -4.243   2.916  0.00  0.00     0.182 C 
BRANCH  33  34
ATOM     34  C27 ZIN A   1      16.255  -5.624   3.466  0.00  0.00     0.037 C 
ATOM     35  C46 ZIN A   1      15.664  -5.518   4.898  0.00  0.00     0.054 C 
ATOM     36  C31 ZIN A   1      16.048  -6.883   5.512  0.00  0.00     0.109 C 
ATOM     37  O30 ZIN A   1      17.147  -7.405   4.755  0.00  0.00    -0.373 OA
ATOM     38  C29 ZIN A   1      17.527  -6.470   3.733  0.00  0.00     0.176 C 
BRANCH  36  39
ATOM     39  C32 ZIN A   1      14.858  -7.841   5.429  0.00  0.00     0.195 C 
BRANCH  39  40
ATOM     40  N33 ZIN A   1      13.884  -7.500   6.468  0.00  0.00    -0.259 N 
ATOM     41  N37 ZIN A   1      13.217  -6.275   6.628  0.00  0.00    -0.165 NA
ATOM     42  C36 ZIN A   1      12.441  -6.400   7.672  0.00  0.00     0.256 A 
ATOM     43  N35 ZIN A   1      12.589  -7.624   8.177  0.00  0.00    -0.234 NA
ATOM     44  C34 ZIN A   1      13.454  -8.297   7.462  0.00  0.00     0.230 A 
ENDBRANCH  39  40
ENDBRANCH  36  39
BRANCH  36  45
ATOM     45  C38 ZIN A   1      16.459  -6.701   6.951  0.00  0.00     0.017 A 
ATOM     46  C44 ZIN A   1      16.870  -7.794   7.697  0.00  0.00     0.128 A 
ATOM     47  C43 ZIN A   1      17.252  -7.625   9.017  0.00  0.00     0.085 A 
ATOM     48  F45 ZIN A   1      16.906  -9.021   7.133  0.00  0.00    -0.205 F 
ATOM     49  C41 ZIN A   1      17.214  -6.367   9.592  0.00  0.00     0.119 A 
ATOM     50  C40 ZIN A   1      16.799  -5.277   8.846  0.00  0.00     0.043 A 
ATOM     51  F42 ZIN A   1      17.581  -6.202  10.881  0.00  0.00    -0.206 F 
ATOM     52  C39 ZIN A   1      16.421  -5.445   7.527  0.00  0.00     0.016 A 
ENDBRANCH  36  45
ENDBRANCH  33  34
ENDBRANCH  32  33
ENDBRANCH   4  32
TORSDOF 13
ENDMDL
MODEL 7
REMARK VINA RESULT:      -8.6      3.102     14.497
REMARK  13 active torsions:
REMARK  status: ('A' for Active; 'I' for Inactive)
REMARK    1  A    between atoms: C2_2  and  C3_3 
REMARK    2  A    between atoms: C3_3  and  C5_4 
REMARK    3  A    between atoms: C3_3  and  N9_7 
REMARK    4  A    between atoms: C5_4  and  O8_6 
REMARK    5  A    between atoms: N12_10  and  C13_11 
REMARK    6  A    between atoms: C16_14  and  N17_15 
REMARK    7  A    between atoms: N20_18  and  C21_19 
REMARK    8  A    between atoms: C24_22  and  O25_23 
REMARK    9  A    between atoms: O25_23  and  C26_24 
REMARK   10  A    between atoms: C26_24  and  C27_25 
REMARK   11  A    between atoms: C31_28  and  C32_29 
REMARK   12  A    between atoms: C31_28  and  C38_35 
REMARK   13  A    between atoms: C32_29  and  N33_30 
ROOT
ATOM      1  C21 ZIN A   1      18.800   2.301  10.171  0.00  0.00     0.010 A 
ATOM      2  C22 ZIN A   1      19.941   2.061  10.924  0.00  0.00     0.026 A 
ATOM      3  C23 ZIN A   1      20.319   2.953  11.910  0.00  0.00     0.038 A 
ATOM      4  C24 ZIN A   1      19.557   4.087  12.146  0.00  0.00     0.068 A 
ATOM      5  C47 ZIN A   1      18.416   4.329  11.395  0.00  0.00     0.038 A 
ATOM      6  C48 ZIN A   1      18.041   3.441  10.405  0.00  0.00     0.026 A 
ENDROOT
BRANCH   1   7
ATOM      7  N20 ZIN A   1      18.418   1.399   9.172  0.00  0.00    -0.281 NA
ATOM      8  C19 ZIN A   1      18.585   0.010   9.624  0.00  0.00     0.110 C 
ATOM      9  C18 ZIN A   1      18.083  -0.942   8.536  0.00  0.00     0.110 C 
ATOM     10  N17 ZIN A   1      18.831  -0.701   7.294  0.00  0.00    -0.281 NA
ATOM     11  C50 ZIN A   1      18.662   0.687   6.842  0.00  0.00     0.110 C 
ATOM     12  C49 ZIN A   1      19.165   1.640   7.931  0.00  0.00     0.110 C 
BRANCH  10  13
ATOM     13  C16 ZIN A   1      18.448  -1.603   6.295  0.00  0.00     0.010 A 
ATOM     14  C15 ZIN A   1      17.734  -1.155   5.192  0.00  0.00     0.026 A 
ATOM     15  C14 ZIN A   1      17.357  -2.046   4.207  0.00  0.00     0.032 A 
ATOM     16  C13 ZIN A   1      17.690  -3.388   4.320  0.00  0.00     0.045 A 
ATOM     17  C52 ZIN A   1      18.399  -3.837   5.426  0.00  0.00     0.032 A 
ATOM     18  C51 ZIN A   1      18.782  -2.946   6.409  0.00  0.00     0.026 A 
BRANCH  16  19
ATOM     19  N12 ZIN A   1      17.306  -4.295   3.320  0.00  0.00    -0.256 N 
ATOM     20  C11 ZIN A   1      18.070  -4.681   2.244  0.00  0.00     0.242 A 
ATOM     21  N10 ZIN A   1      17.394  -5.525   1.533  0.00  0.00    -0.162 NA
ATOM     22  N9  ZIN A   1      16.147  -5.710   2.145  0.00  0.00    -0.211 N 
ATOM     23  C53 ZIN A   1      16.119  -4.931   3.245  0.00  0.00     0.351 A 
ATOM     24  O54 ZIN A   1      15.194  -4.826   4.032  0.00  0.00    -0.244 OA
BRANCH  22  25
ATOM     25  C3  ZIN A   1      15.070  -6.584   1.672  0.00  0.00     0.143 C 
BRANCH  25  26
ATOM     26  C2  ZIN A   1      15.261  -7.988   2.247  0.00  0.00     0.025 C 
ATOM     27  C1  ZIN A   1      16.012  -8.856   1.234  0.00  0.00     0.007 C 
ENDBRANCH  25  26
BRANCH  25  28
ATOM     28  C5  ZIN A   1      13.721  -6.024   2.129  0.00  0.00     0.139 C 
ATOM     29  C7  ZIN A   1      12.781  -7.179   2.478  0.00  0.00     0.041 C 
BRANCH  28  30
ATOM     30  O8  ZIN A   1      13.148  -5.244   1.077  0.00  0.00    -0.394 OA
ATOM     31  H63 ZIN A   1      13.426  -5.514   0.192  0.00  0.00     0.210 HD
ENDBRANCH  28  30
ENDBRANCH  25  28
ENDBRANCH  22  25
ENDBRANCH  16  19
ENDBRANCH  10  13
ENDBRANCH   1   7
BRANCH   4  32
ATOM     32  O25 ZIN A   1      19.928   4.964  13.117  0.00  0.00    -0.351 OA
BRANCH  32  33
ATOM     33  C26 ZIN A   1      19.022   6.031  13.409  0.00  0.00     0.182 C 
BRANCH  33  34
ATOM     34  C27 ZIN A   1      18.432   5.831  14.806  0.00  0.00     0.037 C 
ATOM     35  C46 ZIN A   1      19.308   4.866  15.650  0.00  0.00     0.054 C 
ATOM     36  C31 ZIN A   1      18.273   4.245  16.615  0.00  0.00     0.109 C 
ATOM     37  O30 ZIN A   1      16.978   4.405  16.023  0.00  0.00    -0.373 OA
ATOM     38  C29 ZIN A   1      17.100   5.041  14.741  0.00  0.00     0.176 C 
BRANCH  36  39
ATOM     39  C32 ZIN A   1      18.322   4.968  17.962  0.00  0.00     0.195 C 
BRANCH  39  40
ATOM     40  N33 ZIN A   1      16.957   5.226  18.426  0.00  0.00    -0.259 N 
ATOM     41  N37 ZIN A   1      16.147   6.324  18.094  0.00  0.00    -0.165 NA
ATOM     42  C36 ZIN A   1      15.012   6.161  18.721  0.00  0.00     0.256 A 
ATOM     43  N35 ZIN A   1      15.067   5.033  19.428  0.00  0.00    -0.234 NA
ATOM     44  C34 ZIN A   1      16.231   4.460  19.261  0.00  0.00     0.230 A 
ENDBRANCH  39  40
ENDBRANCH  36  39
BRANCH  36  45
ATOM     45  C38 ZIN A   1      18.568   2.780  16.810  0.00  0.00     0.017 A 
ATOM     46  C44 ZIN A   1      18.479   1.907  15.737  0.00  0.00     0.128 A 
ATOM     47  C43 ZIN A   1      18.755   0.563  15.916  0.00  0.00     0.085 A 
ATOM     48  F45 ZIN A   1      18.132   2.370  14.517  0.00  0.00    -0.205 F 
ATOM     49  C41 ZIN A   1      19.110   0.090  17.167  0.00  0.00     0.119 A 
ATOM     50  C40 ZIN A   1      19.195   0.963  18.239  0.00  0.00     0.043 A 
ATOM     51  F42 ZIN A   1      19.375  -1.223  17.344  0.00  0.00    -0.206 F 
ATOM     52  C39 ZIN A   1      18.923   2.307  18.059  0.00  0.00     0.016 A 
ENDBRANCH  36  45
ENDBRANCH  33  34
ENDBRANCH  32  33
ENDBRANCH   4  32
TORSDOF 13
ENDMDL
MODEL 8
REMARK VINA RESULT:      -8.5      3.069     13.356
REMARK  13 active torsions:
REMARK  status: ('A' for Active; 'I' for Inactive)
REMARK    1  A    between atoms: C2_2  and  C3_3 
REMARK    2  A    between atoms: C3_3  and  C5_4 
REMARK    3  A    between atoms: C3_3  and  N9_7 
REMARK    4  A    between atoms: C5_4  and  O8_6 
REMARK    5  A    between atoms: N12_10  and  C13_11 
REMARK    6  A    between atoms: C16_14  and  N17_15 
REMARK    7  A    between atoms: N20_18  and  C21_19 
REMARK    8  A    between atoms: C24_22  and  O25_23 
REMARK    9  A    between atoms: O25_23  and  C26_24 
REMARK   10  A    between atoms: C26_24  and  C27_25 
REMARK   11  A    between atoms: C31_28  and  C32_29 
REMARK   12  A    between atoms: C31_28  and  C38_35 
REMARK   13  A    between atoms: C32_29  and  N33_30 
ROOT
ATOM      1  C21 ZIN A   1      18.234   0.513  14.990  0.00  0.00     0.010 A 
ATOM      2  C22 ZIN A   1      17.717   0.495  16.278  0.00  0.00     0.026 A 
ATOM      3  C23 ZIN A   1      18.036   1.506  17.165  0.00  0.00     0.038 A 
ATOM      4  C24 ZIN A   1      18.873   2.538  16.767  0.00  0.00     0.068 A 
ATOM      5  C47 ZIN A   1      19.391   2.557  15.481  0.00  0.00     0.038 A 
ATOM      6  C48 ZIN A   1      19.077   1.545  14.595  0.00  0.00     0.026 A 
ENDROOT
BRANCH   1   7
ATOM      7  N20 ZIN A   1      17.913  -0.511  14.092  0.00  0.00    -0.281 NA
ATOM      8  C19 ZIN A   1      19.063  -1.399  13.872  0.00  0.00     0.110 C 
ATOM      9  C18 ZIN A   1      18.648  -2.547  12.949  0.00  0.00     0.110 C 
ATOM     10  N17 ZIN A   1      18.158  -1.998  11.677  0.00  0.00    -0.281 NA
ATOM     11  C50 ZIN A   1      17.008  -1.111  11.898  0.00  0.00     0.110 C 
ATOM     12  C49 ZIN A   1      17.423   0.038  12.821  0.00  0.00     0.110 C 
BRANCH  10  13
ATOM     13  C16 ZIN A   1      17.836  -3.022  10.780  0.00  0.00     0.010 A 
ATOM     14  C15 ZIN A   1      17.359  -4.236  11.255  0.00  0.00     0.026 A 
ATOM     15  C14 ZIN A   1      17.041  -5.246  10.369  0.00  0.00     0.032 A 
ATOM     16  C13 ZIN A   1      17.201  -5.049   9.005  0.00  0.00     0.045 A 
ATOM     17  C52 ZIN A   1      17.684  -3.837   8.530  0.00  0.00     0.032 A 
ATOM     18  C51 ZIN A   1      17.996  -2.824   9.415  0.00  0.00     0.026 A 
BRANCH  16  19
ATOM     19  N12 ZIN A   1      16.880  -6.076   8.104  0.00  0.00    -0.256 N 
ATOM     20  C11 ZIN A   1      17.777  -6.909   7.478  0.00  0.00     0.242 A 
ATOM     21  N10 ZIN A   1      17.125  -7.732   6.720  0.00  0.00    -0.162 NA
ATOM     22  N9  ZIN A   1      15.758  -7.445   6.840  0.00  0.00    -0.211 N 
ATOM     23  C53 ZIN A   1      15.638  -6.411   7.699  0.00  0.00     0.351 A 
ATOM     24  O54 ZIN A   1      14.597  -5.882   8.049  0.00  0.00    -0.244 OA
BRANCH  22  25
ATOM     25  C3  ZIN A   1      14.663  -8.135   6.153  0.00  0.00     0.143 C 
BRANCH  25  26
ATOM     26  C2  ZIN A   1      13.765  -8.820   7.185  0.00  0.00     0.025 C 
ATOM     27  C1  ZIN A   1      14.414 -10.131   7.637  0.00  0.00     0.007 C 
ENDBRANCH  25  26
BRANCH  25  28
ATOM     28  C5  ZIN A   1      13.843  -7.121   5.354  0.00  0.00     0.139 C 
ATOM     29  C7  ZIN A   1      13.144  -7.832   4.194  0.00  0.00     0.041 C 
BRANCH  28  30
ATOM     30  O8  ZIN A   1      14.709  -6.108   4.839  0.00  0.00    -0.394 OA
ATOM     31  H63 ZIN A   1      14.529  -5.866   3.921  0.00  0.00     0.210 HD
ENDBRANCH  28  30
ENDBRANCH  25  28
ENDBRANCH  22  25
ENDBRANCH  16  19
ENDBRANCH  10  13
ENDBRANCH   1   7
BRANCH   4  32
ATOM     32  O25 ZIN A   1      19.186   3.533  17.640  0.00  0.00    -0.351 OA
BRANCH  32  33
ATOM     33  C26 ZIN A   1      18.117   4.377  18.073  0.00  0.00     0.182 C 
BRANCH  33  34
ATOM     34  C27 ZIN A   1      17.996   5.572  17.125  0.00  0.00     0.037 C 
ATOM     35  C46 ZIN A   1      17.203   5.193  15.845  0.00  0.00     0.054 C 
ATOM     36  C31 ZIN A   1      17.790   6.165  14.797  0.00  0.00     0.109 C 
ATOM     37  O30 ZIN A   1      19.071   6.594  15.274  0.00  0.00    -0.373 OA
ATOM     38  C29 ZIN A   1      19.373   5.947  16.520  0.00  0.00     0.176 C 
BRANCH  36  39
ATOM     39  C32 ZIN A   1      16.865   7.372  14.635  0.00  0.00     0.195 C 
BRANCH  39  40
ATOM     40  N33 ZIN A   1      16.866   8.156  15.873  0.00  0.00    -0.259 N 
ATOM     41  N37 ZIN A   1      17.848   9.067  16.292  0.00  0.00    -0.165 NA
ATOM     42  C36 ZIN A   1      17.457   9.542  17.445  0.00  0.00     0.256 A 
ATOM     43  N35 ZIN A   1      16.296   8.977  17.774  0.00  0.00    -0.234 NA
ATOM     44  C34 ZIN A   1      15.928   8.140  16.837  0.00  0.00     0.230 A 
ENDBRANCH  39  40
ENDBRANCH  36  39
BRANCH  36  45
ATOM     45  C38 ZIN A   1      17.947   5.459  13.474  0.00  0.00     0.017 A 
ATOM     46  C44 ZIN A   1      16.833   5.198  12.692  0.00  0.00     0.128 A 
ATOM     47  C43 ZIN A   1      16.979   4.555  11.475  0.00  0.00     0.085 A 
ATOM     48  F45 ZIN A   1      15.608   5.580  13.114  0.00  0.00    -0.205 F 
ATOM     49  C41 ZIN A   1      18.235   4.164  11.045  0.00  0.00     0.119 A 
ATOM     50  C40 ZIN A   1      19.346   4.422  11.831  0.00  0.00     0.043 A 
ATOM     51  F42 ZIN A   1      18.378   3.532   9.861  0.00  0.00    -0.206 F 
ATOM     52  C39 ZIN A   1      19.201   5.069  13.044  0.00  0.00     0.016 A 
ENDBRANCH  36  45
ENDBRANCH  33  34
ENDBRANCH  32  33
ENDBRANCH   4  32
TORSDOF 13
ENDMDL
MODEL 9
REMARK VINA RESULT:      -8.4      2.722     13.534
REMARK  13 active torsions:
REMARK  status: ('A' for Active; 'I' for Inactive)
REMARK    1  A    between atoms: C2_2  and  C3_3 
REMARK    2  A    between atoms: C3_3  and  C5_4 
REMARK    3  A    between atoms: C3_3  and  N9_7 
REMARK    4  A    between atoms: C5_4  and  O8_6 
REMARK    5  A    between atoms: N12_10  and  C13_11 
REMARK    6  A    between atoms: C16_14  and  N17_15 
REMARK    7  A    between atoms: N20_18  and  C21_19 
REMARK    8  A    between atoms: C24_22  and  O25_23 
REMARK    9  A    between atoms: O25_23  and  C26_24 
REMARK   10  A    between atoms: C26_24  and  C27_25 
REMARK   11  A    between atoms: C31_28  and  C32_29 
REMARK   12  A    between atoms: C31_28  and  C38_35 
REMARK   13  A    between atoms: C32_29  and  N33_30 
ROOT
ATOM      1  C21 ZIN A   1      18.242  -0.380  14.119  0.00  0.00     0.010 A 
ATOM      2  C22 ZIN A   1      17.460  -0.533  15.255  0.00  0.00     0.026 A 
ATOM      3  C23 ZIN A   1      17.665   0.283  16.351  0.00  0.00     0.038 A 
ATOM      4  C24 ZIN A   1      18.652   1.257  16.313  0.00  0.00     0.068 A 
ATOM      5  C47 ZIN A   1      19.434   1.412  15.179  0.00  0.00     0.038 A 
ATOM      6  C48 ZIN A   1      19.234   0.592  14.085  0.00  0.00     0.026 A 
ENDROOT
BRANCH   1   7
ATOM      7  N20 ZIN A   1      18.035  -1.208  13.010  0.00  0.00    -0.281 NA
ATOM      8  C19 ZIN A   1      19.213  -2.049  12.754  0.00  0.00     0.110 C 
ATOM      9  C18 ZIN A   1      18.918  -2.993  11.586  0.00  0.00     0.110 C 
ATOM     10  N17 ZIN A   1      18.568  -2.204  10.396  0.00  0.00    -0.281 NA
ATOM     11  C50 ZIN A   1      17.390  -1.364  10.653  0.00  0.00     0.110 C 
ATOM     12  C49 ZIN A   1      17.685  -0.419  11.821  0.00  0.00     0.110 C 
BRANCH  10  13
ATOM     13  C16 ZIN A   1      18.362  -3.032   9.288  0.00  0.00     0.010 A 
ATOM     14  C15 ZIN A   1      19.047  -2.793   8.105  0.00  0.00     0.026 A 
ATOM     15  C14 ZIN A   1      18.843  -3.610   7.012  0.00  0.00     0.032 A 
ATOM     16  C13 ZIN A   1      17.952  -4.671   7.095  0.00  0.00     0.045 A 
ATOM     17  C52 ZIN A   1      17.262  -4.908   8.277  0.00  0.00     0.032 A 
ATOM     18  C51 ZIN A   1      17.471  -4.094   9.372  0.00  0.00     0.026 A 
BRANCH  16  19
ATOM     19  N12 ZIN A   1      17.743  -5.502   5.983  0.00  0.00    -0.256 N 
ATOM     20  C11 ZIN A   1      18.104  -6.825   5.886  0.00  0.00     0.242 A 
ATOM     21  N10 ZIN A   1      17.756  -7.269   4.721  0.00  0.00    -0.162 NA
ATOM     22  N9  ZIN A   1      17.147  -6.219   4.019  0.00  0.00    -0.211 N 
ATOM     23  C53 ZIN A   1      17.159  -5.137   4.824  0.00  0.00     0.351 A 
ATOM     24  O54 ZIN A   1      16.717  -4.033   4.555  0.00  0.00    -0.244 OA
BRANCH  22  25
ATOM     25  C3  ZIN A   1      16.605  -6.285   2.659  0.00  0.00     0.143 C 
BRANCH  25  26
ATOM     26  C2  ZIN A   1      17.548  -7.100   1.772  0.00  0.00     0.025 C 
ATOM     27  C1  ZIN A   1      18.520  -6.157   1.059  0.00  0.00     0.007 C 
ENDBRANCH  25  26
BRANCH  25  28
ATOM     28  C5  ZIN A   1      15.229  -6.953   2.692  0.00  0.00     0.139 C 
ATOM     29  C7  ZIN A   1      14.141  -5.878   2.726  0.00  0.00     0.041 C 
BRANCH  28  30
ATOM     30  O8  ZIN A   1      15.125  -7.774   3.857  0.00  0.00    -0.394 OA
ATOM     31  H63 ZIN A   1      15.837  -7.640   4.496  0.00  0.00     0.210 HD
ENDBRANCH  28  30
ENDBRANCH  25  28
ENDBRANCH  22  25
ENDBRANCH  16  19
ENDBRANCH  10  13
ENDBRANCH   1   7
BRANCH   4  32
ATOM     32  O25 ZIN A   1      18.853   2.062  17.391  0.00  0.00    -0.351 OA
BRANCH  32  33
ATOM     33  C26 ZIN A   1      19.767   3.149  17.228  0.00  0.00     0.182 C 
BRANCH  33  34
ATOM     34  C27 ZIN A   1      19.009   4.384  16.738  0.00  0.00     0.037 C 
ATOM     35  C46 ZIN A   1      18.014   4.015  15.605  0.00  0.00     0.054 C 
ATOM     36  C31 ZIN A   1      17.931   5.332  14.801  0.00  0.00     0.109 C 
ATOM     37  O30 ZIN A   1      19.105   6.096  15.099  0.00  0.00    -0.373 OA
ATOM     38  C29 ZIN A   1      19.955   5.361  15.995  0.00  0.00     0.176 C 
BRANCH  36  39
ATOM     39  C32 ZIN A   1      16.683   6.115  15.217  0.00  0.00     0.195 C 
BRANCH  39  40
ATOM     40  N33 ZIN A   1      17.063   7.485  15.569  0.00  0.00    -0.259 N 
ATOM     41  N37 ZIN A   1      17.136   8.588  14.703  0.00  0.00    -0.165 NA
ATOM     42  C36 ZIN A   1      17.510   9.612  15.423  0.00  0.00     0.256 A 
ATOM     43  N35 ZIN A   1      17.681   9.214  16.684  0.00  0.00    -0.234 NA
ATOM     44  C34 ZIN A   1      17.415   7.937  16.786  0.00  0.00     0.230 A 
ENDBRANCH  39  40
ENDBRANCH  36  39
BRANCH  36  45
ATOM     45  C38 ZIN A   1      17.878   5.031  13.326  0.00  0.00     0.017 A 
ATOM     46  C44 ZIN A   1      18.982   4.487  12.690  0.00  0.00     0.128 A 
ATOM     47  C43 ZIN A   1      18.930   4.206  11.335  0.00  0.00     0.085 A 
ATOM     48  F45 ZIN A   1      20.104   4.224  13.394  0.00  0.00    -0.205 F 
ATOM     49  C41 ZIN A   1      17.780   4.477  10.616  0.00  0.00     0.119 A 
ATOM     50  C40 ZIN A   1      16.679   5.024  11.252  0.00  0.00     0.043 A 
ATOM     51  F42 ZIN A   1      17.730   4.208   9.293  0.00  0.00    -0.206 F 
ATOM     52  C39 ZIN A   1      16.729   5.301  12.606  0.00  0.00     0.016 A 
ENDBRANCH  36  45
ENDBRANCH  33  34
ENDBRANCH  32  33
ENDBRANCH   4  32
TORSDOF 13
ENDMDL
