MODEL 1
REMARK VINA RESULT:     -10.5      0.000      0.000
REMARK  7 active torsions:
REMARK  status: ('A' for Active; 'I' for Inactive)
REMARK    1  A    between atoms: S2_2  and  C5_5 
REMARK    2  A    between atoms: C9_9  and  C10_10 
REMARK    3  A    between atoms: C10_10  and  C11_11 
REMARK    4  A    between atoms: C11_11  and  N13_12 
REMARK    5  A    between atoms: C11_11  and  C39_38 
REMARK       I    between atoms: N13_12  and  C14_13 
REMARK    6  A    between atoms: C14_13  and  C16_15 
REMARK       I    between atoms: N22_21  and  C23_22 
REMARK    7  A    between atoms: C23_22  and  C25_24 
ROOT
ATOM      1  C16 ZIN A   1      19.040   2.159  12.582  0.00  0.00     0.075 A 
ATOM      2  C17 ZIN A   1      19.603   0.896  12.786  0.00  0.00     0.052 A 
ATOM      3 Cl18 ZIN A   1      19.957   0.346  14.394  0.00  0.00    -0.083 Cl
ATOM      4  C19 ZIN A   1      19.875   0.091  11.701  0.00  0.00     0.034 A 
ATOM      5  C20 ZIN A   1      19.597   0.521  10.410  0.00  0.00    -0.030 A 
ATOM      6  C21 ZIN A   1      19.947  -0.406   9.273  0.00  0.00     0.165 C 
ATOM      7  N22 ZIN A   1      19.356   0.093   8.026  0.00  0.00    -0.343 N 
ATOM      8  C23 ZIN A   1      18.727  -0.736   7.169  0.00  0.00     0.254 C 
ATOM      9  O24 ZIN A   1      18.151  -0.284   6.198  0.00  0.00    -0.267 OA
ATOM     10  C34 ZIN A   1      19.473   1.534   7.751  0.00  0.00     0.131 C 
ATOM     11  C35 ZIN A   1      18.691   2.283   8.829  0.00  0.00     0.061 C 
ATOM     12  C36 ZIN A   1      19.033   1.761  10.200  0.00  0.00    -0.026 A 
ATOM     13  C37 ZIN A   1      18.753   2.581  11.285  0.00  0.00     0.058 A 
ATOM     14 Cl38 ZIN A   1      18.045   4.145  11.025  0.00  0.00    -0.083 Cl
ENDROOT
BRANCH   1  15
ATOM     15  C14 ZIN A   1      18.745   3.037  13.734  0.00  0.00     0.255 C 
ATOM     16  N13 ZIN A   1      19.671   3.916  14.165  0.00  0.00    -0.342 N 
ATOM     17  H51 ZIN A   1      20.531   3.972  13.719  0.00  0.00     0.163 HD
ATOM     18  O15 ZIN A   1      17.668   2.966  14.293  0.00  0.00    -0.268 OA
BRANCH  16  19
ATOM     19  C11 ZIN A   1      19.380   4.787  15.306  0.00  0.00     0.190 C 
BRANCH  19  20
ATOM     20  C10 ZIN A   1      20.068   4.237  16.556  0.00  0.00     0.074 C 
BRANCH  20  21
ATOM     21  C9  ZIN A   1      19.047   3.562  17.435  0.00  0.00    -0.054 A 
ATOM     22  C8  ZIN A   1      19.004   2.182  17.512  0.00  0.00     0.007 A 
ATOM     23  C7  ZIN A   1      18.068   1.563  18.319  0.00  0.00     0.002 A 
ATOM     24  C6  ZIN A   1      17.175   2.324  19.050  0.00  0.00     0.023 A 
ATOM     25  C5  ZIN A   1      17.218   3.704  18.975  0.00  0.00     0.059 A 
ATOM     26  C42 ZIN A   1      18.151   4.322  18.164  0.00  0.00     0.030 A 
BRANCH  25  27
ATOM     27  S2  ZIN A   1      16.080   4.674  19.906  0.00  0.00     0.171 S 
ATOM     28  C1  ZIN A   1      17.045   6.113  20.443  0.00  0.00     0.167 C 
ATOM     29  O3  ZIN A   1      15.747   3.854  21.017  0.00  0.00    -0.223 OA
ATOM     30  O4  ZIN A   1      15.093   5.061  18.960  0.00  0.00    -0.223 OA
ENDBRANCH  25  27
ENDBRANCH  20  21
ENDBRANCH  19  20
BRANCH  19  31
ATOM     31  C39 ZIN A   1      19.892   6.176  15.022  0.00  0.00     0.197 C 
ATOM     32  O40 ZIN A   1      21.092   6.393  15.010  0.00  0.00    -0.646 OA
ATOM     33  O41 ZIN A   1      19.107   7.081  14.803  0.00  0.00    -0.646 OA
ENDBRANCH  19  31
ENDBRANCH  16  19
ENDBRANCH   1  15
BRANCH   8  34
ATOM     34  C25 ZIN A   1      18.739  -2.193   7.407  0.00  0.00     0.034 A 
ATOM     35  C33 ZIN A   1      17.902  -2.744   8.377  0.00  0.00     0.055 A 
ATOM     36  C32 ZIN A   1      17.911  -4.111   8.594  0.00  0.00     0.086 A 
ATOM     37  C28 ZIN A   1      18.777  -4.925   7.839  0.00  0.00    -0.001 A 
ATOM     38  O31 ZIN A   1      17.233  -4.920   9.434  0.00  0.00    -0.322 OA
ATOM     39  C27 ZIN A   1      19.614  -4.360   6.875  0.00  0.00     0.015 A 
ATOM     40  C29 ZIN A   1      18.543  -6.291   8.315  0.00  0.00     0.039 A 
ATOM     41  C26 ZIN A   1      19.596  -3.013   6.663  0.00  0.00     0.018 A 
ATOM     42  C30 ZIN A   1      17.604  -6.200   9.270  0.00  0.00     0.143 A 
ENDBRANCH   8  34
TORSDOF 7
ENDMDL
MODEL 2
REMARK VINA RESULT:     -10.4      1.513      2.150
REMARK  7 active torsions:
REMARK  status: ('A' for Active; 'I' for Inactive)
REMARK    1  A    between atoms: S2_2  and  C5_5 
REMARK    2  A    between atoms: C9_9  and  C10_10 
REMARK    3  A    between atoms: C10_10  and  C11_11 
REMARK    4  A    between atoms: C11_11  and  N13_12 
REMARK    5  A    between atoms: C11_11  and  C39_38 
REMARK       I    between atoms: N13_12  and  C14_13 
REMARK    6  A    between atoms: C14_13  and  C16_15 
REMARK       I    between atoms: N22_21  and  C23_22 
REMARK    7  A    between atoms: C23_22  and  C25_24 
ROOT
ATOM      1  C16 ZIN A   1      18.918   2.496  12.490  0.00  0.00     0.075 A 
ATOM      2  C17 ZIN A   1      19.488   1.253  12.778  0.00  0.00     0.052 A 
ATOM      3 Cl18 ZIN A   1      19.811   0.800  14.423  0.00  0.00    -0.083 Cl
ATOM      4  C19 ZIN A   1      19.794   0.391  11.748  0.00  0.00     0.034 A 
ATOM      5  C20 ZIN A   1      19.541   0.743  10.428  0.00  0.00    -0.030 A 
ATOM      6  C21 ZIN A   1      19.927  -0.243   9.354  0.00  0.00     0.165 C 
ATOM      7  N22 ZIN A   1      19.360   0.176   8.068  0.00  0.00    -0.343 N 
ATOM      8  C23 ZIN A   1      18.760  -0.707   7.246  0.00  0.00     0.254 C 
ATOM      9  O24 ZIN A   1      18.202  -0.318   6.238  0.00  0.00    -0.267 OA
ATOM     10  C34 ZIN A   1      19.469   1.601   7.713  0.00  0.00     0.131 C 
ATOM     11  C35 ZIN A   1      18.654   2.401   8.729  0.00  0.00     0.061 C 
ATOM     12  C36 ZIN A   1      18.970   1.963  10.135  0.00  0.00    -0.026 A 
ATOM     13  C37 ZIN A   1      18.656   2.840  11.164  0.00  0.00     0.058 A 
ATOM     14 Cl38 ZIN A   1      17.940   4.378  10.799  0.00  0.00    -0.083 Cl
ENDROOT
BRANCH   1  15
ATOM     15  C14 ZIN A   1      18.588   3.435  13.582  0.00  0.00     0.255 C 
ATOM     16  N13 ZIN A   1      19.511   4.316  14.015  0.00  0.00    -0.342 N 
ATOM     17  H51 ZIN A   1      20.393   4.333  13.610  0.00  0.00     0.163 HD
ATOM     18  O15 ZIN A   1      17.484   3.413  14.090  0.00  0.00    -0.268 OA
BRANCH  16  19
ATOM     19  C11 ZIN A   1      19.185   5.247  15.098  0.00  0.00     0.190 C 
BRANCH  19  20
ATOM     20  C10 ZIN A   1      19.936   4.838  16.366  0.00  0.00     0.074 C 
BRANCH  20  21
ATOM     21  C9  ZIN A   1      19.007   4.076  17.275  0.00  0.00    -0.054 A 
ATOM     22  C8  ZIN A   1      18.017   4.745  17.972  0.00  0.00     0.007 A 
ATOM     23  C7  ZIN A   1      17.165   4.045  18.805  0.00  0.00     0.002 A 
ATOM     24  C6  ZIN A   1      17.301   2.677  18.942  0.00  0.00     0.023 A 
ATOM     25  C5  ZIN A   1      18.289   2.007  18.245  0.00  0.00     0.059 A 
ATOM     26  C42 ZIN A   1      19.145   2.707  17.415  0.00  0.00     0.030 A 
BRANCH  25  27
ATOM     27  S2  ZIN A   1      18.463   0.262  18.419  0.00  0.00     0.171 S 
ATOM     28  C1  ZIN A   1      17.550  -0.426  17.010  0.00  0.00     0.167 C 
ATOM     29  O3  ZIN A   1      17.798  -0.037  19.637  0.00  0.00    -0.223 OA
ATOM     30  O4  ZIN A   1      19.857   0.032  18.269  0.00  0.00    -0.223 OA
ENDBRANCH  25  27
ENDBRANCH  20  21
ENDBRANCH  19  20
BRANCH  19  31
ATOM     31  C39 ZIN A   1      19.594   6.642  14.700  0.00  0.00     0.197 C 
ATOM     32  O40 ZIN A   1      18.770   7.541  14.695  0.00  0.00    -0.646 OA
ATOM     33  O41 ZIN A   1      20.748   6.872  14.385  0.00  0.00    -0.646 OA
ENDBRANCH  19  31
ENDBRANCH  16  19
ENDBRANCH   1  15
BRANCH   8  34
ATOM     34  C25 ZIN A   1      18.781  -2.147   7.568  0.00  0.00     0.034 A 
ATOM     35  C33 ZIN A   1      17.960  -2.644   8.580  0.00  0.00     0.055 A 
ATOM     36  C32 ZIN A   1      17.978  -3.997   8.876  0.00  0.00     0.086 A 
ATOM     37  C28 ZIN A   1      18.835  -4.850   8.156  0.00  0.00    -0.001 A 
ATOM     38  O31 ZIN A   1      17.315  -4.758   9.771  0.00  0.00    -0.322 OA
ATOM     39  C27 ZIN A   1      19.657  -4.340   7.148  0.00  0.00     0.015 A 
ATOM     40  C29 ZIN A   1      18.614  -6.187   8.713  0.00  0.00     0.039 A 
ATOM     41  C26 ZIN A   1      19.630  -3.007   6.859  0.00  0.00     0.018 A 
ATOM     42  C30 ZIN A   1      17.689  -6.044   9.675  0.00  0.00     0.143 A 
ENDBRANCH   8  34
TORSDOF 7
ENDMDL
MODEL 3
REMARK VINA RESULT:     -10.3      4.138     11.450
REMARK  7 active torsions:
REMARK  status: ('A' for Active; 'I' for Inactive)
REMARK    1  A    between atoms: S2_2  and  C5_5 
REMARK    2  A    between atoms: C9_9  and  C10_10 
REMARK    3  A    between atoms: C10_10  and  C11_11 
REMARK    4  A    between atoms: C11_11  and  N13_12 
REMARK    5  A    between atoms: C11_11  and  C39_38 
REMARK       I    between atoms: N13_12  and  C14_13 
REMARK    6  A    between atoms: C14_13  and  C16_15 
REMARK       I    between atoms: N22_21  and  C23_22 
REMARK    7  A    between atoms: C23_22  and  C25_24 
ROOT
ATOM      1  C16 ZIN A   1      17.961  -2.089   9.918  0.00  0.00     0.075 A 
ATOM      2  C17 ZIN A   1      17.531  -2.370  11.218  0.00  0.00     0.052 A 
ATOM      3 Cl18 ZIN A   1      17.223  -4.009  11.701  0.00  0.00    -0.083 Cl
ATOM      4  C19 ZIN A   1      17.352  -1.337  12.112  0.00  0.00     0.034 A 
ATOM      5  C20 ZIN A   1      17.594  -0.022  11.736  0.00  0.00    -0.030 A 
ATOM      6  C21 ZIN A   1      17.350   1.055  12.763  0.00  0.00     0.165 C 
ATOM      7  N22 ZIN A   1      17.896   2.330  12.284  0.00  0.00    -0.343 N 
ATOM      8  C23 ZIN A   1      18.613   3.133  13.094  0.00  0.00     0.254 C 
ATOM      9  O24 ZIN A   1      19.147   4.129  12.645  0.00  0.00    -0.267 OA
ATOM     10  C34 ZIN A   1      17.632   2.694  10.882  0.00  0.00     0.131 C 
ATOM     11  C35 ZIN A   1      18.324   1.664   9.991  0.00  0.00     0.061 C 
ATOM     12  C36 ZIN A   1      18.027   0.264  10.459  0.00  0.00    -0.026 A 
ATOM     13  C37 ZIN A   1      18.213  -0.768   9.550  0.00  0.00     0.058 A 
ATOM     14 Cl38 ZIN A   1      18.756  -0.412   7.940  0.00  0.00    -0.083 Cl
ENDROOT
BRANCH   1  15
ATOM     15  C14 ZIN A   1      18.155  -3.184   8.945  0.00  0.00     0.255 C 
ATOM     16  N13 ZIN A   1      19.400  -3.570   8.604  0.00  0.00    -0.342 N 
ATOM     17  H51 ZIN A   1      20.169  -3.128   8.997  0.00  0.00     0.163 HD
ATOM     18  O15 ZIN A   1      17.191  -3.737   8.452  0.00  0.00    -0.268 OA
BRANCH  16  19
ATOM     19  C11 ZIN A   1      19.593  -4.655   7.640  0.00  0.00     0.190 C 
BRANCH  19  20
ATOM     20  C10 ZIN A   1      20.166  -4.088   6.340  0.00  0.00     0.074 C 
BRANCH  20  21
ATOM     21  C9  ZIN A   1      19.042  -3.570   5.480  0.00  0.00    -0.054 A 
ATOM     22  C8  ZIN A   1      19.008  -2.237   5.116  0.00  0.00     0.007 A 
ATOM     23  C7  ZIN A   1      17.978  -1.762   4.326  0.00  0.00     0.002 A 
ATOM     24  C6  ZIN A   1      16.982  -2.620   3.900  0.00  0.00     0.023 A 
ATOM     25  C5  ZIN A   1      17.016  -3.954   4.263  0.00  0.00     0.059 A 
ATOM     26  C42 ZIN A   1      18.044  -4.427   5.057  0.00  0.00     0.030 A 
BRANCH  25  27
ATOM     27  S2  ZIN A   1      15.746  -5.048   3.720  0.00  0.00     0.171 S 
ATOM     28  C1  ZIN A   1      16.638  -6.493   3.080  0.00  0.00     0.167 C 
ATOM     29  O3  ZIN A   1      15.108  -4.348   2.662  0.00  0.00    -0.223 OA
ATOM     30  O4  ZIN A   1      15.042  -5.384   4.908  0.00  0.00    -0.223 OA
ENDBRANCH  25  27
ENDBRANCH  20  21
ENDBRANCH  19  20
BRANCH  19  31
ATOM     31  C39 ZIN A   1      20.551  -5.669   8.210  0.00  0.00     0.197 C 
ATOM     32  O40 ZIN A   1      21.668  -5.787   7.735  0.00  0.00    -0.646 OA
ATOM     33  O41 ZIN A   1      20.210  -6.370   9.146  0.00  0.00    -0.646 OA
ENDBRANCH  19  31
ENDBRANCH  16  19
ENDBRANCH   1  15
BRANCH   8  34
ATOM     34  C25 ZIN A   1      18.751   2.805  14.526  0.00  0.00     0.034 A 
ATOM     35  C33 ZIN A   1      18.923   1.478  14.920  0.00  0.00     0.055 A 
ATOM     36  C32 ZIN A   1      19.057   1.173  16.264  0.00  0.00     0.086 A 
ATOM     37  C28 ZIN A   1      19.006   2.209  17.216  0.00  0.00    -0.001 A 
ATOM     38  O31 ZIN A   1      19.236   0.019  16.939  0.00  0.00    -0.322 OA
ATOM     39  C27 ZIN A   1      18.827   3.533  16.810  0.00  0.00     0.015 A 
ATOM     40  C29 ZIN A   1      19.172   1.554  18.516  0.00  0.00     0.039 A 
ATOM     41  C26 ZIN A   1      18.701   3.826  15.483  0.00  0.00     0.018 A 
ATOM     42  C30 ZIN A   1      19.304   0.243  18.261  0.00  0.00     0.143 A 
ENDBRANCH   8  34
TORSDOF 7
ENDMDL
MODEL 4
REMARK VINA RESULT:     -10.2      4.136     11.901
REMARK  7 active torsions:
REMARK  status: ('A' for Active; 'I' for Inactive)
REMARK    1  A    between atoms: S2_2  and  C5_5 
REMARK    2  A    between atoms: C9_9  and  C10_10 
REMARK    3  A    between atoms: C10_10  and  C11_11 
REMARK    4  A    between atoms: C11_11  and  N13_12 
REMARK    5  A    between atoms: C11_11  and  C39_38 
REMARK       I    between atoms: N13_12  and  C14_13 
REMARK    6  A    between atoms: C14_13  and  C16_15 
REMARK       I    between atoms: N22_21  and  C23_22 
REMARK    7  A    between atoms: C23_22  and  C25_24 
ROOT
ATOM      1  C16 ZIN A   1      19.025  -1.725  10.587  0.00  0.00     0.075 A 
ATOM      2  C17 ZIN A   1      19.616  -0.470  10.406  0.00  0.00     0.052 A 
ATOM      3 Cl18 ZIN A   1      20.015   0.085   8.811  0.00  0.00    -0.083 Cl
ATOM      4  C19 ZIN A   1      19.879   0.320  11.503  0.00  0.00     0.034 A 
ATOM      5  C20 ZIN A   1      19.565  -0.114  12.784  0.00  0.00    -0.030 A 
ATOM      6  C21 ZIN A   1      19.909   0.797  13.936  0.00  0.00     0.165 C 
ATOM      7  N22 ZIN A   1      19.281   0.300  15.166  0.00  0.00    -0.343 N 
ATOM      8  C23 ZIN A   1      18.650   1.134  16.016  0.00  0.00     0.254 C 
ATOM      9  O24 ZIN A   1      18.045   0.685  16.970  0.00  0.00    -0.267 OA
ATOM     10  C34 ZIN A   1      19.365  -1.145  15.431  0.00  0.00     0.131 C 
ATOM     11  C35 ZIN A   1      18.592  -1.871  14.331  0.00  0.00     0.061 C 
ATOM     12  C36 ZIN A   1      18.974  -1.345  12.972  0.00  0.00    -0.026 A 
ATOM     13  C37 ZIN A   1      18.702  -2.151  11.874  0.00  0.00     0.058 A 
ATOM     14 Cl38 ZIN A   1      17.960  -3.703  12.107  0.00  0.00    -0.083 Cl
ENDROOT
BRANCH   1  15
ATOM     15  C14 ZIN A   1      18.738  -2.587   9.422  0.00  0.00     0.255 C 
ATOM     16  N13 ZIN A   1      19.673  -3.451   8.978  0.00  0.00    -0.342 N 
ATOM     17  H51 ZIN A   1      20.533  -3.505   9.423  0.00  0.00     0.163 HD
ATOM     18  O15 ZIN A   1      17.661  -2.519   8.865  0.00  0.00    -0.268 OA
BRANCH  16  19
ATOM     19  C11 ZIN A   1      19.390  -4.307   7.824  0.00  0.00     0.190 C 
BRANCH  19  20
ATOM     20  C10 ZIN A   1      20.067  -3.728   6.581  0.00  0.00     0.074 C 
BRANCH  20  21
ATOM     21  C9  ZIN A   1      19.022  -3.136   5.670  0.00  0.00    -0.054 A 
ATOM     22  C8  ZIN A   1      18.865  -1.765   5.596  0.00  0.00     0.007 A 
ATOM     23  C7  ZIN A   1      17.908  -1.222   4.760  0.00  0.00     0.002 A 
ATOM     24  C6  ZIN A   1      17.107  -2.051   3.997  0.00  0.00     0.023 A 
ATOM     25  C5  ZIN A   1      17.265  -3.423   4.069  0.00  0.00     0.059 A 
ATOM     26  C42 ZIN A   1      18.219  -3.965   4.909  0.00  0.00     0.030 A 
BRANCH  25  27
ATOM     27  S2  ZIN A   1      16.244  -4.480   3.096  0.00  0.00     0.171 S 
ATOM     28  C1  ZIN A   1      17.119  -6.069   3.086  0.00  0.00     0.167 C 
ATOM     29  O3  ZIN A   1      16.263  -3.893   1.803  0.00  0.00    -0.223 OA
ATOM     30  O4  ZIN A   1      15.037  -4.580   3.838  0.00  0.00    -0.223 OA
ENDBRANCH  25  27
ENDBRANCH  20  21
ENDBRANCH  19  20
BRANCH  19  31
ATOM     31  C39 ZIN A   1      19.921  -5.693   8.084  0.00  0.00     0.197 C 
ATOM     32  O40 ZIN A   1      21.099  -5.942   7.889  0.00  0.00    -0.646 OA
ATOM     33  O41 ZIN A   1      19.174  -6.565   8.492  0.00  0.00    -0.646 OA
ENDBRANCH  19  31
ENDBRANCH  16  19
ENDBRANCH   1  15
BRANCH   8  34
ATOM     34  C25 ZIN A   1      18.695   2.592  15.790  0.00  0.00     0.034 A 
ATOM     35  C33 ZIN A   1      17.801   3.183  14.898  0.00  0.00     0.055 A 
ATOM     36  C32 ZIN A   1      17.842   4.552  14.692  0.00  0.00     0.086 A 
ATOM     37  C28 ZIN A   1      18.795   5.326  15.380  0.00  0.00    -0.001 A 
ATOM     38  O31 ZIN A   1      17.126   5.393  13.917  0.00  0.00    -0.322 OA
ATOM     39  C27 ZIN A   1      19.688   4.721  16.267  0.00  0.00     0.015 A 
ATOM     40  C29 ZIN A   1      18.572   6.705  14.936  0.00  0.00     0.039 A 
ATOM     41  C26 ZIN A   1      19.638   3.373  16.469  0.00  0.00     0.018 A 
ATOM     42  C30 ZIN A   1      17.555   6.658  14.061  0.00  0.00     0.143 A 
ENDBRANCH   8  34
TORSDOF 7
ENDMDL
MODEL 5
REMARK VINA RESULT:      -9.6      1.533      3.222
REMARK  7 active torsions:
REMARK  status: ('A' for Active; 'I' for Inactive)
REMARK    1  A    between atoms: S2_2  and  C5_5 
REMARK    2  A    between atoms: C9_9  and  C10_10 
REMARK    3  A    between atoms: C10_10  and  C11_11 
REMARK    4  A    between atoms: C11_11  and  N13_12 
REMARK    5  A    between atoms: C11_11  and  C39_38 
REMARK       I    between atoms: N13_12  and  C14_13 
REMARK    6  A    between atoms: C14_13  and  C16_15 
REMARK       I    between atoms: N22_21  and  C23_22 
REMARK    7  A    between atoms: C23_22  and  C25_24 
ROOT
ATOM      1  C16 ZIN A   1      18.001   2.180  13.087  0.00  0.00     0.075 A 
ATOM      2  C17 ZIN A   1      17.551   2.466  11.794  0.00  0.00     0.052 A 
ATOM      3 Cl18 ZIN A   1      17.179   4.099  11.339  0.00  0.00    -0.083 Cl
ATOM      4  C19 ZIN A   1      17.405   1.441  10.884  0.00  0.00     0.034 A 
ATOM      5  C20 ZIN A   1      17.698   0.130  11.237  0.00  0.00    -0.030 A 
ATOM      6  C21 ZIN A   1      17.487  -0.939  10.195  0.00  0.00     0.165 C 
ATOM      7  N22 ZIN A   1      18.084  -2.200  10.650  0.00  0.00    -0.343 N 
ATOM      8  C23 ZIN A   1      18.825  -2.963   9.822  0.00  0.00     0.254 C 
ATOM      9  O24 ZIN A   1      19.399  -3.945  10.251  0.00  0.00    -0.267 OA
ATOM     10  C34 ZIN A   1      17.843  -2.596  12.047  0.00  0.00     0.131 C 
ATOM     11  C35 ZIN A   1      18.503  -1.555  12.950  0.00  0.00     0.061 C 
ATOM     12  C36 ZIN A   1      18.151  -0.160  12.507  0.00  0.00    -0.026 A 
ATOM     13  C37 ZIN A   1      18.304   0.864  13.432  0.00  0.00     0.058 A 
ATOM     14 Cl38 ZIN A   1      18.871   0.503  15.032  0.00  0.00    -0.083 Cl
ENDROOT
BRANCH   1  15
ATOM     15  C14 ZIN A   1      18.160   3.266  14.076  0.00  0.00     0.255 C 
ATOM     16  N13 ZIN A   1      19.393   3.654  14.457  0.00  0.00    -0.342 N 
ATOM     17  H51 ZIN A   1      20.175   3.220  14.082  0.00  0.00     0.163 HD
ATOM     18  O15 ZIN A   1      17.180   3.809  14.546  0.00  0.00    -0.268 OA
BRANCH  16  19
ATOM     19  C11 ZIN A   1      19.552   4.731  15.437  0.00  0.00     0.190 C 
BRANCH  19  20
ATOM     20  C10 ZIN A   1      20.150   4.163  16.726  0.00  0.00     0.074 C 
BRANCH  20  21
ATOM     21  C9  ZIN A   1      19.046   3.603  17.587  0.00  0.00    -0.054 A 
ATOM     22  C8  ZIN A   1      19.017   2.253  17.881  0.00  0.00     0.007 A 
ATOM     23  C7  ZIN A   1      18.006   1.739  18.672  0.00  0.00     0.002 A 
ATOM     24  C6  ZIN A   1      17.024   2.576  19.167  0.00  0.00     0.023 A 
ATOM     25  C5  ZIN A   1      17.053   3.926  18.875  0.00  0.00     0.059 A 
ATOM     26  C42 ZIN A   1      18.062   4.439  18.080  0.00  0.00     0.030 A 
BRANCH  25  27
ATOM     27  S2  ZIN A   1      15.802   4.994  19.507  0.00  0.00     0.171 S 
ATOM     28  C1  ZIN A   1      16.716   6.379  20.240  0.00  0.00     0.167 C 
ATOM     29  O3  ZIN A   1      15.165   4.226  20.518  0.00  0.00    -0.223 OA
ATOM     30  O4  ZIN A   1      15.091   5.421  18.353  0.00  0.00    -0.223 OA
ENDBRANCH  25  27
ENDBRANCH  20  21
ENDBRANCH  19  20
BRANCH  19  31
ATOM     31  C39 ZIN A   1      20.472   5.786  14.880  0.00  0.00     0.197 C 
ATOM     32  O40 ZIN A   1      21.385   6.221  15.561  0.00  0.00    -0.646 OA
ATOM     33  O41 ZIN A   1      20.304   6.204  13.748  0.00  0.00    -0.646 OA
ENDBRANCH  19  31
ENDBRANCH  16  19
ENDBRANCH   1  15
BRANCH   8  34
ATOM     34  C25 ZIN A   1      18.940  -2.607   8.394  0.00  0.00     0.034 A 
ATOM     35  C33 ZIN A   1      18.985  -1.265   8.016  0.00  0.00     0.055 A 
ATOM     36  C32 ZIN A   1      19.099  -0.934   6.676  0.00  0.00     0.086 A 
ATOM     37  C28 ZIN A   1      19.156  -1.959   5.713  0.00  0.00    -0.001 A 
ATOM     38  O31 ZIN A   1      19.169   0.240   6.015  0.00  0.00    -0.322 OA
ATOM     39  C27 ZIN A   1      19.104  -3.299   6.105  0.00  0.00     0.015 A 
ATOM     40  C29 ZIN A   1      19.266  -1.277   4.421  0.00  0.00     0.039 A 
ATOM     41  C26 ZIN A   1      18.998  -3.618   7.427  0.00  0.00     0.018 A 
ATOM     42  C30 ZIN A   1      19.268   0.038   4.691  0.00  0.00     0.143 A 
ENDBRANCH   8  34
TORSDOF 7
ENDMDL
MODEL 6
REMARK VINA RESULT:      -9.6      4.214     11.595
REMARK  7 active torsions:
REMARK  status: ('A' for Active; 'I' for Inactive)
REMARK    1  A    between atoms: S2_2  and  C5_5 
REMARK    2  A    between atoms: C9_9  and  C10_10 
REMARK    3  A    between atoms: C10_10  and  C11_11 
REMARK    4  A    between atoms: C11_11  and  N13_12 
REMARK    5  A    between atoms: C11_11  and  C39_38 
REMARK       I    between atoms: N13_12  and  C14_13 
REMARK    6  A    between atoms: C14_13  and  C16_15 
REMARK       I    between atoms: N22_21  and  C23_22 
REMARK    7  A    between atoms: C23_22  and  C25_24 
ROOT
ATOM      1  C16 ZIN A   1      18.290  -0.429   8.942  0.00  0.00     0.075 A 
ATOM      2  C17 ZIN A   1      17.861  -1.106  10.088  0.00  0.00     0.052 A 
ATOM      3 Cl18 ZIN A   1      17.649  -2.829  10.057  0.00  0.00    -0.083 Cl
ATOM      4  C19 ZIN A   1      17.606  -0.395  11.240  0.00  0.00     0.034 A 
ATOM      5  C20 ZIN A   1      17.771   0.983  11.276  0.00  0.00    -0.030 A 
ATOM      6  C21 ZIN A   1      17.446   1.694  12.566  0.00  0.00     0.165 C 
ATOM      7  N22 ZIN A   1      17.919   3.081  12.501  0.00  0.00    -0.343 N 
ATOM      8  C23 ZIN A   1      18.574   3.648  13.533  0.00  0.00     0.254 C 
ATOM      9  O24 ZIN A   1      19.050   4.760  13.414  0.00  0.00    -0.267 OA
ATOM     10  C34 ZIN A   1      17.651   3.829  11.261  0.00  0.00     0.131 C 
ATOM     11  C35 ZIN A   1      18.418   3.149  10.128  0.00  0.00     0.061 C 
ATOM     12  C36 ZIN A   1      18.202   1.658  10.154  0.00  0.00    -0.026 A 
ATOM     13  C37 ZIN A   1      18.464   0.953   8.987  0.00  0.00     0.058 A 
ATOM     14 Cl38 ZIN A   1      19.005   1.799   7.571  0.00  0.00    -0.083 Cl
ENDROOT
BRANCH   1  15
ATOM     15  C14 ZIN A   1      18.564  -1.175   7.696  0.00  0.00     0.255 C 
ATOM     16  N13 ZIN A   1      17.711  -1.086   6.656  0.00  0.00    -0.342 N 
ATOM     17  H51 ZIN A   1      16.917  -0.532   6.727  0.00  0.00     0.163 HD
ATOM     18  O15 ZIN A   1      19.558  -1.869   7.608  0.00  0.00    -0.268 OA
BRANCH  16  19
ATOM     19  C11 ZIN A   1      17.982  -1.824   5.421  0.00  0.00     0.190 C 
BRANCH  19  20
ATOM     20  C10 ZIN A   1      16.664  -2.108   4.697  0.00  0.00     0.074 C 
BRANCH  20  21
ATOM     21  C9  ZIN A   1      16.715  -3.484   4.084  0.00  0.00    -0.054 A 
ATOM     22  C8  ZIN A   1      16.409  -3.657   2.747  0.00  0.00     0.007 A 
ATOM     23  C7  ZIN A   1      16.457  -4.919   2.184  0.00  0.00     0.002 A 
ATOM     24  C6  ZIN A   1      16.811  -6.007   2.958  0.00  0.00     0.023 A 
ATOM     25  C5  ZIN A   1      17.119  -5.835   4.295  0.00  0.00     0.059 A 
ATOM     26  C42 ZIN A   1      17.066  -4.574   4.859  0.00  0.00     0.030 A 
BRANCH  25  27
ATOM     27  S2  ZIN A   1      17.570  -7.223   5.282  0.00  0.00     0.171 S 
ATOM     28  C1  ZIN A   1      16.163  -7.458   6.404  0.00  0.00     0.167 C 
ATOM     29  O3  ZIN A   1      18.713  -6.784   6.002  0.00  0.00    -0.223 OA
ATOM     30  O4  ZIN A   1      17.655  -8.298   4.357  0.00  0.00    -0.223 OA
ENDBRANCH  25  27
ENDBRANCH  20  21
ENDBRANCH  19  20
BRANCH  19  31
ATOM     31  C39 ZIN A   1      18.876  -1.001   4.530  0.00  0.00     0.197 C 
ATOM     32  O40 ZIN A   1      20.059  -1.280   4.428  0.00  0.00    -0.646 OA
ATOM     33  O41 ZIN A   1      18.417  -0.058   3.910  0.00  0.00    -0.646 OA
ENDBRANCH  19  31
ENDBRANCH  16  19
ENDBRANCH   1  15
BRANCH   8  34
ATOM     34  C25 ZIN A   1      18.713   2.919  14.809  0.00  0.00     0.034 A 
ATOM     35  C33 ZIN A   1      18.830   1.529  14.804  0.00  0.00     0.055 A 
ATOM     36  C32 ZIN A   1      18.966   0.848  16.002  0.00  0.00     0.086 A 
ATOM     37  C28 ZIN A   1      18.971   1.570  17.210  0.00  0.00    -0.001 A 
ATOM     38  O31 ZIN A   1      19.101  -0.457  16.315  0.00  0.00    -0.322 OA
ATOM     39  C27 ZIN A   1      18.847   2.961  17.203  0.00  0.00     0.015 A 
ATOM     40  C29 ZIN A   1      19.122   0.565  18.266  0.00  0.00     0.039 A 
ATOM     41  C26 ZIN A   1      18.719   3.626  16.018  0.00  0.00     0.018 A 
ATOM     42  C30 ZIN A   1      19.193  -0.623  17.645  0.00  0.00     0.143 A 
ENDBRANCH   8  34
TORSDOF 7
ENDMDL
MODEL 7
REMARK VINA RESULT:      -9.5      3.514      4.946
REMARK  7 active torsions:
REMARK  status: ('A' for Active; 'I' for Inactive)
REMARK    1  A    between atoms: S2_2  and  C5_5 
REMARK    2  A    between atoms: C9_9  and  C10_10 
REMARK    3  A    between atoms: C10_10  and  C11_11 
REMARK    4  A    between atoms: C11_11  and  N13_12 
REMARK    5  A    between atoms: C11_11  and  C39_38 
REMARK       I    between atoms: N13_12  and  C14_13 
REMARK    6  A    between atoms: C14_13  and  C16_15 
REMARK       I    between atoms: N22_21  and  C23_22 
REMARK    7  A    between atoms: C23_22  and  C25_24 
ROOT
ATOM      1  C16 ZIN A   1      18.102  -1.400   9.505  0.00  0.00     0.075 A 
ATOM      2  C17 ZIN A   1      18.064  -2.757   9.841  0.00  0.00     0.052 A 
ATOM      3 Cl18 ZIN A   1      17.908  -3.242  11.501  0.00  0.00    -0.083 Cl
ATOM      4  C19 ZIN A   1      18.152  -3.705   8.845  0.00  0.00     0.034 A 
ATOM      5  C20 ZIN A   1      18.279  -3.330   7.515  0.00  0.00    -0.030 A 
ATOM      6  C21 ZIN A   1      18.397  -4.426   6.486  0.00  0.00     0.165 C 
ATOM      7  N22 ZIN A   1      18.262  -3.859   5.139  0.00  0.00    -0.343 N 
ATOM      8  C23 ZIN A   1      17.494  -4.452   4.203  0.00  0.00     0.254 C 
ATOM      9  O24 ZIN A   1      17.311  -3.906   3.132  0.00  0.00    -0.267 OA
ATOM     10  C34 ZIN A   1      18.996  -2.615   4.853  0.00  0.00     0.131 C 
ATOM     11  C35 ZIN A   1      18.426  -1.517   5.749  0.00  0.00     0.061 C 
ATOM     12  C36 ZIN A   1      18.308  -1.994   7.173  0.00  0.00    -0.026 A 
ATOM     13  C37 ZIN A   1      18.218  -1.029   8.166  0.00  0.00     0.058 A 
ATOM     14 Cl38 ZIN A   1      18.257   0.654   7.740  0.00  0.00    -0.083 Cl
ENDROOT
BRANCH   1  15
ATOM     15  C14 ZIN A   1      18.012  -0.369  10.559  0.00  0.00     0.255 C 
ATOM     16  N13 ZIN A   1      19.136   0.182  11.059  0.00  0.00    -0.342 N 
ATOM     17  H51 ZIN A   1      20.003  -0.098  10.726  0.00  0.00     0.163 HD
ATOM     18  O15 ZIN A   1      16.926  -0.018  10.976  0.00  0.00    -0.268 OA
BRANCH  16  19
ATOM     19  C11 ZIN A   1      19.048   1.204  12.105  0.00  0.00     0.190 C 
BRANCH  19  20
ATOM     20  C10 ZIN A   1      20.046   0.882  13.218  0.00  0.00     0.074 C 
BRANCH  20  21
ATOM     21  C9  ZIN A   1      19.297   0.462  14.457  0.00  0.00    -0.054 A 
ATOM     22  C8  ZIN A   1      18.651  -0.760  14.493  0.00  0.00     0.007 A 
ATOM     23  C7  ZIN A   1      17.966  -1.146  15.629  0.00  0.00     0.002 A 
ATOM     24  C6  ZIN A   1      17.926  -0.311  16.729  0.00  0.00     0.023 A 
ATOM     25  C5  ZIN A   1      18.572   0.911  16.695  0.00  0.00     0.059 A 
ATOM     26  C42 ZIN A   1      19.254   1.299  15.556  0.00  0.00     0.030 A 
BRANCH  25  27
ATOM     27  S2  ZIN A   1      18.522   1.976  18.097  0.00  0.00     0.171 S 
ATOM     28  C1  ZIN A   1      18.464   3.648  17.394  0.00  0.00     0.167 C 
ATOM     29  O3  ZIN A   1      19.762   1.753  18.751  0.00  0.00    -0.223 OA
ATOM     30  O4  ZIN A   1      17.290   1.660  18.732  0.00  0.00    -0.223 OA
ENDBRANCH  25  27
ENDBRANCH  20  21
ENDBRANCH  19  20
BRANCH  19  31
ATOM     31  C39 ZIN A   1      19.371   2.554  11.516  0.00  0.00     0.197 C 
ATOM     32  O40 ZIN A   1      19.711   3.471  12.244  0.00  0.00    -0.646 OA
ATOM     33  O41 ZIN A   1      19.294   2.727  10.312  0.00  0.00    -0.646 OA
ENDBRANCH  19  31
ENDBRANCH  16  19
ENDBRANCH   1  15
BRANCH   8  34
ATOM     34  C25 ZIN A   1      16.876  -5.764   4.478  0.00  0.00     0.034 A 
ATOM     35  C33 ZIN A   1      17.608  -6.932   4.269  0.00  0.00     0.055 A 
ATOM     36  C32 ZIN A   1      17.028  -8.161   4.533  0.00  0.00     0.086 A 
ATOM     37  C28 ZIN A   1      15.700  -8.213   4.998  0.00  0.00    -0.001 A 
ATOM     38  O31 ZIN A   1      17.468  -9.433   4.438  0.00  0.00    -0.322 OA
ATOM     39  C27 ZIN A   1      14.976  -7.036   5.198  0.00  0.00     0.015 A 
ATOM     40  C29 ZIN A   1      15.401  -9.637   5.168  0.00  0.00     0.039 A 
ATOM     41  C26 ZIN A   1      15.556  -5.828   4.941  0.00  0.00     0.018 A 
ATOM     42  C30 ZIN A   1      16.512 -10.299   4.811  0.00  0.00     0.143 A 
ENDBRANCH   8  34
TORSDOF 7
ENDMDL
MODEL 8
REMARK VINA RESULT:      -9.1      3.566     11.759
REMARK  7 active torsions:
REMARK  status: ('A' for Active; 'I' for Inactive)
REMARK    1  A    between atoms: S2_2  and  C5_5 
REMARK    2  A    between atoms: C9_9  and  C10_10 
REMARK    3  A    between atoms: C10_10  and  C11_11 
REMARK    4  A    between atoms: C11_11  and  N13_12 
REMARK    5  A    between atoms: C11_11  and  C39_38 
REMARK       I    between atoms: N13_12  and  C14_13 
REMARK    6  A    between atoms: C14_13  and  C16_15 
REMARK       I    between atoms: N22_21  and  C23_22 
REMARK    7  A    between atoms: C23_22  and  C25_24 
ROOT
ATOM      1  C16 ZIN A   1      18.204   1.475  13.760  0.00  0.00     0.075 A 
ATOM      2  C17 ZIN A   1      18.386   2.836  13.498  0.00  0.00     0.052 A 
ATOM      3 Cl18 ZIN A   1      18.491   3.405  11.861  0.00  0.00    -0.083 Cl
ATOM      4  C19 ZIN A   1      18.483   3.723  14.548  0.00  0.00     0.034 A 
ATOM      5  C20 ZIN A   1      18.403   3.280  15.862  0.00  0.00    -0.030 A 
ATOM      6  C21 ZIN A   1      18.545   4.307  16.957  0.00  0.00     0.165 C 
ATOM      7  N22 ZIN A   1      18.180   3.710  18.247  0.00  0.00    -0.343 N 
ATOM      8  C23 ZIN A   1      17.394   4.365  19.124  0.00  0.00     0.254 C 
ATOM      9  O24 ZIN A   1      17.016   3.807  20.136  0.00  0.00    -0.267 OA
ATOM     10  C34 ZIN A   1      18.703   2.366  18.542  0.00  0.00     0.131 C 
ATOM     11  C35 ZIN A   1      18.101   1.394  17.529  0.00  0.00     0.061 C 
ATOM     12  C36 ZIN A   1      18.214   1.940  16.130  0.00  0.00    -0.026 A 
ATOM     13  C37 ZIN A   1      18.113   1.038  15.080  0.00  0.00     0.058 A 
ATOM     14 Cl38 ZIN A   1      17.878  -0.650  15.413  0.00  0.00    -0.083 Cl
ENDROOT
BRANCH   1  15
ATOM     15  C14 ZIN A   1      18.102   0.510  12.646  0.00  0.00     0.255 C 
ATOM     16  N13 ZIN A   1      19.191  -0.176  12.247  0.00  0.00    -0.342 N 
ATOM     17  H51 ZIN A   1      20.042  -0.036  12.691  0.00  0.00     0.163 HD
ATOM     18  O15 ZIN A   1      17.036   0.334  12.089  0.00  0.00    -0.268 OA
BRANCH  16  19
ATOM     19  C11 ZIN A   1      19.090  -1.133  11.143  0.00  0.00     0.190 C 
BRANCH  19  20
ATOM     20  C10 ZIN A   1      20.222  -0.882  10.145  0.00  0.00     0.074 C 
BRANCH  20  21
ATOM     21  C9  ZIN A   1      19.652  -0.305   8.875  0.00  0.00    -0.054 A 
ATOM     22  C8  ZIN A   1      19.386   1.049   8.789  0.00  0.00     0.007 A 
ATOM     23  C7  ZIN A   1      18.864   1.579   7.624  0.00  0.00     0.002 A 
ATOM     24  C6  ZIN A   1      18.609   0.755   6.544  0.00  0.00     0.023 A 
ATOM     25  C5  ZIN A   1      18.876  -0.599   6.628  0.00  0.00     0.059 A 
ATOM     26  C42 ZIN A   1      19.393  -1.129   7.796  0.00  0.00     0.030 A 
BRANCH  25  27
ATOM     27  S2  ZIN A   1      18.550  -1.650   5.252  0.00  0.00     0.171 S 
ATOM     28  C1  ZIN A   1      18.642  -3.329   5.933  0.00  0.00     0.167 C 
ATOM     29  O3  ZIN A   1      19.633  -1.412   4.365  0.00  0.00    -0.223 OA
ATOM     30  O4  ZIN A   1      17.215  -1.336   4.880  0.00  0.00    -0.223 OA
ENDBRANCH  25  27
ENDBRANCH  20  21
ENDBRANCH  19  20
BRANCH  19  31
ATOM     31  C39 ZIN A   1      19.200  -2.536  11.683  0.00  0.00     0.197 C 
ATOM     32  O40 ZIN A   1      18.201  -3.125  12.059  0.00  0.00    -0.646 OA
ATOM     33  O41 ZIN A   1      20.288  -3.083  11.742  0.00  0.00    -0.646 OA
ENDBRANCH  19  31
ENDBRANCH  16  19
ENDBRANCH   1  15
BRANCH   8  34
ATOM     34  C25 ZIN A   1      16.992   5.760  18.857  0.00  0.00     0.034 A 
ATOM     35  C33 ZIN A   1      15.888   6.021  18.046  0.00  0.00     0.055 A 
ATOM     36  C32 ZIN A   1      15.510   7.330  17.802  0.00  0.00     0.086 A 
ATOM     37  C28 ZIN A   1      16.256   8.381  18.368  0.00  0.00    -0.001 A 
ATOM     38  O31 ZIN A   1      14.514   7.888  17.083  0.00  0.00    -0.322 OA
ATOM     39  C27 ZIN A   1      17.363   8.108  19.174  0.00  0.00     0.015 A 
ATOM     40  C29 ZIN A   1      15.603   9.612  17.914  0.00  0.00     0.039 A 
ATOM     41  C26 ZIN A   1      17.726   6.815  19.414  0.00  0.00     0.018 A 
ATOM     42  C30 ZIN A   1      14.568   9.228  17.150  0.00  0.00     0.143 A 
ENDBRANCH   8  34
TORSDOF 7
ENDMDL
MODEL 9
REMARK VINA RESULT:      -8.9      2.275      3.923
REMARK  7 active torsions:
REMARK  status: ('A' for Active; 'I' for Inactive)
REMARK    1  A    between atoms: S2_2  and  C5_5 
REMARK    2  A    between atoms: C9_9  and  C10_10 
REMARK    3  A    between atoms: C10_10  and  C11_11 
REMARK    4  A    between atoms: C11_11  and  N13_12 
REMARK    5  A    between atoms: C11_11  and  C39_38 
REMARK       I    between atoms: N13_12  and  C14_13 
REMARK    6  A    between atoms: C14_13  and  C16_15 
REMARK       I    between atoms: N22_21  and  C23_22 
REMARK    7  A    between atoms: C23_22  and  C25_24 
ROOT
ATOM      1  C16 ZIN A   1      18.128   2.811  12.921  0.00  0.00     0.075 A 
ATOM      2  C17 ZIN A   1      17.550   2.985  11.661  0.00  0.00     0.052 A 
ATOM      3 Cl18 ZIN A   1      17.053   4.565  11.138  0.00  0.00    -0.083 Cl
ATOM      4  C19 ZIN A   1      17.376   1.895  10.836  0.00  0.00     0.034 A 
ATOM      5  C20 ZIN A   1      17.769   0.627  11.244  0.00  0.00    -0.030 A 
ATOM      6  C21 ZIN A   1      17.522  -0.521  10.296  0.00  0.00     0.165 C 
ATOM      7  N22 ZIN A   1      18.223  -1.718  10.774  0.00  0.00    -0.343 N 
ATOM      8  C23 ZIN A   1      18.926  -2.501   9.931  0.00  0.00     0.254 C 
ATOM      9  O24 ZIN A   1      19.586  -3.424  10.368  0.00  0.00    -0.267 OA
ATOM     10  C34 ZIN A   1      18.130  -2.028  12.210  0.00  0.00     0.131 C 
ATOM     11  C35 ZIN A   1      18.812  -0.898  12.979  0.00  0.00     0.061 C 
ATOM     12  C36 ZIN A   1      18.349   0.446  12.482  0.00  0.00    -0.026 A 
ATOM     13  C37 ZIN A   1      18.530   1.537  13.320  0.00  0.00     0.058 A 
ATOM     14 Cl38 ZIN A   1      19.258   1.313  14.881  0.00  0.00    -0.083 Cl
ENDROOT
BRANCH   1  15
ATOM     15  C14 ZIN A   1      18.318   3.968  13.820  0.00  0.00     0.255 C 
ATOM     16  N13 ZIN A   1      17.298   4.399  14.588  0.00  0.00    -0.342 N 
ATOM     17  H51 ZIN A   1      16.439   3.950  14.550  0.00  0.00     0.163 HD
ATOM     18  O15 ZIN A   1      19.394   4.532  13.867  0.00  0.00    -0.268 OA
BRANCH  16  19
ATOM     19  C11 ZIN A   1      17.485   5.546  15.479  0.00  0.00     0.190 C 
BRANCH  19  20
ATOM     20  C10 ZIN A   1      18.584   5.229  16.495  0.00  0.00     0.074 C 
BRANCH  20  21
ATOM     21  C9  ZIN A   1      18.055   4.256  17.518  0.00  0.00    -0.054 A 
ATOM     22  C8  ZIN A   1      17.113   4.668  18.441  0.00  0.00     0.007 A 
ATOM     23  C7  ZIN A   1      16.627   3.776  19.379  0.00  0.00     0.002 A 
ATOM     24  C6  ZIN A   1      17.084   2.472  19.393  0.00  0.00     0.023 A 
ATOM     25  C5  ZIN A   1      18.026   2.059  18.469  0.00  0.00     0.059 A 
ATOM     26  C42 ZIN A   1      18.515   2.953  17.534  0.00  0.00     0.030 A 
BRANCH  25  27
ATOM     27  S2  ZIN A   1      18.608   0.396  18.486  0.00  0.00     0.171 S 
ATOM     28  C1  ZIN A   1      17.770  -0.392  17.083  0.00  0.00     0.167 C 
ATOM     29  O3  ZIN A   1      18.127  -0.131  19.714  0.00  0.00    -0.223 OA
ATOM     30  O4  ZIN A   1      20.002   0.511  18.233  0.00  0.00    -0.223 OA
ENDBRANCH  25  27
ENDBRANCH  20  21
ENDBRANCH  19  20
BRANCH  19  31
ATOM     31  C39 ZIN A   1      17.886   6.752  14.668  0.00  0.00     0.197 C 
ATOM     32  O40 ZIN A   1      17.192   7.116  13.733  0.00  0.00    -0.646 OA
ATOM     33  O41 ZIN A   1      18.902   7.364  14.947  0.00  0.00    -0.646 OA
ENDBRANCH  19  31
ENDBRANCH  16  19
ENDBRANCH   1  15
BRANCH   8  34
ATOM     34  C25 ZIN A   1      18.893  -2.239   8.479  0.00  0.00     0.034 A 
ATOM     35  C33 ZIN A   1      19.111  -0.947   8.003  0.00  0.00     0.055 A 
ATOM     36  C32 ZIN A   1      19.085  -0.704   6.640  0.00  0.00     0.086 A 
ATOM     37  C28 ZIN A   1      18.827  -1.768   5.754  0.00  0.00    -0.001 A 
ATOM     38  O31 ZIN A   1      19.259   0.405   5.892  0.00  0.00    -0.322 OA
ATOM     39  C27 ZIN A   1      18.605  -3.057   6.244  0.00  0.00     0.015 A 
ATOM     40  C29 ZIN A   1      18.865  -1.178   4.413  0.00  0.00     0.039 A 
ATOM     41  C26 ZIN A   1      18.637  -3.288   7.588  0.00  0.00     0.018 A 
ATOM     42  C30 ZIN A   1      19.130   0.127   4.585  0.00  0.00     0.143 A 
ENDBRANCH   8  34
TORSDOF 7
ENDMDL
