MODEL 1
REMARK VINA RESULT:     -11.1      0.000      0.000
REMARK  4 active torsions:
REMARK  status: ('A' for Active; 'I' for Inactive)
REMARK    1  A    between atoms: O2_2  and  C3_3 
REMARK    2  A    between atoms: C6_6  and  C7_7 
REMARK    3  A    between atoms: C12_12  and  C13_13 
REMARK    4  A    between atoms: C21_21  and  C22_22 
ROOT
ATOM      1  C3  ZIN A   1      18.873   3.202  14.741  0.00  0.00     0.075 A 
ATOM      2  C4  ZIN A   1      19.024   4.164  13.752  0.00  0.00     0.038 A 
ATOM      3  C5  ZIN A   1      19.036   3.792  12.424  0.00  0.00     0.015 A 
ATOM      4  C6  ZIN A   1      18.896   2.450  12.075  0.00  0.00    -0.025 A 
ATOM      5  C20 ZIN A   1      18.744   1.486  13.072  0.00  0.00     0.023 A 
ATOM      6  C21 ZIN A   1      18.737   1.863  14.398  0.00  0.00    -0.015 A 
ENDROOT
BRANCH   4   7
ATOM      7  C7  ZIN A   1      18.908   2.047  10.648  0.00  0.00    -0.025 A 
ATOM      8  C19 ZIN A   1      19.095   0.718  10.313  0.00  0.00     0.024 A 
ATOM      9  C18 ZIN A   1      19.101   0.340   8.963  0.00  0.00    -0.025 A 
ATOM     10  C10 ZIN A   1      18.925   1.330   7.961  0.00  0.00    -0.025 A 
ATOM     11  C17 ZIN A   1      19.284  -1.006   8.590  0.00  0.00     0.013 A 
ATOM     12  C9  ZIN A   1      18.741   2.674   8.335  0.00  0.00     0.013 A 
ATOM     13  C11 ZIN A   1      18.935   0.954   6.611  0.00  0.00     0.030 A 
ATOM     14  C8  ZIN A   1      18.734   3.019   9.649  0.00  0.00     0.013 A 
ATOM     15  C12 ZIN A   1      19.119  -0.380   6.275  0.00  0.00     0.041 A 
ATOM     16  C16 ZIN A   1      19.293  -1.352   7.278  0.00  0.00     0.019 A 
BRANCH  15  17
ATOM     17  C13 ZIN A   1      19.133  -0.781   4.857  0.00  0.00     0.209 C 
ATOM     18  O14 ZIN A   1      19.714  -1.802   4.515  0.00  0.00    -0.644 OA
ATOM     19  O15 ZIN A   1      18.564  -0.094   4.022  0.00  0.00    -0.644 OA
ENDBRANCH  15  17
ENDBRANCH   4   7
BRANCH   6  20
ATOM     20  C22 ZIN A   1      18.574   0.823  15.476  0.00  0.00    -0.009 C 
ATOM     21  C30 ZIN A   1      17.090   0.665  15.811  0.00  0.00     0.019 C 
ATOM     22  C28 ZIN A   1      16.925  -0.391  16.906  0.00  0.00    -0.013 C 
ATOM     23  C27 ZIN A   1      17.481  -1.728  16.413  0.00  0.00     0.009 C 
ATOM     24  C29 ZIN A   1      17.687   0.048  18.158  0.00  0.00     0.009 C 
ATOM     25  C26 ZIN A   1      18.966  -1.570  16.077  0.00  0.00    -0.013 C 
ATOM     26  C25 ZIN A   1      19.728  -1.131  17.329  0.00  0.00     0.009 C 
ATOM     27  C31 ZIN A   1      19.131  -0.515  14.983  0.00  0.00     0.019 C 
ATOM     28  C24 ZIN A   1      19.171   0.206  17.822  0.00  0.00    -0.013 C 
ATOM     29  C23 ZIN A   1      19.336   1.261  16.727  0.00  0.00     0.019 C 
ENDBRANCH   6  20
BRANCH   1  30
ATOM     30  O2  ZIN A   1      18.860   3.572  16.049  0.00  0.00    -0.355 OA
ATOM     31  C1  ZIN A   1      19.366   4.871  16.361  0.00  0.00     0.210 C 
ENDBRANCH   1  30
TORSDOF 4
ENDMDL
MODEL 2
REMARK VINA RESULT:     -10.2      2.260      9.711
REMARK  4 active torsions:
REMARK  status: ('A' for Active; 'I' for Inactive)
REMARK    1  A    between atoms: O2_2  and  C3_3 
REMARK    2  A    between atoms: C6_6  and  C7_7 
REMARK    3  A    between atoms: C12_12  and  C13_13 
REMARK    4  A    between atoms: C21_21  and  C22_22 
ROOT
ATOM      1  C3  ZIN A   1      19.105  -3.347   8.837  0.00  0.00     0.075 A 
ATOM      2  C4  ZIN A   1      19.311  -3.988  10.051  0.00  0.00     0.038 A 
ATOM      3  C5  ZIN A   1      19.316  -3.261  11.224  0.00  0.00     0.015 A 
ATOM      4  C6  ZIN A   1      19.114  -1.882  11.189  0.00  0.00    -0.025 A 
ATOM      5  C20 ZIN A   1      18.908  -1.242   9.966  0.00  0.00     0.023 A 
ATOM      6  C21 ZIN A   1      18.908  -1.973   8.798  0.00  0.00    -0.015 A 
ENDROOT
BRANCH   4   7
ATOM      7  C7  ZIN A   1      19.119  -1.098  12.447  0.00  0.00    -0.025 A 
ATOM      8  C19 ZIN A   1      18.659  -1.676  13.617  0.00  0.00     0.024 A 
ATOM      9  C18 ZIN A   1      18.670  -0.933  14.806  0.00  0.00    -0.025 A 
ATOM     10  C10 ZIN A   1      19.144   0.405  14.787  0.00  0.00    -0.025 A 
ATOM     11  C17 ZIN A   1      18.213  -1.495  16.014  0.00  0.00     0.013 A 
ATOM     12  C9  ZIN A   1      19.600   0.965  13.579  0.00  0.00     0.013 A 
ATOM     13  C11 ZIN A   1      19.150   1.150  15.974  0.00  0.00     0.030 A 
ATOM     14  C8  ZIN A   1      19.586   0.226  12.440  0.00  0.00     0.013 A 
ATOM     15  C12 ZIN A   1      18.693   0.569  17.148  0.00  0.00     0.041 A 
ATOM     16  C16 ZIN A   1      18.226  -0.759  17.153  0.00  0.00     0.019 A 
BRANCH  15  17
ATOM     17  C13 ZIN A   1      18.696   1.348  18.399  0.00  0.00     0.209 C 
ATOM     18  O14 ZIN A   1      19.722   1.897  18.776  0.00  0.00    -0.644 OA
ATOM     19  O15 ZIN A   1      17.673   1.446  19.060  0.00  0.00    -0.644 OA
ENDBRANCH  15  17
ENDBRANCH   4   7
BRANCH   6  20
ATOM     20  C22 ZIN A   1      18.686  -1.282   7.477  0.00  0.00    -0.009 C 
ATOM     21  C30 ZIN A   1      19.346  -2.093   6.360  0.00  0.00     0.019 C 
ATOM     22  C28 ZIN A   1      19.121  -1.390   5.020  0.00  0.00    -0.013 C 
ATOM     23  C27 ZIN A   1      17.619  -1.276   4.749  0.00  0.00     0.009 C 
ATOM     24  C29 ZIN A   1      19.738   0.009   5.067  0.00  0.00     0.009 C 
ATOM     25  C26 ZIN A   1      16.960  -0.465   5.867  0.00  0.00    -0.013 C 
ATOM     26  C25 ZIN A   1      17.577   0.934   5.914  0.00  0.00     0.009 C 
ATOM     27  C31 ZIN A   1      17.185  -1.168   7.207  0.00  0.00     0.019 C 
ATOM     28  C24 ZIN A   1      19.078   0.820   6.185  0.00  0.00    -0.013 C 
ATOM     29  C23 ZIN A   1      19.303   0.117   7.525  0.00  0.00     0.019 C 
ENDBRANCH   6  20
BRANCH   1  30
ATOM     30  O2  ZIN A   1      19.099  -4.066   7.684  0.00  0.00    -0.355 OA
ATOM     31  C1  ZIN A   1      19.389  -5.462   7.789  0.00  0.00     0.210 C 
ENDBRANCH   1  30
TORSDOF 4
ENDMDL
MODEL 3
REMARK VINA RESULT:     -10.1      2.766      9.114
REMARK  4 active torsions:
REMARK  status: ('A' for Active; 'I' for Inactive)
REMARK    1  A    between atoms: O2_2  and  C3_3 
REMARK    2  A    between atoms: C6_6  and  C7_7 
REMARK    3  A    between atoms: C12_12  and  C13_13 
REMARK    4  A    between atoms: C21_21  and  C22_22 
ROOT
ATOM      1  C3  ZIN A   1      17.914  -1.271   7.849  0.00  0.00     0.075 A 
ATOM      2  C4  ZIN A   1      17.552   0.023   8.198  0.00  0.00     0.038 A 
ATOM      3  C5  ZIN A   1      17.644   0.435   9.511  0.00  0.00     0.015 A 
ATOM      4  C6  ZIN A   1      18.101  -0.448  10.488  0.00  0.00    -0.025 A 
ATOM      5  C20 ZIN A   1      18.465  -1.748  10.133  0.00  0.00     0.023 A 
ATOM      6  C21 ZIN A   1      18.367  -2.155   8.819  0.00  0.00    -0.015 A 
ENDROOT
BRANCH   4   7
ATOM      7  C7  ZIN A   1      18.202  -0.009  11.900  0.00  0.00    -0.025 A 
ATOM      8  C19 ZIN A   1      18.479  -0.937  12.889  0.00  0.00     0.024 A 
ATOM      9  C18 ZIN A   1      18.578  -0.516  14.223  0.00  0.00    -0.025 A 
ATOM     10  C10 ZIN A   1      18.382   0.854  14.538  0.00  0.00    -0.025 A 
ATOM     11  C17 ZIN A   1      18.863  -1.435  15.251  0.00  0.00     0.013 A 
ATOM     12  C9  ZIN A   1      18.097   1.772  13.509  0.00  0.00     0.013 A 
ATOM     13  C11 ZIN A   1      18.476   1.274  15.872  0.00  0.00     0.030 A 
ATOM     14  C8  ZIN A   1      18.011   1.344  12.223  0.00  0.00     0.013 A 
ATOM     15  C12 ZIN A   1      18.758   0.344  16.863  0.00  0.00     0.041 A 
ATOM     16  C16 ZIN A   1      18.950  -1.011  16.536  0.00  0.00     0.019 A 
BRANCH  15  17
ATOM     17  C13 ZIN A   1      18.856   0.780  18.267  0.00  0.00     0.209 C 
ATOM     18  O14 ZIN A   1      17.955   0.522  19.053  0.00  0.00    -0.644 OA
ATOM     19  O15 ZIN A   1      19.839   1.400  18.647  0.00  0.00    -0.644 OA
ENDBRANCH  15  17
ENDBRANCH   4   7
BRANCH   6  20
ATOM     20  C22 ZIN A   1      18.758  -3.558   8.435  0.00  0.00    -0.009 C 
ATOM     21  C30 ZIN A   1      19.421  -4.248   9.629  0.00  0.00     0.019 C 
ATOM     22  C28 ZIN A   1      19.821  -5.672   9.238  0.00  0.00    -0.013 C 
ATOM     23  C27 ZIN A   1      18.572  -6.456   8.826  0.00  0.00     0.009 C 
ATOM     24  C29 ZIN A   1      20.803  -5.624   8.067  0.00  0.00     0.009 C 
ATOM     25  C26 ZIN A   1      17.909  -5.766   7.632  0.00  0.00    -0.013 C 
ATOM     26  C25 ZIN A   1      18.892  -5.718   6.460  0.00  0.00     0.009 C 
ATOM     27  C31 ZIN A   1      17.511  -4.342   8.022  0.00  0.00     0.019 C 
ATOM     28  C24 ZIN A   1      20.140  -4.934   6.873  0.00  0.00    -0.013 C 
ATOM     29  C23 ZIN A   1      19.741  -3.510   7.264  0.00  0.00     0.019 C 
ENDBRANCH   6  20
BRANCH   1  30
ATOM     30  O2  ZIN A   1      17.824  -1.673   6.554  0.00  0.00    -0.355 OA
ATOM     31  C1  ZIN A   1      17.683  -0.651   5.565  0.00  0.00     0.210 C 
ENDBRANCH   1  30
TORSDOF 4
ENDMDL
MODEL 4
REMARK VINA RESULT:      -9.9      3.391      8.082
REMARK  4 active torsions:
REMARK  status: ('A' for Active; 'I' for Inactive)
REMARK    1  A    between atoms: O2_2  and  C3_3 
REMARK    2  A    between atoms: C6_6  and  C7_7 
REMARK    3  A    between atoms: C12_12  and  C13_13 
REMARK    4  A    between atoms: C21_21  and  C22_22 
ROOT
ATOM      1  C3  ZIN A   1      19.114   0.265   8.494  0.00  0.00     0.075 A 
ATOM      2  C4  ZIN A   1      19.190   1.579   8.052  0.00  0.00     0.038 A 
ATOM      3  C5  ZIN A   1      18.857   2.614   8.900  0.00  0.00     0.015 A 
ATOM      4  C6  ZIN A   1      18.444   2.341  10.203  0.00  0.00    -0.025 A 
ATOM      5  C20 ZIN A   1      18.369   1.020  10.645  0.00  0.00     0.023 A 
ATOM      6  C21 ZIN A   1      18.699  -0.011   9.790  0.00  0.00    -0.015 A 
ENDROOT
BRANCH   4   7
ATOM      7  C7  ZIN A   1      18.086   3.451  11.117  0.00  0.00    -0.025 A 
ATOM      8  C19 ZIN A   1      18.948   3.802  12.142  0.00  0.00     0.024 A 
ATOM      9  C18 ZIN A   1      18.608   4.856  13.001  0.00  0.00    -0.025 A 
ATOM     10  C10 ZIN A   1      17.378   5.540  12.812  0.00  0.00    -0.025 A 
ATOM     11  C17 ZIN A   1      19.466   5.239  14.050  0.00  0.00     0.013 A 
ATOM     12  C9  ZIN A   1      16.521   5.156  11.764  0.00  0.00     0.013 A 
ATOM     13  C11 ZIN A   1      17.035   6.590  13.674  0.00  0.00     0.030 A 
ATOM     14  C8  ZIN A   1      16.872   4.136  10.939  0.00  0.00     0.013 A 
ATOM     15  C12 ZIN A   1      17.902   6.944  14.699  0.00  0.00     0.041 A 
ATOM     16  C16 ZIN A   1      19.118   6.257  14.875  0.00  0.00     0.019 A 
BRANCH  15  17
ATOM     17  C13 ZIN A   1      17.546   8.047  15.609  0.00  0.00     0.209 C 
ATOM     18  O14 ZIN A   1      16.580   8.757  15.363  0.00  0.00    -0.644 OA
ATOM     19  O15 ZIN A   1      18.216   8.253  16.611  0.00  0.00    -0.644 OA
ENDBRANCH  15  17
ENDBRANCH   4   7
BRANCH   6  20
ATOM     20  C22 ZIN A   1      18.617  -1.438  10.267  0.00  0.00    -0.009 C 
ATOM     21  C30 ZIN A   1      20.005  -1.911  10.701  0.00  0.00     0.019 C 
ATOM     22  C28 ZIN A   1      19.922  -3.361  11.183  0.00  0.00    -0.013 C 
ATOM     23  C27 ZIN A   1      18.959  -3.449  12.369  0.00  0.00     0.009 C 
ATOM     24  C29 ZIN A   1      19.413  -4.249  10.046  0.00  0.00     0.009 C 
ATOM     25  C26 ZIN A   1      17.570  -2.976  11.935  0.00  0.00    -0.013 C 
ATOM     26  C25 ZIN A   1      17.062  -3.864  10.798  0.00  0.00     0.009 C 
ATOM     27  C31 ZIN A   1      17.654  -1.527  11.452  0.00  0.00     0.019 C 
ATOM     28  C24 ZIN A   1      18.025  -3.775   9.612  0.00  0.00    -0.013 C 
ATOM     29  C23 ZIN A   1      18.108  -2.326   9.130  0.00  0.00     0.019 C 
ENDBRANCH   6  20
BRANCH   1  30
ATOM     30  O2  ZIN A   1      19.444  -0.752   7.657  0.00  0.00    -0.355 OA
ATOM     31  C1  ZIN A   1      19.113  -0.589   6.276  0.00  0.00     0.210 C 
ENDBRANCH   1  30
TORSDOF 4
ENDMDL
MODEL 5
REMARK VINA RESULT:      -9.9      3.280      7.990
REMARK  4 active torsions:
REMARK  status: ('A' for Active; 'I' for Inactive)
REMARK    1  A    between atoms: O2_2  and  C3_3 
REMARK    2  A    between atoms: C6_6  and  C7_7 
REMARK    3  A    between atoms: C12_12  and  C13_13 
REMARK    4  A    between atoms: C21_21  and  C22_22 
ROOT
ATOM      1  C3  ZIN A   1      19.113   0.084   8.379  0.00  0.00     0.075 A 
ATOM      2  C4  ZIN A   1      19.202   1.397   7.938  0.00  0.00     0.038 A 
ATOM      3  C5  ZIN A   1      18.871   2.434   8.785  0.00  0.00     0.015 A 
ATOM      4  C6  ZIN A   1      18.446   2.163  10.085  0.00  0.00    -0.025 A 
ATOM      5  C20 ZIN A   1      18.358   0.841  10.525  0.00  0.00     0.023 A 
ATOM      6  C21 ZIN A   1      18.686  -0.190   9.672  0.00  0.00    -0.015 A 
ENDROOT
BRANCH   4   7
ATOM      7  C7  ZIN A   1      18.089   3.275  10.998  0.00  0.00    -0.025 A 
ATOM      8  C19 ZIN A   1      18.815   3.467  12.161  0.00  0.00     0.024 A 
ATOM      9  C18 ZIN A   1      18.478   4.523  13.019  0.00  0.00    -0.025 A 
ATOM     10  C10 ZIN A   1      17.390   5.372  12.686  0.00  0.00    -0.025 A 
ATOM     11  C17 ZIN A   1      19.201   4.748  14.207  0.00  0.00     0.013 A 
ATOM     12  C9  ZIN A   1      16.669   5.146  11.499  0.00  0.00     0.013 A 
ATOM     13  C11 ZIN A   1      17.049   6.424  13.546  0.00  0.00     0.030 A 
ATOM     14  C8  ZIN A   1      17.015   4.121  10.678  0.00  0.00     0.013 A 
ATOM     15  C12 ZIN A   1      17.779   6.620  14.710  0.00  0.00     0.041 A 
ATOM     16  C16 ZIN A   1      18.856   5.771  15.028  0.00  0.00     0.019 A 
BRANCH  15  17
ATOM     17  C13 ZIN A   1      17.425   7.724  15.619  0.00  0.00     0.209 C 
ATOM     18  O14 ZIN A   1      16.277   8.148  15.648  0.00  0.00    -0.644 OA
ATOM     19  O15 ZIN A   1      18.277   8.217  16.343  0.00  0.00    -0.644 OA
ENDBRANCH  15  17
ENDBRANCH   4   7
BRANCH   6  20
ATOM     20  C22 ZIN A   1      18.590  -1.618  10.146  0.00  0.00    -0.009 C 
ATOM     21  C30 ZIN A   1      18.173  -2.516   8.979  0.00  0.00     0.019 C 
ATOM     22  C28 ZIN A   1      18.074  -3.964   9.461  0.00  0.00    -0.013 C 
ATOM     23  C27 ZIN A   1      19.435  -4.418   9.992  0.00  0.00     0.009 C 
ATOM     24  C29 ZIN A   1      17.032  -4.061  10.578  0.00  0.00     0.009 C 
ATOM     25  C26 ZIN A   1      19.853  -3.521  11.159  0.00  0.00    -0.013 C 
ATOM     26  C25 ZIN A   1      18.811  -3.618  12.275  0.00  0.00     0.009 C 
ATOM     27  C31 ZIN A   1      19.951  -2.072  10.677  0.00  0.00     0.019 C 
ATOM     28  C24 ZIN A   1      17.450  -3.163  11.744  0.00  0.00    -0.013 C 
ATOM     29  C23 ZIN A   1      17.548  -1.715  11.262  0.00  0.00     0.019 C 
ENDBRANCH   6  20
BRANCH   1  30
ATOM     30  O2  ZIN A   1      19.442  -0.935   7.543  0.00  0.00    -0.355 OA
ATOM     31  C1  ZIN A   1      19.210  -0.729   6.148  0.00  0.00     0.210 C 
ENDBRANCH   1  30
TORSDOF 4
ENDMDL
MODEL 6
REMARK VINA RESULT:      -9.8      1.234      4.089
REMARK  4 active torsions:
REMARK  status: ('A' for Active; 'I' for Inactive)
REMARK    1  A    between atoms: O2_2  and  C3_3 
REMARK    2  A    between atoms: C6_6  and  C7_7 
REMARK    3  A    between atoms: C12_12  and  C13_13 
REMARK    4  A    between atoms: C21_21  and  C22_22 
ROOT
ATOM      1  C3  ZIN A   1      18.181   1.281  15.318  0.00  0.00     0.075 A 
ATOM      2  C4  ZIN A   1      17.954  -0.038  14.951  0.00  0.00     0.038 A 
ATOM      3  C5  ZIN A   1      18.065  -0.416  13.629  0.00  0.00     0.015 A 
ATOM      4  C6  ZIN A   1      18.406   0.528  12.661  0.00  0.00    -0.025 A 
ATOM      5  C20 ZIN A   1      18.633   1.853  13.034  0.00  0.00     0.023 A 
ATOM      6  C21 ZIN A   1      18.516   2.225  14.356  0.00  0.00    -0.015 A 
ENDROOT
BRANCH   4   7
ATOM      7  C7  ZIN A   1      18.526   0.125  11.240  0.00  0.00    -0.025 A 
ATOM      8  C19 ZIN A   1      18.672   1.094  10.262  0.00  0.00     0.024 A 
ATOM      9  C18 ZIN A   1      18.790   0.709   8.920  0.00  0.00    -0.025 A 
ATOM     10  C10 ZIN A   1      18.748  -0.669   8.583  0.00  0.00    -0.025 A 
ATOM     11  C17 ZIN A   1      18.945   1.672   7.903  0.00  0.00     0.013 A 
ATOM     12  C9  ZIN A   1      18.594  -1.630   9.600  0.00  0.00     0.013 A 
ATOM     13  C11 ZIN A   1      18.862  -1.054   7.241  0.00  0.00     0.030 A 
ATOM     14  C8  ZIN A   1      18.486  -1.236  10.896  0.00  0.00     0.013 A 
ATOM     15  C12 ZIN A   1      19.012  -0.082   6.261  0.00  0.00     0.041 A 
ATOM     16  C16 ZIN A   1      19.052   1.281   6.609  0.00  0.00     0.019 A 
BRANCH  15  17
ATOM     17  C13 ZIN A   1      19.130  -0.481   4.848  0.00  0.00     0.209 C 
ATOM     18  O14 ZIN A   1      18.372  -0.008   4.012  0.00  0.00    -0.644 OA
ATOM     19  O15 ZIN A   1      19.985  -1.287   4.509  0.00  0.00    -0.644 OA
ENDBRANCH  15  17
ENDBRANCH   4   7
BRANCH   6  20
ATOM     20  C22 ZIN A   1      18.761   3.656  14.759  0.00  0.00    -0.009 C 
ATOM     21  C30 ZIN A   1      17.433   4.311  15.146  0.00  0.00     0.019 C 
ATOM     22  C28 ZIN A   1      17.682   5.765  15.554  0.00  0.00    -0.013 C 
ATOM     23  C27 ZIN A   1      18.636   5.802  16.750  0.00  0.00     0.009 C 
ATOM     24  C29 ZIN A   1      18.303   6.525  14.381  0.00  0.00     0.009 C 
ATOM     25  C26 ZIN A   1      19.964   5.147  16.363  0.00  0.00    -0.013 C 
ATOM     26  C25 ZIN A   1      20.585   5.908  15.190  0.00  0.00     0.009 C 
ATOM     27  C31 ZIN A   1      19.715   3.694  15.955  0.00  0.00     0.019 C 
ATOM     28  C24 ZIN A   1      19.630   5.870  13.995  0.00  0.00    -0.013 C 
ATOM     29  C23 ZIN A   1      19.382   4.417  13.587  0.00  0.00     0.019 C 
ENDBRANCH   6  20
BRANCH   1  30
ATOM     30  O2  ZIN A   1      18.072   1.650  16.621  0.00  0.00    -0.355 OA
ATOM     31  C1  ZIN A   1      17.829   0.610  17.571  0.00  0.00     0.210 C 
ENDBRANCH   1  30
TORSDOF 4
ENDMDL
MODEL 7
REMARK VINA RESULT:      -9.7      3.676      5.953
REMARK  4 active torsions:
REMARK  status: ('A' for Active; 'I' for Inactive)
REMARK    1  A    between atoms: O2_2  and  C3_3 
REMARK    2  A    between atoms: C6_6  and  C7_7 
REMARK    3  A    between atoms: C12_12  and  C13_13 
REMARK    4  A    between atoms: C21_21  and  C22_22 
ROOT
ATOM      1  C3  ZIN A   1      19.004   0.351  14.616  0.00  0.00     0.075 A 
ATOM      2  C4  ZIN A   1      19.147  -0.948  15.085  0.00  0.00     0.038 A 
ATOM      3  C5  ZIN A   1      19.087  -2.010  14.208  0.00  0.00     0.015 A 
ATOM      4  C6  ZIN A   1      18.881  -1.779  12.848  0.00  0.00    -0.025 A 
ATOM      5  C20 ZIN A   1      18.738  -0.473  12.380  0.00  0.00     0.023 A 
ATOM      6  C21 ZIN A   1      18.795   0.584  13.263  0.00  0.00    -0.015 A 
ENDROOT
BRANCH   4   7
ATOM      7  C7  ZIN A   1      18.816  -2.919  11.902  0.00  0.00    -0.025 A 
ATOM      8  C19 ZIN A   1      17.585  -3.369  11.456  0.00  0.00     0.024 A 
ATOM      9  C18 ZIN A   1      17.528  -4.444  10.557  0.00  0.00    -0.025 A 
ATOM     10  C10 ZIN A   1      18.733  -5.059  10.127  0.00  0.00    -0.025 A 
ATOM     11  C17 ZIN A   1      16.292  -4.922  10.081  0.00  0.00     0.013 A 
ATOM     12  C9  ZIN A   1      19.968  -4.579  10.604  0.00  0.00     0.013 A 
ATOM     13  C11 ZIN A   1      18.676  -6.136   9.233  0.00  0.00     0.030 A 
ATOM     14  C8  ZIN A   1      20.002  -3.534  11.470  0.00  0.00     0.013 A 
ATOM     15  C12 ZIN A   1      17.442  -6.586   8.783  0.00  0.00     0.041 A 
ATOM     16  C16 ZIN A   1      16.255  -5.967   9.217  0.00  0.00     0.019 A 
BRANCH  15  17
ATOM     17  C13 ZIN A   1      17.376  -7.719   7.844  0.00  0.00     0.209 C 
ATOM     18  O14 ZIN A   1      16.570  -8.621   8.028  0.00  0.00    -0.644 OA
ATOM     19  O15 ZIN A   1      18.127  -7.759   6.880  0.00  0.00    -0.644 OA
ENDBRANCH  15  17
ENDBRANCH   4   7
BRANCH   6  20
ATOM     20  C22 ZIN A   1      18.639   1.996  12.758  0.00  0.00    -0.009 C 
ATOM     21  C30 ZIN A   1      17.543   2.038  11.691  0.00  0.00     0.019 C 
ATOM     22  C28 ZIN A   1      17.386   3.470  11.178  0.00  0.00    -0.013 C 
ATOM     23  C27 ZIN A   1      17.002   4.389  12.340  0.00  0.00     0.009 C 
ATOM     24  C29 ZIN A   1      18.708   3.942  10.569  0.00  0.00     0.009 C 
ATOM     25  C26 ZIN A   1      18.098   4.347  13.406  0.00  0.00    -0.013 C 
ATOM     26  C25 ZIN A   1      19.420   4.819  12.798  0.00  0.00     0.009 C 
ATOM     27  C31 ZIN A   1      18.256   2.915  13.919  0.00  0.00     0.019 C 
ATOM     28  C24 ZIN A   1      19.803   3.900  11.636  0.00  0.00    -0.013 C 
ATOM     29  C23 ZIN A   1      19.961   2.468  12.149  0.00  0.00     0.019 C 
ENDBRANCH   6  20
BRANCH   1  30
ATOM     30  O2  ZIN A   1      19.065   1.395  15.482  0.00  0.00    -0.355 OA
ATOM     31  C1  ZIN A   1      18.904   1.097  16.871  0.00  0.00     0.210 C 
ENDBRANCH   1  30
TORSDOF 4
ENDMDL
MODEL 8
REMARK VINA RESULT:      -9.6      1.667      4.092
REMARK  4 active torsions:
REMARK  status: ('A' for Active; 'I' for Inactive)
REMARK    1  A    between atoms: O2_2  and  C3_3 
REMARK    2  A    between atoms: C6_6  and  C7_7 
REMARK    3  A    between atoms: C12_12  and  C13_13 
REMARK    4  A    between atoms: C21_21  and  C22_22 
ROOT
ATOM      1  C3  ZIN A   1      18.845   2.453  14.983  0.00  0.00     0.075 A 
ATOM      2  C4  ZIN A   1      19.300   1.228  14.515  0.00  0.00     0.038 A 
ATOM      3  C5  ZIN A   1      19.332   0.976  13.159  0.00  0.00     0.015 A 
ATOM      4  C6  ZIN A   1      18.907   1.952  12.259  0.00  0.00    -0.025 A 
ATOM      5  C20 ZIN A   1      18.450   3.182  12.733  0.00  0.00     0.023 A 
ATOM      6  C21 ZIN A   1      18.417   3.426  14.090  0.00  0.00    -0.015 A 
ENDROOT
BRANCH   4   7
ATOM      7  C7  ZIN A   1      18.940   1.684  10.801  0.00  0.00    -0.025 A 
ATOM      8  C19 ZIN A   1      19.065   0.383  10.346  0.00  0.00     0.024 A 
ATOM      9  C18 ZIN A   1      19.090   0.133   8.967  0.00  0.00    -0.025 A 
ATOM     10  C10 ZIN A   1      18.998   1.221   8.059  0.00  0.00    -0.025 A 
ATOM     11  C17 ZIN A   1      19.211  -1.180   8.472  0.00  0.00     0.013 A 
ATOM     12  C9  ZIN A   1      18.877   2.533   8.555  0.00  0.00     0.013 A 
ATOM     13  C11 ZIN A   1      19.029   0.973   6.681  0.00  0.00     0.030 A 
ATOM     14  C8  ZIN A   1      18.849   2.753   9.895  0.00  0.00     0.013 A 
ATOM     15  C12 ZIN A   1      19.150  -0.332   6.224  0.00  0.00     0.041 A 
ATOM     16  C16 ZIN A   1      19.240  -1.402   7.134  0.00  0.00     0.019 A 
BRANCH  15  17
ATOM     17  C13 ZIN A   1      19.184  -0.599   4.775  0.00  0.00     0.209 C 
ATOM     18  O14 ZIN A   1      19.627  -1.661   4.358  0.00  0.00    -0.644 OA
ATOM     19  O15 ZIN A   1      18.770   0.240   3.989  0.00  0.00    -0.644 OA
ENDBRANCH  15  17
ENDBRANCH   4   7
BRANCH   6  20
ATOM     20  C22 ZIN A   1      17.923   4.754  14.603  0.00  0.00    -0.009 C 
ATOM     21  C30 ZIN A   1      16.746   5.226  13.746  0.00  0.00     0.019 C 
ATOM     22  C28 ZIN A   1      16.246   6.575  14.267  0.00  0.00    -0.013 C 
ATOM     23  C27 ZIN A   1      15.790   6.423  15.720  0.00  0.00     0.009 C 
ATOM     24  C29 ZIN A   1      17.377   7.603  14.192  0.00  0.00     0.009 C 
ATOM     25  C26 ZIN A   1      16.967   5.951  16.577  0.00  0.00    -0.013 C 
ATOM     26  C25 ZIN A   1      18.097   6.979  16.502  0.00  0.00     0.009 C 
ATOM     27  C31 ZIN A   1      17.467   4.603  16.056  0.00  0.00     0.019 C 
ATOM     28  C24 ZIN A   1      18.553   7.130  15.049  0.00  0.00    -0.013 C 
ATOM     29  C23 ZIN A   1      19.053   5.782  14.528  0.00  0.00     0.019 C 
ENDBRANCH   6  20
BRANCH   1  30
ATOM     30  O2  ZIN A   1      18.816   2.699  16.319  0.00  0.00    -0.355 OA
ATOM     31  C1  ZIN A   1      19.252   1.646  17.182  0.00  0.00     0.210 C 
ENDBRANCH   1  30
TORSDOF 4
ENDMDL
MODEL 9
REMARK VINA RESULT:      -9.6      3.700      5.970
REMARK  4 active torsions:
REMARK  status: ('A' for Active; 'I' for Inactive)
REMARK    1  A    between atoms: O2_2  and  C3_3 
REMARK    2  A    between atoms: C6_6  and  C7_7 
REMARK    3  A    between atoms: C12_12  and  C13_13 
REMARK    4  A    between atoms: C21_21  and  C22_22 
ROOT
ATOM      1  C3  ZIN A   1      18.877   0.302  14.664  0.00  0.00     0.075 A 
ATOM      2  C4  ZIN A   1      18.983  -1.001  15.130  0.00  0.00     0.038 A 
ATOM      3  C5  ZIN A   1      18.940  -2.057  14.244  0.00  0.00     0.015 A 
ATOM      4  C6  ZIN A   1      18.789  -1.815  12.879  0.00  0.00    -0.025 A 
ATOM      5  C20 ZIN A   1      18.683  -0.504  12.414  0.00  0.00     0.023 A 
ATOM      6  C21 ZIN A   1      18.723   0.547  13.305  0.00  0.00    -0.015 A 
ENDROOT
BRANCH   4   7
ATOM      7  C7  ZIN A   1      18.743  -2.948  11.924  0.00  0.00    -0.025 A 
ATOM      8  C19 ZIN A   1      17.519  -3.429  11.490  0.00  0.00     0.024 A 
ATOM      9  C18 ZIN A   1      17.480  -4.497  10.583  0.00  0.00    -0.025 A 
ATOM     10  C10 ZIN A   1      18.696  -5.074  10.131  0.00  0.00    -0.025 A 
ATOM     11  C17 ZIN A   1      16.251  -5.006  10.120  0.00  0.00     0.013 A 
ATOM     12  C9  ZIN A   1      19.923  -4.565  10.595  0.00  0.00     0.013 A 
ATOM     13  C11 ZIN A   1      18.656  -6.145   9.228  0.00  0.00     0.030 A 
ATOM     14  C8  ZIN A   1      19.939  -3.526  11.470  0.00  0.00     0.013 A 
ATOM     15  C12 ZIN A   1      17.429  -6.625   8.791  0.00  0.00     0.041 A 
ATOM     16  C16 ZIN A   1      16.231  -6.044   9.246  0.00  0.00     0.019 A 
BRANCH  15  17
ATOM     17  C13 ZIN A   1      17.382  -7.752   7.842  0.00  0.00     0.209 C 
ATOM     18  O14 ZIN A   1      18.127  -7.768   6.872  0.00  0.00    -0.644 OA
ATOM     19  O15 ZIN A   1      16.597  -8.671   8.024  0.00  0.00    -0.644 OA
ENDBRANCH  15  17
ENDBRANCH   4   7
BRANCH   6  20
ATOM     20  C22 ZIN A   1      18.607   1.963  12.804  0.00  0.00    -0.009 C 
ATOM     21  C30 ZIN A   1      18.130   2.869  13.940  0.00  0.00     0.019 C 
ATOM     22  C28 ZIN A   1      18.011   4.307  13.430  0.00  0.00    -0.013 C 
ATOM     23  C27 ZIN A   1      19.378   4.786  12.936  0.00  0.00     0.009 C 
ATOM     24  C29 ZIN A   1      17.005   4.359  12.279  0.00  0.00     0.009 C 
ATOM     25  C26 ZIN A   1      19.855   3.880  11.800  0.00  0.00    -0.013 C 
ATOM     26  C25 ZIN A   1      18.849   3.933  10.648  0.00  0.00     0.009 C 
ATOM     27  C31 ZIN A   1      19.973   2.443  12.309  0.00  0.00     0.019 C 
ATOM     28  C24 ZIN A   1      17.483   3.453  11.143  0.00  0.00    -0.013 C 
ATOM     29  C23 ZIN A   1      17.601   2.016  11.653  0.00  0.00     0.019 C 
ENDBRANCH   6  20
BRANCH   1  30
ATOM     30  O2  ZIN A   1      18.921   1.340  15.539  0.00  0.00    -0.355 OA
ATOM     31  C1  ZIN A   1      18.871   1.018  16.930  0.00  0.00     0.210 C 
ENDBRANCH   1  30
TORSDOF 4
ENDMDL
