MODEL 1
REMARK VINA RESULT:      -6.5      0.000      0.000
REMARK  5 active torsions:
REMARK  status: ('A' for Active; 'I' for Inactive)
REMARK    1  A    between atoms: C2_2  and  O4_3 
REMARK    2  A    between atoms: C2_2  and  C5_4 
REMARK    3  A    between atoms: C5_4  and  O7_5 
REMARK    4  A    between atoms: C5_4  and  C8_6 
REMARK    5  A    between atoms: C18_15  and  N19_16 
ROOT
ATOM      1  C8  <0> d   1      17.559   0.569  16.174  0.00  0.00     0.131 C 
ATOM      2  C10 <0> d   1      18.121  -0.860  16.210  0.00  0.00     0.149 C 
ATOM      3  N11 <0> d   1      19.359  -0.886  15.418  0.00  0.00    -0.372 N 
ATOM      4  C12 <0> d   1      19.381  -0.269  14.183  0.00  0.00     0.149 A 
ATOM      5  C13 <0> d   1      18.419   0.641  13.850  0.00  0.00     0.144 A 
ATOM      6  N14 <0> d   1      17.387   0.954  14.763  0.00  0.00    -0.373 N 
ATOM      7  C15 <0> d   1      18.470   1.260  12.585  0.00  0.00     0.313 A 
ATOM      8  O16 <0> d   1      17.620   2.080  12.263  0.00  0.00    -0.263 OA
ATOM      9  N17 <0> d   1      19.459   0.942  11.734  0.00  0.00    -0.021 NA
ATOM     10  C18 <0> d   1      20.381   0.062  12.065  0.00  0.00     0.703 A 
ATOM     11  N20 <0> d   1      20.368  -0.557  13.277  0.00  0.00    -0.173 N 
ATOM     12  H28 <0> d   1      20.150  -1.332  15.758  0.00  0.00     0.161 HD
ATOM     13  H29 <0> d   1      16.584   1.411  14.468  0.00  0.00     0.160 HD
ATOM     14  H32 <0> d   1      21.058  -1.202  13.499  0.00  0.00     0.186 HD
ENDROOT
BRANCH   1  15
ATOM     15  C5  <0> d   1      18.538   1.528  16.856  0.00  0.00     0.170 C 
BRANCH  15  16
ATOM     16  C2  <0> d   1      18.550   1.256  18.362  0.00  0.00     0.145 C 
ATOM     17  C1  <0> d   1      17.227   1.719  18.976  0.00  0.00     0.042 C 
BRANCH  16  18
ATOM     18  O4  <0> d   1      19.631   1.970  18.966  0.00  0.00    -0.393 OA
ATOM     19  H24 <0> d   1      19.569   2.930  18.871  0.00  0.00     0.210 HD
ENDBRANCH  16  18
ENDBRANCH  15  16
BRANCH  15  20
ATOM     20  O7  <0> d   1      18.127   2.876  16.620  0.00  0.00    -0.391 OA
ATOM     21  H25 <0> d   1      18.851   3.516  16.635  0.00  0.00     0.210 HD
ENDBRANCH  15  20
ENDBRANCH   1  15
BRANCH  10  22
ATOM     22  N19 <0> d   1      21.374  -0.238  11.169  0.00  0.00    -0.233 N 
ATOM     23  H30 <0> d   1      21.723  -1.141  11.116  0.00  0.00     0.174 HD
ATOM     24  H31 <0> d   1      21.728   0.453  10.587  0.00  0.00     0.174 HD
ENDBRANCH  10  22
TORSDOF 5
ENDMDL
MODEL 2
REMARK VINA RESULT:      -6.4      5.041      8.133
REMARK  5 active torsions:
REMARK  status: ('A' for Active; 'I' for Inactive)
REMARK    1  A    between atoms: C2_2  and  O4_3 
REMARK    2  A    between atoms: C2_2  and  C5_4 
REMARK    3  A    between atoms: C5_4  and  O7_5 
REMARK    4  A    between atoms: C5_4  and  C8_6 
REMARK    5  A    between atoms: C18_15  and  N19_16 
ROOT
ATOM      1  C8  <0> d   1      18.106  -3.163   8.469  0.00  0.00     0.131 C 
ATOM      2  C10 <0> d   1      18.499  -1.927   7.645  0.00  0.00     0.149 C 
ATOM      3  N11 <0> d   1      19.686  -1.321   8.266  0.00  0.00    -0.372 N 
ATOM      4  C12 <0> d   1      19.720  -1.159   9.637  0.00  0.00     0.149 A 
ATOM      5  C13 <0> d   1      18.855  -1.851  10.434  0.00  0.00     0.144 A 
ATOM      6  N14 <0> d   1      17.912  -2.736   9.864  0.00  0.00    -0.373 N 
ATOM      7  C15 <0> d   1      18.916  -1.671  11.831  0.00  0.00     0.313 A 
ATOM      8  O16 <0> d   1      18.153  -2.282  12.567  0.00  0.00    -0.263 OA
ATOM      9  N17 <0> d   1      19.819  -0.821  12.347  0.00  0.00    -0.021 NA
ATOM     10  C18 <0> d   1      20.647  -0.157  11.569  0.00  0.00     0.703 A 
ATOM     11  N20 <0> d   1      20.621  -0.303  10.216  0.00  0.00    -0.173 N 
ATOM     12  H28 <0> d   1      20.435  -1.037   7.720  0.00  0.00     0.161 HD
ATOM     13  H29 <0> d   1      17.155  -3.055  10.380  0.00  0.00     0.160 HD
ATOM     14  H32 <0> d   1      21.241   0.197   9.661  0.00  0.00     0.186 HD
ENDROOT
BRANCH   1  15
ATOM     15  C5  <0> d   1      19.222  -4.208   8.397  0.00  0.00     0.170 C 
BRANCH  15  16
ATOM     16  C2  <0> d   1      19.626  -4.423   6.936  0.00  0.00     0.145 C 
ATOM     17  C1  <0> d   1      19.162  -5.806   6.477  0.00  0.00     0.042 C 
BRANCH  16  18
ATOM     18  O4  <0> d   1      21.048  -4.333   6.817  0.00  0.00    -0.393 OA
ATOM     19  H24 <0> d   1      21.390  -4.628   5.963  0.00  0.00     0.210 HD
ENDBRANCH  16  18
ENDBRANCH  15  16
BRANCH  15  20
ATOM     20  O7  <0> d   1      18.756  -5.442   8.948  0.00  0.00    -0.391 OA
ATOM     21  H25 <0> d   1      17.916  -5.745   8.578  0.00  0.00     0.210 HD
ENDBRANCH  15  20
ENDBRANCH   1  15
BRANCH  10  22
ATOM     22  N19 <0> d   1      21.554   0.703  12.133  0.00  0.00    -0.233 N 
ATOM     23  H30 <0> d   1      21.581   0.816  13.096  0.00  0.00     0.174 HD
ATOM     24  H31 <0> d   1      22.169   1.198  11.569  0.00  0.00     0.174 HD
ENDBRANCH  10  22
TORSDOF 5
ENDMDL
MODEL 3
REMARK VINA RESULT:      -6.3      4.474      7.933
REMARK  5 active torsions:
REMARK  status: ('A' for Active; 'I' for Inactive)
REMARK    1  A    between atoms: C2_2  and  O4_3 
REMARK    2  A    between atoms: C2_2  and  C5_4 
REMARK    3  A    between atoms: C5_4  and  O7_5 
REMARK    4  A    between atoms: C5_4  and  C8_6 
REMARK    5  A    between atoms: C18_15  and  N19_16 
ROOT
ATOM      1  C8  <0> d   1      17.946   0.155   7.684  0.00  0.00     0.131 C 
ATOM      2  C10 <0> d   1      18.947   1.320   7.709  0.00  0.00     0.149 C 
ATOM      3  N11 <0> d   1      19.940   1.049   8.758  0.00  0.00    -0.372 N 
ATOM      4  C12 <0> d   1      19.510   0.606   9.993  0.00  0.00     0.149 A 
ATOM      5  C13 <0> d   1      18.254   0.091  10.143  0.00  0.00     0.144 A 
ATOM      6  N14 <0> d   1      17.380   0.013   9.035  0.00  0.00    -0.373 N 
ATOM      7  C15 <0> d   1      17.845  -0.360  11.414  0.00  0.00     0.313 A 
ATOM      8  O16 <0> d   1      16.725  -0.827  11.573  0.00  0.00    -0.263 OA
ATOM      9  N17 <0> d   1      18.694  -0.270  12.450  0.00  0.00    -0.021 NA
ATOM     10  C18 <0> d   1      19.902   0.229  12.296  0.00  0.00     0.703 A 
ATOM     11  N20 <0> d   1      20.336   0.674  11.085  0.00  0.00    -0.173 N 
ATOM     12  H28 <0> d   1      20.885   1.180   8.586  0.00  0.00     0.161 HD
ATOM     13  H29 <0> d   1      16.429  -0.131   9.163  0.00  0.00     0.160 HD
ATOM     14  H32 <0> d   1      21.231   1.039  10.994  0.00  0.00     0.186 HD
ENDROOT
BRANCH   1  15
ATOM     15  C5  <0> d   1      18.665  -1.136   7.285  0.00  0.00     0.170 C 
BRANCH  15  16
ATOM     16  C2  <0> d   1      19.051  -1.068   5.806  0.00  0.00     0.145 C 
ATOM     17  C1  <0> d   1      17.786  -0.950   4.953  0.00  0.00     0.042 C 
BRANCH  16  18
ATOM     18  O4  <0> d   1      19.761  -2.255   5.443  0.00  0.00    -0.393 OA
ATOM     19  H24 <0> d   1      20.364  -2.576   6.127  0.00  0.00     0.210 HD
ENDBRANCH  16  18
ENDBRANCH  15  16
BRANCH  15  20
ATOM     20  O7  <0> d   1      17.797  -2.251   7.499  0.00  0.00    -0.391 OA
ATOM     21  H25 <0> d   1      18.244  -3.107   7.475  0.00  0.00     0.210 HD
ENDBRANCH  15  20
ENDBRANCH   1  15
BRANCH  10  22
ATOM     22  N19 <0> d   1      20.740   0.305  13.378  0.00  0.00    -0.233 N 
ATOM     23  H30 <0> d   1      20.576  -0.247  14.159  0.00  0.00     0.174 HD
ATOM     24  H31 <0> d   1      21.498   0.911  13.363  0.00  0.00     0.174 HD
ENDBRANCH  10  22
TORSDOF 5
ENDMDL
MODEL 4
REMARK VINA RESULT:      -6.3      2.592      5.522
REMARK  5 active torsions:
REMARK  status: ('A' for Active; 'I' for Inactive)
REMARK    1  A    between atoms: C2_2  and  O4_3 
REMARK    2  A    between atoms: C2_2  and  C5_4 
REMARK    3  A    between atoms: C5_4  and  O7_5 
REMARK    4  A    between atoms: C5_4  and  C8_6 
REMARK    5  A    between atoms: C18_15  and  N19_16 
ROOT
ATOM      1  C8  <0> d   1      18.386   0.420  13.192  0.00  0.00     0.131 C 
ATOM      2  C10 <0> d   1      18.447   1.955  13.141  0.00  0.00     0.149 C 
ATOM      3  N11 <0> d   1      19.131   2.427  14.353  0.00  0.00    -0.372 N 
ATOM      4  C12 <0> d   1      18.786   1.885  15.575  0.00  0.00     0.149 A 
ATOM      5  C13 <0> d   1      18.099   0.706  15.638  0.00  0.00     0.144 A 
ATOM      6  N14 <0> d   1      17.729   0.033  14.451  0.00  0.00    -0.373 N 
ATOM      7  C15 <0> d   1      17.766   0.174  16.899  0.00  0.00     0.313 A 
ATOM      8  O16 <0> d   1      17.153  -0.882  16.982  0.00  0.00    -0.263 OA
ATOM      9  N17 <0> d   1      18.126   0.836  18.011  0.00  0.00    -0.021 NA
ATOM     10  C18 <0> d   1      18.786   1.972  17.939  0.00  0.00     0.703 A 
ATOM     11  N20 <0> d   1      19.128   2.520  16.741  0.00  0.00    -0.173 N 
ATOM     12  H28 <0> d   1      19.815   3.112  14.296  0.00  0.00     0.161 HD
ATOM     13  H29 <0> d   1      17.059  -0.667  14.467  0.00  0.00     0.160 HD
ATOM     14  H32 <0> d   1      19.615   3.359  16.712  0.00  0.00     0.186 HD
ENDROOT
BRANCH   1  15
ATOM     15  C5  <0> d   1      19.804  -0.155  13.149  0.00  0.00     0.170 C 
BRANCH  15  16
ATOM     16  C2  <0> d   1      20.508   0.320  11.876  0.00  0.00     0.145 C 
ATOM     17  C1  <0> d   1      20.496  -0.802  10.837  0.00  0.00     0.042 C 
BRANCH  16  18
ATOM     18  O4  <0> d   1      21.860   0.671  12.183  0.00  0.00    -0.393 OA
ATOM     19  H24 <0> d   1      21.948   1.488  12.692  0.00  0.00     0.210 HD
ENDBRANCH  16  18
ENDBRANCH  15  16
BRANCH  15  20
ATOM     20  O7  <0> d   1      19.739  -1.583  13.152  0.00  0.00    -0.391 OA
ATOM     21  H25 <0> d   1      19.168  -1.949  13.841  0.00  0.00     0.210 HD
ENDBRANCH  15  20
ENDBRANCH   1  15
BRANCH  10  22
ATOM     22  N19 <0> d   1      19.135   2.619  19.097  0.00  0.00    -0.233 N 
ATOM     23  H30 <0> d   1      19.974   2.408  19.536  0.00  0.00     0.174 HD
ATOM     24  H31 <0> d   1      18.544   3.289  19.475  0.00  0.00     0.174 HD
ENDBRANCH  10  22
TORSDOF 5
ENDMDL
MODEL 5
REMARK VINA RESULT:      -6.2      2.460      2.816
REMARK  5 active torsions:
REMARK  status: ('A' for Active; 'I' for Inactive)
REMARK    1  A    between atoms: C2_2  and  O4_3 
REMARK    2  A    between atoms: C2_2  and  C5_4 
REMARK    3  A    between atoms: C5_4  and  O7_5 
REMARK    4  A    between atoms: C5_4  and  C8_6 
REMARK    5  A    between atoms: C18_15  and  N19_16 
ROOT
ATOM      1  C8  <0> d   1      18.111   3.261  14.602  0.00  0.00     0.131 C 
ATOM      2  C10 <0> d   1      18.517   2.042  15.445  0.00  0.00     0.149 C 
ATOM      3  N11 <0> d   1      19.699   1.428  14.824  0.00  0.00    -0.372 N 
ATOM      4  C12 <0> d   1      19.720   1.240  13.456  0.00  0.00     0.149 A 
ATOM      5  C13 <0> d   1      18.844   1.914  12.654  0.00  0.00     0.144 A 
ATOM      6  N14 <0> d   1      17.903   2.806  13.217  0.00  0.00    -0.373 N 
ATOM      7  C15 <0> d   1      18.891   1.706  11.261  0.00  0.00     0.313 A 
ATOM      8  O16 <0> d   1      18.119   2.300  10.521  0.00  0.00    -0.263 OA
ATOM      9  N17 <0> d   1      19.792   0.850  10.752  0.00  0.00    -0.021 NA
ATOM     10  C18 <0> d   1      20.631   0.204  11.534  0.00  0.00     0.703 A 
ATOM     11  N20 <0> d   1      20.618   0.377  12.885  0.00  0.00    -0.173 N 
ATOM     12  H28 <0> d   1      20.455   1.158  15.368  0.00  0.00     0.161 HD
ATOM     13  H29 <0> d   1      17.140   3.112  12.704  0.00  0.00     0.160 HD
ATOM     14  H32 <0> d   1      21.246  -0.110  13.442  0.00  0.00     0.186 HD
ENDROOT
BRANCH   1  15
ATOM     15  C5  <0> d   1      19.223   4.311  14.642  0.00  0.00     0.170 C 
BRANCH  15  16
ATOM     16  C2  <0> d   1      19.586   4.614  16.097  0.00  0.00     0.145 C 
ATOM     17  C1  <0> d   1      19.301   6.087  16.398  0.00  0.00     0.042 C 
BRANCH  16  18
ATOM     18  O4  <0> d   1      20.974   4.345  16.308  0.00  0.00    -0.393 OA
ATOM     19  H24 <0> d   1      21.158   3.831  17.106  0.00  0.00     0.210 HD
ENDBRANCH  16  18
ENDBRANCH  15  16
BRANCH  15  20
ATOM     20  O7  <0> d   1      18.771   5.508  14.005  0.00  0.00    -0.391 OA
ATOM     21  H25 <0> d   1      18.879   5.508  13.045  0.00  0.00     0.210 HD
ENDBRANCH  15  20
ENDBRANCH   1  15
BRANCH  10  22
ATOM     22  N19 <0> d   1      21.535  -0.663  10.978  0.00  0.00    -0.233 N 
ATOM     23  H30 <0> d   1      21.258  -1.559  10.729  0.00  0.00     0.174 HD
ATOM     24  H31 <0> d   1      22.452  -0.381  10.833  0.00  0.00     0.174 HD
ENDBRANCH  10  22
TORSDOF 5
ENDMDL
MODEL 6
REMARK VINA RESULT:      -6.1      5.564      7.263
REMARK  5 active torsions:
REMARK  status: ('A' for Active; 'I' for Inactive)
REMARK    1  A    between atoms: C2_2  and  O4_3 
REMARK    2  A    between atoms: C2_2  and  C5_4 
REMARK    3  A    between atoms: C5_4  and  O7_5 
REMARK    4  A    between atoms: C5_4  and  C8_6 
REMARK    5  A    between atoms: C18_15  and  N19_16 
ROOT
ATOM      1  C8  <0> d   1      17.983   0.625   8.810  0.00  0.00     0.131 C 
ATOM      2  C10 <0> d   1      17.427  -0.543   9.639  0.00  0.00     0.149 C 
ATOM      3  N11 <0> d   1      18.347  -1.681   9.501  0.00  0.00    -0.372 N 
ATOM      4  C12 <0> d   1      18.823  -2.014   8.248  0.00  0.00     0.149 A 
ATOM      5  C13 <0> d   1      18.743  -1.118   7.220  0.00  0.00     0.144 A 
ATOM      6  N14 <0> d   1      18.165   0.155   7.427  0.00  0.00    -0.373 N 
ATOM      7  C15 <0> d   1      19.243  -1.483   5.954  0.00  0.00     0.313 A 
ATOM      8  O16 <0> d   1      19.185  -0.698   5.017  0.00  0.00    -0.263 OA
ATOM      9  N17 <0> d   1      19.783  -2.700   5.783  0.00  0.00    -0.021 NA
ATOM     10  C18 <0> d   1      19.854  -3.556   6.780  0.00  0.00     0.703 A 
ATOM     11  N20 <0> d   1      19.384  -3.243   8.019  0.00  0.00    -0.173 N 
ATOM     12  H28 <0> d   1      18.615  -2.193  10.279  0.00  0.00     0.161 HD
ATOM     13  H29 <0> d   1      17.895   0.705   6.676  0.00  0.00     0.160 HD
ATOM     14  H32 <0> d   1      19.447  -3.890   8.740  0.00  0.00     0.186 HD
ENDROOT
BRANCH   1  15
ATOM     15  C5  <0> d   1      19.328   1.074   9.386  0.00  0.00     0.170 C 
BRANCH  15  16
ATOM     16  C2  <0> d   1      19.088   2.035  10.552  0.00  0.00     0.145 C 
ATOM     17  C1  <0> d   1      18.265   3.231  10.067  0.00  0.00     0.042 C 
BRANCH  16  18
ATOM     18  O4  <0> d   1      20.344   2.494  11.057  0.00  0.00    -0.393 OA
ATOM     19  H24 <0> d   1      20.723   3.231  10.559  0.00  0.00     0.210 HD
ENDBRANCH  16  18
ENDBRANCH  15  16
BRANCH  15  20
ATOM     20  O7  <0> d   1      20.084   1.738   8.370  0.00  0.00    -0.391 OA
ATOM     21  H25 <0> d   1      20.110   1.266   7.527  0.00  0.00     0.210 HD
ENDBRANCH  15  20
ENDBRANCH   1  15
BRANCH  10  22
ATOM     22  N19 <0> d   1      20.412  -4.791   6.567  0.00  0.00    -0.233 N 
ATOM     23  H30 <0> d   1      19.929  -5.459   6.056  0.00  0.00     0.174 HD
ATOM     24  H31 <0> d   1      21.289  -4.995   6.927  0.00  0.00     0.174 HD
ENDBRANCH  10  22
TORSDOF 5
ENDMDL
MODEL 7
REMARK VINA RESULT:      -5.8      4.660      6.279
REMARK  5 active torsions:
REMARK  status: ('A' for Active; 'I' for Inactive)
REMARK    1  A    between atoms: C2_2  and  O4_3 
REMARK    2  A    between atoms: C2_2  and  C5_4 
REMARK    3  A    between atoms: C5_4  and  O7_5 
REMARK    4  A    between atoms: C5_4  and  C8_6 
REMARK    5  A    between atoms: C18_15  and  N19_16 
ROOT
ATOM      1  C8  <0> d   1      18.444  -0.237  10.617  0.00  0.00     0.131 C 
ATOM      2  C10 <0> d   1      17.442  -0.748  11.664  0.00  0.00     0.149 C 
ATOM      3  N11 <0> d   1      17.599  -2.205  11.776  0.00  0.00    -0.372 N 
ATOM      4  C12 <0> d   1      17.697  -2.962  10.625  0.00  0.00     0.149 A 
ATOM      5  C13 <0> d   1      17.999  -2.368   9.433  0.00  0.00     0.144 A 
ATOM      6  N14 <0> d   1      18.208  -0.972   9.365  0.00  0.00    -0.373 N 
ATOM      7  C15 <0> d   1      18.098  -3.167   8.276  0.00  0.00     0.313 A 
ATOM      8  O16 <0> d   1      18.370  -2.659   7.196  0.00  0.00    -0.263 OA
ATOM      9  N17 <0> d   1      17.891  -4.490   8.368  0.00  0.00    -0.021 NA
ATOM     10  C18 <0> d   1      17.599  -5.052   9.522  0.00  0.00     0.703 A 
ATOM     11  N20 <0> d   1      17.495  -4.317  10.663  0.00  0.00    -0.173 N 
ATOM     12  H28 <0> d   1      17.633  -2.629  12.647  0.00  0.00     0.161 HD
ATOM     13  H29 <0> d   1      18.195  -0.510   8.512  0.00  0.00     0.160 HD
ATOM     14  H32 <0> d   1      17.278  -4.752  11.503  0.00  0.00     0.186 HD
ENDROOT
BRANCH   1  15
ATOM     15  C5  <0> d   1      19.873  -0.488  11.104  0.00  0.00     0.170 C 
BRANCH  15  16
ATOM     16  C2  <0> d   1      20.280   0.615  12.083  0.00  0.00     0.145 C 
ATOM     17  C1  <0> d   1      19.776   1.966  11.569  0.00  0.00     0.042 C 
BRANCH  16  18
ATOM     18  O4  <0> d   1      21.704   0.650  12.197  0.00  0.00    -0.393 OA
ATOM     19  H24 <0> d   1      22.029   0.558  13.102  0.00  0.00     0.210 HD
ENDBRANCH  16  18
ENDBRANCH  15  16
BRANCH  15  20
ATOM     20  O7  <0> d   1      20.765  -0.485   9.987  0.00  0.00    -0.391 OA
ATOM     21  H25 <0> d   1      21.214   0.358   9.845  0.00  0.00     0.210 HD
ENDBRANCH  15  20
ENDBRANCH   1  15
BRANCH  10  22
ATOM     22  N19 <0> d   1      17.393  -6.407   9.576  0.00  0.00    -0.233 N 
ATOM     23  H30 <0> d   1      16.627  -6.762  10.054  0.00  0.00     0.174 HD
ATOM     24  H31 <0> d   1      18.013  -7.009   9.136  0.00  0.00     0.174 HD
ENDBRANCH  10  22
TORSDOF 5
ENDMDL
MODEL 8
REMARK VINA RESULT:      -5.8      5.539      7.767
REMARK  5 active torsions:
REMARK  status: ('A' for Active; 'I' for Inactive)
REMARK    1  A    between atoms: C2_2  and  O4_3 
REMARK    2  A    between atoms: C2_2  and  C5_4 
REMARK    3  A    between atoms: C5_4  and  O7_5 
REMARK    4  A    between atoms: C5_4  and  C8_6 
REMARK    5  A    between atoms: C18_15  and  N19_16 
ROOT
ATOM      1  C8  <0> d   1      19.138  -0.583   9.426  0.00  0.00     0.131 C 
ATOM      2  C10 <0> d   1      18.681   0.685   8.689  0.00  0.00     0.149 C 
ATOM      3  N11 <0> d   1      17.764   0.285   7.613  0.00  0.00    -0.372 N 
ATOM      4  C12 <0> d   1      18.100  -0.784   6.806  0.00  0.00     0.149 A 
ATOM      5  C13 <0> d   1      19.062  -1.670   7.200  0.00  0.00     0.144 A 
ATOM      6  N14 <0> d   1      19.727  -1.497   8.435  0.00  0.00    -0.373 N 
ATOM      7  C15 <0> d   1      19.379  -2.756   6.359  0.00  0.00     0.313 A 
ATOM      8  O16 <0> d   1      20.236  -3.565   6.691  0.00  0.00    -0.263 OA
ATOM      9  N17 <0> d   1      18.734  -2.895   5.190  0.00  0.00    -0.021 NA
ATOM     10  C18 <0> d   1      17.810  -2.034   4.818  0.00  0.00     0.703 A 
ATOM     11  N20 <0> d   1      17.473  -0.973   5.602  0.00  0.00    -0.173 N 
ATOM     12  H28 <0> d   1      16.935   0.766   7.469  0.00  0.00     0.161 HD
ATOM     13  H29 <0> d   1      20.553  -1.970   8.624  0.00  0.00     0.160 HD
ATOM     14  H32 <0> d   1      16.789  -0.351   5.308  0.00  0.00     0.186 HD
ENDROOT
BRANCH   1  15
ATOM     15  C5  <0> d   1      17.936  -1.252  10.098  0.00  0.00     0.170 C 
BRANCH  15  16
ATOM     16  C2  <0> d   1      17.495  -0.417  11.302  0.00  0.00     0.145 C 
ATOM     17  C1  <0> d   1      17.681  -1.232  12.584  0.00  0.00     0.042 C 
BRANCH  16  18
ATOM     18  O4  <0> d   1      16.118  -0.063  11.158  0.00  0.00    -0.393 OA
ATOM     19  H24 <0> d   1      15.731  -0.326  10.312  0.00  0.00     0.210 HD
ENDBRANCH  16  18
ENDBRANCH  15  16
BRANCH  15  20
ATOM     20  O7  <0> d   1      18.304  -2.562  10.537  0.00  0.00    -0.391 OA
ATOM     21  H25 <0> d   1      18.841  -3.053   9.901  0.00  0.00     0.210 HD
ENDBRANCH  15  20
ENDBRANCH   1  15
BRANCH  10  22
ATOM     22  N19 <0> d   1      17.175  -2.209   3.616  0.00  0.00    -0.233 N 
ATOM     23  H30 <0> d   1      17.694  -2.322   2.805  0.00  0.00     0.174 HD
ATOM     24  H31 <0> d   1      16.206  -2.220   3.577  0.00  0.00     0.174 HD
ENDBRANCH  10  22
TORSDOF 5
ENDMDL
MODEL 9
REMARK VINA RESULT:      -5.8      2.912      5.560
REMARK  5 active torsions:
REMARK  status: ('A' for Active; 'I' for Inactive)
REMARK    1  A    between atoms: C2_2  and  O4_3 
REMARK    2  A    between atoms: C2_2  and  C5_4 
REMARK    3  A    between atoms: C5_4  and  O7_5 
REMARK    4  A    between atoms: C5_4  and  C8_6 
REMARK    5  A    between atoms: C18_15  and  N19_16 
ROOT
ATOM      1  C8  <0> d   1      18.506   0.738  12.835  0.00  0.00     0.131 C 
ATOM      2  C10 <0> d   1      17.829   1.956  12.187  0.00  0.00     0.149 C 
ATOM      3  N11 <0> d   1      18.536   3.165  12.635  0.00  0.00    -0.372 N 
ATOM      4  C12 <0> d   1      18.855   3.301  13.971  0.00  0.00     0.149 A 
ATOM      5  C13 <0> d   1      18.846   2.214  14.797  0.00  0.00     0.144 A 
ATOM      6  N14 <0> d   1      18.503   0.939  14.294  0.00  0.00    -0.373 N 
ATOM      7  C15 <0> d   1      19.182   2.382  16.156  0.00  0.00     0.313 A 
ATOM      8  O16 <0> d   1      19.183   1.423  16.916  0.00  0.00    -0.263 OA
ATOM      9  N17 <0> d   1      19.500   3.605  16.610  0.00  0.00    -0.021 NA
ATOM     10  C18 <0> d   1      19.504   4.647  15.805  0.00  0.00     0.703 A 
ATOM     11  N20 <0> d   1      19.187   4.527  14.487  0.00  0.00    -0.173 N 
ATOM     12  H28 <0> d   1      18.774   3.858  12.001  0.00  0.00     0.161 HD
ATOM     13  H29 <0> d   1      18.271   0.214  14.894  0.00  0.00     0.160 HD
ATOM     14  H32 <0> d   1      19.197   5.309  13.913  0.00  0.00     0.186 HD
ENDROOT
BRANCH   1  15
ATOM     15  C5  <0> d   1      19.945   0.617  12.332  0.00  0.00     0.170 C 
BRANCH  15  16
ATOM     16  C2  <0> d   1      20.025  -0.486  11.273  0.00  0.00     0.145 C 
ATOM     17  C1  <0> d   1      19.420  -1.775  11.833  0.00  0.00     0.042 C 
BRANCH  16  18
ATOM     18  O4  <0> d   1      21.392  -0.713  10.924  0.00  0.00    -0.393 OA
ATOM     19  H24 <0> d   1      21.833  -1.374  11.474  0.00  0.00     0.210 HD
ENDBRANCH  16  18
ENDBRANCH  15  16
BRANCH  15  20
ATOM     20  O7  <0> d   1      20.807   0.290  13.425  0.00  0.00    -0.391 OA
ATOM     21  H25 <0> d   1      21.357  -0.489  13.272  0.00  0.00     0.210 HD
ENDBRANCH  15  20
ENDBRANCH   1  15
BRANCH  10  22
ATOM     22  N19 <0> d   1      19.834   5.881  16.306  0.00  0.00    -0.233 N 
ATOM     23  H30 <0> d   1      20.755   6.081  16.533  0.00  0.00     0.174 HD
ATOM     24  H31 <0> d   1      19.146   6.552  16.433  0.00  0.00     0.174 HD
ENDBRANCH  10  22
TORSDOF 5
ENDMDL
