MODEL 1
REMARK VINA RESULT:      -8.8      0.000      0.000
REMARK  3 active torsions:
REMARK  status: ('A' for Active; 'I' for Inactive)
REMARK    1  A    between atoms: C2_2  and  C3_3 
REMARK    2  A    between atoms: C3_3  and  C5_5 
REMARK    3  A    between atoms: C27_23  and  O29_24 
ROOT
ATOM      1  C5  <0> d   1      18.240  -0.452  11.462  0.00  0.00     0.028 C 
ATOM      2  C6  <0> d   1      16.736  -0.181  11.539  0.00  0.00     0.025 C 
ATOM      3  C7  <0> d   1      18.905   0.487  10.424  0.00  0.00    -0.002 C 
ATOM      4  C9  <0> d   1      17.869   1.461   9.861  0.00  0.00     0.011 C 
ATOM      5  C10 <0> d   1      19.450  -0.427   9.293  0.00  0.00     0.011 C 
ATOM      6  C11 <0> d   1      18.574  -1.679   9.411  0.00  0.00    -0.000 C 
ATOM      7  C13 <0> d   1      19.155  -2.949   8.817  0.00  0.00    -0.002 C 
ATOM      8  C15 <0> d   1      19.346  -2.779   7.309  0.00  0.00     0.010 C 
ATOM      9  C16 <0> d   1      19.966  -4.050   6.721  0.00  0.00     0.036 C 
ATOM     10  C17 <0> d   1      19.085  -5.225   7.100  0.00  0.00    -0.064 A 
ATOM     11  C18 <0> d   1      18.670  -6.050   6.150  0.00  0.00     0.058 A 
ATOM     12  C19 <0> d   1      17.797  -7.189   6.477  0.00  0.00     0.172 A 
ATOM     13  O20 <0> d   1      17.447  -7.972   5.614  0.00  0.00    -0.289 OA
ATOM     14  C21 <0> d   1      17.357  -7.359   7.872  0.00  0.00     0.052 A 
ATOM     15  C22 <0> d   1      17.789  -6.526   8.806  0.00  0.00    -0.009 A 
ATOM     16  C23 <0> d   1      18.725  -5.395   8.547  0.00  0.00     0.004 A 
ATOM     17  C24 <0> d   1      20.017  -5.671   9.320  0.00  0.00     0.025 C 
ATOM     18  C25 <0> d   1      18.163  -4.087   9.107  0.00  0.00     0.035 C 
ATOM     19  C27 <0> d   1      17.912  -4.245  10.603  0.00  0.00     0.124 C 
ATOM     20  C30 <0> d   1      17.464  -2.923  11.247  0.00  0.00     0.042 C 
ATOM     21  C31 <0> d   1      18.497  -1.866  10.949  0.00  0.00    -0.023 C 
ATOM     22  C32 <0> d   1      19.875  -2.346  11.407  0.00  0.00     0.017 C 
ENDROOT
BRANCH   1  23
ATOM     23  C3  <0> d   1      18.874  -0.265  12.817  0.00  0.00     0.136 C 
ATOM     24  O4  <0> d   1      19.953   0.268  12.910  0.00  0.00    -0.297 OA
BRANCH  23  25
ATOM     25  C2  <0> d   1      18.161  -0.746  14.055  0.00  0.00     0.074 C 
ATOM     26  C1  <0> d   1      19.177  -1.354  15.025  0.00  0.00     0.013 C 
ENDBRANCH  23  25
ENDBRANCH   1  23
BRANCH  19  27
ATOM     27  O29 <0> d   1      19.118  -4.683  11.234  0.00  0.00    -0.395 OA
ATOM     28  H56 <0> d   1      18.984  -5.081  12.106  0.00  0.00     0.210 HD
ENDBRANCH  19  27
TORSDOF 3
ENDMDL
MODEL 2
REMARK VINA RESULT:      -8.5      2.075      2.701
REMARK  3 active torsions:
REMARK  status: ('A' for Active; 'I' for Inactive)
REMARK    1  A    between atoms: C2_2  and  C3_3 
REMARK    2  A    between atoms: C3_3  and  C5_5 
REMARK    3  A    between atoms: C27_23  and  O29_24 
ROOT
ATOM      1  C5  <0> d   1      18.585   0.810  10.984  0.00  0.00     0.028 C 
ATOM      2  C6  <0> d   1      17.119   0.862  11.419  0.00  0.00     0.025 C 
ATOM      3  C7  <0> d   1      18.968   2.104  10.223  0.00  0.00    -0.002 C 
ATOM      4  C9  <0> d   1      17.789   3.079  10.220  0.00  0.00     0.011 C 
ATOM      5  C10 <0> d   1      19.310   1.673   8.770  0.00  0.00     0.011 C 
ATOM      6  C11 <0> d   1      18.543   0.356   8.614  0.00  0.00    -0.000 C 
ATOM      7  C13 <0> d   1      19.050  -0.578   7.530  0.00  0.00    -0.002 C 
ATOM      8  C15 <0> d   1      18.910   0.089   6.161  0.00  0.00     0.010 C 
ATOM      9  C16 <0> d   1      19.457  -0.843   5.075  0.00  0.00     0.036 C 
ATOM     10  C17 <0> d   1      18.736  -2.173   5.187  0.00  0.00    -0.064 A 
ATOM     11  C18 <0> d   1      18.173  -2.692   4.106  0.00  0.00     0.058 A 
ATOM     12  C19 <0> d   1      17.447  -3.970   4.180  0.00  0.00     0.172 A 
ATOM     13  O20 <0> d   1      16.964  -4.469   3.181  0.00  0.00    -0.289 OA
ATOM     14  C21 <0> d   1      17.320  -4.630   5.490  0.00  0.00     0.052 A 
ATOM     15  C22 <0> d   1      17.895  -4.096   6.556  0.00  0.00    -0.009 A 
ATOM     16  C23 <0> d   1      18.697  -2.840   6.530  0.00  0.00     0.004 A 
ATOM     17  C24 <0> d   1      20.135  -3.196   6.917  0.00  0.00     0.025 C 
ATOM     18  C25 <0> d   1      18.199  -1.858   7.592  0.00  0.00     0.035 C 
ATOM     19  C27 <0> d   1      18.277  -2.517   8.966  0.00  0.00     0.124 C 
ATOM     20  C30 <0> d   1      17.908  -1.535  10.089  0.00  0.00     0.042 C 
ATOM     21  C31 <0> d   1      18.800  -0.324   9.985  0.00  0.00    -0.023 C 
ATOM     22  C32 <0> d   1      20.266  -0.758   9.995  0.00  0.00     0.017 C 
ENDROOT
BRANCH   1  23
ATOM     23  C3  <0> d   1      19.479   0.625  12.183  0.00  0.00     0.136 C 
ATOM     24  O4  <0> d   1      20.635   0.969  12.133  0.00  0.00    -0.297 OA
BRANCH  23  25
ATOM     25  C2  <0> d   1      18.929   0.009  13.444  0.00  0.00     0.074 C 
ATOM     26  C1  <0> d   1      19.311  -1.473  13.496  0.00  0.00     0.013 C 
ENDBRANCH  23  25
ENDBRANCH   1  23
BRANCH  19  27
ATOM     27  O29 <0> d   1      19.609  -2.989   9.182  0.00  0.00    -0.395 OA
ATOM     28  H56 <0> d   1      20.127  -2.443   9.790  0.00  0.00     0.210 HD
ENDBRANCH  19  27
TORSDOF 3
ENDMDL
MODEL 3
REMARK VINA RESULT:      -8.3      4.336      9.686
REMARK  3 active torsions:
REMARK  status: ('A' for Active; 'I' for Inactive)
REMARK    1  A    between atoms: C2_2  and  C3_3 
REMARK    2  A    between atoms: C3_3  and  C5_5 
REMARK    3  A    between atoms: C27_23  and  O29_24 
ROOT
ATOM      1  C5  <0> d   1      18.467   0.060  11.191  0.00  0.00     0.028 C 
ATOM      2  C6  <0> d   1      17.003  -0.316  10.954  0.00  0.00     0.025 C 
ATOM      3  C7  <0> d   1      19.118  -0.918  12.201  0.00  0.00    -0.002 C 
ATOM      4  C9  <0> d   1      18.124  -2.016  12.583  0.00  0.00     0.011 C 
ATOM      5  C10 <0> d   1      19.488  -0.074  13.451  0.00  0.00     0.011 C 
ATOM      6  C11 <0> d   1      18.524   1.113  13.362  0.00  0.00    -0.000 C 
ATOM      7  C13 <0> d   1      18.945   2.363  14.112  0.00  0.00    -0.002 C 
ATOM      8  C15 <0> d   1      19.022   2.069  15.611  0.00  0.00     0.010 C 
ATOM      9  C16 <0> d   1      19.482   3.324  16.360  0.00  0.00     0.036 C 
ATOM     10  C17 <0> d   1      18.541   4.459  16.004  0.00  0.00    -0.064 A 
ATOM     11  C18 <0> d   1      17.980   5.159  16.979  0.00  0.00     0.058 A 
ATOM     12  C19 <0> d   1      17.046   6.254  16.673  0.00  0.00     0.172 A 
ATOM     13  O20 <0> d   1      16.560   6.925  17.564  0.00  0.00    -0.289 OA
ATOM     14  C21 <0> d   1      16.712   6.518  15.263  0.00  0.00     0.052 A 
ATOM     15  C22 <0> d   1      17.289   5.810  14.305  0.00  0.00    -0.009 A 
ATOM     16  C23 <0> d   1      18.291   4.734  14.550  0.00  0.00     0.004 A 
ATOM     17  C24 <0> d   1      19.616   5.178  13.925  0.00  0.00     0.025 C 
ATOM     18  C25 <0> d   1      17.889   3.445  13.831  0.00  0.00     0.035 C 
ATOM     19  C27 <0> d   1      17.753   3.721  12.337  0.00  0.00     0.124 C 
ATOM     20  C30 <0> d   1      17.472   2.435  11.545  0.00  0.00     0.042 C 
ATOM     21  C31 <0> d   1      18.561   1.435  11.844  0.00  0.00    -0.023 C 
ATOM     22  C32 <0> d   1      19.928   2.058  11.557  0.00  0.00     0.017 C 
ENDROOT
BRANCH   1  23
ATOM     23  C3  <0> d   1      19.226   0.047   9.889  0.00  0.00     0.136 C 
ATOM     24  O4  <0> d   1      20.376  -0.318   9.864  0.00  0.00    -0.297 OA
BRANCH  23  25
ATOM     25  C2  <0> d   1      18.548   0.493   8.618  0.00  0.00     0.074 C 
ATOM     26  C1  <0> d   1      19.252   1.740   8.076  0.00  0.00     0.013 C 
ENDBRANCH  23  25
ENDBRANCH   1  23
BRANCH  19  27
ATOM     27  O29 <0> d   1      18.966   4.306  11.859  0.00  0.00    -0.395 OA
ATOM     28  H56 <0> d   1      19.665   4.363  12.525  0.00  0.00     0.210 HD
ENDBRANCH  19  27
TORSDOF 3
ENDMDL
MODEL 4
REMARK VINA RESULT:      -8.2      2.899      4.691
REMARK  3 active torsions:
REMARK  status: ('A' for Active; 'I' for Inactive)
REMARK    1  A    between atoms: C2_2  and  C3_3 
REMARK    2  A    between atoms: C3_3  and  C5_5 
REMARK    3  A    between atoms: C27_23  and  O29_24 
ROOT
ATOM      1  C5  <0> d   1      18.783   0.114  13.736  0.00  0.00     0.028 C 
ATOM      2  C6  <0> d   1      20.188   0.680  13.951  0.00  0.00     0.025 C 
ATOM      3  C7  <0> d   1      18.746  -1.391  14.104  0.00  0.00    -0.002 C 
ATOM      4  C9  <0> d   1      20.102  -1.829  14.658  0.00  0.00     0.011 C 
ATOM      5  C10 <0> d   1      18.433  -2.156  12.789  0.00  0.00     0.011 C 
ATOM      6  C11 <0> d   1      18.910  -1.184  11.705  0.00  0.00    -0.000 C 
ATOM      7  C13 <0> d   1      18.300  -1.379  10.329  0.00  0.00    -0.002 C 
ATOM      8  C15 <0> d   1      18.684  -2.754   9.780  0.00  0.00     0.010 C 
ATOM      9  C16 <0> d   1      18.036  -2.961   8.407  0.00  0.00     0.036 C 
ATOM     10  C17 <0> d   1      18.445  -1.806   7.513  0.00  0.00    -0.064 A 
ATOM     11  C18 <0> d   1      18.965  -2.067   6.323  0.00  0.00     0.058 A 
ATOM     12  C19 <0> d   1      19.393  -0.974   5.437  0.00  0.00     0.172 A 
ATOM     13  O20 <0> d   1      19.834  -1.208   4.327  0.00  0.00    -0.289 OA
ATOM     14  C21 <0> d   1      19.275   0.412   5.923  0.00  0.00     0.052 A 
ATOM     15  C22 <0> d   1      18.746   0.650   7.113  0.00  0.00    -0.009 A 
ATOM     16  C23 <0> d   1      18.236  -0.412   8.027  0.00  0.00     0.004 A 
ATOM     17  C24 <0> d   1      16.731  -0.197   8.197  0.00  0.00     0.025 C 
ATOM     18  C25 <0> d   1      18.850  -0.267   9.421  0.00  0.00     0.035 C 
ATOM     19  C27 <0> d   1      18.527   1.118   9.973  0.00  0.00     0.124 C 
ATOM     20  C30 <0> d   1      19.010   1.278  11.423  0.00  0.00     0.042 C 
ATOM     21  C31 <0> d   1      18.408   0.176  12.258  0.00  0.00    -0.023 C 
ATOM     22  C32 <0> d   1      16.887   0.182  12.104  0.00  0.00     0.017 C 
ENDROOT
BRANCH   1  23
ATOM     23  C3  <0> d   1      17.780   0.879  14.561  0.00  0.00     0.136 C 
ATOM     24  O4  <0> d   1      17.597   2.053  14.353  0.00  0.00    -0.297 OA
BRANCH  23  25
ATOM     25  C2  <0> d   1      17.007   0.176  15.648  0.00  0.00     0.074 C 
ATOM     26  C1  <0> d   1      17.720   0.372  16.988  0.00  0.00     0.013 C 
ENDBRANCH  23  25
ENDBRANCH   1  23
BRANCH  19  27
ATOM     27  O29 <0> d   1      17.112   1.319   9.931  0.00  0.00    -0.395 OA
ATOM     28  H56 <0> d   1      16.760   1.452   9.039  0.00  0.00     0.210 HD
ENDBRANCH  19  27
TORSDOF 3
ENDMDL
MODEL 5
REMARK VINA RESULT:      -8.1      2.225      7.525
REMARK  3 active torsions:
REMARK  status: ('A' for Active; 'I' for Inactive)
REMARK    1  A    between atoms: C2_2  and  C3_3 
REMARK    2  A    between atoms: C3_3  and  C5_5 
REMARK    3  A    between atoms: C27_23  and  O29_24 
ROOT
ATOM      1  C5  <0> d   1      18.256  -3.537  10.051  0.00  0.00     0.028 C 
ATOM      2  C6  <0> d   1      16.993  -3.724   9.206  0.00  0.00     0.025 C 
ATOM      3  C7  <0> d   1      18.024  -4.060  11.490  0.00  0.00    -0.002 C 
ATOM      4  C9  <0> d   1      16.634  -4.689  11.602  0.00  0.00     0.011 C 
ATOM      5  C10 <0> d   1      18.129  -2.826  12.427  0.00  0.00     0.011 C 
ATOM      6  C11 <0> d   1      17.799  -1.658  11.494  0.00  0.00    -0.000 C 
ATOM      7  C13 <0> d   1      18.301  -0.295  11.937  0.00  0.00    -0.002 C 
ATOM      8  C15 <0> d   1      17.641   0.097  13.259  0.00  0.00     0.010 C 
ATOM      9  C16 <0> d   1      18.179   1.456  13.721  0.00  0.00     0.036 C 
ATOM     10  C17 <0> d   1      17.958   2.456  12.603  0.00  0.00    -0.064 A 
ATOM     11  C18 <0> d   1      17.347   3.600  12.875  0.00  0.00     0.058 A 
ATOM     12  C19 <0> d   1      17.096   4.586  11.813  0.00  0.00     0.172 A 
ATOM     13  O20 <0> d   1      16.572   5.654  12.066  0.00  0.00    -0.289 OA
ATOM     14  C21 <0> d   1      17.495   4.251  10.435  0.00  0.00     0.052 A 
ATOM     15  C22 <0> d   1      18.109   3.104  10.187  0.00  0.00    -0.009 A 
ATOM     16  C23 <0> d   1      18.448   2.096  11.231  0.00  0.00     0.004 A 
ATOM     17  C24 <0> d   1      19.973   1.984  11.295  0.00  0.00     0.025 C 
ATOM     18  C25 <0> d   1      17.934   0.711  10.834  0.00  0.00     0.035 C 
ATOM     19  C27 <0> d   1      18.536   0.315   9.490  0.00  0.00     0.124 C 
ATOM     20  C30 <0> d   1      18.154  -1.121   9.098  0.00  0.00     0.042 C 
ATOM     21  C31 <0> d   1      18.572  -2.053  10.207  0.00  0.00    -0.023 C 
ATOM     22  C32 <0> d   1      20.059  -1.864  10.509  0.00  0.00     0.017 C 
ENDROOT
BRANCH   1  23
ATOM     23  C3  <0> d   1      19.419  -4.254   9.415  0.00  0.00     0.136 C 
ATOM     24  O4  <0> d   1      20.177  -4.899  10.099  0.00  0.00    -0.297 OA
BRANCH  23  25
ATOM     25  C2  <0> d   1      19.637  -4.164   7.926  0.00  0.00     0.074 C 
ATOM     26  C1  <0> d   1      20.430  -5.385   7.453  0.00  0.00     0.013 C 
ENDBRANCH  23  25
ENDBRANCH   1  23
BRANCH  19  27
ATOM     27  O29 <0> d   1      19.960   0.411   9.570  0.00  0.00    -0.395 OA
ATOM     28  H56 <0> d   1      20.388  -0.379   9.929  0.00  0.00     0.210 HD
ENDBRANCH  19  27
TORSDOF 3
ENDMDL
MODEL 6
REMARK VINA RESULT:      -8.0      2.612      4.218
REMARK  3 active torsions:
REMARK  status: ('A' for Active; 'I' for Inactive)
REMARK    1  A    between atoms: C2_2  and  C3_3 
REMARK    2  A    between atoms: C3_3  and  C5_5 
REMARK    3  A    between atoms: C27_23  and  O29_24 
ROOT
ATOM      1  C5  <0> d   1      18.255   3.426  12.235  0.00  0.00     0.028 C 
ATOM      2  C6  <0> d   1      16.790   3.736  12.550  0.00  0.00     0.025 C 
ATOM      3  C7  <0> d   1      18.644   4.011  10.854  0.00  0.00    -0.002 C 
ATOM      4  C9  <0> d   1      17.471   4.799  10.268  0.00  0.00     0.011 C 
ATOM      5  C10 <0> d   1      18.981   2.798   9.944  0.00  0.00     0.011 C 
ATOM      6  C11 <0> d   1      18.206   1.651  10.601  0.00  0.00    -0.000 C 
ATOM      7  C13 <0> d   1      18.706   0.252  10.288  0.00  0.00    -0.002 C 
ATOM      8  C15 <0> d   1      18.569  -0.026   8.791  0.00  0.00     0.010 C 
ATOM      9  C16 <0> d   1      19.109  -1.425   8.474  0.00  0.00     0.036 C 
ATOM     10  C17 <0> d   1      18.380  -2.422   9.354  0.00  0.00    -0.064 A 
ATOM     11  C18 <0> d   1      17.813  -3.480   8.794  0.00  0.00     0.058 A 
ATOM     12  C19 <0> d   1      17.080  -4.458   9.612  0.00  0.00     0.172 A 
ATOM     13  O20 <0> d   1      16.592  -5.452   9.107  0.00  0.00    -0.289 OA
ATOM     14  C21 <0> d   1      16.950  -4.208  11.058  0.00  0.00     0.052 A 
ATOM     15  C22 <0> d   1      17.530  -3.148  11.598  0.00  0.00    -0.009 A 
ATOM     16  C23 <0> d   1      18.339  -2.158  10.831  0.00  0.00     0.004 A 
ATOM     17  C24 <0> d   1      19.775  -2.222  11.357  0.00  0.00     0.025 C 
ATOM     18  C25 <0> d   1      17.849  -0.734  11.098  0.00  0.00     0.035 C 
ATOM     19  C27 <0> d   1      17.925  -0.446  12.594  0.00  0.00     0.124 C 
ATOM     20  C30 <0> d   1      17.562   1.014  12.910  0.00  0.00     0.042 C 
ATOM     21  C31 <0> d   1      18.462   1.920  12.108  0.00  0.00    -0.023 C 
ATOM     22  C32 <0> d   1      19.925   1.569  12.378  0.00  0.00     0.017 C 
ENDROOT
BRANCH   1  23
ATOM     23  C3  <0> d   1      19.150   3.987  13.311  0.00  0.00     0.136 C 
ATOM     24  O4  <0> d   1      19.089   3.551  14.434  0.00  0.00    -0.297 OA
BRANCH  23  25
ATOM     25  C2  <0> d   1      20.119   5.095  12.982  0.00  0.00     0.074 C 
ATOM     26  C1  <0> d   1      20.270   6.015  14.196  0.00  0.00     0.013 C 
ENDBRANCH  23  25
ENDBRANCH   1  23
BRANCH  19  27
ATOM     27  O29 <0> d   1      19.254  -0.704  13.052  0.00  0.00    -0.395 OA
ATOM     28  H56 <0> d   1      19.556  -0.099  13.744  0.00  0.00     0.210 HD
ENDBRANCH  19  27
TORSDOF 3
ENDMDL
MODEL 7
REMARK VINA RESULT:      -8.0      4.262      9.613
REMARK  3 active torsions:
REMARK  status: ('A' for Active; 'I' for Inactive)
REMARK    1  A    between atoms: C2_2  and  C3_3 
REMARK    2  A    between atoms: C3_3  and  C5_5 
REMARK    3  A    between atoms: C27_23  and  O29_24 
ROOT
ATOM      1  C5  <0> d   1      18.443   0.274  11.429  0.00  0.00     0.028 C 
ATOM      2  C6  <0> d   1      16.989   0.351  10.959  0.00  0.00     0.025 C 
ATOM      3  C7  <0> d   1      18.740  -1.120  12.038  0.00  0.00    -0.002 C 
ATOM      4  C9  <0> d   1      17.514  -2.024  11.900  0.00  0.00     0.011 C 
ATOM      5  C10 <0> d   1      19.062  -0.883  13.539  0.00  0.00     0.011 C 
ATOM      6  C11 <0> d   1      18.358   0.445  13.835  0.00  0.00    -0.000 C 
ATOM      7  C13 <0> d   1      18.881   1.218  15.032  0.00  0.00    -0.002 C 
ATOM      8  C15 <0> d   1      18.671   0.401  16.309  0.00  0.00     0.010 C 
ATOM      9  C16 <0> d   1      19.234   1.169  17.510  0.00  0.00     0.036 C 
ATOM     10  C17 <0> d   1      18.584   2.539  17.542  0.00  0.00    -0.064 A 
ATOM     11  C18 <0> d   1      18.019   2.956  18.665  0.00  0.00     0.058 A 
ATOM     12  C19 <0> d   1      17.360   4.270  18.729  0.00  0.00     0.172 A 
ATOM     13  O20 <0> d   1      16.875   4.673  19.769  0.00  0.00    -0.289 OA
ATOM     14  C21 <0> d   1      17.302   5.086  17.504  0.00  0.00     0.052 A 
ATOM     15  C22 <0> d   1      17.879   4.652  16.395  0.00  0.00    -0.009 A 
ATOM     16  C23 <0> d   1      18.616   3.361  16.287  0.00  0.00     0.004 A 
ATOM     17  C24 <0> d   1      20.080   3.683  15.977  0.00  0.00     0.025 C 
ATOM     18  C25 <0> d   1      18.099   2.539  15.105  0.00  0.00     0.035 C 
ATOM     19  C27 <0> d   1      18.247   3.350  13.822  0.00  0.00     0.124 C 
ATOM     20  C30 <0> d   1      17.860   2.528  12.582  0.00  0.00     0.042 C 
ATOM     21  C31 <0> d   1      18.687   1.268  12.560  0.00  0.00    -0.023 C 
ATOM     22  C32 <0> d   1      20.173   1.622  12.633  0.00  0.00     0.017 C 
ENDROOT
BRANCH   1  23
ATOM     23  C3  <0> d   1      19.378   0.551  10.280  0.00  0.00     0.136 C 
ATOM     24  O4  <0> d   1      20.299  -0.197  10.056  0.00  0.00    -0.297 OA
BRANCH  23  25
ATOM     25  C2  <0> d   1      19.164   1.764   9.410  0.00  0.00     0.074 C 
ATOM     26  C1  <0> d   1      19.093   1.333   7.943  0.00  0.00     0.013 C 
ENDBRANCH  23  25
ENDBRANCH   1  23
BRANCH  19  27
ATOM     27  O29 <0> d   1      19.607   3.773  13.693  0.00  0.00    -0.395 OA
ATOM     28  H56 <0> d   1      20.181   3.125  13.260  0.00  0.00     0.210 HD
ENDBRANCH  19  27
TORSDOF 3
ENDMDL
MODEL 8
REMARK VINA RESULT:      -8.0      1.716      2.428
REMARK  3 active torsions:
REMARK  status: ('A' for Active; 'I' for Inactive)
REMARK    1  A    between atoms: C2_2  and  C3_3 
REMARK    2  A    between atoms: C3_3  and  C5_5 
REMARK    3  A    between atoms: C27_23  and  O29_24 
ROOT
ATOM      1  C5  <0> d   1      18.743   1.380  10.962  0.00  0.00     0.028 C 
ATOM      2  C6  <0> d   1      17.284   1.822  11.091  0.00  0.00     0.025 C 
ATOM      3  C7  <0> d   1      19.314   1.803   9.585  0.00  0.00    -0.002 C 
ATOM      4  C9  <0> d   1      18.273   2.613   8.811  0.00  0.00     0.011 C 
ATOM      5  C10 <0> d   1      19.640   0.488   8.824  0.00  0.00     0.011 C 
ATOM      6  C11 <0> d   1      18.714  -0.533   9.491  0.00  0.00    -0.000 C 
ATOM      7  C13 <0> d   1      19.127  -1.988   9.356  0.00  0.00    -0.002 C 
ATOM      8  C15 <0> d   1      19.118  -2.396   7.882  0.00  0.00     0.010 C 
ATOM      9  C16 <0> d   1      19.572  -3.853   7.747  0.00  0.00     0.036 C 
ATOM     10  C17 <0> d   1      18.681  -4.708   8.628  0.00  0.00    -0.064 A 
ATOM     11  C18 <0> d   1      18.088  -5.771   8.104  0.00  0.00     0.058 A 
ATOM     12  C19 <0> d   1      17.200  -6.612   8.921  0.00  0.00     0.172 A 
ATOM     13  O20 <0> d   1      16.687  -7.612   8.454  0.00  0.00    -0.289 OA
ATOM     14  C21 <0> d   1      16.948  -6.218  10.317  0.00  0.00     0.052 A 
ATOM     15  C22 <0> d   1      17.555  -5.156  10.822  0.00  0.00    -0.009 A 
ATOM     16  C23 <0> d   1      18.514  -4.303  10.063  0.00  0.00     0.004 A 
ATOM     17  C24 <0> d   1      19.881  -4.420  10.742  0.00  0.00     0.025 C 
ATOM     18  C25 <0> d   1      18.116  -2.829  10.152  0.00  0.00     0.035 C 
ATOM     19  C27 <0> d   1      18.066  -2.407  11.617  0.00  0.00     0.124 C 
ATOM     20  C30 <0> d   1      17.793  -0.902  11.766  0.00  0.00     0.042 C 
ATOM     21  C31 <0> d   1      18.839  -0.142  10.988  0.00  0.00    -0.023 C 
ATOM     22  C32 <0> d   1      20.235  -0.570  11.442  0.00  0.00     0.017 C 
ENDROOT
BRANCH   1  23
ATOM     23  C3  <0> d   1      19.569   1.975  12.074  0.00  0.00     0.136 C 
ATOM     24  O4  <0> d   1      19.539   1.484  13.176  0.00  0.00    -0.297 OA
BRANCH  23  25
ATOM     25  C2  <0> d   1      20.430   3.183  11.809  0.00  0.00     0.074 C 
ATOM     26  C1  <0> d   1      19.736   4.433  12.354  0.00  0.00     0.013 C 
ENDBRANCH  23  25
ENDBRANCH   1  23
BRANCH  19  27
ATOM     27  O29 <0> d   1      19.318  -2.715  12.234  0.00  0.00    -0.395 OA
ATOM     28  H56 <0> d   1      19.244  -2.991  13.159  0.00  0.00     0.210 HD
ENDBRANCH  19  27
TORSDOF 3
ENDMDL
MODEL 9
REMARK VINA RESULT:      -7.6      1.890      3.754
REMARK  3 active torsions:
REMARK  status: ('A' for Active; 'I' for Inactive)
REMARK    1  A    between atoms: C2_2  and  C3_3 
REMARK    2  A    between atoms: C3_3  and  C5_5 
REMARK    3  A    between atoms: C27_23  and  O29_24 
ROOT
ATOM      1  C5  <0> d   1      19.226   0.713  12.697  0.00  0.00     0.028 C 
ATOM      2  C6  <0> d   1      20.705   0.616  13.077  0.00  0.00     0.025 C 
ATOM      3  C7  <0> d   1      18.355  -0.054  13.724  0.00  0.00    -0.002 C 
ATOM      4  C9  <0> d   1      19.231  -0.596  14.854  0.00  0.00     0.011 C 
ATOM      5  C10 <0> d   1      17.696  -1.228  12.949  0.00  0.00     0.011 C 
ATOM      6  C11 <0> d   1      18.652  -1.440  11.771  0.00  0.00    -0.000 C 
ATOM      7  C13 <0> d   1      18.063  -2.142  10.560  0.00  0.00    -0.002 C 
ATOM      8  C15 <0> d   1      17.632  -3.559  10.939  0.00  0.00     0.010 C 
ATOM      9  C16 <0> d   1      17.005  -4.250   9.724  0.00  0.00     0.036 C 
ATOM     10  C17 <0> d   1      18.002  -4.195   8.582  0.00  0.00    -0.064 A 
ATOM     11  C18 <0> d   1      18.313  -5.315   7.947  0.00  0.00     0.058 A 
ATOM     12  C19 <0> d   1      19.292  -5.305   6.848  0.00  0.00     0.172 A 
ATOM     13  O20 <0> d   1      19.551  -6.324   6.235  0.00  0.00    -0.289 OA
ATOM     14  C21 <0> d   1      19.951  -4.033   6.507  0.00  0.00     0.052 A 
ATOM     15  C22 <0> d   1      19.620  -2.925   7.151  0.00  0.00    -0.009 A 
ATOM     16  C23 <0> d   1      18.590  -2.861   8.227  0.00  0.00     0.004 A 
ATOM     17  C24 <0> d   1      17.452  -1.966   7.732  0.00  0.00     0.025 C 
ATOM     18  C25 <0> d   1      19.154  -2.184   9.477  0.00  0.00     0.035 C 
ATOM     19  C27 <0> d   1      19.641  -0.784   9.117  0.00  0.00     0.124 C 
ATOM     20  C30 <0> d   1      20.104  -0.007  10.360  0.00  0.00     0.042 C 
ATOM     21  C31 <0> d   1      18.977   0.021  11.361  0.00  0.00    -0.023 C 
ATOM     22  C32 <0> d   1      17.716   0.587  10.706  0.00  0.00     0.017 C 
ENDROOT
BRANCH   1  23
ATOM     23  C3  <0> d   1      18.798   2.156  12.626  0.00  0.00     0.136 C 
ATOM     24  O4  <0> d   1      17.791   2.517  13.185  0.00  0.00    -0.297 OA
BRANCH  23  25
ATOM     25  C2  <0> d   1      19.629   3.150  11.853  0.00  0.00     0.074 C 
ATOM     26  C1  <0> d   1      19.626   4.494  12.585  0.00  0.00     0.013 C 
ENDBRANCH  23  25
ENDBRANCH   1  23
BRANCH  19  27
ATOM     27  O29 <0> d   1      18.575  -0.066   8.491  0.00  0.00    -0.395 OA
ATOM     28  H56 <0> d   1      17.808   0.077   9.063  0.00  0.00     0.210 HD
ENDBRANCH  19  27
TORSDOF 3
ENDMDL
