MODEL 1
REMARK VINA RESULT:      -6.8      0.000      0.000
REMARK  3 active torsions:
REMARK  status: ('A' for Active; 'I' for Inactive)
REMARK       I    between atoms: N2_2  and  C3_3 
REMARK    1  A    between atoms: C3_3  and  C5_5 
REMARK    2  A    between atoms: C8_8  and  N9_9 
REMARK       I    between atoms: N9_9  and  C10_10 
REMARK    3  A    between atoms: C15_15  and  C16_16 
ROOT
ATOM      1  C5  ZIN A   1      18.626  -2.628   7.820  0.00  0.00     0.068 A 
ATOM      2  C6  ZIN A   1      18.160  -1.334   8.068  0.00  0.00     0.051 A 
ATOM      3  I7  ZIN A   1      17.730  -0.053   6.468  0.00  0.00    -0.041 I 
ATOM      4  C8  ZIN A   1      17.983  -0.897   9.373  0.00  0.00     0.070 A 
ATOM      5  C13 ZIN A   1      18.266  -1.741  10.436  0.00  0.00     0.052 A 
ATOM      6  I14 ZIN A   1      17.994  -1.075  12.403  0.00  0.00    -0.041 I 
ATOM      7  C15 ZIN A   1      18.734  -3.038  10.196  0.00  0.00     0.077 A 
ATOM      8  C19 ZIN A   1      18.908  -3.482   8.885  0.00  0.00     0.042 A 
ATOM      9  I20 ZIN A   1      19.607  -5.423   8.517  0.00  0.00    -0.042 I 
ENDROOT
BRANCH   1  10
ATOM     10  C3  ZIN A   1      18.815  -3.091   6.429  0.00  0.00     0.253 C 
ATOM     11  N2  ZIN A   1      17.790  -3.658   5.762  0.00  0.00    -0.361 N 
ATOM     12  C1  ZIN A   1      17.978  -4.116   4.384  0.00  0.00     0.149 C 
ATOM     13  H24 ZIN A   1      16.928  -3.762   6.195  0.00  0.00     0.162 HD
ATOM     14  O4  ZIN A   1      19.895  -2.962   5.888  0.00  0.00    -0.268 OA
ENDBRANCH   1  10
BRANCH   7  15
ATOM     15  C16 ZIN A   1      19.034  -3.936  11.326  0.00  0.00     0.212 C 
ATOM     16  O17 ZIN A   1      20.162  -3.968  11.798  0.00  0.00    -0.644 OA
ATOM     17  O18 ZIN A   1      18.157  -4.649  11.791  0.00  0.00    -0.644 OA
ENDBRANCH   7  15
BRANCH   4  18
ATOM     18  N9  ZIN A   1      17.515   0.400   9.617  0.00  0.00    -0.325 N 
ATOM     19  C10 ZIN A   1      18.388   1.412   9.786  0.00  0.00     0.218 C 
ATOM     20  C11 ZIN A   1      17.889   2.785  10.160  0.00  0.00     0.117 C 
ATOM     21  O12 ZIN A   1      19.576   1.219   9.636  0.00  0.00    -0.274 OA
ATOM     22  H25 ZIN A   1      16.561   0.570   9.663  0.00  0.00     0.169 HD
ENDBRANCH   4  18
TORSDOF 3
ENDMDL
MODEL 2
REMARK VINA RESULT:      -6.6      5.164      8.211
REMARK  3 active torsions:
REMARK  status: ('A' for Active; 'I' for Inactive)
REMARK       I    between atoms: N2_2  and  C3_3 
REMARK    1  A    between atoms: C3_3  and  C5_5 
REMARK    2  A    between atoms: C8_8  and  N9_9 
REMARK       I    between atoms: N9_9  and  C10_10 
REMARK    3  A    between atoms: C15_15  and  C16_16 
ROOT
ATOM      1  C5  ZIN A   1      18.803   2.612  15.332  0.00  0.00     0.068 A 
ATOM      2  C6  ZIN A   1      18.928   2.566  13.941  0.00  0.00     0.051 A 
ATOM      3  I7  ZIN A   1      19.133   4.342  12.850  0.00  0.00    -0.041 I 
ATOM      4  C8  ZIN A   1      18.917   1.345  13.281  0.00  0.00     0.070 A 
ATOM      5  C13 ZIN A   1      18.782   0.166  13.999  0.00  0.00     0.052 A 
ATOM      6  I14 ZIN A   1      18.767  -1.673  12.996  0.00  0.00    -0.041 I 
ATOM      7  C15 ZIN A   1      18.655   0.203  15.391  0.00  0.00     0.077 A 
ATOM      8  C19 ZIN A   1      18.672   1.429  16.058  0.00  0.00     0.042 A 
ATOM      9  I20 ZIN A   1      18.483   1.493  18.144  0.00  0.00    -0.042 I 
ENDROOT
BRANCH   1  10
ATOM     10  C3  ZIN A   1      18.815   3.913  16.033  0.00  0.00     0.253 C 
ATOM     11  N2  ZIN A   1      17.659   4.568  16.258  0.00  0.00    -0.361 N 
ATOM     12  C1  ZIN A   1      17.671   5.857  16.954  0.00  0.00     0.149 C 
ATOM     13  H24 ZIN A   1      16.818   4.185  15.961  0.00  0.00     0.162 HD
ATOM     14  O4  ZIN A   1      19.868   4.392  16.405  0.00  0.00    -0.268 OA
ENDBRANCH   1  10
BRANCH   7  15
ATOM     15  C16 ZIN A   1      18.512  -1.050  16.154  0.00  0.00     0.212 C 
ATOM     16  O17 ZIN A   1      19.508  -1.659  16.521  0.00  0.00    -0.644 OA
ATOM     17  O18 ZIN A   1      17.399  -1.481  16.420  0.00  0.00    -0.644 OA
ENDBRANCH   7  15
BRANCH   4  18
ATOM     18  N9  ZIN A   1      19.044   1.304  11.887  0.00  0.00    -0.325 N 
ATOM     19  C10 ZIN A   1      17.944   1.301  11.109  0.00  0.00     0.218 C 
ATOM     20  C11 ZIN A   1      18.077   1.142   9.616  0.00  0.00     0.117 C 
ATOM     21  O12 ZIN A   1      16.847   1.425  11.610  0.00  0.00    -0.274 OA
ATOM     22  H25 ZIN A   1      19.925   1.280  11.482  0.00  0.00     0.169 HD
ENDBRANCH   4  18
TORSDOF 3
ENDMDL
MODEL 3
REMARK VINA RESULT:      -6.6      4.658      7.278
REMARK  3 active torsions:
REMARK  status: ('A' for Active; 'I' for Inactive)
REMARK       I    between atoms: N2_2  and  C3_3 
REMARK    1  A    between atoms: C3_3  and  C5_5 
REMARK    2  A    between atoms: C8_8  and  N9_9 
REMARK       I    between atoms: N9_9  and  C10_10 
REMARK    3  A    between atoms: C15_15  and  C16_16 
ROOT
ATOM      1  C5  ZIN A   1      18.203   0.444  13.090  0.00  0.00     0.068 A 
ATOM      2  C6  ZIN A   1      18.148   0.704  14.462  0.00  0.00     0.051 A 
ATOM      3  I7  ZIN A   1      18.343  -0.868  15.833  0.00  0.00    -0.041 I 
ATOM      4  C8  ZIN A   1      17.965   2.002  14.918  0.00  0.00     0.070 A 
ATOM      5  C13 ZIN A   1      17.836   3.046  14.015  0.00  0.00     0.052 A 
ATOM      6  I14 ZIN A   1      17.562   5.003  14.711  0.00  0.00    -0.041 I 
ATOM      7  C15 ZIN A   1      17.889   2.795  12.640  0.00  0.00     0.077 A 
ATOM      8  C19 ZIN A   1      18.079   1.491  12.178  0.00  0.00     0.042 A 
ATOM      9  I20 ZIN A   1      18.159   1.107  10.121  0.00  0.00    -0.042 I 
ENDROOT
BRANCH   1  10
ATOM     10  C3  ZIN A   1      18.397  -0.939  12.607  0.00  0.00     0.253 C 
ATOM     11  N2  ZIN A   1      19.642  -1.432  12.458  0.00  0.00    -0.361 N 
ATOM     12  C1  ZIN A   1      19.834  -2.803  11.980  0.00  0.00     0.149 C 
ATOM     13  H24 ZIN A   1      20.411  -0.880  12.668  0.00  0.00     0.162 HD
ATOM     14  O4  ZIN A   1      17.434  -1.631  12.343  0.00  0.00    -0.268 OA
ENDBRANCH   1  10
BRANCH   7  15
ATOM     15  C16 ZIN A   1      17.753   3.905  11.680  0.00  0.00     0.212 C 
ATOM     16  O17 ZIN A   1      18.742   4.529  11.322  0.00  0.00    -0.644 OA
ATOM     17  O18 ZIN A   1      16.651   4.203  11.241  0.00  0.00    -0.644 OA
ENDBRANCH   7  15
BRANCH   4  18
ATOM     18  N9  ZIN A   1      17.912   2.258  16.294  0.00  0.00    -0.325 N 
ATOM     19  C10 ZIN A   1      19.036   2.578  16.964  0.00  0.00     0.218 C 
ATOM     20  C11 ZIN A   1      19.001   2.742  18.462  0.00  0.00     0.117 C 
ATOM     21  O12 ZIN A   1      20.077   2.735  16.362  0.00  0.00    -0.274 OA
ATOM     22  H25 ZIN A   1      17.065   2.205  16.764  0.00  0.00     0.169 HD
ENDBRANCH   4  18
TORSDOF 3
ENDMDL
MODEL 4
REMARK VINA RESULT:      -6.6      4.601      7.236
REMARK  3 active torsions:
REMARK  status: ('A' for Active; 'I' for Inactive)
REMARK       I    between atoms: N2_2  and  C3_3 
REMARK    1  A    between atoms: C3_3  and  C5_5 
REMARK    2  A    between atoms: C8_8  and  N9_9 
REMARK       I    between atoms: N9_9  and  C10_10 
REMARK    3  A    between atoms: C15_15  and  C16_16 
ROOT
ATOM      1  C5  ZIN A   1      18.505   1.972  11.734  0.00  0.00     0.068 A 
ATOM      2  C6  ZIN A   1      18.968   1.003  12.627  0.00  0.00     0.051 A 
ATOM      3  I7  ZIN A   1      19.506  -0.895  11.924  0.00  0.00    -0.041 I 
ATOM      4  C8  ZIN A   1      19.070   1.295  13.980  0.00  0.00     0.070 A 
ATOM      5  C13 ZIN A   1      18.716   2.550  14.451  0.00  0.00     0.052 A 
ATOM      6  I14 ZIN A   1      18.875   2.985  16.494  0.00  0.00    -0.041 I 
ATOM      7  C15 ZIN A   1      18.250   3.527  13.564  0.00  0.00     0.077 A 
ATOM      8  C19 ZIN A   1      18.152   3.237  12.202  0.00  0.00     0.042 A 
ATOM      9  I20 ZIN A   1      17.457   4.694  10.866  0.00  0.00    -0.042 I 
ENDROOT
BRANCH   1  10
ATOM     10  C3  ZIN A   1      18.396   1.659  10.294  0.00  0.00     0.253 C 
ATOM     11  N2  ZIN A   1      19.436   1.899   9.471  0.00  0.00    -0.361 N 
ATOM     12  C1  ZIN A   1      19.327   1.587   8.044  0.00  0.00     0.149 C 
ATOM     13  H24 ZIN A   1      20.256   2.278   9.824  0.00  0.00     0.162 HD
ATOM     14  O4  ZIN A   1      17.368   1.184   9.852  0.00  0.00    -0.268 OA
ENDBRANCH   1  10
BRANCH   7  15
ATOM     15  C16 ZIN A   1      17.874   4.861  14.064  0.00  0.00     0.212 C 
ATOM     16  O17 ZIN A   1      18.710   5.752  14.117  0.00  0.00    -0.644 OA
ATOM     17  O18 ZIN A   1      16.726   5.077  14.426  0.00  0.00    -0.644 OA
ENDBRANCH   7  15
BRANCH   4  18
ATOM     18  N9  ZIN A   1      19.536   0.320  14.872  0.00  0.00    -0.325 N 
ATOM     19  C10 ZIN A   1      18.664  -0.496  15.494  0.00  0.00     0.218 C 
ATOM     20  C11 ZIN A   1      19.153  -1.468  16.538  0.00  0.00     0.117 C 
ATOM     21  O12 ZIN A   1      17.484  -0.449  15.216  0.00  0.00    -0.274 OA
ATOM     22  H25 ZIN A   1      20.487   0.232  15.040  0.00  0.00     0.169 HD
ENDBRANCH   4  18
TORSDOF 3
ENDMDL
MODEL 5
REMARK VINA RESULT:      -6.5      2.562      6.229
REMARK  3 active torsions:
REMARK  status: ('A' for Active; 'I' for Inactive)
REMARK       I    between atoms: N2_2  and  C3_3 
REMARK    1  A    between atoms: C3_3  and  C5_5 
REMARK    2  A    between atoms: C8_8  and  N9_9 
REMARK       I    between atoms: N9_9  and  C10_10 
REMARK    3  A    between atoms: C15_15  and  C16_16 
ROOT
ATOM      1  C5  ZIN A   1      19.184  -1.290   9.379  0.00  0.00     0.068 A 
ATOM      2  C6  ZIN A   1      19.062  -2.677   9.496  0.00  0.00     0.051 A 
ATOM      3  I7  ZIN A   1      19.188  -3.584  11.379  0.00  0.00    -0.041 I 
ATOM      4  C8  ZIN A   1      18.858  -3.455   8.365  0.00  0.00     0.070 A 
ATOM      5  C13 ZIN A   1      18.773  -2.860   7.115  0.00  0.00     0.052 A 
ATOM      6  I14 ZIN A   1      18.462  -4.041   5.413  0.00  0.00    -0.041 I 
ATOM      7  C15 ZIN A   1      18.895  -1.472   6.990  0.00  0.00     0.077 A 
ATOM      8  C19 ZIN A   1      19.095  -0.687   8.126  0.00  0.00     0.042 A 
ATOM      9  I20 ZIN A   1      19.278   1.393   7.946  0.00  0.00    -0.042 I 
ENDROOT
BRANCH   1  10
ATOM     10  C3  ZIN A   1      19.402  -0.464  10.585  0.00  0.00     0.253 C 
ATOM     11  N2  ZIN A   1      20.656  -0.177  10.988  0.00  0.00    -0.361 N 
ATOM     12  C1  ZIN A   1      20.871   0.643  12.182  0.00  0.00     0.149 C 
ATOM     13  H24 ZIN A   1      21.415  -0.513  10.487  0.00  0.00     0.162 HD
ATOM     14  O4  ZIN A   1      18.451  -0.043  11.213  0.00  0.00    -0.268 OA
ENDBRANCH   1  10
BRANCH   7  15
ATOM     15  C16 ZIN A   1      18.804  -0.839   5.662  0.00  0.00     0.212 C 
ATOM     16  O17 ZIN A   1      19.800  -0.750   4.957  0.00  0.00    -0.644 OA
ATOM     17  O18 ZIN A   1      17.733  -0.403   5.264  0.00  0.00    -0.644 OA
ENDBRANCH   7  15
BRANCH   4  18
ATOM     18  N9  ZIN A   1      18.735  -4.845   8.486  0.00  0.00    -0.325 N 
ATOM     19  C10 ZIN A   1      17.530  -5.397   8.731  0.00  0.00     0.218 C 
ATOM     20  C11 ZIN A   1      17.415  -6.880   8.975  0.00  0.00     0.117 C 
ATOM     21  O12 ZIN A   1      16.538  -4.700   8.755  0.00  0.00    -0.274 OA
ATOM     22  H25 ZIN A   1      19.517  -5.411   8.393  0.00  0.00     0.169 HD
ENDBRANCH   4  18
TORSDOF 3
ENDMDL
MODEL 6
REMARK VINA RESULT:      -6.5      3.989      7.150
REMARK  3 active torsions:
REMARK  status: ('A' for Active; 'I' for Inactive)
REMARK       I    between atoms: N2_2  and  C3_3 
REMARK    1  A    between atoms: C3_3  and  C5_5 
REMARK    2  A    between atoms: C8_8  and  N9_9 
REMARK       I    between atoms: N9_9  and  C10_10 
REMARK    3  A    between atoms: C15_15  and  C16_16 
ROOT
ATOM      1  C5  ZIN A   1      18.317   2.678  13.510  0.00  0.00     0.068 A 
ATOM      2  C6  ZIN A   1      17.996   2.434  12.173  0.00  0.00     0.051 A 
ATOM      3  I7  ZIN A   1      17.713   4.037  10.856  0.00  0.00    -0.041 I 
ATOM      4  C8  ZIN A   1      17.863   1.130  11.716  0.00  0.00     0.070 A 
ATOM      5  C13 ZIN A   1      18.049   0.065  12.584  0.00  0.00     0.052 A 
ATOM      6  I14 ZIN A   1      17.849  -1.900  11.886  0.00  0.00    -0.041 I 
ATOM      7  C15 ZIN A   1      18.371   0.301  13.925  0.00  0.00     0.077 A 
ATOM      8  C19 ZIN A   1      18.511   1.611  14.386  0.00  0.00     0.042 A 
ATOM      9  I20 ZIN A   1      18.992   1.972  16.392  0.00  0.00    -0.042 I 
ENDROOT
BRANCH   1  10
ATOM     10  C3  ZIN A   1      18.458   4.067  13.995  0.00  0.00     0.253 C 
ATOM     11  N2  ZIN A   1      19.663   4.670  13.975  0.00  0.00    -0.361 N 
ATOM     12  C1  ZIN A   1      19.801   6.047  14.455  0.00  0.00     0.149 C 
ATOM     13  H24 ZIN A   1      20.438   4.192  13.642  0.00  0.00     0.162 HD
ATOM     14  O4  ZIN A   1      17.485   4.665  14.413  0.00  0.00    -0.268 OA
ENDBRANCH   1  10
BRANCH   7  15
ATOM     15  C16 ZIN A   1      18.570  -0.832  14.847  0.00  0.00     0.212 C 
ATOM     16  O17 ZIN A   1      17.654  -1.198  15.572  0.00  0.00    -0.644 OA
ATOM     17  O18 ZIN A   1      19.649  -1.404  14.889  0.00  0.00    -0.644 OA
ENDBRANCH   7  15
BRANCH   4  18
ATOM     18  N9  ZIN A   1      17.541   0.890  10.374  0.00  0.00    -0.325 N 
ATOM     19  C10 ZIN A   1      18.521   0.756   9.460  0.00  0.00     0.218 C 
ATOM     20  C11 ZIN A   1      18.176   0.612   8.000  0.00  0.00     0.117 C 
ATOM     21  O12 ZIN A   1      19.682   0.752   9.811  0.00  0.00    -0.274 OA
ATOM     22  H25 ZIN A   1      16.613   0.819  10.104  0.00  0.00     0.169 HD
ENDBRANCH   4  18
TORSDOF 3
ENDMDL
MODEL 7
REMARK VINA RESULT:      -6.3      2.649      5.651
REMARK  3 active torsions:
REMARK  status: ('A' for Active; 'I' for Inactive)
REMARK       I    between atoms: N2_2  and  C3_3 
REMARK    1  A    between atoms: C3_3  and  C5_5 
REMARK    2  A    between atoms: C8_8  and  N9_9 
REMARK       I    between atoms: N9_9  and  C10_10 
REMARK    3  A    between atoms: C15_15  and  C16_16 
ROOT
ATOM      1  C5  ZIN A   1      18.872   1.383  11.164  0.00  0.00     0.068 A 
ATOM      2  C6  ZIN A   1      19.164   0.641  10.018  0.00  0.00     0.051 A 
ATOM      3  I7  ZIN A   1      19.252   1.588   8.152  0.00  0.00    -0.041 I 
ATOM      4  C8  ZIN A   1      19.396  -0.725  10.113  0.00  0.00     0.070 A 
ATOM      5  C13 ZIN A   1      19.340  -1.356  11.346  0.00  0.00     0.052 A 
ATOM      6  I14 ZIN A   1      19.692  -3.417  11.483  0.00  0.00    -0.041 I 
ATOM      7  C15 ZIN A   1      19.047  -0.620  12.499  0.00  0.00     0.077 A 
ATOM      8  C19 ZIN A   1      18.819   0.754  12.407  0.00  0.00     0.042 A 
ATOM      9  I20 ZIN A   1      18.381   1.864  14.129  0.00  0.00    -0.042 I 
ENDROOT
BRANCH   1  10
ATOM     10  C3  ZIN A   1      18.625   2.837  11.060  0.00  0.00     0.253 C 
ATOM     11  N2  ZIN A   1      17.378   3.295  10.835  0.00  0.00    -0.361 N 
ATOM     12  C1  ZIN A   1      17.134   4.735  10.733  0.00  0.00     0.149 C 
ATOM     13  H24 ZIN A   1      16.642   2.670  10.741  0.00  0.00     0.162 HD
ATOM     14  O4  ZIN A   1      19.548   3.619  11.177  0.00  0.00    -0.268 OA
ENDBRANCH   1  10
BRANCH   7  15
ATOM     15  C16 ZIN A   1      18.988  -1.291  13.810  0.00  0.00     0.212 C 
ATOM     16  O17 ZIN A   1      17.923  -1.727  14.226  0.00  0.00    -0.644 OA
ATOM     17  O18 ZIN A   1      20.002  -1.412  14.482  0.00  0.00    -0.644 OA
ENDBRANCH   7  15
BRANCH   4  18
ATOM     18  N9  ZIN A   1      19.689  -1.465   8.961  0.00  0.00    -0.325 N 
ATOM     19  C10 ZIN A   1      18.696  -2.048   8.263  0.00  0.00     0.218 C 
ATOM     20  C11 ZIN A   1      19.020  -2.938   7.090  0.00  0.00     0.117 C 
ATOM     21  O12 ZIN A   1      17.541  -1.858   8.578  0.00  0.00    -0.274 OA
ATOM     22  H25 ZIN A   1      20.609  -1.557   8.666  0.00  0.00     0.169 HD
ENDBRANCH   4  18
TORSDOF 3
ENDMDL
MODEL 8
REMARK VINA RESULT:      -6.3      2.600      4.236
REMARK  3 active torsions:
REMARK  status: ('A' for Active; 'I' for Inactive)
REMARK       I    between atoms: N2_2  and  C3_3 
REMARK    1  A    between atoms: C3_3  and  C5_5 
REMARK    2  A    between atoms: C8_8  and  N9_9 
REMARK       I    between atoms: N9_9  and  C10_10 
REMARK    3  A    between atoms: C15_15  and  C16_16 
ROOT
ATOM      1  C5  ZIN A   1      18.937  -3.202   8.133  0.00  0.00     0.068 A 
ATOM      2  C6  ZIN A   1      19.053  -2.838   9.477  0.00  0.00     0.051 A 
ATOM      3  I7  ZIN A   1      19.369  -4.308  10.935  0.00  0.00    -0.041 I 
ATOM      4  C8  ZIN A   1      18.959  -1.504   9.847  0.00  0.00     0.070 A 
ATOM      5  C13 ZIN A   1      18.751  -0.527   8.885  0.00  0.00     0.052 A 
ATOM      6  I14 ZIN A   1      18.611   1.485   9.451  0.00  0.00    -0.041 I 
ATOM      7  C15 ZIN A   1      18.632  -0.883   7.538  0.00  0.00     0.077 A 
ATOM      8  C19 ZIN A   1      18.732  -2.224   7.162  0.00  0.00     0.042 A 
ATOM      9  I20 ZIN A   1      18.557  -2.765   5.146  0.00  0.00    -0.042 I 
ENDROOT
BRANCH   1  10
ATOM     10  C3  ZIN A   1      19.037  -4.624   7.741  0.00  0.00     0.253 C 
ATOM     11  N2  ZIN A   1      17.928  -5.389   7.689  0.00  0.00    -0.361 N 
ATOM     12  C1  ZIN A   1      18.028  -6.797   7.300  0.00  0.00     0.149 C 
ATOM     13  H24 ZIN A   1      17.065  -5.006   7.909  0.00  0.00     0.162 HD
ATOM     14  O4  ZIN A   1      20.119  -5.103   7.466  0.00  0.00    -0.268 OA
ENDBRANCH   1  10
BRANCH   7  15
ATOM     15  C16 ZIN A   1      18.411   0.155   6.515  0.00  0.00     0.212 C 
ATOM     16  O17 ZIN A   1      17.274   0.428   6.156  0.00  0.00    -0.644 OA
ATOM     17  O18 ZIN A   1      19.364   0.744   6.025  0.00  0.00    -0.644 OA
ENDBRANCH   7  15
BRANCH   4  18
ATOM     18  N9  ZIN A   1      19.077  -1.144  11.195  0.00  0.00    -0.325 N 
ATOM     19  C10 ZIN A   1      17.981  -1.087  11.977  0.00  0.00     0.218 C 
ATOM     20  C11 ZIN A   1      18.092  -0.590  13.396  0.00  0.00     0.117 C 
ATOM     21  O12 ZIN A   1      16.905  -1.436  11.539  0.00  0.00    -0.274 OA
ATOM     22  H25 ZIN A   1      19.949  -0.936  11.566  0.00  0.00     0.169 HD
ENDBRANCH   4  18
TORSDOF 3
ENDMDL
MODEL 9
REMARK VINA RESULT:      -6.3      2.801      3.263
REMARK  3 active torsions:
REMARK  status: ('A' for Active; 'I' for Inactive)
REMARK       I    between atoms: N2_2  and  C3_3 
REMARK    1  A    between atoms: C3_3  and  C5_5 
REMARK    2  A    between atoms: C8_8  and  N9_9 
REMARK       I    between atoms: N9_9  and  C10_10 
REMARK    3  A    between atoms: C15_15  and  C16_16 
ROOT
ATOM      1  C5  ZIN A   1      17.869  -4.041   8.681  0.00  0.00     0.068 A 
ATOM      2  C6  ZIN A   1      18.370  -3.138   7.740  0.00  0.00     0.051 A 
ATOM      3  I7  ZIN A   1      18.539  -3.708   5.731  0.00  0.00    -0.041 I 
ATOM      4  C8  ZIN A   1      18.755  -1.864   8.133  0.00  0.00     0.070 A 
ATOM      5  C13 ZIN A   1      18.644  -1.481   9.461  0.00  0.00     0.052 A 
ATOM      6  I14 ZIN A   1      19.225   0.444  10.047  0.00  0.00    -0.041 I 
ATOM      7  C15 ZIN A   1      18.145  -2.379  10.411  0.00  0.00     0.077 A 
ATOM      8  C19 ZIN A   1      17.751  -3.659  10.017  0.00  0.00     0.042 A 
ATOM      9  I20 ZIN A   1      17.002  -5.009  11.433  0.00  0.00    -0.042 I 
ENDROOT
BRANCH   1  10
ATOM     10  C3  ZIN A   1      17.460  -5.397   8.260  0.00  0.00     0.253 C 
ATOM     11  N2  ZIN A   1      16.197  -5.624   7.849  0.00  0.00    -0.361 N 
ATOM     12  C1  ZIN A   1      15.793  -6.968   7.431  0.00  0.00     0.149 C 
ATOM     13  H24 ZIN A   1      15.556  -4.896   7.829  0.00  0.00     0.162 HD
ATOM     14  O4  ZIN A   1      18.264  -6.309   8.286  0.00  0.00    -0.268 OA
ENDBRANCH   1  10
BRANCH   7  15
ATOM     15  C16 ZIN A   1      18.026  -1.972  11.822  0.00  0.00     0.212 C 
ATOM     16  O17 ZIN A   1      17.006  -1.425  12.217  0.00  0.00    -0.644 OA
ATOM     17  O18 ZIN A   1      18.948  -2.181  12.598  0.00  0.00    -0.644 OA
ENDBRANCH   7  15
BRANCH   4  18
ATOM     18  N9  ZIN A   1      19.254  -0.962   7.185  0.00  0.00    -0.325 N 
ATOM     19  C10 ZIN A   1      18.413  -0.148   6.519  0.00  0.00     0.218 C 
ATOM     20  C11 ZIN A   1      18.935   0.741   5.420  0.00  0.00     0.117 C 
ATOM     21  O12 ZIN A   1      17.234  -0.131   6.804  0.00  0.00    -0.274 OA
ATOM     22  H25 ZIN A   1      20.208  -0.922   7.010  0.00  0.00     0.169 HD
ENDBRANCH   4  18
TORSDOF 3
ENDMDL
