MODEL 1
REMARK VINA RESULT:      -7.1      0.000      0.000
REMARK  3 active torsions:
REMARK  status: ('A' for Active; 'I' for Inactive)
REMARK    1  A    between atoms: C2_2  and  C4_3 
REMARK    2  A    between atoms: C2_2  and  N13_12 
REMARK    3  A    between atoms: N13_12  and  O14_13 
REMARK       I    between atoms: N13_12  and  C15_14 
REMARK       I    between atoms: C15_14  and  N16_15 
ROOT
ATOM      1  C1  <0> d   1      17.703   2.852  10.525  0.00  0.00     0.041 C 
ATOM      2  C2  <0> d   1      18.344   1.468  10.636  0.00  0.00     0.155 C 
ENDROOT
BRANCH   2   3
ATOM      3  C4  <0> d   1      18.412   0.834   9.271  0.00  0.00     0.009 A 
ATOM      4  S12 <0> d   1      17.878  -0.797   8.912  0.00  0.00    -0.092 SA
ATOM      5  C11 <0> d   1      18.317  -0.639   7.216  0.00  0.00     0.015 A 
ATOM      6  C6  <0> d   1      18.856   0.630   6.985  0.00  0.00    -0.018 A 
ATOM      7  C10 <0> d   1      18.209  -1.550   6.161  0.00  0.00     0.019 A 
ATOM      8  C5  <0> d   1      18.887   1.432   8.196  0.00  0.00     0.029 A 
ATOM      9  C7  <0> d   1      19.281   0.961   5.680  0.00  0.00     0.013 A 
ATOM     10  C8  <0> d   1      19.166   0.060   4.667  0.00  0.00     0.001 A 
ATOM     11  C9  <0> d   1      18.631  -1.200   4.899  0.00  0.00     0.001 A 
ENDBRANCH   2   3
BRANCH   2  12
ATOM     12  N13 <0> d   1      19.699   1.600  11.181  0.00  0.00    -0.201 N 
ATOM     13  C15 <0> d   1      20.279   0.555  11.803  0.00  0.00     0.340 C 
ATOM     14  N16 <0> d   1      21.552   0.650  12.235  0.00  0.00    -0.350 N 
ATOM     15  O17 <0> d   1      19.654  -0.474  11.975  0.00  0.00    -0.245 OA
ATOM     16  H27 <0> d   1      22.026   1.493  12.165  0.00  0.00     0.160 HD
ATOM     17  H28 <0> d   1      21.994  -0.125  12.617  0.00  0.00     0.160 HD
BRANCH  12  18
ATOM     18  O14 <0> d   1      20.396   2.825  11.054  0.00  0.00    -0.283 OA
ATOM     19  H26 <0> d   1      19.937   3.484  10.515  0.00  0.00     0.245 HD
ENDBRANCH  12  18
ENDBRANCH   2  12
TORSDOF 3
ENDMDL
MODEL 2
REMARK VINA RESULT:      -6.9      3.763      7.379
REMARK  3 active torsions:
REMARK  status: ('A' for Active; 'I' for Inactive)
REMARK    1  A    between atoms: C2_2  and  C4_3 
REMARK    2  A    between atoms: C2_2  and  N13_12 
REMARK    3  A    between atoms: N13_12  and  O14_13 
REMARK       I    between atoms: N13_12  and  C15_14 
REMARK       I    between atoms: C15_14  and  N16_15 
ROOT
ATOM      1  C1  <0> d   1      19.990  -2.919  11.564  0.00  0.00     0.041 C 
ATOM      2  C2  <0> d   1      19.306  -1.552  11.519  0.00  0.00     0.155 C 
ENDROOT
BRANCH   2   3
ATOM      3  C4  <0> d   1      19.235  -0.978  12.911  0.00  0.00     0.009 A 
ATOM      4  S12 <0> d   1      19.215   0.737  13.272  0.00  0.00    -0.092 SA
ATOM      5  C11 <0> d   1      19.126   0.439  15.003  0.00  0.00     0.015 A 
ATOM      6  C6  <0> d   1      19.123  -0.938  15.245  0.00  0.00    -0.018 A 
ATOM      7  C10 <0> d   1      19.068   1.333  16.078  0.00  0.00     0.019 A 
ATOM      8  C5  <0> d   1      19.187  -1.703  14.011  0.00  0.00     0.029 A 
ATOM      9  C7  <0> d   1      19.062  -1.394  16.579  0.00  0.00     0.013 A 
ATOM     10  C8  <0> d   1      19.006  -0.508  17.610  0.00  0.00     0.001 A 
ATOM     11  C9  <0> d   1      19.009   0.860  17.368  0.00  0.00     0.001 A 
ENDBRANCH   2   3
BRANCH   2  12
ATOM     12  N13 <0> d   1      20.076  -0.649  10.658  0.00  0.00    -0.201 N 
ATOM     13  C15 <0> d   1      19.445   0.110   9.742  0.00  0.00     0.340 C 
ATOM     14  N16 <0> d   1      20.142   0.997   9.004  0.00  0.00    -0.350 N 
ATOM     15  O17 <0> d   1      18.245  -0.004   9.581  0.00  0.00    -0.245 OA
ATOM     16  H27 <0> d   1      21.108   1.036   9.080  0.00  0.00     0.160 HD
ATOM     17  H28 <0> d   1      19.678   1.594   8.397  0.00  0.00     0.160 HD
BRANCH  12  18
ATOM     18  O14 <0> d   1      21.484  -0.576  10.789  0.00  0.00    -0.283 OA
ATOM     19  H26 <0> d   1      21.969  -0.983  10.058  0.00  0.00     0.245 HD
ENDBRANCH  12  18
ENDBRANCH   2  12
TORSDOF 3
ENDMDL
MODEL 3
REMARK VINA RESULT:      -6.8      3.758      4.699
REMARK  3 active torsions:
REMARK  status: ('A' for Active; 'I' for Inactive)
REMARK    1  A    between atoms: C2_2  and  C4_3 
REMARK    2  A    between atoms: C2_2  and  N13_12 
REMARK    3  A    between atoms: N13_12  and  O14_13 
REMARK       I    between atoms: N13_12  and  C15_14 
REMARK       I    between atoms: C15_14  and  N16_15 
ROOT
ATOM      1  C1  <0> d   1      18.092   0.602   9.197  0.00  0.00     0.041 C 
ATOM      2  C2  <0> d   1      18.478  -0.119  10.489  0.00  0.00     0.155 C 
ENDROOT
BRANCH   2   3
ATOM      3  C4  <0> d   1      18.178  -1.589  10.354  0.00  0.00     0.009 A 
ATOM      4  S12 <0> d   1      18.032  -2.431   8.824  0.00  0.00    -0.092 SA
ATOM      5  C11 <0> d   1      17.704  -3.964   9.621  0.00  0.00     0.015 A 
ATOM      6  C6  <0> d   1      17.709  -3.784  11.007  0.00  0.00    -0.018 A 
ATOM      7  C10 <0> d   1      17.455  -5.231   9.086  0.00  0.00     0.019 A 
ATOM      8  C5  <0> d   1      17.986  -2.405  11.372  0.00  0.00     0.029 A 
ATOM      9  C7  <0> d   1      17.460  -4.897  11.838  0.00  0.00     0.013 A 
ATOM     10  C8  <0> d   1      17.220  -6.123  11.297  0.00  0.00     0.001 A 
ATOM     11  C9  <0> d   1      17.215  -6.298   9.920  0.00  0.00     0.001 A 
ENDBRANCH   2   3
BRANCH   2  12
ATOM     12  N13 <0> d   1      19.910   0.066  10.743  0.00  0.00    -0.201 N 
ATOM     13  C15 <0> d   1      20.326   0.569  11.921  0.00  0.00     0.340 C 
ATOM     14  N16 <0> d   1      21.644   0.666  12.185  0.00  0.00    -0.350 N 
ATOM     15  O17 <0> d   1      19.512   0.935  12.747  0.00  0.00    -0.245 OA
ATOM     16  H27 <0> d   1      22.293   0.444  11.499  0.00  0.00     0.160 HD
ATOM     17  H28 <0> d   1      21.944   0.959  13.060  0.00  0.00     0.160 HD
BRANCH  12  18
ATOM     18  O14 <0> d   1      20.855  -0.283   9.748  0.00  0.00    -0.283 OA
ATOM     19  H26 <0> d   1      21.620  -0.769  10.087  0.00  0.00     0.245 HD
ENDBRANCH  12  18
ENDBRANCH   2  12
TORSDOF 3
ENDMDL
MODEL 4
REMARK VINA RESULT:      -6.7      4.099      7.661
REMARK  3 active torsions:
REMARK  status: ('A' for Active; 'I' for Inactive)
REMARK    1  A    between atoms: C2_2  and  C4_3 
REMARK    2  A    between atoms: C2_2  and  N13_12 
REMARK    3  A    between atoms: N13_12  and  O14_13 
REMARK       I    between atoms: N13_12  and  C15_14 
REMARK       I    between atoms: C15_14  and  N16_15 
ROOT
ATOM      1  C1  <0> d   1      18.097  -3.054  12.192  0.00  0.00     0.041 C 
ATOM      2  C2  <0> d   1      18.395  -1.564  12.024  0.00  0.00     0.155 C 
ENDROOT
BRANCH   2   3
ATOM      3  C4  <0> d   1      18.593  -0.934  13.378  0.00  0.00     0.009 A 
ATOM      4  S12 <0> d   1      18.664   0.794  13.663  0.00  0.00    -0.092 SA
ATOM      5  C11 <0> d   1      18.897   0.568  15.392  0.00  0.00     0.015 A 
ATOM      6  C6  <0> d   1      18.921  -0.798  15.689  0.00  0.00    -0.018 A 
ATOM      7  C10 <0> d   1      19.053   1.504  16.418  0.00  0.00     0.019 A 
ATOM      8  C5  <0> d   1      18.743  -1.613  14.499  0.00  0.00     0.029 A 
ATOM      9  C7  <0> d   1      19.105  -1.200  17.030  0.00  0.00     0.013 A 
ATOM     10  C8  <0> d   1      19.255  -0.272  18.014  0.00  0.00     0.001 A 
ATOM     11  C9  <0> d   1      19.231   1.085  17.716  0.00  0.00     0.001 A 
ENDBRANCH   2   3
BRANCH   2  12
ATOM     12  N13 <0> d   1      19.613  -1.396  11.225  0.00  0.00    -0.201 N 
ATOM     13  C15 <0> d   1      19.670  -0.442  10.276  0.00  0.00     0.340 C 
ATOM     14  N16 <0> d   1      20.814  -0.235   9.595  0.00  0.00    -0.350 N 
ATOM     15  O17 <0> d   1      18.688   0.235  10.034  0.00  0.00    -0.245 OA
ATOM     16  H27 <0> d   1      21.574  -0.822   9.735  0.00  0.00     0.160 HD
ATOM     17  H28 <0> d   1      20.878   0.499   8.964  0.00  0.00     0.160 HD
BRANCH  12  18
ATOM     18  O14 <0> d   1      20.728  -2.239  11.450  0.00  0.00    -0.283 OA
ATOM     19  H26 <0> d   1      20.498  -3.111  11.800  0.00  0.00     0.245 HD
ENDBRANCH  12  18
ENDBRANCH   2  12
TORSDOF 3
ENDMDL
MODEL 5
REMARK VINA RESULT:      -6.7      5.318      6.838
REMARK  3 active torsions:
REMARK  status: ('A' for Active; 'I' for Inactive)
REMARK    1  A    between atoms: C2_2  and  C4_3 
REMARK    2  A    between atoms: C2_2  and  N13_12 
REMARK    3  A    between atoms: N13_12  and  O14_13 
REMARK       I    between atoms: N13_12  and  C15_14 
REMARK       I    between atoms: C15_14  and  N16_15 
ROOT
ATOM      1  C1  <0> d   1      18.564  -1.273  15.565  0.00  0.00     0.041 C 
ATOM      2  C2  <0> d   1      18.875   0.155  16.015  0.00  0.00     0.155 C 
ENDROOT
BRANCH   2   3
ATOM      3  C4  <0> d   1      18.619   1.108  14.877  0.00  0.00     0.009 A 
ATOM      4  S12 <0> d   1      18.694   2.854  15.015  0.00  0.00    -0.092 SA
ATOM      5  C11 <0> d   1      18.286   3.073  13.318  0.00  0.00     0.015 A 
ATOM      6  C6  <0> d   1      18.102   1.827  12.713  0.00  0.00    -0.018 A 
ATOM      7  C10 <0> d   1      18.132   4.241  12.564  0.00  0.00     0.019 A 
ATOM      8  C5  <0> d   1      18.305   0.736  13.651  0.00  0.00     0.029 A 
ATOM      9  C7  <0> d   1      17.761   1.779  11.344  0.00  0.00     0.013 A 
ATOM     10  C8  <0> d   1      17.615   2.927  10.628  0.00  0.00     0.001 A 
ATOM     11  C9  <0> d   1      17.799   4.164  11.232  0.00  0.00     0.001 A 
ENDBRANCH   2   3
BRANCH   2  12
ATOM     12  N13 <0> d   1      18.015   0.507  17.149  0.00  0.00    -0.201 N 
ATOM     13  C15 <0> d   1      18.562   0.962  18.293  0.00  0.00     0.340 C 
ATOM     14  N16 <0> d   1      17.770   1.359  19.308  0.00  0.00    -0.350 N 
ATOM     15  O17 <0> d   1      19.771   1.014  18.410  0.00  0.00    -0.245 OA
ATOM     16  H27 <0> d   1      16.808   1.250  19.243  0.00  0.00     0.160 HD
ATOM     17  H28 <0> d   1      18.160   1.755  20.103  0.00  0.00     0.160 HD
BRANCH  12  18
ATOM     18  O14 <0> d   1      16.610   0.369  17.041  0.00  0.00    -0.283 OA
ATOM     19  H26 <0> d   1      16.301   0.186  16.143  0.00  0.00     0.245 HD
ENDBRANCH  12  18
ENDBRANCH   2  12
TORSDOF 3
ENDMDL
MODEL 6
REMARK VINA RESULT:      -6.5      4.229      6.077
REMARK  3 active torsions:
REMARK  status: ('A' for Active; 'I' for Inactive)
REMARK    1  A    between atoms: C2_2  and  C4_3 
REMARK    2  A    between atoms: C2_2  and  N13_12 
REMARK    3  A    between atoms: N13_12  and  O14_13 
REMARK       I    between atoms: N13_12  and  C15_14 
REMARK       I    between atoms: C15_14  and  N16_15 
ROOT
ATOM      1  C1  <0> d   1      18.434  -0.733  14.162  0.00  0.00     0.041 C 
ATOM      2  C2  <0> d   1      18.613  -0.067  12.797  0.00  0.00     0.155 C 
ENDROOT
BRANCH   2   3
ATOM      3  C4  <0> d   1      18.201   1.380  12.884  0.00  0.00     0.009 A 
ATOM      4  S12 <0> d   1      18.160   2.307  14.371  0.00  0.00    -0.092 SA
ATOM      5  C11 <0> d   1      17.606   3.751  13.535  0.00  0.00     0.015 A 
ATOM      6  C6  <0> d   1      17.465   3.480  12.171  0.00  0.00    -0.018 A 
ATOM      7  C10 <0> d   1      17.309   5.027  14.024  0.00  0.00     0.019 A 
ATOM      8  C5  <0> d   1      17.819   2.107  11.853  0.00  0.00     0.029 A 
ATOM      9  C7  <0> d   1      17.022   4.511  11.314  0.00  0.00     0.013 A 
ATOM     10  C8  <0> d   1      16.738   5.746  11.810  0.00  0.00     0.001 A 
ATOM     11  C9  <0> d   1      16.879   6.013  13.166  0.00  0.00     0.001 A 
ENDBRANCH   2   3
BRANCH   2  12
ATOM     12  N13 <0> d   1      20.020  -0.150  12.395  0.00  0.00    -0.201 N 
ATOM     13  C15 <0> d   1      20.350  -0.692  11.206  0.00  0.00     0.340 C 
ATOM     14  N16 <0> d   1      21.636  -0.699  10.801  0.00  0.00    -0.350 N 
ATOM     15  O17 <0> d   1      19.488  -1.175  10.498  0.00  0.00    -0.245 OA
ATOM     16  H27 <0> d   1      22.332  -0.380  11.397  0.00  0.00     0.160 HD
ATOM     17  H28 <0> d   1      21.864  -1.021   9.916  0.00  0.00     0.160 HD
BRANCH  12  18
ATOM     18  O14 <0> d   1      21.032   0.338  13.256  0.00  0.00    -0.283 OA
ATOM     19  H26 <0> d   1      21.454   1.151  12.944  0.00  0.00     0.245 HD
ENDBRANCH  12  18
ENDBRANCH   2  12
TORSDOF 3
ENDMDL
MODEL 7
REMARK VINA RESULT:      -6.2      1.549      2.445
REMARK  3 active torsions:
REMARK  status: ('A' for Active; 'I' for Inactive)
REMARK    1  A    between atoms: C2_2  and  C4_3 
REMARK    2  A    between atoms: C2_2  and  N13_12 
REMARK    3  A    between atoms: N13_12  and  O14_13 
REMARK       I    between atoms: N13_12  and  C15_14 
REMARK       I    between atoms: C15_14  and  N16_15 
ROOT
ATOM      1  C1  <0> d   1      19.459  -0.103  11.904  0.00  0.00     0.041 C 
ATOM      2  C2  <0> d   1      19.388   1.052  10.903  0.00  0.00     0.155 C 
ENDROOT
BRANCH   2   3
ATOM      3  C4  <0> d   1      19.305   0.501   9.503  0.00  0.00     0.009 A 
ATOM      4  S12 <0> d   1      19.268  -1.208   9.116  0.00  0.00    -0.092 SA
ATOM      5  C11 <0> d   1      19.173  -0.884   7.390  0.00  0.00     0.015 A 
ATOM      6  C6  <0> d   1      19.181   0.497   7.169  0.00  0.00    -0.018 A 
ATOM      7  C10 <0> d   1      19.102  -1.760   6.302  0.00  0.00     0.019 A 
ATOM      8  C5  <0> d   1      19.257   1.242   8.414  0.00  0.00     0.029 A 
ATOM      9  C7  <0> d   1      19.117   0.974   5.842  0.00  0.00     0.013 A 
ATOM     10  C8  <0> d   1      19.048   0.104   4.798  0.00  0.00     0.001 A 
ATOM     11  C9  <0> d   1      19.041  -1.267   5.020  0.00  0.00     0.001 A 
ENDBRANCH   2   3
BRANCH   2  12
ATOM     12  N13 <0> d   1      18.199   1.865  11.179  0.00  0.00    -0.201 N 
ATOM     13  C15 <0> d   1      18.328   3.182  11.433  0.00  0.00     0.340 C 
ATOM     14  N16 <0> d   1      17.231   3.945  11.610  0.00  0.00    -0.350 N 
ATOM     15  O17 <0> d   1      19.434   3.682  11.503  0.00  0.00    -0.245 OA
ATOM     16  H27 <0> d   1      16.352   3.533  11.627  0.00  0.00     0.160 HD
ATOM     17  H28 <0> d   1      17.320   4.904  11.719  0.00  0.00     0.160 HD
BRANCH  12  18
ATOM     18  O14 <0> d   1      16.917   1.265  11.179  0.00  0.00    -0.283 OA
ATOM     19  H26 <0> d   1      16.485   1.261  12.044  0.00  0.00     0.245 HD
ENDBRANCH  12  18
ENDBRANCH   2  12
TORSDOF 3
ENDMDL
MODEL 8
REMARK VINA RESULT:      -6.2      2.551      2.981
REMARK  3 active torsions:
REMARK  status: ('A' for Active; 'I' for Inactive)
REMARK    1  A    between atoms: C2_2  and  C4_3 
REMARK    2  A    between atoms: C2_2  and  N13_12 
REMARK    3  A    between atoms: N13_12  and  O14_13 
REMARK       I    between atoms: N13_12  and  C15_14 
REMARK       I    between atoms: C15_14  and  N16_15 
ROOT
ATOM      1  C1  <0> d   1      17.386  -1.079  11.373  0.00  0.00     0.041 C 
ATOM      2  C2  <0> d   1      18.180  -2.135  10.602  0.00  0.00     0.155 C 
ENDROOT
BRANCH   2   3
ATOM      3  C4  <0> d   1      18.432  -1.650   9.198  0.00  0.00     0.009 A 
ATOM      4  S12 <0> d   1      18.685  -2.702   7.820  0.00  0.00    -0.092 SA
ATOM      5  C11 <0> d   1      18.877  -1.336   6.728  0.00  0.00     0.015 A 
ATOM      6  C6  <0> d   1      18.751  -0.141   7.442  0.00  0.00    -0.018 A 
ATOM      7  C10 <0> d   1      19.124  -1.301   5.352  0.00  0.00     0.019 A 
ATOM      8  C5  <0> d   1      18.497  -0.379   8.852  0.00  0.00     0.029 A 
ATOM      9  C7  <0> d   1      18.879   1.082   6.748  0.00  0.00     0.013 A 
ATOM     10  C8  <0> d   1      19.119   1.095   5.409  0.00  0.00     0.001 A 
ATOM     11  C9  <0> d   1      19.243  -0.094   4.702  0.00  0.00     0.001 A 
ENDBRANCH   2   3
BRANCH   2  12
ATOM     12  N13 <0> d   1      19.461  -2.372  11.275  0.00  0.00    -0.201 N 
ATOM     13  C15 <0> d   1      19.978  -3.614  11.321  0.00  0.00     0.340 C 
ATOM     14  N16 <0> d   1      21.192  -3.820  11.870  0.00  0.00    -0.350 N 
ATOM     15  O17 <0> d   1      19.350  -4.552  10.867  0.00  0.00    -0.245 OA
ATOM     16  H27 <0> d   1      21.660  -3.086  12.298  0.00  0.00     0.160 HD
ATOM     17  H28 <0> d   1      21.596  -4.700  11.838  0.00  0.00     0.160 HD
BRANCH  12  18
ATOM     18  O14 <0> d   1      20.153  -1.293  11.876  0.00  0.00    -0.283 OA
ATOM     19  H26 <0> d   1      19.914  -1.139  12.801  0.00  0.00     0.245 HD
ENDBRANCH  12  18
ENDBRANCH   2  12
TORSDOF 3
ENDMDL
MODEL 9
REMARK VINA RESULT:      -6.1      1.614      2.170
REMARK  3 active torsions:
REMARK  status: ('A' for Active; 'I' for Inactive)
REMARK    1  A    between atoms: C2_2  and  C4_3 
REMARK    2  A    between atoms: C2_2  and  N13_12 
REMARK    3  A    between atoms: N13_12  and  O14_13 
REMARK       I    between atoms: N13_12  and  C15_14 
REMARK       I    between atoms: C15_14  and  N16_15 
ROOT
ATOM      1  C1  <0> d   1      16.711   0.088  11.053  0.00  0.00     0.041 C 
ATOM      2  C2  <0> d   1      18.134   0.498  10.674  0.00  0.00     0.155 C 
ENDROOT
BRANCH   2   3
ATOM      3  C4  <0> d   1      18.303   0.407   9.180  0.00  0.00     0.009 A 
ATOM      4  S12 <0> d   1      19.397   1.409   8.246  0.00  0.00    -0.092 SA
ATOM      5  C11 <0> d   1      18.930   0.632   6.739  0.00  0.00     0.015 A 
ATOM      6  C6  <0> d   1      17.964  -0.346   6.993  0.00  0.00    -0.018 A 
ATOM      7  C10 <0> d   1      19.364   0.855   5.428  0.00  0.00     0.019 A 
ATOM      8  C5  <0> d   1      17.642  -0.433   8.407  0.00  0.00     0.029 A 
ATOM      9  C7  <0> d   1      17.446  -1.089   5.909  0.00  0.00     0.013 A 
ATOM     10  C8  <0> d   1      17.883  -0.856   4.642  0.00  0.00     0.001 A 
ATOM     11  C9  <0> d   1      18.843   0.116   4.392  0.00  0.00     0.001 A 
ENDBRANCH   2   3
BRANCH   2  12
ATOM     12  N13 <0> d   1      18.378   1.877  11.109  0.00  0.00    -0.201 N 
ATOM     13  C15 <0> d   1      19.519   2.188  11.754  0.00  0.00     0.340 C 
ATOM     14  N16 <0> d   1      19.778   3.468  12.086  0.00  0.00    -0.350 N 
ATOM     15  O17 <0> d   1      20.315   1.314  12.038  0.00  0.00    -0.245 OA
ATOM     16  H27 <0> d   1      19.112   4.155  11.926  0.00  0.00     0.160 HD
ATOM     17  H28 <0> d   1      20.631   3.703  12.484  0.00  0.00     0.160 HD
BRANCH  12  18
ATOM     18  O14 <0> d   1      17.413   2.881  10.851  0.00  0.00    -0.283 OA
ATOM     19  H26 <0> d   1      17.745   3.616  10.318  0.00  0.00     0.245 HD
ENDBRANCH  12  18
ENDBRANCH   2  12
TORSDOF 3
ENDMDL
