MODEL 1
REMARK VINA RESULT:      -8.8      0.000      0.000
REMARK  1 active torsions:
REMARK  status: ('A' for Active; 'I' for Inactive)
REMARK    1  A    between atoms: C2_2  and  O3_3 
ROOT
ATOM      1  C1  <0> d   1      19.620   1.047  14.453  0.00  0.00     0.046 C 
ATOM      2  C2  <0> d   1      18.343   0.299  14.063  0.00  0.00     0.062 C 
ATOM      3  C4  <0> d   1      18.463  -1.198  14.439  0.00  0.00     0.038 C 
ATOM      4  C5  <0> d   1      18.430  -1.990  13.103  0.00  0.00     0.009 C 
ATOM      5  C6  <0> d   1      18.910  -0.955  12.080  0.00  0.00     0.001 C 
ATOM      6  C8  <0> d   1      18.517  -1.216  10.639  0.00  0.00    -0.005 C 
ATOM      7  C10 <0> d   1      19.150  -2.518  10.143  0.00  0.00     0.006 C 
ATOM      8  C11 <0> d   1      18.786  -2.735   8.673  0.00  0.00     0.006 C 
ATOM      9  C12 <0> d   1      19.312  -1.565   7.839  0.00  0.00     0.005 C 
ATOM     10  C14 <0> d   1      18.941  -1.780   6.367  0.00  0.00     0.116 C 
ATOM     11  C15 <0> d   1      19.302  -0.529   5.598  0.00  0.00     0.259 C 
ATOM     12  O16 <0> d   1      19.942  -0.591   4.574  0.00  0.00    -0.265 OA
ATOM     13  O17 <0> d   1      18.890   0.659   6.086  0.00  0.00    -0.321 OA
ATOM     14  C18 <0> d   1      19.194   0.906   7.488  0.00  0.00     0.188 C 
ATOM     15  C19 <0> d   1      18.678  -0.261   8.335  0.00  0.00    -0.014 C 
ATOM     16  C20 <0> d   1      17.158  -0.361   8.196  0.00  0.00     0.018 C 
ATOM     17  C21 <0> d   1      19.031  -0.032   9.805  0.00  0.00     0.001 C 
ATOM     18  C23 <0> d   1      18.441   1.290  10.284  0.00  0.00     0.007 C 
ATOM     19  C24 <0> d   1      18.700   1.508  11.784  0.00  0.00     0.013 C 
ATOM     20  C25 <0> d   1      18.160   0.322  12.550  0.00  0.00    -0.009 C 
ATOM     21  C26 <0> d   1      16.684   0.111  12.203  0.00  0.00     0.018 C 
ENDROOT
BRANCH   2  22
ATOM     22  O3  <0> d   1      17.211   0.886  14.709  0.00  0.00    -0.389 OA
ATOM     23  H30 <0> d   1      16.399   0.853  14.186  0.00  0.00     0.210 HD
ENDBRANCH   2  22
TORSDOF 1
ENDMDL
MODEL 2
REMARK VINA RESULT:      -8.4      1.962      7.180
REMARK  1 active torsions:
REMARK  status: ('A' for Active; 'I' for Inactive)
REMARK    1  A    between atoms: C2_2  and  O3_3 
ROOT
ATOM      1  C1  <0> d   1      19.634  -0.887   8.690  0.00  0.00     0.046 C 
ATOM      2  C2  <0> d   1      18.327  -0.191   9.077  0.00  0.00     0.062 C 
ATOM      3  C4  <0> d   1      18.380   1.306   8.687  0.00  0.00     0.038 C 
ATOM      4  C5  <0> d   1      18.317   2.109  10.015  0.00  0.00     0.009 C 
ATOM      5  C6  <0> d   1      18.843   1.104  11.046  0.00  0.00     0.001 C 
ATOM      6  C8  <0> d   1      18.442   1.362  12.486  0.00  0.00    -0.005 C 
ATOM      7  C10 <0> d   1      19.019   2.695  12.968  0.00  0.00     0.006 C 
ATOM      8  C11 <0> d   1      18.649   2.909  14.437  0.00  0.00     0.006 C 
ATOM      9  C12 <0> d   1      19.227   1.771  15.281  0.00  0.00     0.005 C 
ATOM     10  C14 <0> d   1      18.850   1.984  16.752  0.00  0.00     0.116 C 
ATOM     11  C15 <0> d   1      19.266   0.756  17.531  0.00  0.00     0.259 C 
ATOM     12  O16 <0> d   1      19.905   0.855  18.553  0.00  0.00    -0.265 OA
ATOM     13  O17 <0> d   1      18.905  -0.453  17.055  0.00  0.00    -0.321 OA
ATOM     14  C18 <0> d   1      19.216  -0.699  15.655  0.00  0.00     0.188 C 
ATOM     15  C19 <0> d   1      18.649   0.437  14.799  0.00  0.00    -0.014 C 
ATOM     16  C20 <0> d   1      17.126   0.472  14.941  0.00  0.00     0.018 C 
ATOM     17  C21 <0> d   1      19.008   0.209  13.330  0.00  0.00     0.001 C 
ATOM     18  C23 <0> d   1      18.475  -1.142  12.865  0.00  0.00     0.007 C 
ATOM     19  C24 <0> d   1      18.740  -1.362  11.366  0.00  0.00     0.013 C 
ATOM     20  C25 <0> d   1      18.148  -0.208  10.590  0.00  0.00    -0.009 C 
ATOM     21  C26 <0> d   1      16.665  -0.058  10.939  0.00  0.00     0.018 C 
ENDROOT
BRANCH   2  22
ATOM     22  O3  <0> d   1      17.220  -0.832   8.439  0.00  0.00    -0.389 OA
ATOM     23  H30 <0> d   1      16.702  -1.399   9.026  0.00  0.00     0.210 HD
ENDBRANCH   2  22
TORSDOF 1
ENDMDL
MODEL 3
REMARK VINA RESULT:      -8.3      1.521      2.062
REMARK  1 active torsions:
REMARK  status: ('A' for Active; 'I' for Inactive)
REMARK    1  A    between atoms: C2_2  and  O3_3 
ROOT
ATOM      1  C1  <0> d   1      20.011   4.134  12.540  0.00  0.00     0.046 C 
ATOM      2  C2  <0> d   1      18.843   3.158  12.694  0.00  0.00     0.062 C 
ATOM      3  C4  <0> d   1      19.236   1.995  13.639  0.00  0.00     0.038 C 
ATOM      4  C5  <0> d   1      19.215   0.703  12.778  0.00  0.00     0.009 C 
ATOM      5  C6  <0> d   1      19.427   1.236  11.356  0.00  0.00     0.001 C 
ATOM      6  C8  <0> d   1      18.956   0.333  10.233  0.00  0.00    -0.005 C 
ATOM      7  C10 <0> d   1      19.745  -0.979  10.238  0.00  0.00     0.006 C 
ATOM      8  C11 <0> d   1      19.292  -1.851   9.066  0.00  0.00     0.006 C 
ATOM      9  C12 <0> d   1      19.546  -1.112   7.751  0.00  0.00     0.005 C 
ATOM     10  C14 <0> d   1      19.086  -1.984   6.577  0.00  0.00     0.116 C 
ATOM     11  C15 <0> d   1      19.169  -1.161   5.311  0.00  0.00     0.259 C 
ATOM     12  O16 <0> d   1      19.718  -1.593   4.324  0.00  0.00    -0.265 OA
ATOM     13  O17 <0> d   1      18.615   0.069   5.314  0.00  0.00    -0.321 OA
ATOM     14  C18 <0> d   1      18.998   0.932   6.421  0.00  0.00     0.188 C 
ATOM     15  C19 <0> d   1      18.755   0.201   7.745  0.00  0.00    -0.014 C 
ATOM     16  C20 <0> d   1      17.265  -0.114   7.890  0.00  0.00     0.018 C 
ATOM     17  C21 <0> d   1      19.195   1.084   8.914  0.00  0.00     0.001 C 
ATOM     18  C23 <0> d   1      18.444   2.410   8.879  0.00  0.00     0.007 C 
ATOM     19  C24 <0> d   1      18.795   3.285  10.094  0.00  0.00     0.013 C 
ATOM     20  C25 <0> d   1      18.525   2.499  11.356  0.00  0.00    -0.009 C 
ATOM     21  C26 <0> d   1      17.078   2.001  11.354  0.00  0.00     0.018 C 
ENDROOT
BRANCH   2  22
ATOM     22  O3  <0> d   1      17.692   3.840  13.197  0.00  0.00    -0.389 OA
ATOM     23  H30 <0> d   1      17.689   3.951  14.157  0.00  0.00     0.210 HD
ENDBRANCH   2  22
TORSDOF 1
ENDMDL
MODEL 4
REMARK VINA RESULT:      -8.3      1.605      6.615
REMARK  1 active torsions:
REMARK  status: ('A' for Active; 'I' for Inactive)
REMARK    1  A    between atoms: C2_2  and  O3_3 
ROOT
ATOM      1  C1  <0> d   1      19.360  -2.377   5.164  0.00  0.00     0.046 C 
ATOM      2  C2  <0> d   1      18.295  -1.288   5.313  0.00  0.00     0.062 C 
ATOM      3  C4  <0> d   1      18.801   0.044   4.705  0.00  0.00     0.038 C 
ATOM      4  C5  <0> d   1      18.911   1.050   5.883  0.00  0.00     0.009 C 
ATOM      5  C6  <0> d   1      19.072   0.134   7.101  0.00  0.00     0.001 C 
ATOM      6  C8  <0> d   1      18.696   0.740   8.440  0.00  0.00    -0.005 C 
ATOM      7  C10 <0> d   1      19.613   1.921   8.765  0.00  0.00     0.006 C 
ATOM      8  C11 <0> d   1      19.252   2.483  10.142  0.00  0.00     0.006 C 
ATOM      9  C12 <0> d   1      19.433   1.394  11.201  0.00  0.00     0.005 C 
ATOM     10  C14 <0> d   1      19.065   1.956  12.579  0.00  0.00     0.116 C 
ATOM     11  C15 <0> d   1      19.068   0.817  13.573  0.00  0.00     0.259 C 
ATOM     12  O16 <0> d   1      19.659   0.909  14.624  0.00  0.00    -0.265 OA
ATOM     13  O17 <0> d   1      18.393  -0.308  13.255  0.00  0.00    -0.321 OA
ATOM     14  C18 <0> d   1      18.685  -0.871  11.946  0.00  0.00     0.188 C 
ATOM     15  C19 <0> d   1      18.515   0.211  10.876  0.00  0.00    -0.014 C 
ATOM     16  C20 <0> d   1      17.063   0.695  10.864  0.00  0.00     0.018 C 
ATOM     17  C21 <0> d   1      18.861  -0.360   9.500  0.00  0.00     0.001 C 
ATOM     18  C23 <0> d   1      17.981  -1.568   9.198  0.00  0.00     0.007 C 
ATOM     19  C24 <0> d   1      18.240  -2.110   7.783  0.00  0.00     0.013 C 
ATOM     20  C25 <0> d   1      18.047  -0.989   6.787  0.00  0.00    -0.009 C 
ATOM     21  C26 <0> d   1      16.658  -0.373   6.965  0.00  0.00     0.018 C 
ENDROOT
BRANCH   2  22
ATOM     22  O3  <0> d   1      17.081  -1.694   4.678  0.00  0.00    -0.389 OA
ATOM     23  H30 <0> d   1      16.306  -1.664   5.254  0.00  0.00     0.210 HD
ENDBRANCH   2  22
TORSDOF 1
ENDMDL
MODEL 5
REMARK VINA RESULT:      -8.1      1.175      6.342
REMARK  1 active torsions:
REMARK  status: ('A' for Active; 'I' for Inactive)
REMARK    1  A    between atoms: C2_2  and  O3_3 
ROOT
ATOM      1  C1  <0> d   1      16.904  -0.096   6.668  0.00  0.00     0.046 C 
ATOM      2  C2  <0> d   1      18.383  -0.131   7.059  0.00  0.00     0.062 C 
ATOM      3  C4  <0> d   1      18.966  -1.547   6.830  0.00  0.00     0.038 C 
ATOM      4  C5  <0> d   1      19.363  -2.090   8.230  0.00  0.00     0.009 C 
ATOM      5  C6  <0> d   1      18.464  -1.287   9.176  0.00  0.00     0.001 C 
ATOM      6  C8  <0> d   1      18.937  -1.185  10.614  0.00  0.00    -0.005 C 
ATOM      7  C10 <0> d   1      18.977  -2.572  11.259  0.00  0.00     0.006 C 
ATOM      8  C11 <0> d   1      19.405  -2.441  12.723  0.00  0.00     0.006 C 
ATOM      9  C12 <0> d   1      18.402  -1.561  13.471  0.00  0.00     0.005 C 
ATOM     10  C14 <0> d   1      18.834  -1.425  14.935  0.00  0.00     0.116 C 
ATOM     11  C15 <0> d   1      17.940  -0.404  15.603  0.00  0.00     0.259 C 
ATOM     12  O16 <0> d   1      17.403  -0.643  16.660  0.00  0.00    -0.265 OA
ATOM     13  O17 <0> d   1      17.757   0.782  14.986  0.00  0.00    -0.321 OA
ATOM     14  C18 <0> d   1      17.369   0.712  13.585  0.00  0.00     0.188 C 
ATOM     15  C19 <0> d   1      18.362  -0.172  12.825  0.00  0.00    -0.014 C 
ATOM     16  C20 <0> d   1      19.758   0.450  12.894  0.00  0.00     0.018 C 
ATOM     17  C21 <0> d   1      17.938  -0.287  11.360  0.00  0.00     0.001 C 
ATOM     18  C23 <0> d   1      17.851   1.100  10.730  0.00  0.00     0.007 C 
ATOM     19  C24 <0> d   1      17.517   1.014   9.232  0.00  0.00     0.013 C 
ATOM     20  C25 <0> d   1      18.540   0.133   8.552  0.00  0.00    -0.009 C 
ATOM     21  C26 <0> d   1      19.948   0.660   8.841  0.00  0.00     0.018 C 
ENDROOT
BRANCH   2  22
ATOM     22  O3  <0> d   1      19.115   0.837   6.305  0.00  0.00    -0.389 OA
ATOM     23  H30 <0> d   1      20.075   0.742   6.369  0.00  0.00     0.210 HD
ENDBRANCH   2  22
TORSDOF 1
ENDMDL
MODEL 6
REMARK VINA RESULT:      -8.0      2.782      5.221
REMARK  1 active torsions:
REMARK  status: ('A' for Active; 'I' for Inactive)
REMARK    1  A    between atoms: C2_2  and  O3_3 
ROOT
ATOM      1  C1  <0> d   1      16.419  -5.748   8.735  0.00  0.00     0.046 C 
ATOM      2  C2  <0> d   1      17.641  -5.595   9.644  0.00  0.00     0.062 C 
ATOM      3  C4  <0> d   1      17.243  -5.829  11.122  0.00  0.00     0.038 C 
ATOM      4  C5  <0> d   1      17.472  -4.481  11.857  0.00  0.00     0.009 C 
ATOM      5  C6  <0> d   1      17.377  -3.453  10.724  0.00  0.00     0.001 C 
ATOM      6  C8  <0> d   1      18.048  -2.117  10.983  0.00  0.00    -0.005 C 
ATOM      7  C10 <0> d   1      17.377  -1.405  12.160  0.00  0.00     0.006 C 
ATOM      8  C11 <0> d   1      18.033  -0.038  12.369  0.00  0.00     0.006 C 
ATOM      9  C12 <0> d   1      17.868   0.806  11.104  0.00  0.00     0.005 C 
ATOM     10  C14 <0> d   1      18.531   2.173  11.313  0.00  0.00     0.116 C 
ATOM     11  C15 <0> d   1      18.522   2.912   9.994  0.00  0.00     0.259 C 
ATOM     12  O16 <0> d   1      18.127   4.053   9.922  0.00  0.00    -0.265 OA
ATOM     13  O17 <0> d   1      18.966   2.263   8.897  0.00  0.00    -0.321 OA
ATOM     14  C18 <0> d   1      18.388   0.948   8.664  0.00  0.00     0.188 C 
ATOM     15  C19 <0> d   1      18.540   0.093   9.926  0.00  0.00    -0.014 C 
ATOM     16  C20 <0> d   1      20.025  -0.097  10.239  0.00  0.00     0.018 C 
ATOM     17  C21 <0> d   1      17.897  -1.277   9.705  0.00  0.00     0.001 C 
ATOM     18  C23 <0> d   1      18.532  -1.965   8.502  0.00  0.00     0.007 C 
ATOM     19  C24 <0> d   1      17.972  -3.384   8.308  0.00  0.00     0.013 C 
ATOM     20  C25 <0> d   1      18.163  -4.164   9.589  0.00  0.00    -0.009 C 
ATOM     21  C26 <0> d   1      19.638  -4.134   9.997  0.00  0.00     0.018 C 
ENDROOT
BRANCH   2  22
ATOM     22  O3  <0> d   1      18.665  -6.512   9.253  0.00  0.00    -0.389 OA
ATOM     23  H30 <0> d   1      19.240  -6.183   8.549  0.00  0.00     0.210 HD
ENDBRANCH   2  22
TORSDOF 1
ENDMDL
MODEL 7
REMARK VINA RESULT:      -8.0      1.490      3.084
REMARK  1 active torsions:
REMARK  status: ('A' for Active; 'I' for Inactive)
REMARK    1  A    between atoms: C2_2  and  O3_3 
ROOT
ATOM      1  C1  <0> d   1      17.002   0.240  15.572  0.00  0.00     0.046 C 
ATOM      2  C2  <0> d   1      18.407   0.701  15.179  0.00  0.00     0.062 C 
ATOM      3  C4  <0> d   1      18.494   2.247  15.216  0.00  0.00     0.038 C 
ATOM      4  C5  <0> d   1      18.757   2.707  13.755  0.00  0.00     0.009 C 
ATOM      5  C6  <0> d   1      18.204   1.542  12.926  0.00  0.00     0.001 C 
ATOM      6  C8  <0> d   1      18.746   1.417  11.515  0.00  0.00    -0.005 C 
ATOM      7  C10 <0> d   1      18.368   2.648  10.689  0.00  0.00     0.006 C 
ATOM      8  C11 <0> d   1      18.877   2.478   9.256  0.00  0.00     0.006 C 
ATOM      9  C12 <0> d   1      18.243   1.233   8.633  0.00  0.00     0.005 C 
ATOM     10  C14 <0> d   1      18.759   1.059   7.200  0.00  0.00     0.116 C 
ATOM     11  C15 <0> d   1      18.269  -0.272   6.676  0.00  0.00     0.259 C 
ATOM     12  O16 <0> d   1      17.730  -0.356   5.597  0.00  0.00    -0.265 OA
ATOM     13  O17 <0> d   1      18.449  -1.365   7.447  0.00  0.00    -0.321 OA
ATOM     14  C18 <0> d   1      18.000  -1.247   8.826  0.00  0.00     0.188 C 
ATOM     15  C19 <0> d   1      18.623   0.000   9.460  0.00  0.00    -0.014 C 
ATOM     16  C20 <0> d   1      20.146  -0.140   9.475  0.00  0.00     0.018 C 
ATOM     17  C21 <0> d   1      18.122   0.157  10.897  0.00  0.00     0.001 C 
ATOM     18  C23 <0> d   1      18.457  -1.091  11.706  0.00  0.00     0.007 C 
ATOM     19  C24 <0> d   1      18.049  -0.929  13.180  0.00  0.00     0.013 C 
ATOM     20  C25 <0> d   1      18.705   0.315  13.735  0.00  0.00    -0.009 C 
ATOM     21  C26 <0> d   1      20.218   0.240  13.519  0.00  0.00     0.018 C 
ENDROOT
BRANCH   2  22
ATOM     22  O3  <0> d   1      19.378   0.127  16.056  0.00  0.00    -0.389 OA
ATOM     23  H30 <0> d   1      19.059  -0.641  16.548  0.00  0.00     0.210 HD
ENDBRANCH   2  22
TORSDOF 1
ENDMDL
MODEL 8
REMARK VINA RESULT:      -7.9      2.966      4.589
REMARK  1 active torsions:
REMARK  status: ('A' for Active; 'I' for Inactive)
REMARK    1  A    between atoms: C2_2  and  O3_3 
ROOT
ATOM      1  C1  <0> d   1      17.336   4.446  13.839  0.00  0.00     0.046 C 
ATOM      2  C2  <0> d   1      18.318   4.491  12.667  0.00  0.00     0.062 C 
ATOM      3  C4  <0> d   1      17.589   4.931  11.373  0.00  0.00     0.038 C 
ATOM      4  C5  <0> d   1      17.657   3.724  10.398  0.00  0.00     0.009 C 
ATOM      5  C6  <0> d   1      17.835   2.531  11.344  0.00  0.00     0.001 C 
ATOM      6  C8  <0> d   1      18.442   1.284  10.731  0.00  0.00    -0.005 C 
ATOM      7  C10 <0> d   1      17.527   0.730   9.636  0.00  0.00     0.006 C 
ATOM      8  C11 <0> d   1      18.130  -0.556   9.068  0.00  0.00     0.006 C 
ATOM      9  C12 <0> d   1      18.269  -1.592  10.185  0.00  0.00     0.005 C 
ATOM     10  C14 <0> d   1      18.880  -2.878   9.617  0.00  0.00     0.116 C 
ATOM     11  C15 <0> d   1      19.182  -3.810  10.768  0.00  0.00     0.259 C 
ATOM     12  O16 <0> d   1      18.826  -4.966  10.743  0.00  0.00    -0.265 OA
ATOM     13  O17 <0> d   1      19.859  -3.318  11.826  0.00  0.00    -0.321 OA
ATOM     14  C18 <0> d   1      19.336  -2.083  12.391  0.00  0.00     0.188 C 
ATOM     15  C19 <0> d   1      19.186  -1.038  11.281  0.00  0.00    -0.014 C 
ATOM     16  C20 <0> d   1      20.558  -0.733  10.676  0.00  0.00     0.018 C 
ATOM     17  C21 <0> d   1      18.597   0.251  11.858  0.00  0.00     0.001 C 
ATOM     18  C23 <0> d   1      19.485   0.774  12.981  0.00  0.00     0.007 C 
ATOM     19  C24 <0> d   1      18.969   2.119  13.521  0.00  0.00     0.013 C 
ATOM     20  C25 <0> d   1      18.854   3.094  12.372  0.00  0.00    -0.009 C 
ATOM     21  C26 <0> d   1      20.196   3.196  11.644  0.00  0.00     0.018 C 
ENDROOT
BRANCH   2  22
ATOM     22  O3  <0> d   1      19.395   5.384  12.959  0.00  0.00    -0.389 OA
ATOM     23  H30 <0> d   1      19.494   6.104  12.322  0.00  0.00     0.210 HD
ENDBRANCH   2  22
TORSDOF 1
ENDMDL
MODEL 9
REMARK VINA RESULT:      -7.9      2.194      3.705
REMARK  1 active torsions:
REMARK  status: ('A' for Active; 'I' for Inactive)
REMARK    1  A    between atoms: C2_2  and  O3_3 
ROOT
ATOM      1  C1  <0> d   1      19.413   2.177  17.825  0.00  0.00     0.046 C 
ATOM      2  C2  <0> d   1      18.412   1.034  17.640  0.00  0.00     0.062 C 
ATOM      3  C4  <0> d   1      19.027  -0.301  18.128  0.00  0.00     0.038 C 
ATOM      4  C5  <0> d   1      19.145  -1.213  16.877  0.00  0.00     0.009 C 
ATOM      5  C6  <0> d   1      19.194  -0.205  15.723  0.00  0.00     0.001 C 
ATOM      6  C8  <0> d   1      18.797  -0.738  14.360  0.00  0.00    -0.005 C 
ATOM      7  C10 <0> d   1      19.769  -1.832  13.913  0.00  0.00     0.006 C 
ATOM      8  C11 <0> d   1      19.382  -2.318  12.514  0.00  0.00     0.006 C 
ATOM      9  C12 <0> d   1      19.447  -1.148  11.531  0.00  0.00     0.005 C 
ATOM     10  C14 <0> d   1      19.052  -1.634  10.131  0.00  0.00     0.116 C 
ATOM     11  C15 <0> d   1      18.940  -0.430   9.224  0.00  0.00     0.259 C 
ATOM     12  O16 <0> d   1      19.488  -0.410   8.146  0.00  0.00    -0.265 OA
ATOM     13  O17 <0> d   1      18.212   0.623   9.650  0.00  0.00    -0.321 OA
ATOM     14  C18 <0> d   1      18.528   1.111  10.984  0.00  0.00     0.188 C 
ATOM     15  C19 <0> d   1      18.473  -0.053  11.978  0.00  0.00    -0.014 C 
ATOM     16  C20 <0> d   1      17.056  -0.629  12.013  0.00  0.00     0.018 C 
ATOM     17  C21 <0> d   1      18.845   0.442  13.377  0.00  0.00     0.001 C 
ATOM     18  C23 <0> d   1      17.906   1.565  13.802  0.00  0.00     0.007 C 
ATOM     19  C24 <0> d   1      18.195   2.023  15.241  0.00  0.00     0.013 C 
ATOM     20  C25 <0> d   1      18.117   0.825  16.159  0.00  0.00    -0.009 C 
ATOM     21  C26 <0> d   1      16.762   0.134  15.993  0.00  0.00     0.018 C 
ENDROOT
BRANCH   2  22
ATOM     22  O3  <0> d   1      17.205   1.315  18.352  0.00  0.00    -0.389 OA
ATOM     23  H30 <0> d   1      16.543   1.789  17.831  0.00  0.00     0.210 HD
ENDBRANCH   2  22
TORSDOF 1
ENDMDL
