MODEL 1
REMARK VINA RESULT:      -8.0      0.000      0.000
REMARK  1 active torsions:
REMARK  status: ('A' for Active; 'I' for Inactive)
REMARK    1  A    between atoms: C14_14  and  N15_15 
ROOT
ATOM      1 Cl1  ZIN A   1      19.338   0.272  15.898  0.00  0.00    -0.084 Cl
ATOM      2  C2  ZIN A   1      18.540   0.427  14.365  0.00  0.00     0.035 A 
ATOM      3  C3  ZIN A   1      17.747  -0.605  13.891  0.00  0.00     0.026 A 
ATOM      4  C4  ZIN A   1      17.117  -0.494  12.665  0.00  0.00     0.040 A 
ATOM      5  C5  ZIN A   1      17.277   0.651  11.903  0.00  0.00     0.090 A 
ATOM      6  O6  ZIN A   1      16.707   0.729  10.675  0.00  0.00    -0.307 OA
ATOM      7  C7  ZIN A   1      17.528   0.853   9.601  0.00  0.00     0.104 A 
ATOM      8  C8  ZIN A   1      17.536  -0.148   8.644  0.00  0.00     0.040 A 
ATOM      9  C9  ZIN A   1      18.386  -0.066   7.555  0.00  0.00     0.003 A 
ATOM     10  C10 ZIN A   1      19.235   1.016   7.417  0.00  0.00     0.002 A 
ATOM     11  C11 ZIN A   1      19.228   2.027   8.356  0.00  0.00     0.034 A 
ATOM     12  C12 ZIN A   1      18.363   1.962   9.453  0.00  0.00     0.093 A 
ATOM     13  N13 ZIN A   1      18.326   3.009  10.325  0.00  0.00    -0.228 NA
ATOM     14  C14 ZIN A   1      18.206   2.946  11.605  0.00  0.00     0.139 C 
ATOM     15  C21 ZIN A   1      18.058   1.705  12.386  0.00  0.00     0.045 A 
ATOM     16  C22 ZIN A   1      18.693   1.582  13.623  0.00  0.00     0.042 A 
ENDROOT
BRANCH  14  17
ATOM     17  N15 ZIN A   1      18.216   4.133  12.300  0.00  0.00    -0.362 N 
ATOM     18  C20 ZIN A   1      16.964   4.739  12.778  0.00  0.00     0.154 C 
ATOM     19  C19 ZIN A   1      17.124   5.058  14.273  0.00  0.00     0.289 C 
ATOM     20  N18 ZIN A   1      18.326   5.881  14.468  0.00  0.00     0.086 N 
ATOM     21  C17 ZIN A   1      19.540   5.152  14.077  0.00  0.00     0.289 C 
ATOM     22  H33 ZIN A   1      18.391   6.207  15.420  0.00  0.00     0.316 HD
ATOM     23  C16 ZIN A   1      19.480   4.835  12.579  0.00  0.00     0.154 C 
ENDBRANCH  14  17
TORSDOF 1
ENDMDL
MODEL 2
REMARK VINA RESULT:      -7.8      4.011      6.231
REMARK  1 active torsions:
REMARK  status: ('A' for Active; 'I' for Inactive)
REMARK    1  A    between atoms: C14_14  and  N15_15 
ROOT
ATOM      1 Cl1  ZIN A   1      18.154  -1.052  15.168  0.00  0.00    -0.084 Cl
ATOM      2  C2  ZIN A   1      18.846  -0.887  13.585  0.00  0.00     0.035 A 
ATOM      3  C3  ZIN A   1      19.833   0.057  13.357  0.00  0.00     0.026 A 
ATOM      4  C4  ZIN A   1      20.381   0.202  12.096  0.00  0.00     0.040 A 
ATOM      5  C5  ZIN A   1      19.943  -0.596  11.052  0.00  0.00     0.090 A 
ATOM      6  O6  ZIN A   1      20.440  -0.408   9.804  0.00  0.00    -0.307 OA
ATOM      7  C7  ZIN A   1      19.576  -0.024   8.828  0.00  0.00     0.104 A 
ATOM      8  C8  ZIN A   1      19.761   1.201   8.212  0.00  0.00     0.040 A 
ATOM      9  C9  ZIN A   1      18.878   1.633   7.237  0.00  0.00     0.003 A 
ATOM     10  C10 ZIN A   1      17.804   0.842   6.874  0.00  0.00     0.002 A 
ATOM     11  C11 ZIN A   1      17.616  -0.388   7.471  0.00  0.00     0.034 A 
ATOM     12  C12 ZIN A   1      18.509  -0.840   8.447  0.00  0.00     0.093 A 
ATOM     13  N13 ZIN A   1      18.339  -2.089   8.966  0.00  0.00    -0.228 NA
ATOM     14  C14 ZIN A   1      18.513  -2.448  10.190  0.00  0.00     0.139 C 
ATOM     15  C21 ZIN A   1      18.962  -1.566  11.281  0.00  0.00     0.045 A 
ATOM     16  C22 ZIN A   1      18.412  -1.702  12.557  0.00  0.00     0.042 A 
ENDROOT
BRANCH  14  17
ATOM     17  N15 ZIN A   1      18.260  -3.764  10.505  0.00  0.00    -0.362 N 
ATOM     18  C20 ZIN A   1      16.958  -4.171  11.056  0.00  0.00     0.154 C 
ATOM     19  C19 ZIN A   1      16.429  -5.348  10.221  0.00  0.00     0.289 C 
ATOM     20  N18 ZIN A   1      17.446  -6.409  10.179  0.00  0.00     0.086 N 
ATOM     21  C17 ZIN A   1      18.667  -5.950   9.505  0.00  0.00     0.289 C 
ATOM     22  H33 ZIN A   1      17.081  -7.241   9.742  0.00  0.00     0.316 HD
ATOM     23  C16 ZIN A   1      19.286  -4.799  10.305  0.00  0.00     0.154 C 
ENDBRANCH  14  17
TORSDOF 1
ENDMDL
MODEL 3
REMARK VINA RESULT:      -7.8      4.380      7.553
REMARK  1 active torsions:
REMARK  status: ('A' for Active; 'I' for Inactive)
REMARK    1  A    between atoms: C14_14  and  N15_15 
ROOT
ATOM      1 Cl1  ZIN A   1      19.302  -0.906   6.400  0.00  0.00    -0.084 Cl
ATOM      2  C2  ZIN A   1      18.526  -0.846   7.951  0.00  0.00     0.035 A 
ATOM      3  C3  ZIN A   1      17.706   0.223   8.272  0.00  0.00     0.026 A 
ATOM      4  C4  ZIN A   1      17.093   0.284   9.511  0.00  0.00     0.040 A 
ATOM      5  C5  ZIN A   1      17.298  -0.725  10.438  0.00  0.00     0.090 A 
ATOM      6  O6  ZIN A   1      16.744  -0.629  11.672  0.00  0.00    -0.307 OA
ATOM      7  C7  ZIN A   1      17.581  -0.560  12.740  0.00  0.00     0.104 A 
ATOM      8  C8  ZIN A   1      17.567   0.576  13.530  0.00  0.00     0.040 A 
ATOM      9  C9  ZIN A   1      18.431   0.689  14.605  0.00  0.00     0.003 A 
ATOM     10  C10 ZIN A   1      19.316  -0.333  14.896  0.00  0.00     0.002 A 
ATOM     11  C11 ZIN A   1      19.331  -1.476  14.123  0.00  0.00     0.034 A 
ATOM     12  C12 ZIN A   1      18.453  -1.608  13.043  0.00  0.00     0.093 A 
ATOM     13  N13 ZIN A   1      18.440  -2.777  12.344  0.00  0.00    -0.228 NA
ATOM     14  C14 ZIN A   1      18.304  -2.916  11.071  0.00  0.00     0.139 C 
ATOM     15  C21 ZIN A   1      18.107  -1.817  10.111  0.00  0.00     0.045 A 
ATOM     16  C22 ZIN A   1      18.725  -1.867   8.860  0.00  0.00     0.042 A 
ENDROOT
BRANCH  14  17
ATOM     17  N15 ZIN A   1      18.345  -4.196  10.567  0.00  0.00    -0.362 N 
ATOM     18  C20 ZIN A   1      17.118  -4.868  10.111  0.00  0.00     0.154 C 
ATOM     19  C19 ZIN A   1      17.366  -5.411   8.695  0.00  0.00     0.289 C 
ATOM     20  N18 ZIN A   1      18.569  -6.255   8.703  0.00  0.00     0.086 N 
ATOM     21  C17 ZIN A   1      19.764  -5.475   9.052  0.00  0.00     0.289 C 
ATOM     22  H33 ZIN A   1      18.688  -6.723   7.817  0.00  0.00     0.316 HD
ATOM     23  C16 ZIN A   1      19.616  -4.933  10.477  0.00  0.00     0.154 C 
ENDBRANCH  14  17
TORSDOF 1
ENDMDL
MODEL 4
REMARK VINA RESULT:      -7.8      3.243      5.603
REMARK  1 active torsions:
REMARK  status: ('A' for Active; 'I' for Inactive)
REMARK    1  A    between atoms: C14_14  and  N15_15 
ROOT
ATOM      1 Cl1  ZIN A   1      17.075  -1.611  16.857  0.00  0.00    -0.084 Cl
ATOM      2  C2  ZIN A   1      18.026  -0.842  15.626  0.00  0.00     0.035 A 
ATOM      3  C3  ZIN A   1      18.841   0.228  15.951  0.00  0.00     0.026 A 
ATOM      4  C4  ZIN A   1      19.594   0.854  14.973  0.00  0.00     0.040 A 
ATOM      5  C5  ZIN A   1      19.534   0.412  13.662  0.00  0.00     0.090 A 
ATOM      6  O6  ZIN A   1      20.226   1.067  12.697  0.00  0.00    -0.307 OA
ATOM      7  C7  ZIN A   1      19.519   1.657  11.698  0.00  0.00     0.104 A 
ATOM      8  C8  ZIN A   1      19.588   3.032  11.549  0.00  0.00     0.040 A 
ATOM      9  C9  ZIN A   1      18.853   3.664  10.562  0.00  0.00     0.003 A 
ATOM     10  C10 ZIN A   1      18.044   2.926   9.718  0.00  0.00     0.002 A 
ATOM     11  C11 ZIN A   1      17.976   1.554   9.847  0.00  0.00     0.034 A 
ATOM     12  C12 ZIN A   1      18.725   0.903  10.832  0.00  0.00     0.093 A 
ATOM     13  N13 ZIN A   1      18.696  -0.458  10.889  0.00  0.00    -0.228 NA
ATOM     14  C14 ZIN A   1      18.685  -1.189  11.949  0.00  0.00     0.139 C 
ATOM     15  C21 ZIN A   1      18.729  -0.683  13.332  0.00  0.00     0.045 A 
ATOM     16  C22 ZIN A   1      17.971  -1.305  14.325  0.00  0.00     0.042 A 
ENDROOT
BRANCH  14  17
ATOM     17  N15 ZIN A   1      18.629  -2.553  11.777  0.00  0.00    -0.362 N 
ATOM     18  C20 ZIN A   1      17.356  -3.223  11.470  0.00  0.00     0.154 C 
ATOM     19  C19 ZIN A   1      17.567  -4.116  10.238  0.00  0.00     0.289 C 
ATOM     20  N18 ZIN A   1      18.701  -5.019  10.481  0.00  0.00     0.086 N 
ATOM     21  C17 ZIN A   1      19.951  -4.268  10.656  0.00  0.00     0.289 C 
ATOM     22  H33 ZIN A   1      18.788  -5.698   9.740  0.00  0.00     0.316 HD
ATOM     23  C16 ZIN A   1      19.839  -3.381  11.900  0.00  0.00     0.154 C 
ENDBRANCH  14  17
TORSDOF 1
ENDMDL
MODEL 5
REMARK VINA RESULT:      -7.7      3.189      5.345
REMARK  1 active torsions:
REMARK  status: ('A' for Active; 'I' for Inactive)
REMARK    1  A    between atoms: C14_14  and  N15_15 
ROOT
ATOM      1 Cl1  ZIN A   1      16.710   4.744  10.747  0.00  0.00    -0.084 Cl
ATOM      2  C2  ZIN A   1      17.627   3.667  11.753  0.00  0.00     0.035 A 
ATOM      3  C3  ZIN A   1      18.296   2.595  11.187  0.00  0.00     0.026 A 
ATOM      4  C4  ZIN A   1      19.020   1.726  11.984  0.00  0.00     0.040 A 
ATOM      5  C5  ZIN A   1      19.078   1.923  13.353  0.00  0.00     0.090 A 
ATOM      6  O6  ZIN A   1      19.737   1.034  14.136  0.00  0.00    -0.307 OA
ATOM      7  C7  ZIN A   1      19.018   0.348  15.062  0.00  0.00     0.104 A 
ATOM      8  C8  ZIN A   1      18.936  -1.031  14.960  0.00  0.00     0.040 A 
ATOM      9  C9  ZIN A   1      18.184  -1.753  15.870  0.00  0.00     0.003 A 
ATOM     10  C10 ZIN A   1      17.509  -1.103  16.886  0.00  0.00     0.002 A 
ATOM     11  C11 ZIN A   1      17.593   0.270  17.006  0.00  0.00     0.034 A 
ATOM     12  C12 ZIN A   1      18.361   1.009  16.101  0.00  0.00     0.093 A 
ATOM     13  N13 ZIN A   1      18.485   2.353  16.289  0.00  0.00    -0.228 NA
ATOM     14  C14 ZIN A   1      18.506   3.263  15.377  0.00  0.00     0.139 C 
ATOM     15  C21 ZIN A   1      18.422   3.017  13.927  0.00  0.00     0.045 A 
ATOM     16  C22 ZIN A   1      17.691   3.886  13.115  0.00  0.00     0.042 A 
ENDROOT
BRANCH  14  17
ATOM     17  N15 ZIN A   1      18.616   4.570  15.792  0.00  0.00    -0.362 N 
ATOM     18  C20 ZIN A   1      19.838   5.346  15.530  0.00  0.00     0.154 C 
ATOM     19  C19 ZIN A   1      19.433   6.674  14.871  0.00  0.00     0.289 C 
ATOM     20  N18 ZIN A   1      18.438   7.351  15.714  0.00  0.00     0.086 N 
ATOM     21  C17 ZIN A   1      17.205   6.559  15.822  0.00  0.00     0.289 C 
ATOM     22  H33 ZIN A   1      18.244   8.278  15.370  0.00  0.00     0.316 HD
ATOM     23  C16 ZIN A   1      17.516   5.228  16.515  0.00  0.00     0.154 C 
ENDBRANCH  14  17
TORSDOF 1
ENDMDL
MODEL 6
REMARK VINA RESULT:      -7.7      2.664      4.906
REMARK  1 active torsions:
REMARK  status: ('A' for Active; 'I' for Inactive)
REMARK    1  A    between atoms: C14_14  and  N15_15 
ROOT
ATOM      1 Cl1  ZIN A   1      18.410   2.140   8.716  0.00  0.00    -0.084 Cl
ATOM      2  C2  ZIN A   1      18.969   1.677  10.293  0.00  0.00     0.035 A 
ATOM      3  C3  ZIN A   1      19.842   0.611  10.430  0.00  0.00     0.026 A 
ATOM      4  C4  ZIN A   1      20.283   0.228  11.684  0.00  0.00     0.040 A 
ATOM      5  C5  ZIN A   1      19.853   0.910  12.810  0.00  0.00     0.090 A 
ATOM      6  O6  ZIN A   1      20.240   0.492  14.040  0.00  0.00    -0.307 OA
ATOM      7  C7  ZIN A   1      19.277   0.067  14.899  0.00  0.00     0.104 A 
ATOM      8  C8  ZIN A   1      19.299  -1.247  15.333  0.00  0.00     0.040 A 
ATOM      9  C9  ZIN A   1      18.312  -1.718  16.182  0.00  0.00     0.003 A 
ATOM     10  C10 ZIN A   1      17.297  -0.878  16.600  0.00  0.00     0.002 A 
ATOM     11  C11 ZIN A   1      17.271   0.438  16.185  0.00  0.00     0.034 A 
ATOM     12  C12 ZIN A   1      18.270   0.929  15.339  0.00  0.00     0.093 A 
ATOM     13  N13 ZIN A   1      18.260   2.250  15.005  0.00  0.00    -0.228 NA
ATOM     14  C14 ZIN A   1      18.553   2.761  13.860  0.00  0.00     0.139 C 
ATOM     15  C21 ZIN A   1      18.989   2.001  12.675  0.00  0.00     0.045 A 
ATOM     16  C22 ZIN A   1      18.546   2.377  11.406  0.00  0.00     0.042 A 
ENDROOT
BRANCH  14  17
ATOM     17  N15 ZIN A   1      18.451   4.127  13.733  0.00  0.00    -0.362 N 
ATOM     18  C20 ZIN A   1      17.137   4.781  13.640  0.00  0.00     0.154 C 
ATOM     19  C19 ZIN A   1      17.089   5.912  14.679  0.00  0.00     0.289 C 
ATOM     20  N18 ZIN A   1      18.241   6.804  14.480  0.00  0.00     0.086 N 
ATOM     21  C17 ZIN A   1      19.507   6.095  14.711  0.00  0.00     0.289 C 
ATOM     22  H33 ZIN A   1      18.171   7.621  15.067  0.00  0.00     0.316 HD
ATOM     23  C16 ZIN A   1      19.655   4.972  13.679  0.00  0.00     0.154 C 
ENDBRANCH  14  17
TORSDOF 1
ENDMDL
MODEL 7
REMARK VINA RESULT:      -7.7      4.480      7.532
REMARK  1 active torsions:
REMARK  status: ('A' for Active; 'I' for Inactive)
REMARK    1  A    between atoms: C14_14  and  N15_15 
ROOT
ATOM      1 Cl1  ZIN A   1      19.111  -2.697   4.476  0.00  0.00    -0.084 Cl
ATOM      2  C2  ZIN A   1      18.473  -1.865   5.859  0.00  0.00     0.035 A 
ATOM      3  C3  ZIN A   1      17.718  -0.717   5.686  0.00  0.00     0.026 A 
ATOM      4  C4  ZIN A   1      17.215  -0.042   6.784  0.00  0.00     0.040 A 
ATOM      5  C5  ZIN A   1      17.467  -0.510   8.062  0.00  0.00     0.090 A 
ATOM      6  O6  ZIN A   1      17.024   0.190   9.136  0.00  0.00    -0.307 OA
ATOM      7  C7  ZIN A   1      17.951   0.694   9.992  0.00  0.00     0.104 A 
ATOM      8  C8  ZIN A   1      18.040   2.066  10.151  0.00  0.00     0.040 A 
ATOM      9  C9  ZIN A   1      18.996   2.610  10.991  0.00  0.00     0.003 A 
ATOM     10  C10 ZIN A   1      19.870   1.785  11.675  0.00  0.00     0.002 A 
ATOM     11  C11 ZIN A   1      19.783   0.415  11.535  0.00  0.00     0.034 A 
ATOM     12  C12 ZIN A   1      18.812  -0.146  10.701  0.00  0.00     0.093 A 
ATOM     13  N13 ZIN A   1      18.702  -1.503  10.639  0.00  0.00    -0.228 NA
ATOM     14  C14 ZIN A   1      18.453  -2.213   9.593  0.00  0.00     0.139 C 
ATOM     15  C21 ZIN A   1      18.210  -1.681   8.242  0.00  0.00     0.045 A 
ATOM     16  C22 ZIN A   1      18.717  -2.353   7.128  0.00  0.00     0.042 A 
ENDROOT
BRANCH  14  17
ATOM     17  N15 ZIN A   1      18.411  -3.579   9.752  0.00  0.00    -0.362 N 
ATOM     18  C20 ZIN A   1      17.153  -4.321   9.572  0.00  0.00     0.154 C 
ATOM     19  C19 ZIN A   1      17.415  -5.481   8.598  0.00  0.00     0.289 C 
ATOM     20  N18 ZIN A   1      18.544  -6.283   9.092  0.00  0.00     0.086 N 
ATOM     21  C17 ZIN A   1      19.783  -5.494   9.125  0.00  0.00     0.289 C 
ATOM     22  H33 ZIN A   1      18.662  -7.119   8.540  0.00  0.00     0.316 HD
ATOM     23  C16 ZIN A   1      19.620  -4.336  10.115  0.00  0.00     0.154 C 
ENDBRANCH  14  17
TORSDOF 1
ENDMDL
MODEL 8
REMARK VINA RESULT:      -7.5      2.435      5.252
REMARK  1 active torsions:
REMARK  status: ('A' for Active; 'I' for Inactive)
REMARK    1  A    between atoms: C14_14  and  N15_15 
ROOT
ATOM      1 Cl1  ZIN A   1      17.013  -1.611  16.733  0.00  0.00    -0.084 Cl
ATOM      2  C2  ZIN A   1      17.697  -0.161  16.069  0.00  0.00     0.035 A 
ATOM      3  C3  ZIN A   1      18.132   0.846  16.913  0.00  0.00     0.026 A 
ATOM      4  C4  ZIN A   1      18.669   2.010  16.392  0.00  0.00     0.040 A 
ATOM      5  C5  ZIN A   1      18.771   2.174  15.020  0.00  0.00     0.090 A 
ATOM      6  O6  ZIN A   1      19.239   3.341  14.514  0.00  0.00    -0.307 OA
ATOM      7  C7  ZIN A   1      18.401   4.082  13.744  0.00  0.00     0.104 A 
ATOM      8  C8  ZIN A   1      18.040   5.348  14.172  0.00  0.00     0.040 A 
ATOM      9  C9  ZIN A   1      17.161   6.113  13.425  0.00  0.00     0.003 A 
ATOM     10  C10 ZIN A   1      16.636   5.616  12.247  0.00  0.00     0.002 A 
ATOM     11  C11 ZIN A   1      16.997   4.360  11.802  0.00  0.00     0.034 A 
ATOM     12  C12 ZIN A   1      17.895   3.584  12.541  0.00  0.00     0.093 A 
ATOM     13  N13 ZIN A   1      18.290   2.380  12.041  0.00  0.00    -0.228 NA
ATOM     14  C14 ZIN A   1      18.490   1.294  12.704  0.00  0.00     0.139 C 
ATOM     15  C21 ZIN A   1      18.352   1.151  14.164  0.00  0.00     0.045 A 
ATOM     16  C22 ZIN A   1      17.809  -0.018  14.700  0.00  0.00     0.042 A 
ENDROOT
BRANCH  14  17
ATOM     17  N15 ZIN A   1      18.864   0.178  11.992  0.00  0.00    -0.362 N 
ATOM     18  C20 ZIN A   1      17.891  -0.549  11.162  0.00  0.00     0.154 C 
ATOM     19  C19 ZIN A   1      18.491  -0.723   9.758  0.00  0.00     0.289 C 
ATOM     20  N18 ZIN A   1      19.811  -1.361   9.869  0.00  0.00     0.086 N 
ATOM     21  C17 ZIN A   1      20.752  -0.510  10.610  0.00  0.00     0.289 C 
ATOM     22  H33 ZIN A   1      20.176  -1.598   8.960  0.00  0.00     0.316 HD
ATOM     23  C16 ZIN A   1      20.247  -0.324  12.045  0.00  0.00     0.154 C 
ENDBRANCH  14  17
TORSDOF 1
ENDMDL
MODEL 9
REMARK VINA RESULT:      -7.4      2.897      6.253
REMARK  1 active torsions:
REMARK  status: ('A' for Active; 'I' for Inactive)
REMARK    1  A    between atoms: C14_14  and  N15_15 
ROOT
ATOM      1 Cl1  ZIN A   1      19.185   2.413   8.514  0.00  0.00    -0.084 Cl
ATOM      2  C2  ZIN A   1      18.506   3.019   9.992  0.00  0.00     0.035 A 
ATOM      3  C3  ZIN A   1      17.759   4.184   9.982  0.00  0.00     0.026 A 
ATOM      4  C4  ZIN A   1      17.224   4.680  11.158  0.00  0.00     0.040 A 
ATOM      5  C5  ZIN A   1      17.435   4.012  12.353  0.00  0.00     0.090 A 
ATOM      6  O6  ZIN A   1      16.961   4.535  13.510  0.00  0.00    -0.307 OA
ATOM      7  C7  ZIN A   1      17.861   4.890  14.463  0.00  0.00     0.104 A 
ATOM      8  C8  ZIN A   1      17.949   6.218  14.842  0.00  0.00     0.040 A 
ATOM      9  C9  ZIN A   1      18.879   6.615  15.786  0.00  0.00     0.003 A 
ATOM     10  C10 ZIN A   1      19.729   5.686  16.356  0.00  0.00     0.002 A 
ATOM     11  C11 ZIN A   1      19.644   4.356  15.997  0.00  0.00     0.034 A 
ATOM     12  C12 ZIN A   1      18.698   3.941  15.055  0.00  0.00     0.093 A 
ATOM     13  N13 ZIN A   1      18.587   2.612  14.774  0.00  0.00    -0.228 NA
ATOM     14  C14 ZIN A   1      18.370   2.080  13.622  0.00  0.00     0.139 C 
ATOM     15  C21 ZIN A   1      18.170   2.823  12.365  0.00  0.00     0.045 A 
ATOM     16  C22 ZIN A   1      18.709   2.333  11.174  0.00  0.00     0.042 A 
ENDROOT
BRANCH  14  17
ATOM     17  N15 ZIN A   1      18.319   0.707  13.559  0.00  0.00    -0.362 N 
ATOM     18  C20 ZIN A   1      17.070   0.012  13.210  0.00  0.00     0.154 C 
ATOM     19  C19 ZIN A   1      17.373  -0.981  12.077  0.00  0.00     0.289 C 
ATOM     20  N18 ZIN A   1      18.479  -1.860  12.483  0.00  0.00     0.086 N 
ATOM     21  C17 ZIN A   1      19.716  -1.095  12.694  0.00  0.00     0.289 C 
ATOM     22  H33 ZIN A   1      18.620  -2.598  11.811  0.00  0.00     0.316 HD
ATOM     23  C16 ZIN A   1      19.511  -0.107  13.848  0.00  0.00     0.154 C 
ENDBRANCH  14  17
TORSDOF 1
ENDMDL
