MODEL 1
REMARK VINA RESULT:      -4.3      0.000      0.000
REMARK  1 active torsions:
REMARK  status: ('A' for Active; 'I' for Inactive)
REMARK       I    between atoms: N1_1  and  C2_2 
REMARK    1  A    between atoms: C2_2  and  C4_4 
ROOT
ATOM      1  C4  <0> d   1      19.333   1.608  11.822  0.00  0.00     0.141 A 
ATOM      2  C5  <0> d   1      18.186   2.077  12.461  0.00  0.00     0.153 A 
ATOM      3  N6  <0> d   1      17.348   2.867  11.813  0.00  0.00    -0.269 NA
ATOM      4  C7  <0> d   1      17.598   3.212  10.562  0.00  0.00     0.135 A 
ATOM      5  C8  <0> d   1      18.739   2.747   9.923  0.00  0.00     0.136 A 
ATOM      6  N9  <0> d   1      19.582   1.963  10.564  0.00  0.00    -0.253 NA
ENDROOT
BRANCH   1   7
ATOM      7  C2  <0> d   1      20.275   0.721  12.544  0.00  0.00     0.269 C 
ATOM      8  N1  <0> d   1      21.543   0.587  12.108  0.00  0.00    -0.365 N 
ATOM      9  H10 <0> d   1      22.160   0.007  12.580  0.00  0.00     0.159 HD
ATOM     10  H11 <0> d   1      21.838   1.069  11.319  0.00  0.00     0.159 HD
ATOM     11  O3  <0> d   1      19.904   0.115  13.529  0.00  0.00    -0.266 OA
ENDBRANCH   1   7
TORSDOF 1
ENDMDL
MODEL 2
REMARK VINA RESULT:      -4.3      2.997      3.618
REMARK  1 active torsions:
REMARK  status: ('A' for Active; 'I' for Inactive)
REMARK       I    between atoms: N1_1  and  C2_2 
REMARK    1  A    between atoms: C2_2  and  C4_4 
ROOT
ATOM      1  C4  <0> d   1      19.751  -0.150   9.325  0.00  0.00     0.141 A 
ATOM      2  C5  <0> d   1      19.443  -1.032   8.290  0.00  0.00     0.153 A 
ATOM      3  N6  <0> d   1      19.005  -0.563   7.135  0.00  0.00    -0.269 NA
ATOM      4  C7  <0> d   1      18.860   0.738   6.961  0.00  0.00     0.135 A 
ATOM      5  C8  <0> d   1      19.166   1.619   7.990  0.00  0.00     0.136 A 
ATOM      6  N9  <0> d   1      19.597   1.159   9.147  0.00  0.00    -0.253 NA
ENDROOT
BRANCH   1   7
ATOM      7  C2  <0> d   1      20.242  -0.670  10.623  0.00  0.00     0.269 C 
ATOM      8  N1  <0> d   1      21.548  -0.566  10.940  0.00  0.00    -0.365 N 
ATOM      9  H10 <0> d   1      21.870  -0.907  11.789  0.00  0.00     0.159 HD
ATOM     10  H11 <0> d   1      22.167  -0.153  10.317  0.00  0.00     0.159 HD
ATOM     11  O3  <0> d   1      19.468  -1.191  11.401  0.00  0.00    -0.266 OA
ENDBRANCH   1   7
TORSDOF 1
ENDMDL
MODEL 3
REMARK VINA RESULT:      -4.2      2.864      4.201
REMARK  1 active torsions:
REMARK  status: ('A' for Active; 'I' for Inactive)
REMARK       I    between atoms: N1_1  and  C2_2 
REMARK    1  A    between atoms: C2_2  and  C4_4 
ROOT
ATOM      1  C4  <0> d   1      19.725   0.307  13.777  0.00  0.00     0.141 A 
ATOM      2  C5  <0> d   1      19.562  -1.022  14.163  0.00  0.00     0.153 A 
ATOM      3  N6  <0> d   1      19.100  -1.305  15.369  0.00  0.00    -0.269 NA
ATOM      4  C7  <0> d   1      18.795  -0.331  16.206  0.00  0.00     0.135 A 
ATOM      5  C8  <0> d   1      18.957   0.994  15.825  0.00  0.00     0.136 A 
ATOM      6  N9  <0> d   1      19.422   1.285  14.627  0.00  0.00    -0.253 NA
ENDROOT
BRANCH   1   7
ATOM      7  C2  <0> d   1      20.242   0.630  12.427  0.00  0.00     0.269 C 
ATOM      8  N1  <0> d   1      21.567   0.584  12.183  0.00  0.00    -0.365 N 
ATOM      9  H10 <0> d   1      21.905   0.795  11.299  0.00  0.00     0.159 HD
ATOM     10  H11 <0> d   1      22.182   0.342  12.893  0.00  0.00     0.159 HD
ATOM     11  O3  <0> d   1      19.472   0.937  11.539  0.00  0.00    -0.266 OA
ENDBRANCH   1   7
TORSDOF 1
ENDMDL
MODEL 4
REMARK VINA RESULT:      -4.2      3.745      4.585
REMARK  1 active torsions:
REMARK  status: ('A' for Active; 'I' for Inactive)
REMARK       I    between atoms: N1_1  and  C2_2 
REMARK    1  A    between atoms: C2_2  and  C4_4 
ROOT
ATOM      1  C4  <0> d   1      19.383  -1.639  11.212  0.00  0.00     0.141 A 
ATOM      2  C5  <0> d   1      17.998  -1.488  11.278  0.00  0.00     0.153 A 
ATOM      3  N6  <0> d   1      17.231  -2.543  11.494  0.00  0.00    -0.269 NA
ATOM      4  C7  <0> d   1      17.776  -3.737  11.647  0.00  0.00     0.135 A 
ATOM      5  C8  <0> d   1      19.154  -3.889  11.582  0.00  0.00     0.136 A 
ATOM      6  N9  <0> d   1      19.925  -2.844  11.361  0.00  0.00    -0.253 NA
ENDROOT
BRANCH   1   7
ATOM      7  C2  <0> d   1      20.247  -0.460  10.970  0.00  0.00     0.269 C 
ATOM      8  N1  <0> d   1      21.587  -0.600  10.947  0.00  0.00    -0.365 N 
ATOM      9  H10 <0> d   1      22.153   0.172  10.788  0.00  0.00     0.159 HD
ATOM     10  H11 <0> d   1      21.986  -1.472  11.092  0.00  0.00     0.159 HD
ATOM     11  O3  <0> d   1      19.747   0.633  10.793  0.00  0.00    -0.266 OA
ENDBRANCH   1   7
TORSDOF 1
ENDMDL
MODEL 5
REMARK VINA RESULT:      -4.1      2.896      3.427
REMARK  1 active torsions:
REMARK  status: ('A' for Active; 'I' for Inactive)
REMARK       I    between atoms: N1_1  and  C2_2 
REMARK    1  A    between atoms: C2_2  and  C4_4 
ROOT
ATOM      1  C4  <0> d   1      19.379  -0.710  12.105  0.00  0.00     0.141 A 
ATOM      2  C5  <0> d   1      18.024  -0.700  12.430  0.00  0.00     0.153 A 
ATOM      3  N6  <0> d   1      17.201  -1.554  11.847  0.00  0.00    -0.269 NA
ATOM      4  C7  <0> d   1      17.662  -2.415  10.958  0.00  0.00     0.135 A 
ATOM      5  C8  <0> d   1      19.011  -2.428  10.632  0.00  0.00     0.136 A 
ATOM      6  N9  <0> d   1      19.837  -1.576  11.205  0.00  0.00    -0.253 NA
ENDROOT
BRANCH   1   7
ATOM      7  C2  <0> d   1      20.306   0.245  12.756  0.00  0.00     0.269 C 
ATOM      8  N1  <0> d   1      21.467   0.574  12.154  0.00  0.00    -0.365 N 
ATOM      9  H10 <0> d   1      22.073   1.200  12.580  0.00  0.00     0.159 HD
ATOM     10  H11 <0> d   1      21.696   0.183  11.297  0.00  0.00     0.159 HD
ATOM     11  O3  <0> d   1      20.020   0.731  13.832  0.00  0.00    -0.266 OA
ENDBRANCH   1   7
TORSDOF 1
ENDMDL
MODEL 6
REMARK VINA RESULT:      -4.1      1.650      1.666
REMARK  1 active torsions:
REMARK  status: ('A' for Active; 'I' for Inactive)
REMARK       I    between atoms: N1_1  and  C2_2 
REMARK    1  A    between atoms: C2_2  and  C4_4 
ROOT
ATOM      1  C4  <0> d   1      19.293   0.543  10.715  0.00  0.00     0.141 A 
ATOM      2  C5  <0> d   1      18.210   0.747  11.569  0.00  0.00     0.153 A 
ATOM      3  N6  <0> d   1      17.442   1.811  11.415  0.00  0.00    -0.269 NA
ATOM      4  C7  <0> d   1      17.701   2.680  10.454  0.00  0.00     0.135 A 
ATOM      5  C8  <0> d   1      18.778   2.480   9.603  0.00  0.00     0.136 A 
ATOM      6  N9  <0> d   1      19.552   1.424   9.753  0.00  0.00    -0.253 NA
ENDROOT
BRANCH   1   7
ATOM      7  C2  <0> d   1      20.157  -0.649  10.883  0.00  0.00     0.269 C 
ATOM      8  N1  <0> d   1      21.496  -0.507  10.953  0.00  0.00    -0.365 N 
ATOM      9  H10 <0> d   1      22.061  -1.287  11.064  0.00  0.00     0.159 HD
ATOM     10  H11 <0> d   1      21.893   0.376  10.891  0.00  0.00     0.159 HD
ATOM     11  O3  <0> d   1      19.659  -1.755  10.957  0.00  0.00    -0.266 OA
ENDBRANCH   1   7
TORSDOF 1
ENDMDL
MODEL 7
REMARK VINA RESULT:      -4.1      5.714      6.542
REMARK  1 active torsions:
REMARK  status: ('A' for Active; 'I' for Inactive)
REMARK       I    between atoms: N1_1  and  C2_2 
REMARK    1  A    between atoms: C2_2  and  C4_4 
ROOT
ATOM      1  C4  <0> d   1      18.824  -0.985   6.476  0.00  0.00     0.141 A 
ATOM      2  C5  <0> d   1      19.265  -2.091   7.202  0.00  0.00     0.153 A 
ATOM      3  N6  <0> d   1      18.765  -2.333   8.402  0.00  0.00    -0.269 NA
ATOM      4  C7  <0> d   1      17.850  -1.528   8.911  0.00  0.00     0.135 A 
ATOM      5  C8  <0> d   1      17.409  -0.426   8.191  0.00  0.00     0.136 A 
ATOM      6  N9  <0> d   1      17.907  -0.176   6.997  0.00  0.00    -0.253 NA
ENDROOT
BRANCH   1   7
ATOM      7  C2  <0> d   1      19.382  -0.710   5.131  0.00  0.00     0.269 C 
ATOM      8  N1  <0> d   1      19.638   0.559   4.755  0.00  0.00    -0.365 N 
ATOM      9  H10 <0> d   1      20.003   0.739   3.875  0.00  0.00     0.159 HD
ATOM     10  H11 <0> d   1      19.455   1.291   5.364  0.00  0.00     0.159 HD
ATOM     11  O3  <0> d   1      19.607  -1.628   4.368  0.00  0.00    -0.266 OA
ENDBRANCH   1   7
TORSDOF 1
ENDMDL
MODEL 8
REMARK VINA RESULT:      -4.1      4.461      4.995
REMARK  1 active torsions:
REMARK  status: ('A' for Active; 'I' for Inactive)
REMARK       I    between atoms: N1_1  and  C2_2 
REMARK    1  A    between atoms: C2_2  and  C4_4 
ROOT
ATOM      1  C4  <0> d   1      18.943   1.348  16.599  0.00  0.00     0.141 A 
ATOM      2  C5  <0> d   1      19.164   2.651  16.158  0.00  0.00     0.153 A 
ATOM      3  N6  <0> d   1      18.719   3.030  14.973  0.00  0.00    -0.269 NA
ATOM      4  C7  <0> d   1      18.066   2.174  14.207  0.00  0.00     0.135 A 
ATOM      5  C8  <0> d   1      17.844   0.875  14.644  0.00  0.00     0.136 A 
ATOM      6  N9  <0> d   1      18.290   0.488  15.822  0.00  0.00    -0.253 NA
ENDROOT
BRANCH   1   7
ATOM      7  C2  <0> d   1      19.441   0.919  17.927  0.00  0.00     0.269 C 
ATOM      8  N1  <0> d   1      19.551  -0.394  18.215  0.00  0.00    -0.365 N 
ATOM      9  H10 <0> d   1      19.876  -0.674  19.084  0.00  0.00     0.159 HD
ATOM     10  H11 <0> d   1      19.301  -1.057  17.552  0.00  0.00     0.159 HD
ATOM     11  O3  <0> d   1      19.749   1.750  18.758  0.00  0.00    -0.266 OA
ENDBRANCH   1   7
TORSDOF 1
ENDMDL
MODEL 9
REMARK VINA RESULT:      -4.0      6.399      6.866
REMARK  1 active torsions:
REMARK  status: ('A' for Active; 'I' for Inactive)
REMARK       I    between atoms: N1_1  and  C2_2 
REMARK    1  A    between atoms: C2_2  and  C4_4 
ROOT
ATOM      1  C4  <0> d   1      19.253  -2.033   6.009  0.00  0.00     0.141 A 
ATOM      2  C5  <0> d   1      18.869  -1.285   7.121  0.00  0.00     0.153 A 
ATOM      3  N6  <0> d   1      18.692   0.020   7.007  0.00  0.00    -0.269 NA
ATOM      4  C7  <0> d   1      18.879   0.614   5.842  0.00  0.00     0.135 A 
ATOM      5  C8  <0> d   1      19.261  -0.129   4.733  0.00  0.00     0.136 A 
ATOM      6  N9  <0> d   1      19.446  -1.429   4.840  0.00  0.00    -0.253 NA
ENDROOT
BRANCH   1   7
ATOM      7  C2  <0> d   1      19.453  -3.496   6.132  0.00  0.00     0.269 C 
ATOM      8  N1  <0> d   1      20.378  -3.981   6.985  0.00  0.00    -0.365 N 
ATOM      9  H10 <0> d   1      20.509  -4.938   7.065  0.00  0.00     0.159 HD
ATOM     10  H11 <0> d   1      20.915  -3.371   7.515  0.00  0.00     0.159 HD
ATOM     11  O3  <0> d   1      18.784  -4.259   5.465  0.00  0.00    -0.266 OA
ENDBRANCH   1   7
TORSDOF 1
ENDMDL
