MODEL 1
REMARK VINA RESULT:      -6.6      0.000      0.000
REMARK  3 active torsions:
REMARK  status: ('A' for Active; 'I' for Inactive)
REMARK    1  A    between atoms: C2_2  and  C4_4 
REMARK    2  A    between atoms: C2_2  and  C12_12 
REMARK    3  A    between atoms: C4_4  and  C6_6 
ROOT
ATOM      1  C1  ZIN A   1      19.037   1.325   7.022  0.00  0.00     0.029 C 
ATOM      2  C2  ZIN A   1      18.433   0.478   8.144  0.00  0.00     0.046 C 
ATOM      3  C3  ZIN A   1      17.114  -0.134   7.669  0.00  0.00     0.029 C 
ENDROOT
BRANCH   2   4
ATOM      4  C4  ZIN A   1      19.393  -0.623   8.514  0.00  0.00     0.173 C 
ATOM      5  O5  ZIN A   1      20.355  -0.381   9.211  0.00  0.00    -0.291 OA
BRANCH   4   6
ATOM      6  C6  ZIN A   1      19.161  -1.995   8.031  0.00  0.00     0.028 A 
ATOM      7  C11 ZIN A   1      18.569  -2.950   8.863  0.00  0.00     0.131 A 
ATOM      8  N10 ZIN A   1      18.357  -4.174   8.427  0.00  0.00    -0.272 NA
ATOM      9  C9  ZIN A   1      18.700  -4.552   7.210  0.00  0.00     0.116 A 
ATOM     10  C8  ZIN A   1      19.296  -3.667   6.328  0.00  0.00     0.020 A 
ATOM     11  C7  ZIN A   1      19.536  -2.366   6.732  0.00  0.00     0.018 A 
ENDBRANCH   4   6
ENDBRANCH   2   4
BRANCH   2  12
ATOM     12  C12 ZIN A   1      18.179   1.348   9.348  0.00  0.00    -0.025 A 
ATOM     13  C17 ZIN A   1      17.427   0.874  10.408  0.00  0.00     0.124 A 
ATOM     14  N16 ZIN A   1      17.203   1.629  11.466  0.00  0.00    -0.273 NA
ATOM     15  C15 ZIN A   1      17.674   2.858  11.554  0.00  0.00     0.116 A 
ATOM     16  C14 ZIN A   1      18.428   3.400  10.532  0.00  0.00     0.020 A 
ATOM     17  C13 ZIN A   1      18.689   2.636   9.404  0.00  0.00     0.011 A 
ENDBRANCH   2  12
TORSDOF 3
ENDMDL
MODEL 2
REMARK VINA RESULT:      -6.5      2.632      5.726
REMARK  3 active torsions:
REMARK  status: ('A' for Active; 'I' for Inactive)
REMARK    1  A    between atoms: C2_2  and  C4_4 
REMARK    2  A    between atoms: C2_2  and  C12_12 
REMARK    3  A    between atoms: C4_4  and  C6_6 
ROOT
ATOM      1  C1  ZIN A   1      19.724   0.183  10.749  0.00  0.00     0.029 C 
ATOM      2  C2  ZIN A   1      18.319  -0.152  10.244  0.00  0.00     0.046 C 
ATOM      3  C3  ZIN A   1      18.032  -1.636  10.480  0.00  0.00     0.029 C 
ENDROOT
BRANCH   2   4
ATOM      4  C4  ZIN A   1      17.306   0.680  10.986  0.00  0.00     0.173 C 
ATOM      5  O5  ZIN A   1      16.209   0.224  11.232  0.00  0.00    -0.291 OA
BRANCH   4   6
ATOM      6  C6  ZIN A   1      17.647   2.047  11.413  0.00  0.00     0.028 A 
ATOM      7  C11 ZIN A   1      17.983   2.312  12.745  0.00  0.00     0.131 A 
ATOM      8  N10 ZIN A   1      18.293   3.534  13.124  0.00  0.00    -0.272 NA
ATOM      9  C9  ZIN A   1      18.289   4.549  12.281  0.00  0.00     0.116 A 
ATOM     10  C8  ZIN A   1      17.963   4.371  10.948  0.00  0.00     0.020 A 
ATOM     11  C7  ZIN A   1      17.635   3.106  10.494  0.00  0.00     0.018 A 
ENDBRANCH   4   6
ENDBRANCH   2   4
BRANCH   2  12
ATOM     12  C12 ZIN A   1      18.232   0.148   8.769  0.00  0.00    -0.025 A 
ATOM     13  C17 ZIN A   1      17.219  -0.399   8.003  0.00  0.00     0.124 A 
ATOM     14  N16 ZIN A   1      17.134  -0.138   6.713  0.00  0.00    -0.273 NA
ATOM     15  C15 ZIN A   1      18.008   0.639   6.103  0.00  0.00     0.116 A 
ATOM     16  C14 ZIN A   1      19.050   1.216   6.803  0.00  0.00     0.020 A 
ATOM     17  C13 ZIN A   1      19.170   0.969   8.163  0.00  0.00     0.011 A 
ENDBRANCH   2  12
TORSDOF 3
ENDMDL
MODEL 3
REMARK VINA RESULT:      -6.5      3.784      5.421
REMARK  3 active torsions:
REMARK  status: ('A' for Active; 'I' for Inactive)
REMARK    1  A    between atoms: C2_2  and  C4_4 
REMARK    2  A    between atoms: C2_2  and  C12_12 
REMARK    3  A    between atoms: C4_4  and  C6_6 
ROOT
ATOM      1  C1  ZIN A   1      17.345  -0.794  11.946  0.00  0.00     0.029 C 
ATOM      2  C2  ZIN A   1      18.677  -0.942  12.683  0.00  0.00     0.046 C 
ATOM      3  C3  ZIN A   1      19.240  -2.344  12.443  0.00  0.00     0.029 C 
ENDROOT
BRANCH   2   4
ATOM      4  C4  ZIN A   1      19.653   0.085  12.171  0.00  0.00     0.173 C 
ATOM      5  O5  ZIN A   1      20.597   0.419  12.855  0.00  0.00    -0.291 OA
BRANCH   4   6
ATOM      6  C6  ZIN A   1      19.460   0.685  10.841  0.00  0.00     0.028 A 
ATOM      7  C11 ZIN A   1      19.790  -0.030   9.685  0.00  0.00     0.131 A 
ATOM      8  N10 ZIN A   1      19.611   0.505   8.496  0.00  0.00    -0.272 NA
ATOM      9  C9  ZIN A   1      19.132   1.725   8.344  0.00  0.00     0.116 A 
ATOM     10  C8  ZIN A   1      18.786   2.500   9.437  0.00  0.00     0.020 A 
ATOM     11  C7  ZIN A   1      18.948   1.984  10.711  0.00  0.00     0.018 A 
ENDBRANCH   4   6
ENDBRANCH   2   4
BRANCH   2  12
ATOM     12  C12 ZIN A   1      18.459  -0.736  14.160  0.00  0.00    -0.025 A 
ATOM     13  C17 ZIN A   1      17.658   0.297  14.611  0.00  0.00     0.124 A 
ATOM     14  N16 ZIN A   1      17.459   0.482  15.902  0.00  0.00    -0.273 NA
ATOM     15  C15 ZIN A   1      18.016  -0.298  16.808  0.00  0.00     0.116 A 
ATOM     16  C14 ZIN A   1      18.832  -1.347  16.432  0.00  0.00     0.020 A 
ATOM     17  C13 ZIN A   1      19.062  -1.576  15.083  0.00  0.00     0.011 A 
ENDBRANCH   2  12
TORSDOF 3
ENDMDL
MODEL 4
REMARK VINA RESULT:      -6.5      2.690      4.872
REMARK  3 active torsions:
REMARK  status: ('A' for Active; 'I' for Inactive)
REMARK    1  A    between atoms: C2_2  and  C4_4 
REMARK    2  A    between atoms: C2_2  and  C12_12 
REMARK    3  A    between atoms: C4_4  and  C6_6 
ROOT
ATOM      1  C1  ZIN A   1      17.301   1.058  10.713  0.00  0.00     0.029 C 
ATOM      2  C2  ZIN A   1      18.625   1.134   9.951  0.00  0.00     0.046 C 
ATOM      3  C3  ZIN A   1      19.215   2.539  10.090  0.00  0.00     0.029 C 
ENDROOT
BRANCH   2   4
ATOM      4  C4  ZIN A   1      19.590   0.126  10.517  0.00  0.00     0.173 C 
ATOM      5  O5  ZIN A   1      20.453  -0.352   9.812  0.00  0.00    -0.291 OA
BRANCH   4   6
ATOM      6  C6  ZIN A   1      19.486  -0.281  11.929  0.00  0.00     0.028 A 
ATOM      7  C11 ZIN A   1      20.022   0.523  12.940  0.00  0.00     0.131 A 
ATOM      8  N10 ZIN A   1      19.923   0.161  14.202  0.00  0.00    -0.272 NA
ATOM      9  C9  ZIN A   1      19.334  -0.963  14.562  0.00  0.00     0.116 A 
ATOM     10  C8  ZIN A   1      18.783  -1.816  13.622  0.00  0.00     0.020 A 
ATOM     11  C7  ZIN A   1      18.853  -1.482  12.281  0.00  0.00     0.018 A 
ENDBRANCH   4   6
ENDBRANCH   2   4
BRANCH   2  12
ATOM     12  C12 ZIN A   1      18.382   0.834   8.494  0.00  0.00    -0.025 A 
ATOM     13  C17 ZIN A   1      17.412  -0.078   8.119  0.00  0.00     0.124 A 
ATOM     14  N16 ZIN A   1      17.191  -0.342   6.846  0.00  0.00    -0.273 NA
ATOM     15  C15 ZIN A   1      17.885   0.238   5.887  0.00  0.00     0.116 A 
ATOM     16  C14 ZIN A   1      18.874   1.155   6.185  0.00  0.00     0.020 A 
ATOM     17  C13 ZIN A   1      19.133   1.463   7.513  0.00  0.00     0.011 A 
ENDBRANCH   2  12
TORSDOF 3
ENDMDL
MODEL 5
REMARK VINA RESULT:      -6.4      2.748      5.517
REMARK  3 active torsions:
REMARK  status: ('A' for Active; 'I' for Inactive)
REMARK    1  A    between atoms: C2_2  and  C4_4 
REMARK    2  A    between atoms: C2_2  and  C12_12 
REMARK    3  A    between atoms: C4_4  and  C6_6 
ROOT
ATOM      1  C1  ZIN A   1      18.512  -1.043  14.112  0.00  0.00     0.029 C 
ATOM      2  C2  ZIN A   1      18.391  -0.881  12.595  0.00  0.00     0.046 C 
ATOM      3  C3  ZIN A   1      17.020  -0.294  12.253  0.00  0.00     0.029 C 
ENDROOT
BRANCH   2   4
ATOM      4  C4  ZIN A   1      19.471   0.045  12.101  0.00  0.00     0.173 C 
ATOM      5  O5  ZIN A   1      20.427   0.294  12.805  0.00  0.00    -0.291 OA
BRANCH   4   6
ATOM      6  C6  ZIN A   1      19.368   0.648  10.762  0.00  0.00     0.028 A 
ATOM      7  C11 ZIN A   1      19.685  -0.096   9.621  0.00  0.00     0.131 A 
ATOM      8  N10 ZIN A   1      19.587   0.443   8.424  0.00  0.00    -0.272 NA
ATOM      9  C9  ZIN A   1      19.201   1.693   8.250  0.00  0.00     0.116 A 
ATOM     10  C8  ZIN A   1      18.875   2.497   9.328  0.00  0.00     0.020 A 
ATOM     11  C7  ZIN A   1      18.954   1.980  10.609  0.00  0.00     0.018 A 
ENDBRANCH   4   6
ENDBRANCH   2   4
BRANCH   2  12
ATOM     12  C12 ZIN A   1      18.540  -2.227  11.933  0.00  0.00    -0.025 A 
ATOM     13  C17 ZIN A   1      17.500  -2.764  11.198  0.00  0.00     0.124 A 
ATOM     14  N16 ZIN A   1      17.625  -3.939  10.612  0.00  0.00    -0.273 NA
ATOM     15  C15 ZIN A   1      18.733  -4.649  10.710  0.00  0.00     0.116 A 
ATOM     16  C14 ZIN A   1      19.812  -4.178  11.433  0.00  0.00     0.020 A 
ATOM     17  C13 ZIN A   1      19.720  -2.944  12.059  0.00  0.00     0.011 A 
ENDBRANCH   2  12
TORSDOF 3
ENDMDL
MODEL 6
REMARK VINA RESULT:      -6.3      2.705      5.186
REMARK  3 active torsions:
REMARK  status: ('A' for Active; 'I' for Inactive)
REMARK    1  A    between atoms: C2_2  and  C4_4 
REMARK    2  A    between atoms: C2_2  and  C12_12 
REMARK    3  A    between atoms: C4_4  and  C6_6 
ROOT
ATOM      1  C1  ZIN A   1      19.654   0.072  12.103  0.00  0.00     0.029 C 
ATOM      2  C2  ZIN A   1      18.299  -0.637  12.102  0.00  0.00     0.046 C 
ATOM      3  C3  ZIN A   1      17.653  -0.506  13.482  0.00  0.00     0.029 C 
ENDROOT
BRANCH   2   4
ATOM      4  C4  ZIN A   1      17.403  -0.009  11.067  0.00  0.00     0.173 C 
ATOM      5  O5  ZIN A   1      16.227   0.164  11.306  0.00  0.00    -0.291 OA
BRANCH   4   6
ATOM      6  C6  ZIN A   1      17.955   0.395   9.763  0.00  0.00     0.028 A 
ATOM      7  C11 ZIN A   1      17.955  -0.495   8.684  0.00  0.00     0.131 A 
ATOM      8  N10 ZIN A   1      18.444  -0.130   7.518  0.00  0.00    -0.272 NA
ATOM      9  C9  ZIN A   1      18.957   1.070   7.320  0.00  0.00     0.116 A 
ATOM     10  C8  ZIN A   1      18.999   2.007   8.338  0.00  0.00     0.020 A 
ATOM     11  C7  ZIN A   1      18.493   1.678   9.583  0.00  0.00     0.018 A 
ENDBRANCH   4   6
ENDBRANCH   2   4
BRANCH   2  12
ATOM     12  C12 ZIN A   1      18.497  -2.096  11.777  0.00  0.00    -0.025 A 
ATOM     13  C17 ZIN A   1      17.407  -2.914  11.539  0.00  0.00     0.124 A 
ATOM     14  N16 ZIN A   1      17.573  -4.190  11.250  0.00  0.00    -0.273 NA
ATOM     15  C15 ZIN A   1      18.772  -4.737  11.186  0.00  0.00     0.116 A 
ATOM     16  C14 ZIN A   1      19.905  -3.983  11.417  0.00  0.00     0.020 A 
ATOM     17  C13 ZIN A   1      19.772  -2.635  11.719  0.00  0.00     0.011 A 
ENDBRANCH   2  12
TORSDOF 3
ENDMDL
MODEL 7
REMARK VINA RESULT:      -6.3      1.007      5.684
REMARK  3 active torsions:
REMARK  status: ('A' for Active; 'I' for Inactive)
REMARK    1  A    between atoms: C2_2  and  C4_4 
REMARK    2  A    between atoms: C2_2  and  C12_12 
REMARK    3  A    between atoms: C4_4  and  C6_6 
ROOT
ATOM      1  C1  ZIN A   1      16.999  -0.139   7.805  0.00  0.00     0.029 C 
ATOM      2  C2  ZIN A   1      18.510  -0.217   7.580  0.00  0.00     0.046 C 
ATOM      3  C3  ZIN A   1      18.889   0.624   6.360  0.00  0.00     0.029 C 
ENDROOT
BRANCH   2   4
ATOM      4  C4  ZIN A   1      19.227   0.310   8.796  0.00  0.00     0.173 C 
ATOM      5  O5  ZIN A   1      20.307  -0.144   9.108  0.00  0.00    -0.291 OA
BRANCH   4   6
ATOM      6  C6  ZIN A   1      18.616   1.377   9.605  0.00  0.00     0.028 A 
ATOM      7  C11 ZIN A   1      17.921   1.070  10.779  0.00  0.00     0.131 A 
ATOM      8  N10 ZIN A   1      17.381   2.025  11.505  0.00  0.00    -0.272 NA
ATOM      9  C9  ZIN A   1      17.461   3.296  11.157  0.00  0.00     0.116 A 
ATOM     10  C8  ZIN A   1      18.127   3.683  10.008  0.00  0.00     0.020 A 
ATOM     11  C7  ZIN A   1      18.718   2.720   9.211  0.00  0.00     0.018 A 
ENDBRANCH   4   6
ENDBRANCH   2   4
BRANCH   2  12
ATOM     12  C12 ZIN A   1      18.909  -1.651   7.344  0.00  0.00    -0.025 A 
ATOM     13  C17 ZIN A   1      19.622  -2.003   6.213  0.00  0.00     0.124 A 
ATOM     14  N16 ZIN A   1      19.978  -3.255   6.002  0.00  0.00    -0.273 NA
ATOM     15  C15 ZIN A   1      19.664  -4.217   6.848  0.00  0.00     0.116 A 
ATOM     16  C14 ZIN A   1      18.948  -3.943   7.996  0.00  0.00     0.020 A 
ATOM     17  C13 ZIN A   1      18.560  -2.636   8.256  0.00  0.00     0.011 A 
ENDBRANCH   2  12
TORSDOF 3
ENDMDL
MODEL 8
REMARK VINA RESULT:      -6.3      2.052      3.152
REMARK  3 active torsions:
REMARK  status: ('A' for Active; 'I' for Inactive)
REMARK    1  A    between atoms: C2_2  and  C4_4 
REMARK    2  A    between atoms: C2_2  and  C12_12 
REMARK    3  A    between atoms: C4_4  and  C6_6 
ROOT
ATOM      1  C1  ZIN A   1      17.109   0.026  10.311  0.00  0.00     0.029 C 
ATOM      2  C2  ZIN A   1      18.471   0.370  10.919  0.00  0.00     0.046 C 
ATOM      3  C3  ZIN A   1      18.647  -0.387  12.237  0.00  0.00     0.029 C 
ENDROOT
BRANCH   2   4
ATOM      4  C4  ZIN A   1      19.564  -0.026   9.962  0.00  0.00     0.173 C 
ATOM      5  O5  ZIN A   1      20.636  -0.403  10.387  0.00  0.00    -0.291 OA
BRANCH   4   6
ATOM      6  C6  ZIN A   1      19.331   0.042   8.510  0.00  0.00     0.028 A 
ATOM      7  C11 ZIN A   1      19.222  -1.128   7.751  0.00  0.00     0.131 A 
ATOM      8  N10 ZIN A   1      19.008  -1.064   6.455  0.00  0.00    -0.272 NA
ATOM      9  C9  ZIN A   1      18.901   0.087   5.819  0.00  0.00     0.116 A 
ATOM     10  C8  ZIN A   1      19.003   1.290   6.496  0.00  0.00     0.020 A 
ATOM     11  C7  ZIN A   1      19.221   1.282   7.863  0.00  0.00     0.018 A 
ENDBRANCH   4   6
ENDBRANCH   2   4
BRANCH   2  12
ATOM     12  C12 ZIN A   1      18.543   1.853  11.179  0.00  0.00    -0.025 A 
ATOM     13  C17 ZIN A   1      19.572   2.381  11.937  0.00  0.00     0.124 A 
ATOM     14  N16 ZIN A   1      19.645   3.678  12.165  0.00  0.00    -0.273 NA
ATOM     15  C15 ZIN A   1      18.743   4.517  11.693  0.00  0.00     0.116 A 
ATOM     16  C14 ZIN A   1      17.684   4.061  10.932  0.00  0.00     0.020 A 
ATOM     17  C13 ZIN A   1      17.576   2.704  10.666  0.00  0.00     0.011 A 
ENDBRANCH   2  12
TORSDOF 3
ENDMDL
MODEL 9
REMARK VINA RESULT:      -6.2      3.546      6.251
REMARK  3 active torsions:
REMARK  status: ('A' for Active; 'I' for Inactive)
REMARK    1  A    between atoms: C2_2  and  C4_4 
REMARK    2  A    between atoms: C2_2  and  C12_12 
REMARK    3  A    between atoms: C4_4  and  C6_6 
ROOT
ATOM      1  C1  ZIN A   1      17.828   0.297  10.787  0.00  0.00     0.029 C 
ATOM      2  C2  ZIN A   1      19.084  -0.526  11.079  0.00  0.00     0.046 C 
ATOM      3  C3  ZIN A   1      20.066  -0.390   9.914  0.00  0.00     0.029 C 
ENDROOT
BRANCH   2   4
ATOM      4  C4  ZIN A   1      19.732  -0.024  12.343  0.00  0.00     0.173 C 
ATOM      5  O5  ZIN A   1      20.806   0.537  12.293  0.00  0.00    -0.291 OA
BRANCH   4   6
ATOM      6  C6  ZIN A   1      19.061  -0.214  13.639  0.00  0.00     0.028 A 
ATOM      7  C11 ZIN A   1      18.035   0.648  14.042  0.00  0.00     0.131 A 
ATOM      8  N10 ZIN A   1      17.433   0.473  15.199  0.00  0.00    -0.272 NA
ATOM      9  C9  ZIN A   1      17.771  -0.500  16.023  0.00  0.00     0.116 A 
ATOM     10  C8  ZIN A   1      18.779  -1.392  15.701  0.00  0.00     0.020 A 
ATOM     11  C7  ZIN A   1      19.442  -1.259  14.494  0.00  0.00     0.018 A 
ENDBRANCH   4   6
ENDBRANCH   2   4
BRANCH   2  12
ATOM     12  C12 ZIN A   1      18.706  -1.975  11.249  0.00  0.00    -0.025 A 
ATOM     13  C17 ZIN A   1      17.376  -2.346  11.337  0.00  0.00     0.124 A 
ATOM     14  N16 ZIN A   1      17.037  -3.612  11.482  0.00  0.00    -0.273 NA
ATOM     15  C15 ZIN A   1      17.942  -4.568  11.558  0.00  0.00     0.116 A 
ATOM     16  C14 ZIN A   1      19.290  -4.273  11.484  0.00  0.00     0.020 A 
ATOM     17  C13 ZIN A   1      19.686  -2.953  11.326  0.00  0.00     0.011 A 
ENDBRANCH   2  12
TORSDOF 3
ENDMDL
