MODEL 1
REMARK VINA RESULT:      -3.8      0.000      0.000
REMARK  1 active torsions:
REMARK  status: ('A' for Active; 'I' for Inactive)
REMARK    1  A    between atoms: N1_1  and  C2_2 
ROOT
ATOM      1  C2  <0> d   1      17.866  -1.023   5.611  0.00  0.00     0.325 C 
ATOM      2  C4  <0> d   1      18.081  -2.073   4.494  0.00  0.00     0.248 C 
ATOM      3  O5  <0> d   1      19.508  -1.992   4.293  0.00  0.00    -0.252 OA
ATOM      4  N6  <0> d   1      19.922  -0.704   4.701  0.00  0.00    -0.107 NA
ATOM      5  C7  <0> d   1      19.062  -0.106   5.440  0.00  0.00     0.238 C 
ATOM      6  O8  <0> d   1      19.201   1.128   5.974  0.00  0.00    -0.170 OA
ENDROOT
BRANCH   1   7
ATOM      7  N1  <0> d   1      17.881  -1.660   6.935  0.00  0.00     0.093 N 
ATOM      8  H9  <0> d   1      18.267  -1.038   7.630  0.00  0.00     0.313 HD
ATOM      9  H10 <0> d   1      16.958  -1.968   7.198  0.00  0.00     0.313 HD
ENDBRANCH   1   7
TORSDOF 1
ENDMDL
MODEL 2
REMARK VINA RESULT:      -3.7     11.719     12.621
REMARK  1 active torsions:
REMARK  status: ('A' for Active; 'I' for Inactive)
REMARK    1  A    between atoms: N1_1  and  C2_2 
ROOT
ATOM      1  C2  <0> d   1      18.625   1.997  16.749  0.00  0.00     0.325 C 
ATOM      2  C4  <0> d   1      18.724   2.941  17.972  0.00  0.00     0.248 C 
ATOM      3  O5  <0> d   1      19.738   2.286  18.761  0.00  0.00    -0.252 OA
ATOM      4  N6  <0> d   1      19.729   0.916  18.414  0.00  0.00    -0.107 NA
ATOM      5  C7  <0> d   1      19.130   0.679  17.305  0.00  0.00     0.238 C 
ATOM      6  O8  <0> d   1      18.977  -0.536  16.733  0.00  0.00    -0.170 OA
ENDROOT
BRANCH   1   7
ATOM      7  N1  <0> d   1      19.486   2.467  15.656  0.00  0.00     0.093 N 
ATOM      8  H9  <0> d   1      20.303   1.881  15.562  0.00  0.00     0.313 HD
ATOM      9  H10 <0> d   1      18.975   2.515  14.788  0.00  0.00     0.313 HD
ENDBRANCH   1   7
TORSDOF 1
ENDMDL
MODEL 3
REMARK VINA RESULT:      -3.7      1.806      2.147
REMARK  1 active torsions:
REMARK  status: ('A' for Active; 'I' for Inactive)
REMARK    1  A    between atoms: N1_1  and  C2_2 
ROOT
ATOM      1  C2  <0> d   1      18.521  -0.473   6.121  0.00  0.00     0.325 C 
ATOM      2  C4  <0> d   1      19.274  -0.127   4.814  0.00  0.00     0.248 C 
ATOM      3  O5  <0> d   1      19.677  -1.434   4.358  0.00  0.00    -0.252 OA
ATOM      4  N6  <0> d   1      19.749  -2.277   5.490  0.00  0.00    -0.107 NA
ATOM      5  C7  <0> d   1      19.125  -1.809   6.509  0.00  0.00     0.238 C 
ATOM      6  O8  <0> d   1      19.026  -2.407   7.717  0.00  0.00    -0.170 OA
ENDROOT
BRANCH   1   7
ATOM      7  N1  <0> d   1      17.079  -0.605   5.873  0.00  0.00     0.093 N 
ATOM      8  H9  <0> d   1      16.545  -0.106   6.569  0.00  0.00     0.313 HD
ATOM      9  H10 <0> d   1      16.842  -0.294   4.944  0.00  0.00     0.313 HD
ENDBRANCH   1   7
TORSDOF 1
ENDMDL
MODEL 4
REMARK VINA RESULT:      -3.7     11.628     12.310
REMARK  1 active torsions:
REMARK  status: ('A' for Active; 'I' for Inactive)
REMARK    1  A    between atoms: N1_1  and  C2_2 
ROOT
ATOM      1  C2  <0> d   1      18.545   0.734  16.929  0.00  0.00     0.325 C 
ATOM      2  C4  <0> d   1      19.401   0.355  18.161  0.00  0.00     0.248 C 
ATOM      3  O5  <0> d   1      19.728   1.655  18.696  0.00  0.00    -0.252 OA
ATOM      4  N6  <0> d   1      19.665   2.581  17.631  0.00  0.00    -0.107 NA
ATOM      5  C7  <0> d   1      19.019   2.140  16.614  0.00  0.00     0.238 C 
ATOM      6  O8  <0> d   1      18.799   2.815  15.464  0.00  0.00    -0.170 OA
ENDROOT
BRANCH   1   7
ATOM      7  N1  <0> d   1      17.115   0.728  17.265  0.00  0.00     0.093 N 
ATOM      8  H9  <0> d   1      16.686  -0.147  17.003  0.00  0.00     0.313 HD
ATOM      9  H10 <0> d   1      16.973   0.922  18.244  0.00  0.00     0.313 HD
ENDBRANCH   1   7
TORSDOF 1
ENDMDL
MODEL 5
REMARK VINA RESULT:      -3.5      1.192      2.565
REMARK  1 active torsions:
REMARK  status: ('A' for Active; 'I' for Inactive)
REMARK    1  A    between atoms: N1_1  and  C2_2 
ROOT
ATOM      1  C2  <0> d   1      18.956  -1.043   6.773  0.00  0.00     0.325 C 
ATOM      2  C4  <0> d   1      19.026   0.348   7.449  0.00  0.00     0.248 C 
ATOM      3  O5  <0> d   1      18.865   1.227   6.316  0.00  0.00    -0.252 OA
ATOM      4  N6  <0> d   1      19.301   0.528   5.169  0.00  0.00    -0.107 NA
ATOM      5  C7  <0> d   1      19.373  -0.741   5.346  0.00  0.00     0.238 C 
ATOM      6  O8  <0> d   1      19.754  -1.648   4.419  0.00  0.00    -0.170 OA
ENDROOT
BRANCH   1   7
ATOM      7  N1  <0> d   1      17.588  -1.576   6.815  0.00  0.00     0.093 N 
ATOM      8  H9  <0> d   1      17.020  -1.061   7.472  0.00  0.00     0.313 HD
ATOM      9  H10 <0> d   1      17.171  -1.573   5.897  0.00  0.00     0.313 HD
ENDBRANCH   1   7
TORSDOF 1
ENDMDL
MODEL 6
REMARK VINA RESULT:      -3.4     11.345     12.014
REMARK  1 active torsions:
REMARK  status: ('A' for Active; 'I' for Inactive)
REMARK    1  A    between atoms: N1_1  and  C2_2 
ROOT
ATOM      1  C2  <0> d   1      17.997   0.753  16.877  0.00  0.00     0.325 C 
ATOM      2  C4  <0> d   1      17.838  -0.408  15.865  0.00  0.00     0.248 C 
ATOM      3  O5  <0> d   1      18.472  -1.495  16.571  0.00  0.00    -0.252 OA
ATOM      4  N6  <0> d   1      19.398  -0.931  17.477  0.00  0.00    -0.107 NA
ATOM      5  C7  <0> d   1      19.194   0.315  17.699  0.00  0.00     0.238 C 
ATOM      6  O8  <0> d   1      19.923   1.100  18.525  0.00  0.00    -0.170 OA
ENDROOT
BRANCH   1   7
ATOM      7  N1  <0> d   1      16.801   0.876  17.722  0.00  0.00     0.093 N 
ATOM      8  H9  <0> d   1      16.574   1.845  17.887  0.00  0.00     0.313 HD
ATOM      9  H10 <0> d   1      16.020   0.386  17.315  0.00  0.00     0.313 HD
ENDBRANCH   1   7
TORSDOF 1
ENDMDL
MODEL 7
REMARK VINA RESULT:      -3.4      6.146      6.919
REMARK  1 active torsions:
REMARK  status: ('A' for Active; 'I' for Inactive)
REMARK    1  A    between atoms: N1_1  and  C2_2 
ROOT
ATOM      1  C2  <0> d   1      20.167  -0.346  11.279  0.00  0.00     0.325 C 
ATOM      2  C4  <0> d   1      19.428   0.418  10.154  0.00  0.00     0.248 C 
ATOM      3  O5  <0> d   1      19.555   1.783  10.601  0.00  0.00    -0.252 OA
ATOM      4  N6  <0> d   1      19.718   1.759  12.005  0.00  0.00    -0.107 NA
ATOM      5  C7  <0> d   1      20.061   0.607  12.454  0.00  0.00     0.238 C 
ATOM      6  O8  <0> d   1      20.290   0.301  13.751  0.00  0.00    -0.170 OA
ENDROOT
BRANCH   1   7
ATOM      7  N1  <0> d   1      21.572  -0.576  10.918  0.00  0.00     0.093 N 
ATOM      8  H9  <0> d   1      21.731  -1.543  10.681  0.00  0.00     0.313 HD
ATOM      9  H10 <0> d   1      21.855   0.032  10.165  0.00  0.00     0.313 HD
ENDBRANCH   1   7
TORSDOF 1
ENDMDL
MODEL 8
REMARK VINA RESULT:      -3.4      7.040      7.864
REMARK  1 active torsions:
REMARK  status: ('A' for Active; 'I' for Inactive)
REMARK    1  A    between atoms: N1_1  and  C2_2 
ROOT
ATOM      1  C2  <0> d   1      20.125   0.450  12.367  0.00  0.00     0.325 C 
ATOM      2  C4  <0> d   1      19.785   0.435  13.877  0.00  0.00     0.248 C 
ATOM      3  O5  <0> d   1      19.727  -0.981  14.145  0.00  0.00    -0.252 OA
ATOM      4  N6  <0> d   1      19.415  -1.632  12.930  0.00  0.00    -0.107 NA
ATOM      5  C7  <0> d   1      19.615  -0.899  11.897  0.00  0.00     0.238 C 
ATOM      6  O8  <0> d   1      19.407  -1.268  10.614  0.00  0.00    -0.170 OA
ENDROOT
BRANCH   1   7
ATOM      7  N1  <0> d   1      21.576   0.560  12.160  0.00  0.00     0.093 N 
ATOM      8  H9  <0> d   1      22.010   1.077  12.910  0.00  0.00     0.313 HD
ATOM      9  H10 <0> d   1      21.996  -0.350  12.057  0.00  0.00     0.313 HD
ENDBRANCH   1   7
TORSDOF 1
ENDMDL
MODEL 9
REMARK VINA RESULT:      -3.4      4.703      5.161
REMARK  1 active torsions:
REMARK  status: ('A' for Active; 'I' for Inactive)
REMARK    1  A    between atoms: N1_1  and  C2_2 
ROOT
ATOM      1  C2  <0> d   1      20.127  -0.496  10.839  0.00  0.00     0.325 C 
ATOM      2  C4  <0> d   1      19.462  -1.836  11.239  0.00  0.00     0.248 C 
ATOM      3  O5  <0> d   1      19.296  -2.470   9.954  0.00  0.00    -0.252 OA
ATOM      4  N6  <0> d   1      19.237  -1.449   8.979  0.00  0.00    -0.107 NA
ATOM      5  C7  <0> d   1      19.685  -0.322   9.399  0.00  0.00     0.238 C 
ATOM      6  O8  <0> d   1      19.752   0.819   8.678  0.00  0.00    -0.170 OA
ENDROOT
BRANCH   1   7
ATOM      7  N1  <0> d   1      21.590  -0.593  10.929  0.00  0.00     0.093 N 
ATOM      8  H9  <0> d   1      21.865  -1.290  11.604  0.00  0.00     0.313 HD
ATOM      9  H10 <0> d   1      21.995  -0.785  10.026  0.00  0.00     0.313 HD
ENDBRANCH   1   7
TORSDOF 1
ENDMDL
