MODEL 1
REMARK VINA RESULT:      -4.6      0.000      0.000
REMARK  2 active torsions:
REMARK  status: ('A' for Active; 'I' for Inactive)
REMARK    1  A    between atoms: O2_2  and  C3_3 
REMARK    2  A    between atoms: C3_3  and  C5_5 
ROOT
ATOM      1  C5  <0> d   1      19.137  -0.134   6.336  0.00  0.00     0.057 A 
ATOM      2  C6  <0> d   1      19.023   1.235   6.608  0.00  0.00     0.020 A 
ATOM      3  C7  <0> d   1      19.055   1.647   7.929  0.00  0.00     0.020 A 
ATOM      4  C8  <0> d   1      19.196   0.701   8.928  0.00  0.00     0.116 A 
ATOM      5  N9  <0> d   1      19.301  -0.582   8.643  0.00  0.00    -0.272 NA
ATOM      6  C10 <0> d   1      19.270  -1.024   7.403  0.00  0.00     0.133 A 
ENDROOT
BRANCH   1   7
ATOM      7  C3  <0> d   1      19.109  -0.628   4.944  0.00  0.00     0.294 C 
ATOM      8  O4  <0> d   1      18.541   0.013   4.083  0.00  0.00    -0.259 OA
BRANCH   7   9
ATOM      9  O2  <0> d   1      19.713  -1.790   4.630  0.00  0.00    -0.322 OA
ATOM     10  C1  <0> d   1      18.853  -2.927   4.353  0.00  0.00     0.213 C 
ENDBRANCH   7   9
ENDBRANCH   1   7
TORSDOF 2
ENDMDL
MODEL 2
REMARK VINA RESULT:      -4.4      2.202      2.999
REMARK  2 active torsions:
REMARK  status: ('A' for Active; 'I' for Inactive)
REMARK    1  A    between atoms: O2_2  and  C3_3 
REMARK    2  A    between atoms: C3_3  and  C5_5 
ROOT
ATOM      1  C5  <0> d   1      18.518   1.066   8.625  0.00  0.00     0.057 A 
ATOM      2  C6  <0> d   1      19.010   2.355   8.867  0.00  0.00     0.020 A 
ATOM      3  C7  <0> d   1      18.584   3.018  10.004  0.00  0.00     0.020 A 
ATOM      4  C8  <0> d   1      17.693   2.392  10.857  0.00  0.00     0.116 A 
ATOM      5  N9  <0> d   1      17.246   1.178  10.605  0.00  0.00    -0.272 NA
ATOM      6  C10 <0> d   1      17.616   0.508   9.534  0.00  0.00     0.133 A 
ENDROOT
BRANCH   1   7
ATOM      7  C3  <0> d   1      18.941   0.313   7.427  0.00  0.00     0.294 C 
ATOM      8  O4  <0> d   1      19.233  -0.862   7.519  0.00  0.00    -0.259 OA
BRANCH   7   9
ATOM      9  O2  <0> d   1      19.001   0.930   6.230  0.00  0.00    -0.322 OA
ATOM     10  C1  <0> d   1      19.290   0.100   5.074  0.00  0.00     0.213 C 
ENDBRANCH   7   9
ENDBRANCH   1   7
TORSDOF 2
ENDMDL
MODEL 3
REMARK VINA RESULT:      -4.4      3.955      5.075
REMARK  2 active torsions:
REMARK  status: ('A' for Active; 'I' for Inactive)
REMARK    1  A    between atoms: O2_2  and  C3_3 
REMARK    2  A    between atoms: C3_3  and  C5_5 
ROOT
ATOM      1  C5  <0> d   1      17.736   0.727   9.590  0.00  0.00     0.057 A 
ATOM      2  C6  <0> d   1      18.712   1.694   9.322  0.00  0.00     0.020 A 
ATOM      3  C7  <0> d   1      19.237   1.760   8.043  0.00  0.00     0.020 A 
ATOM      4  C8  <0> d   1      18.785   0.876   7.080  0.00  0.00     0.116 A 
ATOM      5  N9  <0> d   1      17.864  -0.025   7.361  0.00  0.00    -0.272 NA
ATOM      6  C10 <0> d   1      17.338  -0.132   8.564  0.00  0.00     0.133 A 
ENDROOT
BRANCH   1   7
ATOM      7  C3  <0> d   1      17.142   0.613  10.938  0.00  0.00     0.294 C 
ATOM      8  O4  <0> d   1      17.098   1.584  11.667  0.00  0.00    -0.259 OA
BRANCH   7   9
ATOM      9  O2  <0> d   1      16.649  -0.568  11.359  0.00  0.00    -0.322 OA
ATOM     10  C1  <0> d   1      17.559  -1.445  12.074  0.00  0.00     0.213 C 
ENDBRANCH   7   9
ENDBRANCH   1   7
TORSDOF 2
ENDMDL
MODEL 4
REMARK VINA RESULT:      -4.4      4.205      5.794
REMARK  2 active torsions:
REMARK  status: ('A' for Active; 'I' for Inactive)
REMARK    1  A    between atoms: O2_2  and  C3_3 
REMARK    2  A    between atoms: C3_3  and  C5_5 
ROOT
ATOM      1  C5  <0> d   1      18.181   1.789   9.791  0.00  0.00     0.057 A 
ATOM      2  C6  <0> d   1      19.037   2.176   8.753  0.00  0.00     0.020 A 
ATOM      3  C7  <0> d   1      19.099   1.380   7.623  0.00  0.00     0.020 A 
ATOM      4  C8  <0> d   1      18.322   0.238   7.557  0.00  0.00     0.116 A 
ATOM      5  N9  <0> d   1      17.525  -0.103   8.550  0.00  0.00    -0.272 NA
ATOM      6  C10 <0> d   1      17.435   0.617   9.649  0.00  0.00     0.133 A 
ENDROOT
BRANCH   1   7
ATOM      7  C3  <0> d   1      18.075   2.602  11.020  0.00  0.00     0.294 C 
ATOM      8  O4  <0> d   1      18.982   2.603  11.828  0.00  0.00    -0.259 OA
BRANCH   7   9
ATOM      9  O2  <0> d   1      16.972   3.342  11.245  0.00  0.00    -0.322 OA
ATOM     10  C1  <0> d   1      16.995   4.717  10.777  0.00  0.00     0.213 C 
ENDBRANCH   7   9
ENDBRANCH   1   7
TORSDOF 2
ENDMDL
MODEL 5
REMARK VINA RESULT:      -4.3      3.866      5.184
REMARK  2 active torsions:
REMARK  status: ('A' for Active; 'I' for Inactive)
REMARK    1  A    between atoms: O2_2  and  C3_3 
REMARK    2  A    between atoms: C3_3  and  C5_5 
ROOT
ATOM      1  C5  <0> d   1      18.245   1.392   9.299  0.00  0.00     0.057 A 
ATOM      2  C6  <0> d   1      19.059   1.873   8.267  0.00  0.00     0.020 A 
ATOM      3  C7  <0> d   1      19.017   1.229   7.043  0.00  0.00     0.020 A 
ATOM      4  C8  <0> d   1      18.180   0.140   6.880  0.00  0.00     0.116 A 
ATOM      5  N9  <0> d   1      17.424  -0.293   7.870  0.00  0.00    -0.272 NA
ATOM      6  C10 <0> d   1      17.433   0.282   9.055  0.00  0.00     0.133 A 
ENDROOT
BRANCH   1   7
ATOM      7  C3  <0> d   1      18.250   2.041  10.625  0.00  0.00     0.294 C 
ATOM      8  O4  <0> d   1      17.201   2.325  11.168  0.00  0.00    -0.259 OA
BRANCH   7   9
ATOM      9  O2  <0> d   1      19.419   2.319  11.234  0.00  0.00    -0.322 OA
ATOM     10  C1  <0> d   1      20.042   1.246  11.988  0.00  0.00     0.213 C 
ENDBRANCH   7   9
ENDBRANCH   1   7
TORSDOF 2
ENDMDL
MODEL 6
REMARK VINA RESULT:      -4.1      2.727      4.187
REMARK  2 active torsions:
REMARK  status: ('A' for Active; 'I' for Inactive)
REMARK    1  A    between atoms: O2_2  and  C3_3 
REMARK    2  A    between atoms: C3_3  and  C5_5 
ROOT
ATOM      1  C5  <0> d   1      18.890  -0.396   7.300  0.00  0.00     0.057 A 
ATOM      2  C6  <0> d   1      18.777   0.637   6.361  0.00  0.00     0.020 A 
ATOM      3  C7  <0> d   1      19.040   0.348   5.033  0.00  0.00     0.020 A 
ATOM      4  C8  <0> d   1      19.403  -0.939   4.680  0.00  0.00     0.116 A 
ATOM      5  N9  <0> d   1      19.503  -1.892   5.586  0.00  0.00    -0.272 NA
ATOM      6  C10 <0> d   1      19.269  -1.666   6.862  0.00  0.00     0.133 A 
ENDROOT
BRANCH   1   7
ATOM      7  C3  <0> d   1      18.621  -0.143   8.730  0.00  0.00     0.294 C 
ATOM      8  O4  <0> d   1      19.289  -0.695   9.581  0.00  0.00    -0.259 OA
BRANCH   7   9
ATOM      9  O2  <0> d   1      17.634   0.700   9.091  0.00  0.00    -0.322 OA
ATOM     10  C1  <0> d   1      17.995   1.802   9.965  0.00  0.00     0.213 C 
ENDBRANCH   7   9
ENDBRANCH   1   7
TORSDOF 2
ENDMDL
MODEL 7
REMARK VINA RESULT:      -4.0      7.847      9.575
REMARK  2 active torsions:
REMARK  status: ('A' for Active; 'I' for Inactive)
REMARK    1  A    between atoms: O2_2  and  C3_3 
REMARK    2  A    between atoms: C3_3  and  C5_5 
ROOT
ATOM      1  C5  <0> d   1      18.834  -0.621  14.952  0.00  0.00     0.057 A 
ATOM      2  C6  <0> d   1      18.742  -1.647  14.004  0.00  0.00     0.020 A 
ATOM      3  C7  <0> d   1      19.211  -1.403  12.725  0.00  0.00     0.020 A 
ATOM      4  C8  <0> d   1      19.750  -0.164  12.428  0.00  0.00     0.116 A 
ATOM      5  N9  <0> d   1      19.823   0.784  13.341  0.00  0.00    -0.272 NA
ATOM      6  C10 <0> d   1      19.385   0.603  14.570  0.00  0.00     0.133 A 
ENDROOT
BRANCH   1   7
ATOM      7  C3  <0> d   1      18.348  -0.828  16.332  0.00  0.00     0.294 C 
ATOM      8  O4  <0> d   1      17.157  -0.927  16.549  0.00  0.00    -0.259 OA
BRANCH   7   9
ATOM      9  O2  <0> d   1      19.227  -0.907  17.350  0.00  0.00    -0.322 OA
ATOM     10  C1  <0> d   1      19.259   0.207  18.281  0.00  0.00     0.213 C 
ENDBRANCH   7   9
ENDBRANCH   1   7
TORSDOF 2
ENDMDL
MODEL 8
REMARK VINA RESULT:      -4.0      2.490      3.129
REMARK  2 active torsions:
REMARK  status: ('A' for Active; 'I' for Inactive)
REMARK    1  A    between atoms: O2_2  and  C3_3 
REMARK    2  A    between atoms: C3_3  and  C5_5 
ROOT
ATOM      1  C5  <0> d   1      18.155   0.269   9.045  0.00  0.00     0.057 A 
ATOM      2  C6  <0> d   1      18.835   1.465   8.782  0.00  0.00     0.020 A 
ATOM      3  C7  <0> d   1      18.623   2.540   9.627  0.00  0.00     0.020 A 
ATOM      4  C8  <0> d   1      17.755   2.400  10.694  0.00  0.00     0.116 A 
ATOM      5  N9  <0> d   1      17.128   1.262  10.918  0.00  0.00    -0.272 NA
ATOM      6  C10 <0> d   1      17.290   0.213  10.140  0.00  0.00     0.133 A 
ENDROOT
BRANCH   1   7
ATOM      7  C3  <0> d   1      18.344  -0.910   8.175  0.00  0.00     0.294 C 
ATOM      8  O4  <0> d   1      17.831  -1.970   8.469  0.00  0.00    -0.259 OA
BRANCH   7   9
ATOM      9  O2  <0> d   1      19.086  -0.808   7.055  0.00  0.00    -0.322 OA
ATOM     10  C1  <0> d   1      19.156  -1.982   6.203  0.00  0.00     0.213 C 
ENDBRANCH   7   9
ENDBRANCH   1   7
TORSDOF 2
ENDMDL
MODEL 9
REMARK VINA RESULT:      -4.0      3.177      4.203
REMARK  2 active torsions:
REMARK  status: ('A' for Active; 'I' for Inactive)
REMARK    1  A    between atoms: O2_2  and  C3_3 
REMARK    2  A    between atoms: C3_3  and  C5_5 
ROOT
ATOM      1  C5  <0> d   1      18.900   0.724  10.072  0.00  0.00     0.057 A 
ATOM      2  C6  <0> d   1      19.193   1.894   9.361  0.00  0.00     0.020 A 
ATOM      3  C7  <0> d   1      18.560   3.067   9.736  0.00  0.00     0.020 A 
ATOM      4  C8  <0> d   1      17.667   3.044  10.792  0.00  0.00     0.116 A 
ATOM      5  N9  <0> d   1      17.410   1.927  11.444  0.00  0.00    -0.272 NA
ATOM      6  C10 <0> d   1      17.981   0.786  11.122  0.00  0.00     0.133 A 
ENDROOT
BRANCH   1   7
ATOM      7  C3  <0> d   1      19.547  -0.554   9.713  0.00  0.00     0.294 C 
ATOM      8  O4  <0> d   1      20.192  -1.163  10.543  0.00  0.00    -0.259 OA
BRANCH   7   9
ATOM      9  O2  <0> d   1      19.422  -1.045   8.465  0.00  0.00    -0.322 OA
ATOM     10  C1  <0> d   1      18.086  -1.413   8.032  0.00  0.00     0.213 C 
ENDBRANCH   7   9
ENDBRANCH   1   7
TORSDOF 2
ENDMDL
