MODEL 1
REMARK VINA RESULT:      -8.5      0.000      0.000
REMARK  2 active torsions:
REMARK  status: ('A' for Active; 'I' for Inactive)
REMARK    1  A    between atoms: C3_3  and  O4_4 
REMARK    2  A    between atoms: C26_22  and  C27_23 
ROOT
ATOM      1  C1  ZIN A   1      15.047  -5.882   8.460  0.00  0.00     0.015 C 
ATOM      2  C2  ZIN A   1      16.079  -5.832   9.018  0.00  0.00    -0.078 C 
ATOM      3  C3  ZIN A   1      17.372  -5.768   9.718  0.00  0.00     0.128 C 
ATOM      4  C5  ZIN A   1      17.162  -5.909  11.245  0.00  0.00     0.052 C 
ATOM      5  C6  ZIN A   1      17.622  -4.569  11.877  0.00  0.00     0.010 C 
ATOM      6  C7  ZIN A   1      17.476  -3.572  10.721  0.00  0.00     0.003 C 
ATOM      7  C9  ZIN A   1      18.311  -2.314  10.841  0.00  0.00    -0.000 C 
ATOM      8  C11 ZIN A   1      17.938  -1.518  12.093  0.00  0.00     0.010 C 
ATOM      9  C12 ZIN A   1      18.881  -0.317  12.210  0.00  0.00     0.035 C 
ATOM     10  C13 ZIN A   1      18.834   0.483  10.922  0.00  0.00    -0.072 C 
ATOM     11  C14 ZIN A   1      18.688   1.805  11.021  0.00  0.00     0.053 C 
ATOM     12  C15 ZIN A   1      18.649   2.634   9.812  0.00  0.00     0.149 C 
ATOM     13  O16 ZIN A   1      18.156   3.743   9.814  0.00  0.00    -0.293 OA
ATOM     14  C17 ZIN A   1      19.257   2.035   8.559  0.00  0.00     0.084 C 
ATOM     15  C18 ZIN A   1      18.679   0.628   8.399  0.00  0.00     0.017 C 
ATOM     16  C19 ZIN A   1      18.964  -0.238   9.613  0.00  0.00     0.023 C 
ATOM     17  C21 ZIN A   1      18.036  -1.453   9.597  0.00  0.00     0.026 C 
ATOM     18  C23 ZIN A   1      18.260  -2.265   8.346  0.00  0.00    -0.083 C 
ATOM     19  C24 ZIN A   1      18.958  -1.770   7.354  0.00  0.00     0.015 C 
ATOM     20  C25 ZIN A   1      17.668  -3.664   8.248  0.00  0.00     0.047 C 
ATOM     21  C26 ZIN A   1      18.013  -4.397   9.520  0.00  0.00     0.009 C 
ENDROOT
BRANCH   3  22
ATOM     22  O4  ZIN A   1      18.243  -6.795   9.240  0.00  0.00    -0.377 OA
ATOM     23  H30 ZIN A   1      18.903  -6.486   8.602  0.00  0.00     0.211 HD
ENDBRANCH   3  22
BRANCH  21  24
ATOM     24  C27 ZIN A   1      19.533  -4.491   9.671  0.00  0.00     0.010 C 
ATOM     25  C28 ZIN A   1      20.132  -5.128   8.416  0.00  0.00     0.006 C 
ENDBRANCH  21  24
TORSDOF 2
ENDMDL
MODEL 2
REMARK VINA RESULT:      -8.0      4.136      8.778
REMARK  2 active torsions:
REMARK  status: ('A' for Active; 'I' for Inactive)
REMARK    1  A    between atoms: C3_3  and  O4_4 
REMARK    2  A    between atoms: C26_22  and  C27_23 
ROOT
ATOM      1  C1  ZIN A   1      21.819   6.082  15.171  0.00  0.00     0.015 C 
ATOM      2  C2  ZIN A   1      20.694   5.820  15.383  0.00  0.00    -0.078 C 
ATOM      3  C3  ZIN A   1      19.284   5.492  15.649  0.00  0.00     0.128 C 
ATOM      4  C5  ZIN A   1      19.174   4.572  16.890  0.00  0.00     0.052 C 
ATOM      5  C6  ZIN A   1      18.597   3.223  16.385  0.00  0.00     0.010 C 
ATOM      6  C7  ZIN A   1      18.981   3.214  14.901  0.00  0.00     0.003 C 
ATOM      7  C9  ZIN A   1      18.143   2.311  14.020  0.00  0.00    -0.000 C 
ATOM      8  C11 ZIN A   1      18.251   0.851  14.460  0.00  0.00     0.010 C 
ATOM      9  C12 ZIN A   1      17.308   0.006  13.598  0.00  0.00     0.035 C 
ATOM     10  C13 ZIN A   1      17.623   0.243  12.133  0.00  0.00    -0.072 C 
ATOM     11  C14 ZIN A   1      17.749  -0.826  11.347  0.00  0.00     0.053 C 
ATOM     12  C15 ZIN A   1      18.040  -0.661   9.919  0.00  0.00     0.149 C 
ATOM     13  O16 ZIN A   1      18.524  -1.556   9.259  0.00  0.00    -0.293 OA
ATOM     14  C17 ZIN A   1      17.701   0.685   9.311  0.00  0.00     0.084 C 
ATOM     15  C18 ZIN A   1      18.297   1.760  10.221  0.00  0.00     0.017 C 
ATOM     16  C19 ZIN A   1      17.764   1.652  11.639  0.00  0.00     0.023 C 
ATOM     17  C21 ZIN A   1      18.672   2.443  12.582  0.00  0.00     0.026 C 
ATOM     18  C23 ZIN A   1      18.709   3.895  12.176  0.00  0.00    -0.083 C 
ATOM     19  C24 ZIN A   1      18.233   4.268  11.014  0.00  0.00     0.015 C 
ATOM     20  C25 ZIN A   1      19.304   4.922  13.129  0.00  0.00     0.047 C 
ATOM     21  C26 ZIN A   1      18.702   4.686  14.491  0.00  0.00     0.009 C 
ENDROOT
BRANCH   3  22
ATOM     22  O4  ZIN A   1      18.528   6.688  15.849  0.00  0.00    -0.377 OA
ATOM     23  H30 ZIN A   1      17.613   6.534  16.127  0.00  0.00     0.211 HD
ENDBRANCH   3  22
BRANCH  21  24
ATOM     24  C27 ZIN A   1      17.183   4.863  14.427  0.00  0.00     0.010 C 
ATOM     25  C28 ZIN A   1      16.851   6.139  13.651  0.00  0.00     0.006 C 
ENDBRANCH  21  24
TORSDOF 2
ENDMDL
MODEL 3
REMARK VINA RESULT:      -8.0      1.693      3.826
REMARK  2 active torsions:
REMARK  status: ('A' for Active; 'I' for Inactive)
REMARK    1  A    between atoms: C3_3  and  O4_4 
REMARK    2  A    between atoms: C26_22  and  C27_23 
ROOT
ATOM      1  C1  ZIN A   1      21.982  -5.683   7.744  0.00  0.00     0.015 C 
ATOM      2  C2  ZIN A   1      20.838  -5.500   7.557  0.00  0.00    -0.078 C 
ATOM      3  C3  ZIN A   1      19.403  -5.269   7.321  0.00  0.00     0.128 C 
ATOM      4  C5  ZIN A   1      19.201  -4.392   6.062  0.00  0.00     0.052 C 
ATOM      5  C6  ZIN A   1      18.551  -3.070   6.549  0.00  0.00     0.010 C 
ATOM      6  C7  ZIN A   1      18.973  -2.996   8.021  0.00  0.00     0.003 C 
ATOM      7  C9  ZIN A   1      18.101  -2.126   8.902  0.00  0.00    -0.000 C 
ATOM      8  C11 ZIN A   1      18.103  -0.674   8.423  0.00  0.00     0.010 C 
ATOM      9  C12 ZIN A   1      17.130   0.131   9.289  0.00  0.00     0.035 C 
ATOM     10  C13 ZIN A   1      17.497  -0.046  10.751  0.00  0.00    -0.072 C 
ATOM     11  C14 ZIN A   1      17.574   1.049  11.506  0.00  0.00     0.053 C 
ATOM     12  C15 ZIN A   1      17.912   0.941  12.929  0.00  0.00     0.149 C 
ATOM     13  O16 ZIN A   1      18.355   1.883  13.553  0.00  0.00    -0.293 OA
ATOM     14  C17 ZIN A   1      17.679  -0.407  13.580  0.00  0.00     0.084 C 
ATOM     15  C18 ZIN A   1      18.318  -1.465  12.680  0.00  0.00     0.017 C 
ATOM     16  C19 ZIN A   1      17.743  -1.430  11.276  0.00  0.00     0.023 C 
ATOM     17  C21 ZIN A   1      18.675  -2.186  10.328  0.00  0.00     0.026 C 
ATOM     18  C23 ZIN A   1      18.817  -3.621  10.769  0.00  0.00    -0.083 C 
ATOM     19  C24 ZIN A   1      18.397  -3.993  11.952  0.00  0.00     0.015 C 
ATOM     20  C25 ZIN A   1      19.452  -4.633   9.825  0.00  0.00     0.047 C 
ATOM     21  C26 ZIN A   1      18.800  -4.472   8.475  0.00  0.00     0.009 C 
ENDROOT
BRANCH   3  22
ATOM     22  O4  ZIN A   1      18.721  -6.516   7.173  0.00  0.00    -0.377 OA
ATOM     23  H30 ZIN A   1      19.229  -7.281   7.477  0.00  0.00     0.211 HD
ENDBRANCH   3  22
BRANCH  21  24
ATOM     24  C27 ZIN A   1      17.298  -4.745   8.586  0.00  0.00     0.010 C 
ATOM     25  C28 ZIN A   1      17.072  -6.034   9.378  0.00  0.00     0.006 C 
ENDBRANCH  21  24
TORSDOF 2
ENDMDL
MODEL 4
REMARK VINA RESULT:      -7.9      1.316      6.735
REMARK  2 active torsions:
REMARK  status: ('A' for Active; 'I' for Inactive)
REMARK    1  A    between atoms: C3_3  and  O4_4 
REMARK    2  A    between atoms: C26_22  and  C27_23 
ROOT
ATOM      1  C1  ZIN A   1      16.947   3.416  11.181  0.00  0.00     0.015 C 
ATOM      2  C2  ZIN A   1      17.942   2.909  10.819  0.00  0.00    -0.078 C 
ATOM      3  C3  ZIN A   1      19.191   2.273  10.365  0.00  0.00     0.128 C 
ATOM      4  C5  ZIN A   1      19.425   2.567   8.863  0.00  0.00     0.052 C 
ATOM      5  C6  ZIN A   1      19.362   1.199   8.134  0.00  0.00     0.010 C 
ATOM      6  C7  ZIN A   1      18.520   0.338   9.082  0.00  0.00     0.003 C 
ATOM      7  C9  ZIN A   1      18.700  -1.159   8.931  0.00  0.00    -0.000 C 
ATOM      8  C11 ZIN A   1      18.308  -1.625   7.529  0.00  0.00     0.010 C 
ATOM      9  C12 ZIN A   1      18.606  -3.123   7.408  0.00  0.00     0.035 C 
ATOM     10  C13 ZIN A   1      17.907  -3.864   8.533  0.00  0.00    -0.072 C 
ATOM     11  C14 ZIN A   1      17.208  -4.954   8.214  0.00  0.00     0.053 C 
ATOM     12  C15 ZIN A   1      16.521  -5.720   9.259  0.00  0.00     0.149 C 
ATOM     13  O16 ZIN A   1      15.597  -6.462   9.002  0.00  0.00    -0.293 OA
ATOM     14  C17 ZIN A   1      17.027  -5.537  10.676  0.00  0.00     0.084 C 
ATOM     15  C18 ZIN A   1      17.126  -4.034  10.935  0.00  0.00     0.017 C 
ATOM     16  C19 ZIN A   1      18.043  -3.351   9.936  0.00  0.00     0.023 C 
ATOM     17  C21 ZIN A   1      17.788  -1.843   9.963  0.00  0.00     0.026 C 
ATOM     18  C23 ZIN A   1      18.058  -1.292  11.340  0.00  0.00    -0.083 C 
ATOM     19  C24 ZIN A   1      18.208  -2.102  12.358  0.00  0.00     0.015 C 
ATOM     20  C25 ZIN A   1      18.157   0.214  11.535  0.00  0.00     0.047 C 
ATOM     21  C26 ZIN A   1      19.079   0.755  10.471  0.00  0.00     0.009 C 
ENDROOT
BRANCH   3  22
ATOM     22  O4  ZIN A   1      20.294   2.743  11.141  0.00  0.00    -0.377 OA
ATOM     23  H30 ZIN A   1      20.231   3.676  11.392  0.00  0.00     0.211 HD
ENDBRANCH   3  22
BRANCH  21  24
ATOM     24  C27 ZIN A   1      20.466   0.125  10.615  0.00  0.00     0.010 C 
ATOM     25  C28 ZIN A   1      20.935   0.251  12.066  0.00  0.00     0.006 C 
ENDBRANCH  21  24
TORSDOF 2
ENDMDL
MODEL 5
REMARK VINA RESULT:      -7.5      2.839      4.571
REMARK  2 active torsions:
REMARK  status: ('A' for Active; 'I' for Inactive)
REMARK    1  A    between atoms: C3_3  and  O4_4 
REMARK    2  A    between atoms: C26_22  and  C27_23 
ROOT
ATOM      1  C1  ZIN A   1      16.990  -3.524  11.109  0.00  0.00     0.015 C 
ATOM      2  C2  ZIN A   1      18.001  -2.994  11.381  0.00  0.00    -0.078 C 
ATOM      3  C3  ZIN A   1      19.270  -2.329  11.723  0.00  0.00     0.128 C 
ATOM      4  C5  ZIN A   1      19.673  -2.662  13.181  0.00  0.00     0.052 C 
ATOM      5  C6  ZIN A   1      19.645  -1.320  13.960  0.00  0.00     0.010 C 
ATOM      6  C7  ZIN A   1      18.679  -0.460  13.137  0.00  0.00     0.003 C 
ATOM      7  C9  ZIN A   1      18.826   1.036  13.320  0.00  0.00    -0.000 C 
ATOM      8  C11 ZIN A   1      18.572   1.444  14.772  0.00  0.00     0.010 C 
ATOM      9  C12 ZIN A   1      18.833   2.947  14.913  0.00  0.00     0.035 C 
ATOM     10  C13 ZIN A   1      17.995   3.698  13.895  0.00  0.00    -0.072 C 
ATOM     11  C14 ZIN A   1      17.299   4.751  14.324  0.00  0.00     0.053 C 
ATOM     12  C15 ZIN A   1      16.480   5.525  13.385  0.00  0.00     0.149 C 
ATOM     13  O16 ZIN A   1      15.565   6.226  13.764  0.00  0.00    -0.293 OA
ATOM     14  C17 ZIN A   1      16.838   5.405  11.917  0.00  0.00     0.084 C 
ATOM     15  C18 ZIN A   1      16.956   3.915  11.596  0.00  0.00     0.017 C 
ATOM     16  C19 ZIN A   1      17.996   3.234  12.468  0.00  0.00     0.023 C 
ATOM     17  C21 ZIN A   1      17.787   1.720  12.416  0.00  0.00     0.026 C 
ATOM     18  C23 ZIN A   1      17.927   1.223  10.999  0.00  0.00    -0.083 C 
ATOM     19  C24 ZIN A   1      17.941   2.069  10.000  0.00  0.00     0.015 C 
ATOM     20  C25 ZIN A   1      18.052  -0.273  10.742  0.00  0.00     0.047 C 
ATOM     21  C26 ZIN A   1      19.099  -0.813  11.683  0.00  0.00     0.009 C 
ENDROOT
BRANCH   3  22
ATOM     22  O4  ZIN A   1      20.299  -2.735  10.819  0.00  0.00    -0.377 OA
ATOM     23  H30 ZIN A   1      20.088  -3.535  10.316  0.00  0.00     0.211 HD
ENDBRANCH   3  22
BRANCH  21  24
ATOM     24  C27 ZIN A   1      20.443  -0.131  11.416  0.00  0.00     0.010 C 
ATOM     25  C28 ZIN A   1      20.718  -0.121   9.911  0.00  0.00     0.006 C 
ENDBRANCH  21  24
TORSDOF 2
ENDMDL
MODEL 6
REMARK VINA RESULT:      -7.5      2.064      6.300
REMARK  2 active torsions:
REMARK  status: ('A' for Active; 'I' for Inactive)
REMARK    1  A    between atoms: C3_3  and  O4_4 
REMARK    2  A    between atoms: C26_22  and  C27_23 
ROOT
ATOM      1  C1  ZIN A   1      20.456   3.044  11.499  0.00  0.00     0.015 C 
ATOM      2  C2  ZIN A   1      19.755   2.273  12.041  0.00  0.00    -0.078 C 
ATOM      3  C3  ZIN A   1      18.877   1.306  12.722  0.00  0.00     0.128 C 
ATOM      4  C5  ZIN A   1      19.627   0.639  13.900  0.00  0.00     0.052 C 
ATOM      5  C6  ZIN A   1      19.739  -0.869  13.552  0.00  0.00     0.010 C 
ATOM      6  C7  ZIN A   1      19.632  -0.881  12.022  0.00  0.00     0.003 C 
ATOM      7  C9  ZIN A   1      19.191  -2.196  11.414  0.00  0.00    -0.000 C 
ATOM      8  C11 ZIN A   1      20.177  -3.318  11.745  0.00  0.00     0.010 C 
ATOM      9  C12 ZIN A   1      19.627  -4.635  11.190  0.00  0.00     0.035 C 
ATOM     10  C13 ZIN A   1      19.339  -4.471   9.709  0.00  0.00    -0.072 C 
ATOM     11  C14 ZIN A   1      19.785  -5.420   8.884  0.00  0.00     0.053 C 
ATOM     12  C15 ZIN A   1      19.526  -5.325   7.444  0.00  0.00     0.149 C 
ATOM     13  O16 ZIN A   1      20.202  -5.923   6.634  0.00  0.00    -0.293 OA
ATOM     14  C17 ZIN A   1      18.370  -4.440   7.020  0.00  0.00     0.084 C 
ATOM     15  C18 ZIN A   1      18.534  -3.101   7.739  0.00  0.00     0.017 C 
ATOM     16  C19 ZIN A   1      18.565  -3.272   9.247  0.00  0.00     0.023 C 
ATOM     17  C21 ZIN A   1      19.138  -2.007   9.888  0.00  0.00     0.026 C 
ATOM     18  C23 ZIN A   1      18.284  -0.814   9.543  0.00  0.00    -0.083 C 
ATOM     19  C24 ZIN A   1      17.377  -0.900   8.602  0.00  0.00     0.015 C 
ATOM     20  C25 ZIN A   1      18.484   0.491  10.301  0.00  0.00     0.047 C 
ATOM     21  C26 ZIN A   1      18.512   0.167  11.773  0.00  0.00     0.009 C 
ENDROOT
BRANCH   3  22
ATOM     22  O4  ZIN A   1      17.695   1.958  13.190  0.00  0.00    -0.377 OA
ATOM     23  H30 ZIN A   1      17.157   1.417  13.786  0.00  0.00     0.211 HD
ENDBRANCH   3  22
BRANCH  21  24
ATOM     24  C27 ZIN A   1      17.186  -0.472  12.192  0.00  0.00     0.010 C 
ATOM     25  C28 ZIN A   1      16.032   0.240  11.483  0.00  0.00     0.006 C 
ENDBRANCH  21  24
TORSDOF 2
ENDMDL
MODEL 7
REMARK VINA RESULT:      -7.5      2.678      6.257
REMARK  2 active torsions:
REMARK  status: ('A' for Active; 'I' for Inactive)
REMARK    1  A    between atoms: C3_3  and  O4_4 
REMARK    2  A    between atoms: C26_22  and  C27_23 
ROOT
ATOM      1  C1  ZIN A   1      16.627   0.560  12.514  0.00  0.00     0.015 C 
ATOM      2  C2  ZIN A   1      17.621   0.788  11.933  0.00  0.00    -0.078 C 
ATOM      3  C3  ZIN A   1      18.868   1.075  11.204  0.00  0.00     0.128 C 
ATOM      4  C5  ZIN A   1      18.805   2.486  10.569  0.00  0.00     0.052 C 
ATOM      5  C6  ZIN A   1      18.855   2.277   9.032  0.00  0.00     0.010 C 
ATOM      6  C7  ZIN A   1      18.333   0.846   8.859  0.00  0.00     0.003 C 
ATOM      7  C9  ZIN A   1      18.734   0.162   7.568  0.00  0.00    -0.000 C 
ATOM      8  C11 ZIN A   1      18.205   0.921   6.351  0.00  0.00     0.010 C 
ATOM      9  C12 ZIN A   1      18.725   0.240   5.081  0.00  0.00     0.035 C 
ATOM     10  C13 ZIN A   1      18.351  -1.230   5.114  0.00  0.00    -0.072 C 
ATOM     11  C14 ZIN A   1      17.802  -1.753   4.017  0.00  0.00     0.053 C 
ATOM     12  C15 ZIN A   1      17.431  -3.171   3.983  0.00  0.00     0.149 C 
ATOM     13  O16 ZIN A   1      16.615  -3.598   3.194  0.00  0.00    -0.293 OA
ATOM     14  C17 ZIN A   1      18.122  -4.076   4.984  0.00  0.00     0.084 C 
ATOM     15  C18 ZIN A   1      18.008  -3.410   6.356  0.00  0.00     0.017 C 
ATOM     16  C19 ZIN A   1      18.624  -2.022   6.359  0.00  0.00     0.023 C 
ATOM     17  C21 ZIN A   1      18.128  -1.251   7.583  0.00  0.00     0.026 C 
ATOM     18  C23 ZIN A   1      18.521  -1.970   8.848  0.00  0.00    -0.083 C 
ATOM     19  C24 ZIN A   1      18.967  -3.201   8.797  0.00  0.00     0.015 C 
ATOM     20  C25 ZIN A   1      18.397  -1.252  10.185  0.00  0.00     0.047 C 
ATOM     21  C26 ZIN A   1      19.031   0.108  10.034  0.00  0.00     0.009 C 
ENDROOT
BRANCH   3  22
ATOM     22  O4  ZIN A   1      19.988   0.978  12.085  0.00  0.00    -0.377 OA
ATOM     23  H30 ZIN A   1      20.799   1.378  11.739  0.00  0.00     0.211 HD
ENDBRANCH   3  22
BRANCH  21  24
ATOM     24  C27 ZIN A   1      20.509  -0.044   9.668  0.00  0.00     0.010 C 
ATOM     25  C28 ZIN A   1      21.214  -0.885  10.733  0.00  0.00     0.006 C 
ENDBRANCH  21  24
TORSDOF 2
ENDMDL
MODEL 8
REMARK VINA RESULT:      -7.4      4.794      9.601
REMARK  2 active torsions:
REMARK  status: ('A' for Active; 'I' for Inactive)
REMARK    1  A    between atoms: C3_3  and  O4_4 
REMARK    2  A    between atoms: C26_22  and  C27_23 
ROOT
ATOM      1  C1  ZIN A   1      15.868   6.238  17.491  0.00  0.00     0.015 C 
ATOM      2  C2  ZIN A   1      16.703   6.412  16.684  0.00  0.00    -0.078 C 
ATOM      3  C3  ZIN A   1      17.750   6.632  15.672  0.00  0.00     0.128 C 
ATOM      4  C5  ZIN A   1      17.180   7.436  14.479  0.00  0.00     0.052 C 
ATOM      5  C6  ZIN A   1      17.255   6.500  13.243  0.00  0.00     0.010 C 
ATOM      6  C7  ZIN A   1      17.260   5.100  13.868  0.00  0.00     0.003 C 
ATOM      7  C9  ZIN A   1      17.836   4.003  12.997  0.00  0.00    -0.000 C 
ATOM      8  C11 ZIN A   1      17.040   3.849  11.701  0.00  0.00     0.010 C 
ATOM      9  C12 ZIN A   1      17.728   2.799  10.823  0.00  0.00     0.035 C 
ATOM     10  C13 ZIN A   1      17.891   1.515  11.614  0.00  0.00    -0.072 C 
ATOM     11  C14 ZIN A   1      17.527   0.376  11.025  0.00  0.00     0.053 C 
ATOM     12  C15 ZIN A   1      17.672  -0.900  11.734  0.00  0.00     0.149 C 
ATOM     13  O16 ZIN A   1      17.033  -1.881  11.419  0.00  0.00    -0.293 OA
ATOM     14  C17 ZIN A   1      18.663  -0.928  12.880  0.00  0.00     0.084 C 
ATOM     15  C18 ZIN A   1      18.365   0.278  13.772  0.00  0.00     0.017 C 
ATOM     16  C19 ZIN A   1      18.459   1.583  13.001  0.00  0.00     0.023 C 
ATOM     17  C21 ZIN A   1      17.761   2.690  13.793  0.00  0.00     0.026 C 
ATOM     18  C23 ZIN A   1      18.416   2.861  15.140  0.00  0.00    -0.083 C 
ATOM     19  C24 ZIN A   1      19.261   1.964  15.583  0.00  0.00     0.015 C 
ATOM     20  C25 ZIN A   1      18.089   4.089  15.979  0.00  0.00     0.047 C 
ATOM     21  C26 ZIN A   1      18.205   5.298  15.086  0.00  0.00     0.009 C 
ENDROOT
BRANCH   3  22
ATOM     22  O4  ZIN A   1      18.859   7.321  16.252  0.00  0.00    -0.377 OA
ATOM     23  H30 ZIN A   1      19.276   6.849  16.986  0.00  0.00     0.211 HD
ENDBRANCH   3  22
BRANCH  21  24
ATOM     24  C27 ZIN A   1      19.632   5.411  14.544  0.00  0.00     0.010 C 
ATOM     25  C28 ZIN A   1      20.622   5.383  15.710  0.00  0.00     0.006 C 
ENDBRANCH  21  24
TORSDOF 2
ENDMDL
MODEL 9
REMARK VINA RESULT:      -7.1      2.283      6.608
REMARK  2 active torsions:
REMARK  status: ('A' for Active; 'I' for Inactive)
REMARK    1  A    between atoms: C3_3  and  O4_4 
REMARK    2  A    between atoms: C26_22  and  C27_23 
ROOT
ATOM      1  C1  ZIN A   1      16.695  -0.013  11.844  0.00  0.00     0.015 C 
ATOM      2  C2  ZIN A   1      17.703  -0.472  11.453  0.00  0.00    -0.078 C 
ATOM      3  C3  ZIN A   1      18.966  -1.047  10.962  0.00  0.00     0.128 C 
ATOM      4  C5  ZIN A   1      19.512  -0.209   9.780  0.00  0.00     0.052 C 
ATOM      5  C6  ZIN A   1      19.495  -1.139   8.538  0.00  0.00     0.010 C 
ATOM      6  C7  ZIN A   1      18.423  -2.175   8.895  0.00  0.00     0.003 C 
ATOM      7  C9  ZIN A   1      18.520  -3.491   8.151  0.00  0.00    -0.000 C 
ATOM      8  C11 ZIN A   1      18.379  -3.286   6.642  0.00  0.00     0.010 C 
ATOM      9  C12 ZIN A   1      18.585  -4.633   5.942  0.00  0.00     0.035 C 
ATOM     10  C13 ZIN A   1      17.627  -5.653   6.528  0.00  0.00    -0.072 C 
ATOM     11  C14 ZIN A   1      16.927  -6.404   5.677  0.00  0.00     0.053 C 
ATOM     12  C15 ZIN A   1      15.994  -7.416   6.183  0.00  0.00     0.149 C 
ATOM     13  O16 ZIN A   1      15.086  -7.844   5.501  0.00  0.00    -0.293 OA
ATOM     14  C17 ZIN A   1      16.223  -7.899   7.601  0.00  0.00     0.084 C 
ATOM     15  C18 ZIN A   1      16.378  -6.662   8.486  0.00  0.00     0.017 C 
ATOM     16  C19 ZIN A   1      17.520  -5.778   8.019  0.00  0.00     0.023 C 
ATOM     17  C21 ZIN A   1      17.375  -4.390   8.646  0.00  0.00     0.026 C 
ATOM     18  C23 ZIN A   1      17.408  -4.490  10.150  0.00  0.00    -0.083 C 
ATOM     19  C24 ZIN A   1      17.295  -5.656  10.737  0.00  0.00     0.015 C 
ATOM     20  C25 ZIN A   1      17.576  -3.225  10.979  0.00  0.00     0.047 C 
ATOM     21  C26 ZIN A   1      18.726  -2.444  10.395  0.00  0.00     0.009 C 
ENDROOT
BRANCH   3  22
ATOM     22  O4  ZIN A   1      19.927  -1.101  12.018  0.00  0.00    -0.377 OA
ATOM     23  H30 ZIN A   1      20.600  -1.786  11.904  0.00  0.00     0.211 HD
ENDBRANCH   3  22
BRANCH  21  24
ATOM     24  C27 ZIN A   1      20.009  -3.276  10.462  0.00  0.00     0.010 C 
ATOM     25  C28 ZIN A   1      20.148  -3.885  11.858  0.00  0.00     0.006 C 
ENDBRANCH  21  24
TORSDOF 2
ENDMDL
