MODEL 1
REMARK VINA RESULT:      -8.5      0.000      0.000
REMARK  6 active torsions:
REMARK  status: ('A' for Active; 'I' for Inactive)
REMARK    1  A    between atoms: C4_4  and  C5_5 
REMARK    2  A    between atoms: C4_4  and  C11_11 
REMARK    3  A    between atoms: N19_19  and  C20_20 
REMARK    4  A    between atoms: C20_20  and  O21_21 
REMARK    5  A    between atoms: O21_21  and  P22_22 
REMARK    6  A    between atoms: P22_22  and  O25_25 
ROOT
ATOM      1  O1  <0> d   1      20.268   2.006  11.229  0.00  0.00    -0.247 OA
ATOM      2  C2  <0> d   1      19.468   1.185  11.631  0.00  0.00     0.328 A 
ATOM      3  N3  <0> d   1      19.791   0.157  12.436  0.00  0.00    -0.316 N 
ATOM      4  C4  <0> d   1      18.546  -0.591  12.685  0.00  0.00     0.171 A 
ATOM      5  C17 <0> d   1      17.504   0.180  11.899  0.00  0.00     0.267 A 
ATOM      6  O18 <0> d   1      16.321  -0.070  11.809  0.00  0.00    -0.269 OA
ATOM      7  N19 <0> d   1      18.165   1.206  11.327  0.00  0.00    -0.244 N 
ATOM      8  H26 <0> d   1      20.672  -0.053  12.784  0.00  0.00     0.166 HD
ENDROOT
BRANCH   4   9
ATOM      9  C5  <0> d   1      18.663  -2.001  12.168  0.00  0.00    -0.016 A 
ATOM     10  C10 <0> d   1      19.908  -2.539  11.900  0.00  0.00     0.010 A 
ATOM     11  C9  <0> d   1      20.015  -3.835  11.431  0.00  0.00     0.001 A 
ATOM     12  C8  <0> d   1      18.877  -4.591  11.220  0.00  0.00     0.000 A 
ATOM     13  C7  <0> d   1      17.631  -4.051  11.483  0.00  0.00     0.001 A 
ATOM     14  C6  <0> d   1      17.525  -2.757  11.958  0.00  0.00     0.010 A 
ENDBRANCH   4   9
BRANCH   4  15
ATOM     15  C11 <0> d   1      18.214  -0.592  14.154  0.00  0.00    -0.016 A 
ATOM     16  C16 <0> d   1      17.443   0.422  14.690  0.00  0.00     0.010 A 
ATOM     17  C15 <0> d   1      17.133   0.419  16.037  0.00  0.00     0.001 A 
ATOM     18  C14 <0> d   1      17.602  -0.596  16.851  0.00  0.00     0.000 A 
ATOM     19  C13 <0> d   1      18.377  -1.608  16.316  0.00  0.00     0.001 A 
ATOM     20  C12 <0> d   1      18.683  -1.606  14.968  0.00  0.00     0.010 A 
ENDBRANCH   4  15
BRANCH   7  21
ATOM     21  C20 <0> d   1      17.536   2.214  10.470  0.00  0.00     0.320 C 
BRANCH  21  22
ATOM     22  O21 <0> d   1      16.913   3.209  11.284  0.00  0.00    -0.270 OA
BRANCH  22  23
ATOM     23  P22 <0> d   1      17.447   4.726  11.379  0.00  0.00     0.407 P 
ATOM     24  O23 <0> d   1      17.378   5.383   9.983  0.00  0.00    -0.624 OA
ATOM     25  O24 <0> d   1      16.564   5.521  12.367  0.00  0.00    -0.624 OA
BRANCH  23  26
ATOM     26  O25 <0> d   1      18.970   4.727  11.898  0.00  0.00    -0.300 OA
ATOM     27  H39 <0> d   1      19.414   3.871  11.815  0.00  0.00     0.223 HD
ENDBRANCH  23  26
ENDBRANCH  22  23
ENDBRANCH  21  22
ENDBRANCH   7  21
TORSDOF 6
ENDMDL
MODEL 2
REMARK VINA RESULT:      -8.4      3.284      6.810
REMARK  6 active torsions:
REMARK  status: ('A' for Active; 'I' for Inactive)
REMARK    1  A    between atoms: C4_4  and  C5_5 
REMARK    2  A    between atoms: C4_4  and  C11_11 
REMARK    3  A    between atoms: N19_19  and  C20_20 
REMARK    4  A    between atoms: C20_20  and  O21_21 
REMARK    5  A    between atoms: O21_21  and  P22_22 
REMARK    6  A    between atoms: P22_22  and  O25_25 
ROOT
ATOM      1  O1  <0> d   1      21.167   0.324  12.494  0.00  0.00    -0.247 OA
ATOM      2  C2  <0> d   1      20.121   0.615  11.948  0.00  0.00     0.328 A 
ATOM      3  N3  <0> d   1      20.018   1.530  10.967  0.00  0.00    -0.316 N 
ATOM      4  C4  <0> d   1      18.597   1.582  10.586  0.00  0.00     0.171 A 
ATOM      5  C17 <0> d   1      17.944   0.566  11.503  0.00  0.00     0.267 A 
ATOM      6  O18 <0> d   1      16.770   0.267  11.546  0.00  0.00    -0.269 OA
ATOM      7  N19 <0> d   1      18.943   0.060  12.253  0.00  0.00    -0.244 N 
ATOM      8  H26 <0> d   1      20.740   2.053  10.584  0.00  0.00     0.166 HD
ENDROOT
BRANCH   4   9
ATOM      9  C5  <0> d   1      18.032   2.957  10.832  0.00  0.00    -0.016 A 
ATOM     10  C10 <0> d   1      17.971   3.875   9.801  0.00  0.00     0.010 A 
ATOM     11  C9  <0> d   1      17.449   5.135  10.026  0.00  0.00     0.001 A 
ATOM     12  C8  <0> d   1      16.997   5.481  11.285  0.00  0.00     0.000 A 
ATOM     13  C7  <0> d   1      17.063   4.565  12.319  0.00  0.00     0.001 A 
ATOM     14  C6  <0> d   1      17.580   3.303  12.092  0.00  0.00     0.010 A 
ENDBRANCH   4   9
BRANCH   4  15
ATOM     15  C11 <0> d   1      18.419   1.190   9.142  0.00  0.00    -0.016 A 
ATOM     16  C16 <0> d   1      17.445   0.276   8.789  0.00  0.00     0.010 A 
ATOM     17  C15 <0> d   1      17.278  -0.081   7.463  0.00  0.00     0.001 A 
ATOM     18  C14 <0> d   1      18.092   0.471   6.492  0.00  0.00     0.000 A 
ATOM     19  C13 <0> d   1      19.071   1.381   6.846  0.00  0.00     0.001 A 
ATOM     20  C12 <0> d   1      19.234   1.740   8.171  0.00  0.00     0.010 A 
ENDBRANCH   4  15
BRANCH   7  21
ATOM     21  C20 <0> d   1      18.758  -0.966  13.283  0.00  0.00     0.320 C 
BRANCH  21  22
ATOM     22  O21 <0> d   1      19.285  -2.209  12.816  0.00  0.00    -0.270 OA
BRANCH  22  23
ATOM     23  P22 <0> d   1      18.647  -3.025  11.582  0.00  0.00     0.407 P 
ATOM     24  O23 <0> d   1      19.299  -2.555  10.263  0.00  0.00    -0.624 OA
ATOM     25  O24 <0> d   1      18.908  -4.536  11.775  0.00  0.00    -0.624 OA
BRANCH  23  26
ATOM     26  O25 <0> d   1      17.062  -2.756  11.522  0.00  0.00    -0.300 OA
ATOM     27  H39 <0> d   1      16.646  -2.663  12.392  0.00  0.00     0.223 HD
ENDBRANCH  23  26
ENDBRANCH  22  23
ENDBRANCH  21  22
ENDBRANCH   7  21
TORSDOF 6
ENDMDL
MODEL 3
REMARK VINA RESULT:      -8.4      3.971      6.342
REMARK  6 active torsions:
REMARK  status: ('A' for Active; 'I' for Inactive)
REMARK    1  A    between atoms: C4_4  and  C5_5 
REMARK    2  A    between atoms: C4_4  and  C11_11 
REMARK    3  A    between atoms: N19_19  and  C20_20 
REMARK    4  A    between atoms: C20_20  and  O21_21 
REMARK    5  A    between atoms: O21_21  and  P22_22 
REMARK    6  A    between atoms: P22_22  and  O25_25 
ROOT
ATOM      1  O1  <0> d   1      16.824  -1.970  11.984  0.00  0.00    -0.247 OA
ATOM      2  C2  <0> d   1      17.567  -1.219  11.383  0.00  0.00     0.328 A 
ATOM      3  N3  <0> d   1      17.151  -0.124  10.722  0.00  0.00    -0.316 N 
ATOM      4  C4  <0> d   1      18.351   0.498  10.138  0.00  0.00     0.171 A 
ATOM      5  C17 <0> d   1      19.477  -0.418  10.576  0.00  0.00     0.267 A 
ATOM      6  O18 <0> d   1      20.657  -0.299  10.327  0.00  0.00    -0.269 OA
ATOM      7  N19 <0> d   1      18.892  -1.388  11.308  0.00  0.00    -0.244 N 
ATOM      8  H26 <0> d   1      16.237   0.194  10.645  0.00  0.00     0.166 HD
ENDROOT
BRANCH   4   9
ATOM      9  C5  <0> d   1      18.252   0.533   8.635  0.00  0.00    -0.016 A 
ATOM     10  C10 <0> d   1      19.152   1.282   7.900  0.00  0.00     0.010 A 
ATOM     11  C9  <0> d   1      19.064   1.310   6.521  0.00  0.00     0.001 A 
ATOM     12  C8  <0> d   1      18.069   0.598   5.876  0.00  0.00     0.000 A 
ATOM     13  C7  <0> d   1      17.165  -0.146   6.612  0.00  0.00     0.001 A 
ATOM     14  C6  <0> d   1      17.257  -0.179   7.991  0.00  0.00     0.010 A 
ENDBRANCH   4   9
BRANCH   4  15
ATOM     15  C11 <0> d   1      18.549   1.887  10.687  0.00  0.00    -0.016 A 
ATOM     16  C16 <0> d   1      17.607   2.868  10.441  0.00  0.00     0.010 A 
ATOM     17  C15 <0> d   1      17.785   4.142  10.948  0.00  0.00     0.001 A 
ATOM     18  C14 <0> d   1      18.911   4.437  11.694  0.00  0.00     0.000 A 
ATOM     19  C13 <0> d   1      19.856   3.457  11.936  0.00  0.00     0.001 A 
ATOM     20  C12 <0> d   1      19.674   2.182  11.433  0.00  0.00     0.010 A 
ENDBRANCH   4  15
BRANCH   7  21
ATOM     21  C20 <0> d   1      19.618  -2.496  11.934  0.00  0.00     0.320 C 
BRANCH  21  22
ATOM     22  O21 <0> d   1      20.089  -3.389  10.923  0.00  0.00    -0.270 OA
BRANCH  22  23
ATOM     23  P22 <0> d   1      19.109  -4.322  10.049  0.00  0.00     0.407 P 
ATOM     24  O23 <0> d   1      18.628  -3.540   8.806  0.00  0.00    -0.624 OA
ATOM     25  O24 <0> d   1      19.871  -5.588   9.599  0.00  0.00    -0.624 OA
BRANCH  23  26
ATOM     26  O25 <0> d   1      17.838  -4.747  10.940  0.00  0.00    -0.300 OA
ATOM     27  H39 <0> d   1      17.898  -5.640  11.309  0.00  0.00     0.223 HD
ENDBRANCH  23  26
ENDBRANCH  22  23
ENDBRANCH  21  22
ENDBRANCH   7  21
TORSDOF 6
ENDMDL
MODEL 4
REMARK VINA RESULT:      -8.2      3.414      6.538
REMARK  6 active torsions:
REMARK  status: ('A' for Active; 'I' for Inactive)
REMARK    1  A    between atoms: C4_4  and  C5_5 
REMARK    2  A    between atoms: C4_4  and  C11_11 
REMARK    3  A    between atoms: N19_19  and  C20_20 
REMARK    4  A    between atoms: C20_20  and  O21_21 
REMARK    5  A    between atoms: O21_21  and  P22_22 
REMARK    6  A    between atoms: P22_22  and  O25_25 
ROOT
ATOM      1  O1  <0> d   1      20.897  -1.643  11.462  0.00  0.00    -0.247 OA
ATOM      2  C2  <0> d   1      19.993  -0.931  11.073  0.00  0.00     0.328 A 
ATOM      3  N3  <0> d   1      20.173   0.139  10.278  0.00  0.00    -0.316 N 
ATOM      4  C4  <0> d   1      18.839   0.719  10.044  0.00  0.00     0.171 A 
ATOM      5  C17 <0> d   1      17.912  -0.190  10.827  0.00  0.00     0.267 A 
ATOM      6  O18 <0> d   1      16.707  -0.099  10.925  0.00  0.00    -0.269 OA
ATOM      7  N19 <0> d   1      18.706  -1.126  11.384  0.00  0.00    -0.244 N 
ATOM      8  H26 <0> d   1      21.016   0.466   9.928  0.00  0.00     0.166 HD
ENDROOT
BRANCH   4   9
ATOM      9  C5  <0> d   1      18.773   2.127  10.575  0.00  0.00    -0.016 A 
ATOM     10  C10 <0> d   1      17.769   2.979  10.154  0.00  0.00     0.010 A 
ATOM     11  C9  <0> d   1      17.705   4.270  10.645  0.00  0.00     0.001 A 
ATOM     12  C8  <0> d   1      18.651   4.712  11.551  0.00  0.00     0.000 A 
ATOM     13  C7  <0> d   1      19.658   3.862  11.968  0.00  0.00     0.001 A 
ATOM     14  C6  <0> d   1      19.718   2.570  11.481  0.00  0.00     0.010 A 
ENDBRANCH   4   9
BRANCH   4  15
ATOM     15  C11 <0> d   1      18.499   0.692   8.577  0.00  0.00    -0.016 A 
ATOM     16  C16 <0> d   1      17.423  -0.052   8.130  0.00  0.00     0.010 A 
ATOM     17  C15 <0> d   1      17.108  -0.073   6.784  0.00  0.00     0.001 A 
ATOM     18  C14 <0> d   1      17.875   0.643   5.883  0.00  0.00     0.000 A 
ATOM     19  C13 <0> d   1      18.954   1.382   6.329  0.00  0.00     0.001 A 
ATOM     20  C12 <0> d   1      19.266   1.407   7.676  0.00  0.00     0.010 A 
ENDBRANCH   4  15
BRANCH   7  21
ATOM     21  C20 <0> d   1      18.221  -2.217  12.233  0.00  0.00     0.320 C 
BRANCH  21  22
ATOM     22  O21 <0> d   1      17.771  -1.685  13.481  0.00  0.00    -0.270 OA
BRANCH  22  23
ATOM     23  P22 <0> d   1      18.769  -1.055  14.577  0.00  0.00     0.407 P 
ATOM     24  O23 <0> d   1      18.833   0.477  14.393  0.00  0.00    -0.624 OA
ATOM     25  O24 <0> d   1      18.247  -1.382  15.995  0.00  0.00    -0.624 OA
BRANCH  23  26
ATOM     26  O25 <0> d   1      20.239  -1.681  14.387  0.00  0.00    -0.300 OA
ATOM     27  H39 <0> d   1      20.306  -2.311  13.656  0.00  0.00     0.223 HD
ENDBRANCH  23  26
ENDBRANCH  22  23
ENDBRANCH  21  22
ENDBRANCH   7  21
TORSDOF 6
ENDMDL
MODEL 5
REMARK VINA RESULT:      -8.1      3.475      5.848
REMARK  6 active torsions:
REMARK  status: ('A' for Active; 'I' for Inactive)
REMARK    1  A    between atoms: C4_4  and  C5_5 
REMARK    2  A    between atoms: C4_4  and  C11_11 
REMARK    3  A    between atoms: N19_19  and  C20_20 
REMARK    4  A    between atoms: C20_20  and  O21_21 
REMARK    5  A    between atoms: O21_21  and  P22_22 
REMARK    6  A    between atoms: P22_22  and  O25_25 
ROOT
ATOM      1  O1  <0> d   1      20.635  -3.595  11.386  0.00  0.00    -0.247 OA
ATOM      2  C2  <0> d   1      19.828  -2.743  11.703  0.00  0.00     0.328 A 
ATOM      3  N3  <0> d   1      20.148  -1.620  12.370  0.00  0.00    -0.316 N 
ATOM      4  C4  <0> d   1      18.895  -0.867  12.553  0.00  0.00     0.171 A 
ATOM      5  C17 <0> d   1      17.852  -1.745  11.891  0.00  0.00     0.267 A 
ATOM      6  O18 <0> d   1      16.663  -1.525  11.796  0.00  0.00    -0.269 OA
ATOM      7  N19 <0> d   1      18.522  -2.817  11.423  0.00  0.00    -0.244 N 
ATOM      8  H26 <0> d   1      21.032  -1.357  12.672  0.00  0.00     0.166 HD
ENDROOT
BRANCH   4   9
ATOM      9  C5  <0> d   1      18.590  -0.696  14.019  0.00  0.00    -0.016 A 
ATOM     10  C10 <0> d   1      17.638   0.220  14.425  0.00  0.00     0.010 A 
ATOM     11  C9  <0> d   1      17.354   0.374  15.769  0.00  0.00     0.001 A 
ATOM     12  C8  <0> d   1      18.031  -0.381  16.709  0.00  0.00     0.000 A 
ATOM     13  C7  <0> d   1      18.988  -1.293  16.304  0.00  0.00     0.001 A 
ATOM     14  C6  <0> d   1      19.267  -1.451  14.959  0.00  0.00     0.010 A 
ENDBRANCH   4   9
BRANCH   4  15
ATOM     15  C11 <0> d   1      18.977   0.473  11.871  0.00  0.00    -0.016 A 
ATOM     16  C16 <0> d   1      19.928   1.394  12.268  0.00  0.00     0.010 A 
ATOM     17  C15 <0> d   1      20.007   2.623  11.639  0.00  0.00     0.001 A 
ATOM     18  C14 <0> d   1      19.128   2.934  10.618  0.00  0.00     0.000 A 
ATOM     19  C13 <0> d   1      18.173   2.015  10.224  0.00  0.00     0.001 A 
ATOM     20  C12 <0> d   1      18.098   0.785  10.851  0.00  0.00     0.010 A 
ENDBRANCH   4  15
BRANCH   7  21
ATOM     21  C20 <0> d   1      17.895  -3.928  10.704  0.00  0.00     0.320 C 
BRANCH  21  22
ATOM     22  O21 <0> d   1      17.613  -3.529   9.361  0.00  0.00    -0.270 OA
BRANCH  22  23
ATOM     23  P22 <0> d   1      18.741  -3.448   8.214  0.00  0.00     0.407 P 
ATOM     24  O23 <0> d   1      18.135  -3.894   6.865  0.00  0.00    -0.624 OA
ATOM     25  O24 <0> d   1      19.249  -1.994   8.095  0.00  0.00    -0.624 OA
BRANCH  23  26
ATOM     26  O25 <0> d   1      19.967  -4.417   8.598  0.00  0.00    -0.300 OA
ATOM     27  H39 <0> d   1      19.708  -5.193   9.114  0.00  0.00     0.223 HD
ENDBRANCH  23  26
ENDBRANCH  22  23
ENDBRANCH  21  22
ENDBRANCH   7  21
TORSDOF 6
ENDMDL
MODEL 6
REMARK VINA RESULT:      -8.0      1.156      4.081
REMARK  6 active torsions:
REMARK  status: ('A' for Active; 'I' for Inactive)
REMARK    1  A    between atoms: C4_4  and  C5_5 
REMARK    2  A    between atoms: C4_4  and  C11_11 
REMARK    3  A    between atoms: N19_19  and  C20_20 
REMARK    4  A    between atoms: C20_20  and  O21_21 
REMARK    5  A    between atoms: O21_21  and  P22_22 
REMARK    6  A    between atoms: P22_22  and  O25_25 
ROOT
ATOM      1  O1  <0> d   1      16.865   1.832  10.847  0.00  0.00    -0.247 OA
ATOM      2  C2  <0> d   1      17.614   1.096  11.459  0.00  0.00     0.328 A 
ATOM      3  N3  <0> d   1      17.207   0.006  12.132  0.00  0.00    -0.316 N 
ATOM      4  C4  <0> d   1      18.412  -0.598  12.725  0.00  0.00     0.171 A 
ATOM      5  C17 <0> d   1      19.530   0.323  12.277  0.00  0.00     0.267 A 
ATOM      6  O18 <0> d   1      20.711   0.218  12.529  0.00  0.00    -0.269 OA
ATOM      7  N19 <0> d   1      18.937   1.279  11.533  0.00  0.00    -0.244 N 
ATOM      8  H26 <0> d   1      16.296  -0.320  12.212  0.00  0.00     0.166 HD
ENDROOT
BRANCH   4   9
ATOM      9  C5  <0> d   1      18.311  -0.616  14.229  0.00  0.00    -0.016 A 
ATOM     10  C10 <0> d   1      19.089  -1.490  14.964  0.00  0.00     0.010 A 
ATOM     11  C9  <0> d   1      19.000  -1.503  16.343  0.00  0.00     0.001 A 
ATOM     12  C8  <0> d   1      18.126  -0.648  16.988  0.00  0.00     0.000 A 
ATOM     13  C7  <0> d   1      17.343   0.223  16.252  0.00  0.00     0.001 A 
ATOM     14  C6  <0> d   1      17.436   0.239  14.873  0.00  0.00     0.010 A 
ENDBRANCH   4   9
BRANCH   4  15
ATOM     15  C11 <0> d   1      18.623  -1.992  12.194  0.00  0.00    -0.016 A 
ATOM     16  C16 <0> d   1      19.904  -2.452  11.951  0.00  0.00     0.010 A 
ATOM     17  C15 <0> d   1      20.098  -3.733  11.469  0.00  0.00     0.001 A 
ATOM     18  C14 <0> d   1      19.012  -4.551  11.221  0.00  0.00     0.000 A 
ATOM     19  C13 <0> d   1      17.731  -4.088  11.459  0.00  0.00     0.001 A 
ATOM     20  C12 <0> d   1      17.537  -2.809  11.946  0.00  0.00     0.010 A 
ENDBRANCH   4  15
BRANCH   7  21
ATOM     21  C20 <0> d   1      19.653   2.385  10.894  0.00  0.00     0.320 C 
BRANCH  21  22
ATOM     22  O21 <0> d   1      20.137   3.281  11.896  0.00  0.00    -0.270 OA
BRANCH  22  23
ATOM     23  P22 <0> d   1      19.179   4.290  12.708  0.00  0.00     0.407 P 
ATOM     24  O23 <0> d   1      20.023   5.448  13.285  0.00  0.00    -0.624 OA
ATOM     25  O24 <0> d   1      18.107   4.861  11.752  0.00  0.00    -0.624 OA
BRANCH  23  26
ATOM     26  O25 <0> d   1      18.460   3.498  13.910  0.00  0.00    -0.300 OA
ATOM     27  H39 <0> d   1      17.540   3.757  14.057  0.00  0.00     0.223 HD
ENDBRANCH  23  26
ENDBRANCH  22  23
ENDBRANCH  21  22
ENDBRANCH   7  21
TORSDOF 6
ENDMDL
MODEL 7
REMARK VINA RESULT:      -7.9      2.590      4.226
REMARK  6 active torsions:
REMARK  status: ('A' for Active; 'I' for Inactive)
REMARK    1  A    between atoms: C4_4  and  C5_5 
REMARK    2  A    between atoms: C4_4  and  C11_11 
REMARK    3  A    between atoms: N19_19  and  C20_20 
REMARK    4  A    between atoms: C20_20  and  O21_21 
REMARK    5  A    between atoms: O21_21  and  P22_22 
REMARK    6  A    between atoms: P22_22  and  O25_25 
ROOT
ATOM      1  O1  <0> d   1      20.470   3.612  11.776  0.00  0.00    -0.247 OA
ATOM      2  C2  <0> d   1      19.712   2.726  11.432  0.00  0.00     0.328 A 
ATOM      3  N3  <0> d   1      20.090   1.657  10.708  0.00  0.00    -0.316 N 
ATOM      4  C4  <0> d   1      18.885   0.836  10.508  0.00  0.00     0.171 A 
ATOM      5  C17 <0> d   1      17.799   1.614  11.226  0.00  0.00     0.267 A 
ATOM      6  O18 <0> d   1      16.629   1.315  11.328  0.00  0.00    -0.269 OA
ATOM      7  N19 <0> d   1      18.409   2.704  11.734  0.00  0.00    -0.244 N 
ATOM      8  H26 <0> d   1      20.983   1.465  10.381  0.00  0.00     0.166 HD
ENDROOT
BRANCH   4   9
ATOM      9  C5  <0> d   1      18.565   0.712   9.041  0.00  0.00    -0.016 A 
ATOM     10  C10 <0> d   1      17.527  -0.100   8.625  0.00  0.00     0.010 A 
ATOM     11  C9  <0> d   1      17.231  -0.210   7.279  0.00  0.00     0.001 A 
ATOM     12  C8  <0> d   1      17.979   0.485   6.348  0.00  0.00     0.000 A 
ATOM     13  C7  <0> d   1      19.021   1.294   6.763  0.00  0.00     0.001 A 
ATOM     14  C6  <0> d   1      19.313   1.408   8.109  0.00  0.00     0.010 A 
ENDBRANCH   4   9
BRANCH   4  15
ATOM     15  C11 <0> d   1      19.062  -0.527  11.126  0.00  0.00    -0.016 A 
ATOM     16  C16 <0> d   1      18.362  -0.864  12.269  0.00  0.00     0.010 A 
ATOM     17  C15 <0> d   1      18.521  -2.116  12.834  0.00  0.00     0.001 A 
ATOM     18  C14 <0> d   1      19.387  -3.028  12.260  0.00  0.00     0.000 A 
ATOM     19  C13 <0> d   1      20.092  -2.689  11.120  0.00  0.00     0.001 A 
ATOM     20  C12 <0> d   1      19.929  -1.438  10.553  0.00  0.00     0.010 A 
ENDBRANCH   4  15
BRANCH   7  21
ATOM     21  C20 <0> d   1      17.727   3.739  12.513  0.00  0.00     0.320 C 
BRANCH  21  22
ATOM     22  O21 <0> d   1      17.800   3.416  13.903  0.00  0.00    -0.270 OA
BRANCH  22  23
ATOM     23  P22 <0> d   1      18.524   4.363  14.987  0.00  0.00     0.407 P 
ATOM     24  O23 <0> d   1      17.749   5.693  15.107  0.00  0.00    -0.624 OA
ATOM     25  O24 <0> d   1      18.542   3.652  16.359  0.00  0.00    -0.624 OA
BRANCH  23  26
ATOM     26  O25 <0> d   1      20.033   4.661  14.516  0.00  0.00    -0.300 OA
ATOM     27  H39 <0> d   1      20.699   4.121  14.964  0.00  0.00     0.223 HD
ENDBRANCH  23  26
ENDBRANCH  22  23
ENDBRANCH  21  22
ENDBRANCH   7  21
TORSDOF 6
ENDMDL
MODEL 8
REMARK VINA RESULT:      -7.8      3.600      5.655
REMARK  6 active torsions:
REMARK  status: ('A' for Active; 'I' for Inactive)
REMARK    1  A    between atoms: C4_4  and  C5_5 
REMARK    2  A    between atoms: C4_4  and  C11_11 
REMARK    3  A    between atoms: N19_19  and  C20_20 
REMARK    4  A    between atoms: C20_20  and  O21_21 
REMARK    5  A    between atoms: O21_21  and  P22_22 
REMARK    6  A    between atoms: P22_22  and  O25_25 
ROOT
ATOM      1  O1  <0> d   1      16.627  -1.752  11.858  0.00  0.00    -0.247 OA
ATOM      2  C2  <0> d   1      17.419  -1.028  11.287  0.00  0.00     0.328 A 
ATOM      3  N3  <0> d   1      17.061   0.050  10.565  0.00  0.00    -0.316 N 
ATOM      4  C4  <0> d   1      18.306   0.643  10.048  0.00  0.00     0.171 A 
ATOM      5  C17 <0> d   1      19.388  -0.269  10.591  0.00  0.00     0.267 A 
ATOM      6  O18 <0> d   1      20.584  -0.169  10.421  0.00  0.00    -0.269 OA
ATOM      7  N19 <0> d   1      18.744  -1.211  11.309  0.00  0.00    -0.244 N 
ATOM      8  H26 <0> d   1      16.159   0.373  10.415  0.00  0.00     0.166 HD
ENDROOT
BRANCH   4   9
ATOM      9  C5  <0> d   1      18.312   0.631   8.541  0.00  0.00    -0.016 A 
ATOM     10  C10 <0> d   1      19.244   1.380   7.846  0.00  0.00     0.010 A 
ATOM     11  C9  <0> d   1      19.252   1.365   6.465  0.00  0.00     0.001 A 
ATOM     12  C8  <0> d   1      18.322   0.610   5.775  0.00  0.00     0.000 A 
ATOM     13  C7  <0> d   1      17.385  -0.134   6.469  0.00  0.00     0.001 A 
ATOM     14  C6  <0> d   1      17.381  -0.124   7.851  0.00  0.00     0.010 A 
ENDBRANCH   4   9
BRANCH   4  15
ATOM     15  C11 <0> d   1      18.481   2.046  10.565  0.00  0.00    -0.016 A 
ATOM     16  C16 <0> d   1      17.658   3.059  10.109  0.00  0.00     0.010 A 
ATOM     17  C15 <0> d   1      17.814   4.346  10.588  0.00  0.00     0.001 A 
ATOM     18  C14 <0> d   1      18.800   4.623  11.516  0.00  0.00     0.000 A 
ATOM     19  C13 <0> d   1      19.628   3.612  11.968  0.00  0.00     0.001 A 
ATOM     20  C12 <0> d   1      19.467   2.324  11.493  0.00  0.00     0.010 A 
ENDBRANCH   4  15
BRANCH   7  21
ATOM     21  C20 <0> d   1      19.412  -2.304  12.019  0.00  0.00     0.320 C 
BRANCH  21  22
ATOM     22  O21 <0> d   1      19.055  -2.263  13.402  0.00  0.00    -0.270 OA
BRANCH  22  23
ATOM     23  P22 <0> d   1      19.314  -0.978  14.338  0.00  0.00     0.407 P 
ATOM     24  O23 <0> d   1      18.050  -0.090  14.353  0.00  0.00    -0.624 OA
ATOM     25  O24 <0> d   1      19.633  -1.445  15.775  0.00  0.00    -0.624 OA
BRANCH  23  26
ATOM     26  O25 <0> d   1      20.555  -0.134  13.758  0.00  0.00    -0.300 OA
ATOM     27  H39 <0> d   1      21.421  -0.504  13.982  0.00  0.00     0.223 HD
ENDBRANCH  23  26
ENDBRANCH  22  23
ENDBRANCH  21  22
ENDBRANCH   7  21
TORSDOF 6
ENDMDL
MODEL 9
REMARK VINA RESULT:      -7.8      3.107      5.182
REMARK  6 active torsions:
REMARK  status: ('A' for Active; 'I' for Inactive)
REMARK    1  A    between atoms: C4_4  and  C5_5 
REMARK    2  A    between atoms: C4_4  and  C11_11 
REMARK    3  A    between atoms: N19_19  and  C20_20 
REMARK    4  A    between atoms: C20_20  and  O21_21 
REMARK    5  A    between atoms: O21_21  and  P22_22 
REMARK    6  A    between atoms: P22_22  and  O25_25 
ROOT
ATOM      1  O1  <0> d   1      20.490   0.540  13.118  0.00  0.00    -0.247 OA
ATOM      2  C2  <0> d   1      19.617   0.137  12.375  0.00  0.00     0.328 A 
ATOM      3  N3  <0> d   1      19.854  -0.585  11.265  0.00  0.00    -0.316 N 
ATOM      4  C4  <0> d   1      18.542  -0.868  10.658  0.00  0.00     0.171 A 
ATOM      5  C17 <0> d   1      17.562  -0.195  11.598  0.00  0.00     0.267 A 
ATOM      6  O18 <0> d   1      16.354  -0.166  11.499  0.00  0.00    -0.269 OA
ATOM      7  N19 <0> d   1      18.313   0.357  12.573  0.00  0.00    -0.244 N 
ATOM      8  H26 <0> d   1      20.720  -0.864  10.928  0.00  0.00     0.166 HD
ENDROOT
BRANCH   4   9
ATOM      9  C5  <0> d   1      18.454  -0.264   9.280  0.00  0.00    -0.016 A 
ATOM     10  C10 <0> d   1      19.358   0.707   8.892  0.00  0.00     0.010 A 
ATOM     11  C9  <0> d   1      19.280   1.258   7.626  0.00  0.00     0.001 A 
ATOM     12  C8  <0> d   1      18.292   0.845   6.752  0.00  0.00     0.000 A 
ATOM     13  C7  <0> d   1      17.384  -0.122   7.143  0.00  0.00     0.001 A 
ATOM     14  C6  <0> d   1      17.466  -0.677   8.406  0.00  0.00     0.010 A 
ENDBRANCH   4   9
BRANCH   4  15
ATOM     15  C11 <0> d   1      18.294  -2.353  10.600  0.00  0.00    -0.016 A 
ATOM     16  C16 <0> d   1      17.339  -2.926  11.419  0.00  0.00     0.010 A 
ATOM     17  C15 <0> d   1      17.107  -4.288  11.362  0.00  0.00     0.001 A 
ATOM     18  C14 <0> d   1      17.837  -5.078  10.494  0.00  0.00     0.000 A 
ATOM     19  C13 <0> d   1      18.796  -4.505   9.679  0.00  0.00     0.001 A 
ATOM     20  C12 <0> d   1      19.024  -3.143   9.733  0.00  0.00     0.010 A 
ENDBRANCH   4  15
BRANCH   7  21
ATOM     21  C20 <0> d   1      17.767   1.112  13.703  0.00  0.00     0.320 C 
BRANCH  21  22
ATOM     22  O21 <0> d   1      17.325   0.204  14.714  0.00  0.00    -0.270 OA
BRANCH  22  23
ATOM     23  P22 <0> d   1      18.257  -0.267  15.940  0.00  0.00     0.407 P 
ATOM     24  O23 <0> d   1      19.024   0.952  16.500  0.00  0.00    -0.624 OA
ATOM     25  O24 <0> d   1      17.375  -0.875  17.053  0.00  0.00    -0.624 OA
BRANCH  23  26
ATOM     26  O25 <0> d   1      19.308  -1.371  15.423  0.00  0.00    -0.300 OA
ATOM     27  H39 <0> d   1      19.586  -1.248  14.504  0.00  0.00     0.223 HD
ENDBRANCH  23  26
ENDBRANCH  22  23
ENDBRANCH  21  22
ENDBRANCH   7  21
TORSDOF 6
ENDMDL
