MODEL 1
REMARK VINA RESULT:      -8.0      0.000      0.000
REMARK  8 active torsions:
REMARK  status: ('A' for Active; 'I' for Inactive)
REMARK    1  A    between atoms: O2_2  and  C3_3 
REMARK    2  A    between atoms: C3_3  and  C4_4 
REMARK    3  A    between atoms: C4_4  and  C5_5 
REMARK    4  A    between atoms: C5_5  and  O6_6 
REMARK    5  A    between atoms: O6_6  and  C7_7 
REMARK    6  A    between atoms: C11_11  and  C12_12 
REMARK    7  A    between atoms: C12_12  and  S13_13 
REMARK    8  A    between atoms: S13_13  and  C15_15 
ROOT
ATOM      1  C7  <0> d   1      18.227   0.366   9.317  0.00  0.00     0.078 A 
ATOM      2  C8  <0> d   1      17.477  -0.590   9.997  0.00  0.00     0.056 A 
ATOM      3  C9  <0> d   1      16.821  -0.227  11.157  0.00  0.00     0.119 A 
ATOM      4  N10 <0> d   1      16.900   1.006  11.621  0.00  0.00    -0.264 NA
ATOM      5  C11 <0> d   1      17.602   1.939  11.004  0.00  0.00     0.054 A 
ATOM      6  C24 <0> d   1      18.289   1.653   9.843  0.00  0.00    -0.003 A 
ATOM      7  C25 <0> d   1      19.089   2.726   9.146  0.00  0.00     0.053 C 
ENDROOT
BRANCH   5   8
ATOM      8  C12 <0> d   1      17.656   3.331  11.580  0.00  0.00     0.177 C 
BRANCH   8   9
ATOM      9  S13 <0> d   1      19.028   3.441  12.762  0.00  0.00     0.091 S 
ATOM     10  O14 <0> d   1      18.829   4.557  13.617  0.00  0.00    -0.249 OA
BRANCH   9  11
ATOM     11  C15 <0> d   1      18.743   2.068  13.828  0.00  0.00     0.198 A 
ATOM     12  N23 <0> d   1      17.718   1.972  14.718  0.00  0.00    -0.331 N 
ATOM     13  C22 <0> d   1      17.840   0.753  15.355  0.00  0.00     0.063 A 
ATOM     14  H43 <0> d   1      17.028   2.635  14.875  0.00  0.00     0.168 HD
ATOM     15  C17 <0> d   1      18.982   0.143  14.809  0.00  0.00     0.086 A 
ATOM     16  C21 <0> d   1      17.112   0.098  16.339  0.00  0.00     0.032 A 
ATOM     17  N16 <0> d   1      19.485   1.000  13.883  0.00  0.00    -0.221 NA
ATOM     18  C18 <0> d   1      19.374  -1.119  15.266  0.00  0.00     0.034 A 
ATOM     19  C19 <0> d   1      18.644  -1.748  16.235  0.00  0.00     0.002 A 
ATOM     20  C20 <0> d   1      17.516  -1.146  16.774  0.00  0.00     0.002 A 
ENDBRANCH   9  11
ENDBRANCH   8   9
ENDBRANCH   5   8
BRANCH   1  21
ATOM     21  O6  <0> d   1      18.885   0.048   8.174  0.00  0.00    -0.350 OA
BRANCH  21  22
ATOM     22  C5  <0> d   1      18.142   0.121   6.956  0.00  0.00     0.178 C 
BRANCH  22  23
ATOM     23  C4  <0> d   1      19.038   0.669   5.842  0.00  0.00     0.053 C 
BRANCH  23  24
ATOM     24  C3  <0> d   1      18.807  -0.132   4.560  0.00  0.00     0.169 C 
BRANCH  24  25
ATOM     25  O2  <0> d   1      19.710  -1.239   4.521  0.00  0.00    -0.396 OA
ATOM     26  C1  <0> d   1      19.066  -2.515   4.523  0.00  0.00     0.201 C 
ENDBRANCH  24  25
ENDBRANCH  23  24
ENDBRANCH  22  23
ENDBRANCH  21  22
ENDBRANCH   1  21
TORSDOF 8
ENDMDL
MODEL 2
REMARK VINA RESULT:      -7.7      1.837      3.245
REMARK  8 active torsions:
REMARK  status: ('A' for Active; 'I' for Inactive)
REMARK    1  A    between atoms: O2_2  and  C3_3 
REMARK    2  A    between atoms: C3_3  and  C4_4 
REMARK    3  A    between atoms: C4_4  and  C5_5 
REMARK    4  A    between atoms: C5_5  and  O6_6 
REMARK    5  A    between atoms: O6_6  and  C7_7 
REMARK    6  A    between atoms: C11_11  and  C12_12 
REMARK    7  A    between atoms: C12_12  and  S13_13 
REMARK    8  A    between atoms: S13_13  and  C15_15 
ROOT
ATOM      1  C7  <0> d   1      18.050  -0.091   9.053  0.00  0.00     0.078 A 
ATOM      2  C8  <0> d   1      18.878   0.461   8.080  0.00  0.00     0.056 A 
ATOM      3  C9  <0> d   1      19.266   1.781   8.198  0.00  0.00     0.119 A 
ATOM      4  N10 <0> d   1      18.861   2.516   9.218  0.00  0.00    -0.264 NA
ATOM      5  C11 <0> d   1      18.075   2.028  10.159  0.00  0.00     0.054 A 
ATOM      6  C24 <0> d   1      17.640   0.720  10.109  0.00  0.00    -0.003 A 
ATOM      7  C25 <0> d   1      16.742   0.172  11.189  0.00  0.00     0.053 C 
ENDROOT
BRANCH   5   8
ATOM      8  C12 <0> d   1      17.644   2.913  11.300  0.00  0.00     0.177 C 
BRANCH   8   9
ATOM      9  S13 <0> d   1      19.020   3.108  12.467  0.00  0.00     0.091 S 
ATOM     10  O14 <0> d   1      18.842   4.301  13.215  0.00  0.00    -0.249 OA
BRANCH   9  11
ATOM     11  C15 <0> d   1      18.711   1.845  13.656  0.00  0.00     0.198 A 
ATOM     12  N23 <0> d   1      17.753   1.898  14.619  0.00  0.00    -0.331 N 
ATOM     13  C22 <0> d   1      17.829   0.723  15.341  0.00  0.00     0.063 A 
ATOM     14  H43 <0> d   1      17.130   2.625  14.771  0.00  0.00     0.168 HD
ATOM     15  C17 <0> d   1      18.877  -0.017  14.767  0.00  0.00     0.086 A 
ATOM     16  C21 <0> d   1      17.129   0.205  16.422  0.00  0.00     0.032 A 
ATOM     17  N16 <0> d   1      19.372   0.726  13.743  0.00  0.00    -0.221 NA
ATOM     18  C18 <0> d   1      19.204  -1.269  15.294  0.00  0.00     0.034 A 
ATOM     19  C19 <0> d   1      18.504  -1.763  16.358  0.00  0.00     0.002 A 
ATOM     20  C20 <0> d   1      17.468  -1.034  16.925  0.00  0.00     0.002 A 
ENDBRANCH   9  11
ENDBRANCH   8   9
ENDBRANCH   5   8
BRANCH   1  21
ATOM     21  O6  <0> d   1      17.647  -1.384   8.972  0.00  0.00    -0.350 OA
BRANCH  21  22
ATOM     22  C5  <0> d   1      18.598  -2.330   8.479  0.00  0.00     0.178 C 
BRANCH  22  23
ATOM     23  C4  <0> d   1      18.935  -3.337   9.581  0.00  0.00     0.053 C 
BRANCH  23  24
ATOM     24  C3  <0> d   1      17.736  -3.489  10.518  0.00  0.00     0.169 C 
BRANCH  24  25
ATOM     25  O2  <0> d   1      18.098  -3.054  11.830  0.00  0.00    -0.396 OA
ATOM     26  C1  <0> d   1      19.490  -2.772  11.986  0.00  0.00     0.201 C 
ENDBRANCH  24  25
ENDBRANCH  23  24
ENDBRANCH  22  23
ENDBRANCH  21  22
ENDBRANCH   1  21
TORSDOF 8
ENDMDL
MODEL 3
REMARK VINA RESULT:      -7.6      1.694      2.577
REMARK  8 active torsions:
REMARK  status: ('A' for Active; 'I' for Inactive)
REMARK    1  A    between atoms: O2_2  and  C3_3 
REMARK    2  A    between atoms: C3_3  and  C4_4 
REMARK    3  A    between atoms: C4_4  and  C5_5 
REMARK    4  A    between atoms: C5_5  and  O6_6 
REMARK    5  A    between atoms: O6_6  and  C7_7 
REMARK    6  A    between atoms: C11_11  and  C12_12 
REMARK    7  A    between atoms: C12_12  and  S13_13 
REMARK    8  A    between atoms: S13_13  and  C15_15 
ROOT
ATOM      1  C7  <0> d   1      18.005   0.023   8.829  0.00  0.00     0.078 A 
ATOM      2  C8  <0> d   1      18.781   0.637   7.850  0.00  0.00     0.056 A 
ATOM      3  C9  <0> d   1      19.174   1.948   8.029  0.00  0.00     0.119 A 
ATOM      4  N10 <0> d   1      18.822   2.617   9.111  0.00  0.00    -0.264 NA
ATOM      5  C11 <0> d   1      18.086   2.069  10.061  0.00  0.00     0.054 A 
ATOM      6  C24 <0> d   1      17.650   0.765   9.952  0.00  0.00    -0.003 A 
ATOM      7  C25 <0> d   1      16.810   0.149  11.042  0.00  0.00     0.053 C 
ENDROOT
BRANCH   5   8
ATOM      8  C12 <0> d   1      17.714   2.881  11.275  0.00  0.00     0.177 C 
BRANCH   8   9
ATOM      9  S13 <0> d   1      19.160   3.044  12.358  0.00  0.00     0.091 S 
ATOM     10  O14 <0> d   1      19.052   4.239  13.117  0.00  0.00    -0.249 OA
BRANCH   9  11
ATOM     11  C15 <0> d   1      18.897   1.784  13.561  0.00  0.00     0.198 A 
ATOM     12  N23 <0> d   1      19.722   0.724  13.772  0.00  0.00    -0.331 N 
ATOM     13  C22 <0> d   1      19.174  -0.027  14.794  0.00  0.00     0.063 A 
ATOM     14  H43 <0> d   1      20.545   0.531  13.296  0.00  0.00     0.168 HD
ATOM     15  C17 <0> d   1      17.990   0.632  15.166  0.00  0.00     0.086 A 
ATOM     16  C21 <0> d   1      19.546  -1.196  15.443  0.00  0.00     0.032 A 
ATOM     17  N16 <0> d   1      17.881   1.730  14.373  0.00  0.00    -0.221 NA
ATOM     18  C18 <0> d   1      17.198   0.100  16.187  0.00  0.00     0.034 A 
ATOM     19  C19 <0> d   1      17.581  -1.052  16.814  0.00  0.00     0.002 A 
ATOM     20  C20 <0> d   1      18.750  -1.702  16.448  0.00  0.00     0.002 A 
ENDBRANCH   9  11
ENDBRANCH   8   9
ENDBRANCH   5   8
BRANCH   1  21
ATOM     21  O6  <0> d   1      17.599  -1.265   8.689  0.00  0.00    -0.350 OA
BRANCH  21  22
ATOM     22  C5  <0> d   1      18.527  -2.282   9.073  0.00  0.00     0.178 C 
BRANCH  22  23
ATOM     23  C4  <0> d   1      18.617  -3.335   7.966  0.00  0.00     0.053 C 
BRANCH  23  24
ATOM     24  C3  <0> d   1      19.480  -2.800   6.822  0.00  0.00     0.169 C 
BRANCH  24  25
ATOM     25  O2  <0> d   1      20.371  -3.824   6.378  0.00  0.00    -0.396 OA
ATOM     26  C1  <0> d   1      20.342  -5.008   7.178  0.00  0.00     0.201 C 
ENDBRANCH  24  25
ENDBRANCH  23  24
ENDBRANCH  22  23
ENDBRANCH  21  22
ENDBRANCH   1  21
TORSDOF 8
ENDMDL
MODEL 4
REMARK VINA RESULT:      -7.5      1.803      2.239
REMARK  8 active torsions:
REMARK  status: ('A' for Active; 'I' for Inactive)
REMARK    1  A    between atoms: O2_2  and  C3_3 
REMARK    2  A    between atoms: C3_3  and  C4_4 
REMARK    3  A    between atoms: C4_4  and  C5_5 
REMARK    4  A    between atoms: C5_5  and  O6_6 
REMARK    5  A    between atoms: O6_6  and  C7_7 
REMARK    6  A    between atoms: C11_11  and  C12_12 
REMARK    7  A    between atoms: C12_12  and  S13_13 
REMARK    8  A    between atoms: S13_13  and  C15_15 
ROOT
ATOM      1  C7  <0> d   1      19.237  -0.718   9.159  0.00  0.00     0.078 A 
ATOM      2  C8  <0> d   1      19.338  -1.782  10.052  0.00  0.00     0.056 A 
ATOM      3  C9  <0> d   1      19.578  -1.519  11.386  0.00  0.00     0.119 A 
ATOM      4  N10 <0> d   1      19.712  -0.278  11.816  0.00  0.00    -0.264 NA
ATOM      5  C11 <0> d   1      19.623   0.756  11.001  0.00  0.00     0.054 A 
ATOM      6  C24 <0> d   1      19.390   0.575   9.653  0.00  0.00    -0.003 A 
ATOM      7  C25 <0> d   1      19.292   1.762   8.729  0.00  0.00     0.053 C 
ENDROOT
BRANCH   5   8
ATOM      8  C12 <0> d   1      19.784   2.151  11.548  0.00  0.00     0.177 C 
BRANCH   8   9
ATOM      9  S13 <0> d   1      18.220   2.692  12.291  0.00  0.00     0.091 S 
ATOM     10  O14 <0> d   1      17.144   1.970  11.709  0.00  0.00    -0.249 OA
BRANCH   9  11
ATOM     11  C15 <0> d   1      18.306   2.029  13.922  0.00  0.00     0.198 A 
ATOM     12  N23 <0> d   1      19.075   2.528  14.926  0.00  0.00    -0.331 N 
ATOM     13  C22 <0> d   1      18.863   1.737  16.038  0.00  0.00     0.063 A 
ATOM     14  H43 <0> d   1      19.663   3.298  14.873  0.00  0.00     0.168 HD
ATOM     15  C17 <0> d   1      17.945   0.750  15.642  0.00  0.00     0.086 A 
ATOM     16  C21 <0> d   1      19.350   1.745  17.338  0.00  0.00     0.032 A 
ATOM     17  N16 <0> d   1      17.647   0.987  14.338  0.00  0.00    -0.221 NA
ATOM     18  C18 <0> d   1      17.533  -0.217  16.563  0.00  0.00     0.034 A 
ATOM     19  C19 <0> d   1      18.024  -0.193  17.839  0.00  0.00     0.002 A 
ATOM     20  C20 <0> d   1      18.929   0.782  18.231  0.00  0.00     0.002 A 
ENDBRANCH   9  11
ENDBRANCH   8   9
ENDBRANCH   5   8
BRANCH   1  21
ATOM     21  O6  <0> d   1      19.002  -0.936   7.841  0.00  0.00    -0.350 OA
BRANCH  21  22
ATOM     22  C5  <0> d   1      18.580  -2.249   7.465  0.00  0.00     0.178 C 
BRANCH  22  23
ATOM     23  C4  <0> d   1      19.541  -2.814   6.417  0.00  0.00     0.053 C 
BRANCH  23  24
ATOM     24  C3  <0> d   1      19.088  -2.380   5.022  0.00  0.00     0.169 C 
BRANCH  24  25
ATOM     25  O2  <0> d   1      19.849  -1.246   4.604  0.00  0.00    -0.396 OA
ATOM     26  C1  <0> d   1      19.085  -0.044   4.483  0.00  0.00     0.201 C 
ENDBRANCH  24  25
ENDBRANCH  23  24
ENDBRANCH  22  23
ENDBRANCH  21  22
ENDBRANCH   1  21
TORSDOF 8
ENDMDL
MODEL 5
REMARK VINA RESULT:      -7.3      3.389      4.819
REMARK  8 active torsions:
REMARK  status: ('A' for Active; 'I' for Inactive)
REMARK    1  A    between atoms: O2_2  and  C3_3 
REMARK    2  A    between atoms: C3_3  and  C4_4 
REMARK    3  A    between atoms: C4_4  and  C5_5 
REMARK    4  A    between atoms: C5_5  and  O6_6 
REMARK    5  A    between atoms: O6_6  and  C7_7 
REMARK    6  A    between atoms: C11_11  and  C12_12 
REMARK    7  A    between atoms: C12_12  and  S13_13 
REMARK    8  A    between atoms: S13_13  and  C15_15 
ROOT
ATOM      1  C7  <0> d   1      18.463   1.669   9.403  0.00  0.00     0.078 A 
ATOM      2  C8  <0> d   1      19.240   2.749   9.812  0.00  0.00     0.056 A 
ATOM      3  C9  <0> d   1      19.597   2.855  11.142  0.00  0.00     0.119 A 
ATOM      4  N10 <0> d   1      19.209   1.947  12.019  0.00  0.00    -0.264 NA
ATOM      5  C11 <0> d   1      18.471   0.910  11.669  0.00  0.00     0.054 A 
ATOM      6  C24 <0> d   1      18.070   0.738  10.361  0.00  0.00    -0.003 A 
ATOM      7  C25 <0> d   1      17.227  -0.449   9.971  0.00  0.00     0.053 C 
ENDROOT
BRANCH   5   8
ATOM      8  C12 <0> d   1      18.058  -0.094  12.714  0.00  0.00     0.177 C 
BRANCH   8   9
ATOM      9  S13 <0> d   1      19.457  -1.188  13.087  0.00  0.00     0.091 S 
ATOM     10  O14 <0> d   1      19.320  -1.702  14.403  0.00  0.00    -0.249 OA
BRANCH   9  11
ATOM     11  C15 <0> d   1      19.138  -2.596  12.076  0.00  0.00     0.198 A 
ATOM     12  N23 <0> d   1      19.996  -3.101  11.150  0.00  0.00    -0.331 N 
ATOM     13  C22 <0> d   1      19.383  -4.199  10.578  0.00  0.00     0.063 A 
ATOM     14  H43 <0> d   1      20.875  -2.757  10.932  0.00  0.00     0.168 HD
ATOM     15  C17 <0> d   1      18.128  -4.311  11.201  0.00  0.00     0.086 A 
ATOM     16  C21 <0> d   1      19.750  -5.110   9.597  0.00  0.00     0.032 A 
ATOM     17  N16 <0> d   1      18.043  -3.300  12.105  0.00  0.00    -0.221 NA
ATOM     18  C18 <0> d   1      17.262  -5.339  10.822  0.00  0.00     0.034 A 
ATOM     19  C19 <0> d   1      17.640  -6.227   9.854  0.00  0.00     0.002 A 
ATOM     20  C20 <0> d   1      18.879  -6.118   9.240  0.00  0.00     0.002 A 
ENDBRANCH   9  11
ENDBRANCH   8   9
ENDBRANCH   5   8
BRANCH   1  21
ATOM     21  O6  <0> d   1      18.092   1.531   8.105  0.00  0.00    -0.350 OA
BRANCH  21  22
ATOM     22  C5  <0> d   1      19.085   1.055   7.194  0.00  0.00     0.178 C 
BRANCH  22  23
ATOM     23  C4  <0> d   1      18.428   0.154   6.147  0.00  0.00     0.053 C 
BRANCH  23  24
ATOM     24  C3  <0> d   1      19.224   0.222   4.842  0.00  0.00     0.169 C 
BRANCH  24  25
ATOM     25  O2  <0> d   1      19.884  -1.025   4.621  0.00  0.00    -0.396 OA
ATOM     26  C1  <0> d   1      19.080  -2.169   4.916  0.00  0.00     0.201 C 
ENDBRANCH  24  25
ENDBRANCH  23  24
ENDBRANCH  22  23
ENDBRANCH  21  22
ENDBRANCH   1  21
TORSDOF 8
ENDMDL
MODEL 6
REMARK VINA RESULT:      -7.2      2.867      7.472
REMARK  8 active torsions:
REMARK  status: ('A' for Active; 'I' for Inactive)
REMARK    1  A    between atoms: O2_2  and  C3_3 
REMARK    2  A    between atoms: C3_3  and  C4_4 
REMARK    3  A    between atoms: C4_4  and  C5_5 
REMARK    4  A    between atoms: C5_5  and  O6_6 
REMARK    5  A    between atoms: O6_6  and  C7_7 
REMARK    6  A    between atoms: C11_11  and  C12_12 
REMARK    7  A    between atoms: C12_12  and  S13_13 
REMARK    8  A    between atoms: S13_13  and  C15_15 
ROOT
ATOM      1  C7  <0> d   1      18.069   0.452  13.911  0.00  0.00     0.078 A 
ATOM      2  C8  <0> d   1      19.031  -0.100  14.753  0.00  0.00     0.056 A 
ATOM      3  C9  <0> d   1      19.527  -1.358  14.472  0.00  0.00     0.119 A 
ATOM      4  N10 <0> d   1      19.099  -2.034  13.422  0.00  0.00    -0.264 NA
ATOM      5  C11 <0> d   1      18.188  -1.544  12.602  0.00  0.00     0.054 A 
ATOM      6  C24 <0> d   1      17.640  -0.297  12.818  0.00  0.00    -0.003 A 
ATOM      7  C25 <0> d   1      16.600   0.254  11.876  0.00  0.00     0.053 C 
ENDROOT
BRANCH   5   8
ATOM      8  C12 <0> d   1      17.736  -2.361  11.418  0.00  0.00     0.177 C 
BRANCH   8   9
ATOM      9  S13 <0> d   1      19.188  -3.009  10.544  0.00  0.00     0.091 S 
ATOM     10  O14 <0> d   1      18.934  -4.343  10.128  0.00  0.00    -0.249 OA
BRANCH   9  11
ATOM     11  C15 <0> d   1      19.170  -2.111   9.028  0.00  0.00     0.198 A 
ATOM     12  N23 <0> d   1      19.354  -2.657   7.796  0.00  0.00    -0.331 N 
ATOM     13  C22 <0> d   1      19.265  -1.633   6.875  0.00  0.00     0.063 A 
ATOM     14  H43 <0> d   1      19.516  -3.593   7.600  0.00  0.00     0.168 HD
ATOM     15  C17 <0> d   1      19.031  -0.463   7.617  0.00  0.00     0.086 A 
ATOM     16  C21 <0> d   1      19.362  -1.564   5.492  0.00  0.00     0.032 A 
ATOM     17  N16 <0> d   1      18.984  -0.827   8.925  0.00  0.00    -0.221 NA
ATOM     18  C18 <0> d   1      18.899   0.759   6.953  0.00  0.00     0.034 A 
ATOM     19  C19 <0> d   1      18.998   0.807   5.591  0.00  0.00     0.002 A 
ATOM     20  C20 <0> d   1      19.228  -0.347   4.857  0.00  0.00     0.002 A 
ENDBRANCH   9  11
ENDBRANCH   8   9
ENDBRANCH   5   8
BRANCH   1  21
ATOM     21  O6  <0> d   1      17.558   1.685  14.154  0.00  0.00    -0.350 OA
BRANCH  21  22
ATOM     22  C5  <0> d   1      18.488   2.767  14.242  0.00  0.00     0.178 C 
BRANCH  22  23
ATOM     23  C4  <0> d   1      18.969   3.142  12.838  0.00  0.00     0.053 C 
BRANCH  23  24
ATOM     24  C3  <0> d   1      17.829   3.814  12.071  0.00  0.00     0.169 C 
BRANCH  24  25
ATOM     25  O2  <0> d   1      18.265   4.126  10.746  0.00  0.00    -0.396 OA
ATOM     26  C1  <0> d   1      18.439   2.982   9.907  0.00  0.00     0.201 C 
ENDBRANCH  24  25
ENDBRANCH  23  24
ENDBRANCH  22  23
ENDBRANCH  21  22
ENDBRANCH   1  21
TORSDOF 8
ENDMDL
MODEL 7
REMARK VINA RESULT:      -7.1      4.719      7.179
REMARK  8 active torsions:
REMARK  status: ('A' for Active; 'I' for Inactive)
REMARK    1  A    between atoms: O2_2  and  C3_3 
REMARK    2  A    between atoms: C3_3  and  C4_4 
REMARK    3  A    between atoms: C4_4  and  C5_5 
REMARK    4  A    between atoms: C5_5  and  O6_6 
REMARK    5  A    between atoms: O6_6  and  C7_7 
REMARK    6  A    between atoms: C11_11  and  C12_12 
REMARK    7  A    between atoms: C12_12  and  S13_13 
REMARK    8  A    between atoms: S13_13  and  C15_15 
ROOT
ATOM      1  C7  <0> d   1      18.793  -2.767   4.817  0.00  0.00     0.078 A 
ATOM      2  C8  <0> d   1      17.694  -2.771   3.962  0.00  0.00     0.056 A 
ATOM      3  C9  <0> d   1      16.859  -3.870   3.948  0.00  0.00     0.119 A 
ATOM      4  N10 <0> d   1      17.093  -4.907   4.730  0.00  0.00    -0.264 NA
ATOM      5  C11 <0> d   1      18.125  -4.940   5.553  0.00  0.00     0.054 A 
ATOM      6  C24 <0> d   1      19.008  -3.883   5.621  0.00  0.00    -0.003 A 
ATOM      7  C25 <0> d   1      20.184  -3.931   6.564  0.00  0.00     0.053 C 
ENDROOT
BRANCH   5   8
ATOM      8  C12 <0> d   1      18.343  -6.151   6.423  0.00  0.00     0.177 C 
BRANCH   8   9
ATOM      9  S13 <0> d   1      17.023  -6.249   7.664  0.00  0.00     0.091 S 
ATOM     10  O14 <0> d   1      17.022  -7.539   8.255  0.00  0.00    -0.249 OA
BRANCH   9  11
ATOM     11  C15 <0> d   1      17.623  -5.218   8.961  0.00  0.00     0.198 A 
ATOM     12  N23 <0> d   1      18.858  -5.311   9.523  0.00  0.00    -0.331 N 
ATOM     13  C22 <0> d   1      18.943  -4.333  10.493  0.00  0.00     0.063 A 
ATOM     14  H43 <0> d   1      19.552  -5.945   9.284  0.00  0.00     0.168 HD
ATOM     15  C17 <0> d   1      17.705  -3.669  10.484  0.00  0.00     0.086 A 
ATOM     16  C21 <0> d   1      19.931  -3.938  11.385  0.00  0.00     0.032 A 
ATOM     17  N16 <0> d   1      16.946  -4.260   9.525  0.00  0.00    -0.221 NA
ATOM     18  C18 <0> d   1      17.481  -2.616  11.376  0.00  0.00     0.034 A 
ATOM     19  C19 <0> d   1      18.466  -2.241  12.246  0.00  0.00     0.002 A 
ATOM     20  C20 <0> d   1      19.689  -2.896  12.255  0.00  0.00     0.002 A 
ENDBRANCH   9  11
ENDBRANCH   8   9
ENDBRANCH   5   8
BRANCH   1  21
ATOM     21  O6  <0> d   1      19.637  -1.705   4.860  0.00  0.00    -0.350 OA
BRANCH  21  22
ATOM     22  C5  <0> d   1      19.053  -0.407   4.731  0.00  0.00     0.178 C 
BRANCH  22  23
ATOM     23  C4  <0> d   1      19.032   0.282   6.097  0.00  0.00     0.053 C 
BRANCH  23  24
ATOM     24  C3  <0> d   1      17.730  -0.061   6.822  0.00  0.00     0.169 C 
BRANCH  24  25
ATOM     25  O2  <0> d   1      17.982  -1.067   7.805  0.00  0.00    -0.396 OA
ATOM     26  C1  <0> d   1      19.226  -0.910   8.492  0.00  0.00     0.201 C 
ENDBRANCH  24  25
ENDBRANCH  23  24
ENDBRANCH  22  23
ENDBRANCH  21  22
ENDBRANCH   1  21
TORSDOF 8
ENDMDL
MODEL 8
REMARK VINA RESULT:      -7.1      2.804      8.194
REMARK  8 active torsions:
REMARK  status: ('A' for Active; 'I' for Inactive)
REMARK    1  A    between atoms: O2_2  and  C3_3 
REMARK    2  A    between atoms: C3_3  and  C4_4 
REMARK    3  A    between atoms: C4_4  and  C5_5 
REMARK    4  A    between atoms: C5_5  and  O6_6 
REMARK    5  A    between atoms: O6_6  and  C7_7 
REMARK    6  A    between atoms: C11_11  and  C12_12 
REMARK    7  A    between atoms: C12_12  and  S13_13 
REMARK    8  A    between atoms: S13_13  and  C15_15 
ROOT
ATOM      1  C7  <0> d   1      18.015   3.887  13.117  0.00  0.00     0.078 A 
ATOM      2  C8  <0> d   1      17.667   4.606  11.977  0.00  0.00     0.056 A 
ATOM      3  C9  <0> d   1      17.366   3.920  10.817  0.00  0.00     0.119 A 
ATOM      4  N10 <0> d   1      17.405   2.601  10.782  0.00  0.00    -0.264 NA
ATOM      5  C11 <0> d   1      17.732   1.885  11.842  0.00  0.00     0.054 A 
ATOM      6  C24 <0> d   1      18.051   2.497  13.036  0.00  0.00    -0.003 A 
ATOM      7  C25 <0> d   1      18.424   1.671  14.241  0.00  0.00     0.053 C 
ENDROOT
BRANCH   5   8
ATOM      8  C12 <0> d   1      17.761   0.382  11.743  0.00  0.00     0.177 C 
BRANCH   8   9
ATOM      9  S13 <0> d   1      19.423  -0.159  11.256  0.00  0.00     0.091 S 
ATOM     10  O14 <0> d   1      19.608  -1.516  11.629  0.00  0.00    -0.249 OA
BRANCH   9  11
ATOM     11  C15 <0> d   1      19.313  -0.242   9.500  0.00  0.00     0.198 A 
ATOM     12  N23 <0> d   1      19.169   0.831   8.676  0.00  0.00    -0.331 N 
ATOM     13  C22 <0> d   1      19.126   0.353   7.381  0.00  0.00     0.063 A 
ATOM     14  H43 <0> d   1      19.110   1.761   8.947  0.00  0.00     0.168 HD
ATOM     15  C17 <0> d   1      19.242  -1.044   7.481  0.00  0.00     0.086 A 
ATOM     16  C21 <0> d   1      18.998   0.948   6.134  0.00  0.00     0.032 A 
ATOM     17  N16 <0> d   1      19.353  -1.340   8.802  0.00  0.00    -0.221 NA
ATOM     18  C18 <0> d   1      19.225  -1.820   6.319  0.00  0.00     0.034 A 
ATOM     19  C19 <0> d   1      19.097  -1.216   5.099  0.00  0.00     0.002 A 
ATOM     20  C20 <0> d   1      18.983   0.163   5.001  0.00  0.00     0.002 A 
ENDBRANCH   9  11
ENDBRANCH   8   9
ENDBRANCH   5   8
BRANCH   1  21
ATOM     21  O6  <0> d   1      18.318   4.524  14.276  0.00  0.00    -0.350 OA
BRANCH  21  22
ATOM     22  C5  <0> d   1      19.561   5.228  14.323  0.00  0.00     0.178 C 
BRANCH  22  23
ATOM     23  C4  <0> d   1      20.023   5.352  15.777  0.00  0.00     0.053 C 
BRANCH  23  24
ATOM     24  C3  <0> d   1      19.114   4.512  16.675  0.00  0.00     0.169 C 
BRANCH  24  25
ATOM     25  O2  <0> d   1      19.850   3.403  17.195  0.00  0.00    -0.396 OA
ATOM     26  C1  <0> d   1      19.108   2.589  18.106  0.00  0.00     0.201 C 
ENDBRANCH  24  25
ENDBRANCH  23  24
ENDBRANCH  22  23
ENDBRANCH  21  22
ENDBRANCH   1  21
TORSDOF 8
ENDMDL
MODEL 9
REMARK VINA RESULT:      -7.0      2.941      7.972
REMARK  8 active torsions:
REMARK  status: ('A' for Active; 'I' for Inactive)
REMARK    1  A    between atoms: O2_2  and  C3_3 
REMARK    2  A    between atoms: C3_3  and  C4_4 
REMARK    3  A    between atoms: C4_4  and  C5_5 
REMARK    4  A    between atoms: C5_5  and  O6_6 
REMARK    5  A    between atoms: O6_6  and  C7_7 
REMARK    6  A    between atoms: C11_11  and  C12_12 
REMARK    7  A    between atoms: C12_12  and  S13_13 
REMARK    8  A    between atoms: S13_13  and  C15_15 
ROOT
ATOM      1  C7  <0> d   1      18.132   0.514  13.858  0.00  0.00     0.078 A 
ATOM      2  C8  <0> d   1      19.092   0.005  14.728  0.00  0.00     0.056 A 
ATOM      3  C9  <0> d   1      19.575  -1.272  14.524  0.00  0.00     0.119 A 
ATOM      4  N10 <0> d   1      19.136  -2.007  13.519  0.00  0.00    -0.264 NA
ATOM      5  C11 <0> d   1      18.226  -1.560  12.673  0.00  0.00     0.054 A 
ATOM      6  C24 <0> d   1      17.692  -0.296  12.814  0.00  0.00    -0.003 A 
ATOM      7  C25 <0> d   1      16.652   0.205  11.844  0.00  0.00     0.053 C 
ENDROOT
BRANCH   5   8
ATOM      8  C12 <0> d   1      17.762  -2.444  11.544  0.00  0.00     0.177 C 
BRANCH   8   9
ATOM      9  S13 <0> d   1      19.202  -3.046  10.619  0.00  0.00     0.091 S 
ATOM     10  O14 <0> d   1      18.948  -4.362  10.149  0.00  0.00    -0.249 OA
BRANCH   9  11
ATOM     11  C15 <0> d   1      19.156  -2.083   9.144  0.00  0.00     0.198 A 
ATOM     12  N23 <0> d   1      19.297  -2.577   7.885  0.00  0.00    -0.331 N 
ATOM     13  C22 <0> d   1      19.198  -1.512   7.012  0.00  0.00     0.063 A 
ATOM     14  H43 <0> d   1      19.440  -3.506   7.644  0.00  0.00     0.168 HD
ATOM     15  C17 <0> d   1      19.002  -0.373   7.811  0.00  0.00     0.086 A 
ATOM     16  C21 <0> d   1      19.258  -1.385   5.631  0.00  0.00     0.032 A 
ATOM     17  N16 <0> d   1      18.986  -0.793   9.102  0.00  0.00    -0.221 NA
ATOM     18  C18 <0> d   1      18.870   0.879   7.203  0.00  0.00     0.034 A 
ATOM     19  C19 <0> d   1      18.931   0.985   5.842  0.00  0.00     0.002 A 
ATOM     20  C20 <0> d   1      19.124  -0.140   5.053  0.00  0.00     0.002 A 
ENDBRANCH   9  11
ENDBRANCH   8   9
ENDBRANCH   5   8
BRANCH   1  21
ATOM     21  O6  <0> d   1      17.633   1.765  14.025  0.00  0.00    -0.350 OA
BRANCH  21  22
ATOM     22  C5  <0> d   1      18.541   2.854  13.847  0.00  0.00     0.178 C 
BRANCH  22  23
ATOM     23  C4  <0> d   1      18.046   3.751  12.711  0.00  0.00     0.053 C 
BRANCH  23  24
ATOM     24  C3  <0> d   1      17.693   5.132  13.267  0.00  0.00     0.169 C 
BRANCH  24  25
ATOM     25  O2  <0> d   1      16.749   4.991  14.330  0.00  0.00    -0.396 OA
ATOM     26  C1  <0> d   1      15.637   5.885  14.242  0.00  0.00     0.201 C 
ENDBRANCH  24  25
ENDBRANCH  23  24
ENDBRANCH  22  23
ENDBRANCH  21  22
ENDBRANCH   1  21
TORSDOF 8
ENDMDL
