MODEL 1
REMARK VINA RESULT:      -6.2      0.000      0.000
REMARK  8 active torsions:
REMARK  status: ('A' for Active; 'I' for Inactive)
REMARK    1  A    between atoms: C2_2  and  N3_3 
REMARK    2  A    between atoms: N3_3  and  C5_5 
REMARK    3  A    between atoms: N3_3  and  C7_7 
REMARK    4  A    between atoms: C7_7  and  C8_8 
REMARK    5  A    between atoms: C8_8  and  N9_9 
REMARK       I    between atoms: N9_9  and  C10_10 
REMARK    6  A    between atoms: C10_10  and  C12_12 
REMARK    7  A    between atoms: C16_16  and  N17_17 
REMARK    8  A    between atoms: C19_19  and  O20_20 
ROOT
ATOM      1  C12 ZIN A   1      17.922  -0.870  12.844  0.00  0.00     0.067 A 
ATOM      2  C13 ZIN A   1      18.431  -1.480  13.995  0.00  0.00     0.046 A 
ATOM      3  C14 ZIN A   1      18.470  -0.786  15.181  0.00  0.00     0.061 A 
ATOM      4 Cl15 ZIN A   1      19.102  -1.546  16.610  0.00  0.00    -0.082 Cl
ATOM      5  C16 ZIN A   1      18.002   0.526  15.242  0.00  0.00     0.050 A 
ATOM      6  C18 ZIN A   1      17.495   1.141  14.104  0.00  0.00     0.068 A 
ATOM      7  C19 ZIN A   1      17.457   0.454  12.904  0.00  0.00     0.086 A 
ENDROOT
BRANCH   1   8
ATOM      8  C10 ZIN A   1      17.881  -1.610  11.572  0.00  0.00     0.254 C 
ATOM      9  N9  ZIN A   1      18.654  -1.221  10.540  0.00  0.00    -0.355 N 
ATOM     10  H36 ZIN A   1      19.237  -0.451  10.634  0.00  0.00     0.162 HD
ATOM     11  O11 ZIN A   1      17.149  -2.574  11.454  0.00  0.00    -0.268 OA
BRANCH   9  12
ATOM     12  C8  ZIN A   1      18.612  -1.958   9.274  0.00  0.00     0.150 C 
BRANCH  12  13
ATOM     13  C7  ZIN A   1      18.016  -1.065   8.184  0.00  0.00     0.254 C 
BRANCH  13  14
ATOM     14  N3  ZIN A   1      19.095  -0.548   7.331  0.00  0.00    -0.070 N 
ATOM     15  H4  ZIN A   1      19.978  -0.649   7.808  0.00  0.00     0.279 HD
BRANCH  14  16
ATOM     16  C2  ZIN A   1      19.129  -1.303   6.071  0.00  0.00     0.230 C 
ATOM     17  C1  ZIN A   1      19.352  -0.339   4.905  0.00  0.00     0.034 C 
ENDBRANCH  14  16
BRANCH  14  18
ATOM     18  C5  ZIN A   1      18.853   0.873   7.044  0.00  0.00     0.230 C 
ATOM     19  C6  ZIN A   1      19.362   1.723   8.210  0.00  0.00     0.034 C 
ENDBRANCH  14  18
ENDBRANCH  13  14
ENDBRANCH  12  13
ENDBRANCH   9  12
ENDBRANCH   1   8
BRANCH   7  20
ATOM     20  O20 ZIN A   1      16.962   1.053  11.792  0.00  0.00    -0.355 OA
ATOM     21  C21 ZIN A   1      17.581   2.273  11.382  0.00  0.00     0.210 C 
ENDBRANCH   7  20
BRANCH   5  22
ATOM     22  N17 ZIN A   1      18.045   1.223  16.445  0.00  0.00    -0.398 N 
ATOM     23  H38 ZIN A   1      18.832   1.741  16.679  0.00  0.00     0.156 HD
ATOM     24  H39 ZIN A   1      17.289   1.191  17.052  0.00  0.00     0.156 HD
ENDBRANCH   5  22
TORSDOF 8
ENDMDL
MODEL 2
REMARK VINA RESULT:      -6.2      3.830      7.340
REMARK  8 active torsions:
REMARK  status: ('A' for Active; 'I' for Inactive)
REMARK    1  A    between atoms: C2_2  and  N3_3 
REMARK    2  A    between atoms: N3_3  and  C5_5 
REMARK    3  A    between atoms: N3_3  and  C7_7 
REMARK    4  A    between atoms: C7_7  and  C8_8 
REMARK    5  A    between atoms: C8_8  and  N9_9 
REMARK       I    between atoms: N9_9  and  C10_10 
REMARK    6  A    between atoms: C10_10  and  C12_12 
REMARK    7  A    between atoms: C16_16  and  N17_17 
REMARK    8  A    between atoms: C19_19  and  O20_20 
ROOT
ATOM      1  C12 ZIN A   1      18.528   1.485   8.778  0.00  0.00     0.067 A 
ATOM      2  C13 ZIN A   1      19.078   1.485   7.492  0.00  0.00     0.046 A 
ATOM      3  C14 ZIN A   1      18.772   0.471   6.614  0.00  0.00     0.061 A 
ATOM      4 Cl15 ZIN A   1      19.455   0.471   5.018  0.00  0.00    -0.082 Cl
ATOM      5  C16 ZIN A   1      17.912  -0.557   7.002  0.00  0.00     0.050 A 
ATOM      6  C18 ZIN A   1      17.361  -0.564   8.277  0.00  0.00     0.068 A 
ATOM      7  C19 ZIN A   1      17.668   0.448   9.170  0.00  0.00     0.086 A 
ENDROOT
BRANCH   1   8
ATOM      8  C10 ZIN A   1      18.855   2.569   9.720  0.00  0.00     0.254 C 
ATOM      9  N9  ZIN A   1      19.678   2.332  10.761  0.00  0.00    -0.355 N 
ATOM     10  H36 ZIN A   1      20.053   1.447  10.890  0.00  0.00     0.162 HD
ATOM     11  O11 ZIN A   1      18.383   3.678   9.558  0.00  0.00    -0.268 OA
BRANCH   9  12
ATOM     12  C8  ZIN A   1      20.003   3.410  11.698  0.00  0.00     0.150 C 
BRANCH  12  13
ATOM     13  C7  ZIN A   1      19.042   3.357  12.888  0.00  0.00     0.254 C 
BRANCH  13  14
ATOM     14  N3  ZIN A   1      18.701   4.725  13.302  0.00  0.00    -0.070 N 
ATOM     15  H4  ZIN A   1      19.026   5.378  12.607  0.00  0.00     0.279 HD
BRANCH  14  16
ATOM     16  C2  ZIN A   1      17.243   4.845  13.444  0.00  0.00     0.230 C 
ATOM     17  C1  ZIN A   1      16.638   5.298  12.114  0.00  0.00     0.034 C 
ENDBRANCH  14  16
BRANCH  14  18
ATOM     18  C5  ZIN A   1      19.343   5.021  14.590  0.00  0.00     0.230 C 
ATOM     19  C6  ZIN A   1      20.255   6.240  14.437  0.00  0.00     0.034 C 
ENDBRANCH  14  18
ENDBRANCH  13  14
ENDBRANCH  12  13
ENDBRANCH   9  12
ENDBRANCH   1   8
BRANCH   7  20
ATOM     20  O20 ZIN A   1      17.130   0.442  10.415  0.00  0.00    -0.355 OA
ATOM     21  C21 ZIN A   1      17.371  -0.713  11.221  0.00  0.00     0.210 C 
ENDBRANCH   7  20
BRANCH   5  22
ATOM     22  N17 ZIN A   1      17.608  -1.579   6.109  0.00  0.00    -0.398 N 
ATOM     23  H38 ZIN A   1      16.882  -2.194   6.304  0.00  0.00     0.156 HD
ATOM     24  H39 ZIN A   1      18.120  -1.679   5.292  0.00  0.00     0.156 HD
ENDBRANCH   5  22
TORSDOF 8
ENDMDL
MODEL 3
REMARK VINA RESULT:      -6.1      0.443      1.517
REMARK  8 active torsions:
REMARK  status: ('A' for Active; 'I' for Inactive)
REMARK    1  A    between atoms: C2_2  and  N3_3 
REMARK    2  A    between atoms: N3_3  and  C5_5 
REMARK    3  A    between atoms: N3_3  and  C7_7 
REMARK    4  A    between atoms: C7_7  and  C8_8 
REMARK    5  A    between atoms: C8_8  and  N9_9 
REMARK       I    between atoms: N9_9  and  C10_10 
REMARK    6  A    between atoms: C10_10  and  C12_12 
REMARK    7  A    between atoms: C16_16  and  N17_17 
REMARK    8  A    between atoms: C19_19  and  O20_20 
ROOT
ATOM      1  C12 ZIN A   1      17.831  -0.834  12.705  0.00  0.00     0.067 A 
ATOM      2  C13 ZIN A   1      18.295  -1.471  13.860  0.00  0.00     0.046 A 
ATOM      3  C14 ZIN A   1      18.330  -0.790  15.054  0.00  0.00     0.061 A 
ATOM      4 Cl15 ZIN A   1      18.906  -1.583  16.488  0.00  0.00    -0.082 Cl
ATOM      5  C16 ZIN A   1      17.903   0.536  15.117  0.00  0.00     0.050 A 
ATOM      6  C18 ZIN A   1      17.440   1.177  13.975  0.00  0.00     0.068 A 
ATOM      7  C19 ZIN A   1      17.407   0.503  12.768  0.00  0.00     0.086 A 
ENDROOT
BRANCH   1   8
ATOM      8  C10 ZIN A   1      17.793  -1.561  11.425  0.00  0.00     0.254 C 
ATOM      9  N9  ZIN A   1      18.448  -1.073  10.353  0.00  0.00    -0.355 N 
ATOM     10  H36 ZIN A   1      18.944  -0.242  10.425  0.00  0.00     0.162 HD
ATOM     11  O11 ZIN A   1      17.172  -2.603  11.336  0.00  0.00    -0.268 OA
BRANCH   9  12
ATOM     12  C8  ZIN A   1      18.411  -1.797   9.080  0.00  0.00     0.150 C 
BRANCH  12  13
ATOM     13  C7  ZIN A   1      19.293  -1.077   8.058  0.00  0.00     0.254 C 
BRANCH  13  14
ATOM     14  N3  ZIN A   1      18.449  -0.496   7.005  0.00  0.00    -0.070 N 
ATOM     15  H4  ZIN A   1      17.499  -0.430   7.335  0.00  0.00     0.279 HD
BRANCH  14  16
ATOM     16  C2  ZIN A   1      18.944   0.845   6.665  0.00  0.00     0.230 C 
ATOM     17  C1  ZIN A   1      19.145   1.655   7.947  0.00  0.00     0.034 C 
ENDBRANCH  14  16
BRANCH  14  18
ATOM     18  C5  ZIN A   1      18.496  -1.352   5.812  0.00  0.00     0.230 C 
ATOM     19  C6  ZIN A   1      18.769  -0.492   4.577  0.00  0.00     0.034 C 
ENDBRANCH  14  18
ENDBRANCH  13  14
ENDBRANCH  12  13
ENDBRANCH   9  12
ENDBRANCH   1   8
BRANCH   7  20
ATOM     20  O20 ZIN A   1      16.956   1.128  11.652  0.00  0.00    -0.355 OA
ATOM     21  C21 ZIN A   1      17.622   2.332  11.267  0.00  0.00     0.210 C 
ENDBRANCH   7  20
BRANCH   5  22
ATOM     22  N17 ZIN A   1      17.942   1.220  16.329  0.00  0.00    -0.398 N 
ATOM     23  H38 ZIN A   1      17.923   0.728  17.165  0.00  0.00     0.156 HD
ATOM     24  H39 ZIN A   1      17.988   2.189  16.338  0.00  0.00     0.156 HD
ENDBRANCH   5  22
TORSDOF 8
ENDMDL
MODEL 4
REMARK VINA RESULT:      -6.1      3.373      7.082
REMARK  8 active torsions:
REMARK  status: ('A' for Active; 'I' for Inactive)
REMARK    1  A    between atoms: C2_2  and  N3_3 
REMARK    2  A    between atoms: N3_3  and  C5_5 
REMARK    3  A    between atoms: N3_3  and  C7_7 
REMARK    4  A    between atoms: C7_7  and  C8_8 
REMARK    5  A    between atoms: C8_8  and  N9_9 
REMARK       I    between atoms: N9_9  and  C10_10 
REMARK    6  A    between atoms: C10_10  and  C12_12 
REMARK    7  A    between atoms: C16_16  and  N17_17 
REMARK    8  A    between atoms: C19_19  and  O20_20 
ROOT
ATOM      1  C12 ZIN A   1      19.029   0.403   8.357  0.00  0.00     0.067 A 
ATOM      2  C13 ZIN A   1      18.930   0.761   7.010  0.00  0.00     0.046 A 
ATOM      3  C14 ZIN A   1      18.993  -0.207   6.035  0.00  0.00     0.061 A 
ATOM      4 Cl15 ZIN A   1      18.871   0.240   4.361  0.00  0.00    -0.082 Cl
ATOM      5  C16 ZIN A   1      19.154  -1.547   6.386  0.00  0.00     0.050 A 
ATOM      6  C18 ZIN A   1      19.253  -1.912   7.723  0.00  0.00     0.068 A 
ATOM      7  C19 ZIN A   1      19.197  -0.945   8.711  0.00  0.00     0.086 A 
ENDROOT
BRANCH   1   8
ATOM      8  C10 ZIN A   1      18.962   1.437   9.403  0.00  0.00     0.254 C 
ATOM      9  N9  ZIN A   1      19.826   1.407  10.437  0.00  0.00    -0.355 N 
ATOM     10  H36 ZIN A   1      20.490   0.702  10.494  0.00  0.00     0.162 HD
ATOM     11  O11 ZIN A   1      18.129   2.320   9.332  0.00  0.00    -0.268 OA
BRANCH   9  12
ATOM     12  C8  ZIN A   1      19.759   2.436  11.478  0.00  0.00     0.150 C 
BRANCH  12  13
ATOM     13  C7  ZIN A   1      18.945   1.912  12.662  0.00  0.00     0.254 C 
BRANCH  13  14
ATOM     14  N3  ZIN A   1      19.017   0.445  12.694  0.00  0.00    -0.070 N 
ATOM     15  H4  ZIN A   1      19.296   0.102  11.788  0.00  0.00     0.279 HD
BRANCH  14  16
ATOM     16  C2  ZIN A   1      20.001   0.024  13.700  0.00  0.00     0.230 C 
ATOM     17  C1  ZIN A   1      19.514  -1.253  14.387  0.00  0.00     0.034 C 
ENDBRANCH  14  16
BRANCH  14  18
ATOM     18  C5  ZIN A   1      17.698  -0.103  13.040  0.00  0.00     0.230 C 
ATOM     19  C6  ZIN A   1      16.729   0.128  11.879  0.00  0.00     0.034 C 
ENDBRANCH  14  18
ENDBRANCH  13  14
ENDBRANCH  12  13
ENDBRANCH   9  12
ENDBRANCH   1   8
BRANCH   7  20
ATOM     20  O20 ZIN A   1      19.293  -1.301  10.016  0.00  0.00    -0.355 OA
ATOM     21  C21 ZIN A   1      18.854  -2.615  10.366  0.00  0.00     0.210 C 
ENDBRANCH   7  20
BRANCH   5  22
ATOM     22  N17 ZIN A   1      19.218  -2.521   5.395  0.00  0.00    -0.398 N 
ATOM     23  H38 ZIN A   1      18.770  -2.380   4.546  0.00  0.00     0.156 HD
ATOM     24  H39 ZIN A   1      19.710  -3.342   5.552  0.00  0.00     0.156 HD
ENDBRANCH   5  22
TORSDOF 8
ENDMDL
MODEL 5
REMARK VINA RESULT:      -6.0      3.577      7.196
REMARK  8 active torsions:
REMARK  status: ('A' for Active; 'I' for Inactive)
REMARK    1  A    between atoms: C2_2  and  N3_3 
REMARK    2  A    between atoms: N3_3  and  C5_5 
REMARK    3  A    between atoms: N3_3  and  C7_7 
REMARK    4  A    between atoms: C7_7  and  C8_8 
REMARK    5  A    between atoms: C8_8  and  N9_9 
REMARK       I    between atoms: N9_9  and  C10_10 
REMARK    6  A    between atoms: C10_10  and  C12_12 
REMARK    7  A    between atoms: C16_16  and  N17_17 
REMARK    8  A    between atoms: C19_19  and  O20_20 
ROOT
ATOM      1  C12 ZIN A   1      18.432   1.652   9.229  0.00  0.00     0.067 A 
ATOM      2  C13 ZIN A   1      18.966   1.685   7.937  0.00  0.00     0.046 A 
ATOM      3  C14 ZIN A   1      18.760   0.627   7.081  0.00  0.00     0.061 A 
ATOM      4 Cl15 ZIN A   1      19.423   0.669   5.477  0.00  0.00    -0.082 Cl
ATOM      5  C16 ZIN A   1      18.019  -0.478   7.498  0.00  0.00     0.050 A 
ATOM      6  C18 ZIN A   1      17.485  -0.518   8.780  0.00  0.00     0.068 A 
ATOM      7  C19 ZIN A   1      17.691   0.537   9.650  0.00  0.00     0.086 A 
ENDROOT
BRANCH   1   8
ATOM      8  C10 ZIN A   1      18.652   2.782  10.146  0.00  0.00     0.254 C 
ATOM      9  N9  ZIN A   1      17.648   3.641  10.412  0.00  0.00    -0.355 N 
ATOM     10  H36 ZIN A   1      16.780   3.515   9.996  0.00  0.00     0.162 HD
ATOM     11  O11 ZIN A   1      19.740   2.940  10.667  0.00  0.00    -0.268 OA
BRANCH   9  12
ATOM     12  C8  ZIN A   1      17.867   4.765  11.325  0.00  0.00     0.150 C 
BRANCH  12  13
ATOM     13  C7  ZIN A   1      17.382   4.385  12.726  0.00  0.00     0.254 C 
BRANCH  13  14
ATOM     14  N3  ZIN A   1      18.491   3.786  13.481  0.00  0.00    -0.070 N 
ATOM     15  H4  ZIN A   1      19.287   3.670  12.874  0.00  0.00     0.279 HD
BRANCH  14  16
ATOM     16  C2  ZIN A   1      18.853   4.666  14.601  0.00  0.00     0.230 C 
ATOM     17  C1  ZIN A   1      20.010   5.575  14.182  0.00  0.00     0.034 C 
ENDBRANCH  14  16
BRANCH  14  18
ATOM     18  C5  ZIN A   1      18.077   2.476  14.002  0.00  0.00     0.230 C 
ATOM     19  C6  ZIN A   1      19.208   1.466  13.798  0.00  0.00     0.034 C 
ENDBRANCH  14  18
ENDBRANCH  13  14
ENDBRANCH  12  13
ENDBRANCH   9  12
ENDBRANCH   1   8
BRANCH   7  20
ATOM     20  O20 ZIN A   1      17.171   0.499  10.902  0.00  0.00    -0.355 OA
ATOM     21  C21 ZIN A   1      17.164  -0.767  11.564  0.00  0.00     0.210 C 
ENDBRANCH   7  20
BRANCH   5  22
ATOM     22  N17 ZIN A   1      17.815  -1.545   6.628  0.00  0.00    -0.398 N 
ATOM     23  H38 ZIN A   1      17.494  -2.394   6.969  0.00  0.00     0.156 HD
ATOM     24  H39 ZIN A   1      17.994  -1.439   5.681  0.00  0.00     0.156 HD
ENDBRANCH   5  22
TORSDOF 8
ENDMDL
MODEL 6
REMARK VINA RESULT:      -5.9      2.096      2.973
REMARK  8 active torsions:
REMARK  status: ('A' for Active; 'I' for Inactive)
REMARK    1  A    between atoms: C2_2  and  N3_3 
REMARK    2  A    between atoms: N3_3  and  C5_5 
REMARK    3  A    between atoms: N3_3  and  C7_7 
REMARK    4  A    between atoms: C7_7  and  C8_8 
REMARK    5  A    between atoms: C8_8  and  N9_9 
REMARK       I    between atoms: N9_9  and  C10_10 
REMARK    6  A    between atoms: C10_10  and  C12_12 
REMARK    7  A    between atoms: C16_16  and  N17_17 
REMARK    8  A    between atoms: C19_19  and  O20_20 
ROOT
ATOM      1  C12 ZIN A   1      18.229   1.527  13.751  0.00  0.00     0.067 A 
ATOM      2  C13 ZIN A   1      18.425   0.248  14.279  0.00  0.00     0.046 A 
ATOM      3  C14 ZIN A   1      18.789   0.096  15.597  0.00  0.00     0.061 A 
ATOM      4 Cl15 ZIN A   1      19.032  -1.494  16.252  0.00  0.00    -0.082 Cl
ATOM      5  C16 ZIN A   1      18.962   1.217  16.409  0.00  0.00     0.050 A 
ATOM      6  C18 ZIN A   1      18.769   2.491  15.893  0.00  0.00     0.068 A 
ATOM      7  C19 ZIN A   1      18.409   2.655  14.567  0.00  0.00     0.086 A 
ENDROOT
BRANCH   1   8
ATOM      8  C10 ZIN A   1      17.840   1.692  12.340  0.00  0.00     0.254 C 
ATOM      9  N9  ZIN A   1      18.494   2.574  11.559  0.00  0.00    -0.355 N 
ATOM     10  H36 ZIN A   1      19.220   3.102  11.927  0.00  0.00     0.162 HD
ATOM     11  O11 ZIN A   1      16.929   1.030  11.879  0.00  0.00    -0.268 OA
BRANCH   9  12
ATOM     12  C8  ZIN A   1      18.107   2.738  10.155  0.00  0.00     0.150 C 
BRANCH  12  13
ATOM     13  C7  ZIN A   1      19.103   1.994   9.262  0.00  0.00     0.254 C 
BRANCH  13  14
ATOM     14  N3  ZIN A   1      18.727   0.576   9.186  0.00  0.00    -0.070 N 
ATOM     15  H4  ZIN A   1      18.127   0.345   9.962  0.00  0.00     0.279 HD
BRANCH  14  16
ATOM     16  C2  ZIN A   1      18.016   0.324   7.925  0.00  0.00     0.230 C 
ATOM     17  C1  ZIN A   1      18.776   0.982   6.772  0.00  0.00     0.034 C 
ENDBRANCH  14  16
BRANCH  14  18
ATOM     18  C5  ZIN A   1      19.938  -0.254   9.239  0.00  0.00     0.230 C 
ATOM     19  C6  ZIN A   1      20.352  -0.459  10.698  0.00  0.00     0.034 C 
ENDBRANCH  14  18
ENDBRANCH  13  14
ENDBRANCH  12  13
ENDBRANCH   9  12
ENDBRANCH   1   8
BRANCH   7  20
ATOM     20  O20 ZIN A   1      18.221   3.899  14.062  0.00  0.00    -0.355 OA
ATOM     21  C21 ZIN A   1      19.264   4.852  14.276  0.00  0.00     0.210 C 
ENDBRANCH   7  20
BRANCH   5  22
ATOM     22  N17 ZIN A   1      19.331   1.056  17.741  0.00  0.00    -0.398 N 
ATOM     23  H38 ZIN A   1      18.673   1.172  18.444  0.00  0.00     0.156 HD
ATOM     24  H39 ZIN A   1      20.247   0.830  17.967  0.00  0.00     0.156 HD
ENDBRANCH   5  22
TORSDOF 8
ENDMDL
MODEL 7
REMARK VINA RESULT:      -5.9      1.923      3.031
REMARK  8 active torsions:
REMARK  status: ('A' for Active; 'I' for Inactive)
REMARK    1  A    between atoms: C2_2  and  N3_3 
REMARK    2  A    between atoms: N3_3  and  C5_5 
REMARK    3  A    between atoms: N3_3  and  C7_7 
REMARK    4  A    between atoms: C7_7  and  C8_8 
REMARK    5  A    between atoms: C8_8  and  N9_9 
REMARK       I    between atoms: N9_9  and  C10_10 
REMARK    6  A    between atoms: C10_10  and  C12_12 
REMARK    7  A    between atoms: C16_16  and  N17_17 
REMARK    8  A    between atoms: C19_19  and  O20_20 
ROOT
ATOM      1  C12 ZIN A   1      17.886  -0.790  12.863  0.00  0.00     0.067 A 
ATOM      2  C13 ZIN A   1      18.419  -1.460  13.968  0.00  0.00     0.046 A 
ATOM      3  C14 ZIN A   1      18.643  -0.779  15.142  0.00  0.00     0.061 A 
ATOM      4 Cl15 ZIN A   1      19.306  -1.611  16.515  0.00  0.00    -0.082 Cl
ATOM      5  C16 ZIN A   1      18.339   0.579  15.234  0.00  0.00     0.050 A 
ATOM      6  C18 ZIN A   1      17.809   1.252  14.140  0.00  0.00     0.068 A 
ATOM      7  C19 ZIN A   1      17.585   0.578  12.953  0.00  0.00     0.086 A 
ENDROOT
BRANCH   1   8
ATOM      8  C10 ZIN A   1      17.646  -1.517  11.605  0.00  0.00     0.254 C 
ATOM      9  N9  ZIN A   1      18.172  -1.060  10.451  0.00  0.00    -0.355 N 
ATOM     10  H36 ZIN A   1      18.707  -0.250  10.450  0.00  0.00     0.162 HD
ATOM     11  O11 ZIN A   1      16.975  -2.532  11.608  0.00  0.00    -0.268 OA
BRANCH   9  12
ATOM     12  C8  ZIN A   1      17.933  -1.783   9.200  0.00  0.00     0.150 C 
BRANCH  12  13
ATOM     13  C7  ZIN A   1      19.039  -2.820   8.992  0.00  0.00     0.254 C 
BRANCH  13  14
ATOM     14  N3  ZIN A   1      18.592  -4.122   9.507  0.00  0.00    -0.070 N 
ATOM     15  H4  ZIN A   1      17.881  -3.980  10.207  0.00  0.00     0.279 HD
BRANCH  14  16
ATOM     16  C2  ZIN A   1      18.040  -4.922   8.404  0.00  0.00     0.230 C 
ATOM     17  C1  ZIN A   1      18.400  -6.394   8.614  0.00  0.00     0.034 C 
ENDBRANCH  14  16
BRANCH  14  18
ATOM     18  C5  ZIN A   1      19.733  -4.830  10.102  0.00  0.00     0.230 C 
ATOM     19  C6  ZIN A   1      20.093  -4.182  11.441  0.00  0.00     0.034 C 
ENDBRANCH  14  18
ENDBRANCH  13  14
ENDBRANCH  12  13
ENDBRANCH   9  12
ENDBRANCH   1   8
BRANCH   7  20
ATOM     20  O20 ZIN A   1      17.068   1.234  11.885  0.00  0.00    -0.355 OA
ATOM     21  C21 ZIN A   1      17.713   2.447  11.493  0.00  0.00     0.210 C 
ENDBRANCH   7  20
BRANCH   5  22
ATOM     22  N17 ZIN A   1      18.569   1.263  16.424  0.00  0.00    -0.398 N 
ATOM     23  H38 ZIN A   1      18.450   2.225  16.462  0.00  0.00     0.156 HD
ATOM     24  H39 ZIN A   1      18.848   0.777  17.216  0.00  0.00     0.156 HD
ENDBRANCH   5  22
TORSDOF 8
ENDMDL
MODEL 8
REMARK VINA RESULT:      -5.8      2.213      2.773
REMARK  8 active torsions:
REMARK  status: ('A' for Active; 'I' for Inactive)
REMARK    1  A    between atoms: C2_2  and  N3_3 
REMARK    2  A    between atoms: N3_3  and  C5_5 
REMARK    3  A    between atoms: N3_3  and  C7_7 
REMARK    4  A    between atoms: C7_7  and  C8_8 
REMARK    5  A    between atoms: C8_8  and  N9_9 
REMARK       I    between atoms: N9_9  and  C10_10 
REMARK    6  A    between atoms: C10_10  and  C12_12 
REMARK    7  A    between atoms: C16_16  and  N17_17 
REMARK    8  A    between atoms: C19_19  and  O20_20 
ROOT
ATOM      1  C12 ZIN A   1      18.701  -0.034  14.656  0.00  0.00     0.067 A 
ATOM      2  C13 ZIN A   1      18.573  -0.468  15.979  0.00  0.00     0.046 A 
ATOM      3  C14 ZIN A   1      18.743   0.422  17.014  0.00  0.00     0.061 A 
ATOM      4 Cl15 ZIN A   1      18.584  -0.119  18.657  0.00  0.00    -0.082 Cl
ATOM      5  C16 ZIN A   1      19.043   1.758  16.748  0.00  0.00     0.050 A 
ATOM      6  C18 ZIN A   1      19.171   2.197  15.437  0.00  0.00     0.068 A 
ATOM      7  C19 ZIN A   1      19.009   1.309  14.389  0.00  0.00     0.086 A 
ENDROOT
BRANCH   1   8
ATOM      8  C10 ZIN A   1      18.520  -0.985  13.547  0.00  0.00     0.254 C 
ATOM      9  N9  ZIN A   1      17.628  -0.721  12.571  0.00  0.00    -0.355 N 
ATOM     10  H36 ZIN A   1      17.104   0.095  12.602  0.00  0.00     0.162 HD
ATOM     11  O11 ZIN A   1      19.178  -2.008  13.510  0.00  0.00    -0.268 OA
BRANCH   9  12
ATOM     12  C8  ZIN A   1      17.449  -1.668  11.467  0.00  0.00     0.150 C 
BRANCH  12  13
ATOM     13  C7  ZIN A   1      17.659  -0.943  10.136  0.00  0.00     0.254 C 
BRANCH  13  14
ATOM     14  N3  ZIN A   1      18.590   0.177  10.330  0.00  0.00    -0.070 N 
ATOM     15  H4  ZIN A   1      18.703   0.353  11.316  0.00  0.00     0.279 HD
BRANCH  14  16
ATOM     16  C2  ZIN A   1      19.893  -0.160   9.740  0.00  0.00     0.230 C 
ATOM     17  C1  ZIN A   1      20.897  -0.453  10.856  0.00  0.00     0.034 C 
ENDBRANCH  14  16
BRANCH  14  18
ATOM     18  C5  ZIN A   1      18.053   1.379   9.677  0.00  0.00     0.230 C 
ATOM     19  C6  ZIN A   1      19.078   1.916   8.676  0.00  0.00     0.034 C 
ENDBRANCH  14  18
ENDBRANCH  13  14
ENDBRANCH  12  13
ENDBRANCH   9  12
ENDBRANCH   1   8
BRANCH   7  20
ATOM     20  O20 ZIN A   1      19.134   1.738  13.108  0.00  0.00    -0.355 OA
ATOM     21  C21 ZIN A   1      18.907   3.127  12.863  0.00  0.00     0.210 C 
ENDBRANCH   7  20
BRANCH   5  22
ATOM     22  N17 ZIN A   1      19.214   2.652  17.800  0.00  0.00    -0.398 N 
ATOM     23  H38 ZIN A   1      18.470   3.198  18.099  0.00  0.00     0.156 HD
ATOM     24  H39 ZIN A   1      20.078   2.731  18.234  0.00  0.00     0.156 HD
ENDBRANCH   5  22
TORSDOF 8
ENDMDL
MODEL 9
REMARK VINA RESULT:      -5.7      2.960      7.368
REMARK  8 active torsions:
REMARK  status: ('A' for Active; 'I' for Inactive)
REMARK    1  A    between atoms: C2_2  and  N3_3 
REMARK    2  A    between atoms: N3_3  and  C5_5 
REMARK    3  A    between atoms: N3_3  and  C7_7 
REMARK    4  A    between atoms: C7_7  and  C8_8 
REMARK    5  A    between atoms: C8_8  and  N9_9 
REMARK       I    between atoms: N9_9  and  C10_10 
REMARK    6  A    between atoms: C10_10  and  C12_12 
REMARK    7  A    between atoms: C16_16  and  N17_17 
REMARK    8  A    between atoms: C19_19  and  O20_20 
ROOT
ATOM      1  C12 ZIN A   1      17.638  -0.672  10.038  0.00  0.00     0.067 A 
ATOM      2  C13 ZIN A   1      17.335  -0.053   8.821  0.00  0.00     0.046 A 
ATOM      3  C14 ZIN A   1      17.729  -0.632   7.638  0.00  0.00     0.061 A 
ATOM      4 Cl15 ZIN A   1      17.351   0.138   6.128  0.00  0.00    -0.082 Cl
ATOM      5  C16 ZIN A   1      18.431  -1.837   7.647  0.00  0.00     0.050 A 
ATOM      6  C18 ZIN A   1      18.737  -2.459   8.850  0.00  0.00     0.068 A 
ATOM      7  C19 ZIN A   1      18.350  -1.882  10.046  0.00  0.00     0.086 A 
ENDROOT
BRANCH   1   8
ATOM      8  C10 ZIN A   1      17.218  -0.054  11.306  0.00  0.00     0.254 C 
ATOM      9  N9  ZIN A   1      18.144   0.343  12.202  0.00  0.00    -0.355 N 
ATOM     10  H36 ZIN A   1      19.087   0.219  12.012  0.00  0.00     0.162 HD
ATOM     11  O11 ZIN A   1      16.035   0.101  11.545  0.00  0.00    -0.268 OA
BRANCH   9  12
ATOM     12  C8  ZIN A   1      17.725   0.958  13.464  0.00  0.00     0.150 C 
BRANCH  12  13
ATOM     13  C7  ZIN A   1      17.869  -0.059  14.599  0.00  0.00     0.254 C 
BRANCH  13  14
ATOM     14  N3  ZIN A   1      18.850   0.434  15.575  0.00  0.00    -0.070 N 
ATOM     15  H4  ZIN A   1      19.747   0.011  15.393  0.00  0.00     0.279 HD
BRANCH  14  16
ATOM     16  C2  ZIN A   1      18.964   1.894  15.462  0.00  0.00     0.230 C 
ATOM     17  C1  ZIN A   1      19.270   2.490  16.837  0.00  0.00     0.034 C 
ENDBRANCH  14  16
BRANCH  14  18
ATOM     18  C5  ZIN A   1      18.409   0.081  16.932  0.00  0.00     0.230 C 
ATOM     19  C6  ZIN A   1      17.202  -0.855  16.849  0.00  0.00     0.034 C 
ENDBRANCH  14  18
ENDBRANCH  13  14
ENDBRANCH  12  13
ENDBRANCH   9  12
ENDBRANCH   1   8
BRANCH   7  20
ATOM     20  O20 ZIN A   1      18.648  -2.489  11.222  0.00  0.00    -0.355 OA
ATOM     21  C21 ZIN A   1      19.756  -3.391  11.225  0.00  0.00     0.210 C 
ENDBRANCH   7  20
BRANCH   5  22
ATOM     22  N17 ZIN A   1      18.828  -2.417   6.446  0.00  0.00    -0.398 N 
ATOM     23  H38 ZIN A   1      19.756  -2.665   6.310  0.00  0.00     0.156 HD
ATOM     24  H39 ZIN A   1      18.177  -2.574   5.744  0.00  0.00     0.156 HD
ENDBRANCH   5  22
TORSDOF 8
ENDMDL
