MODEL 1
REMARK VINA RESULT:      -6.4      0.000      0.000
REMARK  7 active torsions:
REMARK  status: ('A' for Active; 'I' for Inactive)
REMARK    1  A    between atoms: C2_2  and  C4_4 
REMARK    2  A    between atoms: C8_8  and  C9_9 
REMARK    3  A    between atoms: C12_12  and  O13_13 
REMARK    4  A    between atoms: O13_13  and  C14_14 
REMARK    5  A    between atoms: C14_14  and  O15_15 
REMARK    6  A    between atoms: O15_15  and  P16_16 
REMARK    7  A    between atoms: P16_16  and  O19_19 
ROOT
ATOM      1  C4  ZIN A   1      18.131  -2.166  10.584  0.00  0.00    -0.021 A 
ATOM      2  C5  ZIN A   1      17.414  -1.425  11.504  0.00  0.00     0.010 A 
ATOM      3  C6  ZIN A   1      17.081  -0.112  11.226  0.00  0.00     0.001 A 
ATOM      4  C7  ZIN A   1      17.465   0.462  10.028  0.00  0.00     0.010 A 
ATOM      5  C8  ZIN A   1      18.182  -0.275   9.106  0.00  0.00    -0.021 A 
ATOM      6  C12 ZIN A   1      18.522  -1.591   9.384  0.00  0.00     0.085 A 
ENDROOT
BRANCH   6   7
ATOM      7  O13 ZIN A   1      19.226  -2.318   8.478  0.00  0.00    -0.325 OA
BRANCH   7   8
ATOM      8  C14 ZIN A   1      18.476  -3.010   7.476  0.00  0.00     0.358 C 
BRANCH   8   9
ATOM      9  O15 ZIN A   1      18.554  -4.417   7.710  0.00  0.00    -0.264 OA
BRANCH   9  10
ATOM     10  P16 ZIN A   1      19.860  -5.293   7.357  0.00  0.00     0.407 P 
ATOM     11  O17 ZIN A   1      19.514  -6.308   6.246  0.00  0.00    -0.624 OA
ATOM     12  O18 ZIN A   1      20.327  -6.050   8.620  0.00  0.00    -0.624 OA
BRANCH  10  13
ATOM     13  O19 ZIN A   1      21.037  -4.319   6.848  0.00  0.00    -0.300 OA
ATOM     14  H39 ZIN A   1      21.829  -4.786   6.547  0.00  0.00     0.223 HD
ENDBRANCH  10  13
ENDBRANCH   9  10
ENDBRANCH   8   9
ENDBRANCH   7   8
ENDBRANCH   6   7
BRANCH   1  15
ATOM     15  C2  ZIN A   1      18.494  -3.597  10.888  0.00  0.00     0.013 C 
ATOM     16  C1  ZIN A   1      19.789  -3.633  11.702  0.00  0.00     0.015 C 
ATOM     17  C3  ZIN A   1      17.367  -4.249  11.693  0.00  0.00     0.015 C 
ENDBRANCH   1  15
BRANCH   5  18
ATOM     18  C9  ZIN A   1      18.599   0.351   7.800  0.00  0.00     0.013 C 
ATOM     19  C10 ZIN A   1      17.410   0.364   6.838  0.00  0.00     0.015 C 
ATOM     20  C11 ZIN A   1      19.069   1.785   8.049  0.00  0.00     0.015 C 
ENDBRANCH   5  18
TORSDOF 7
ENDMDL
MODEL 2
REMARK VINA RESULT:      -6.4      0.128      3.768
REMARK  7 active torsions:
REMARK  status: ('A' for Active; 'I' for Inactive)
REMARK    1  A    between atoms: C2_2  and  C4_4 
REMARK    2  A    between atoms: C8_8  and  C9_9 
REMARK    3  A    between atoms: C12_12  and  O13_13 
REMARK    4  A    between atoms: O13_13  and  C14_14 
REMARK    5  A    between atoms: C14_14  and  O15_15 
REMARK    6  A    between atoms: O15_15  and  P16_16 
REMARK    7  A    between atoms: P16_16  and  O19_19 
ROOT
ATOM      1  C4  ZIN A   1      18.141  -0.274   8.956  0.00  0.00    -0.021 A 
ATOM      2  C5  ZIN A   1      17.417   0.488   9.851  0.00  0.00     0.010 A 
ATOM      3  C6  ZIN A   1      17.044  -0.046  11.072  0.00  0.00     0.001 A 
ATOM      4  C7  ZIN A   1      17.397  -1.342  11.398  0.00  0.00     0.010 A 
ATOM      5  C8  ZIN A   1      18.121  -2.108  10.505  0.00  0.00    -0.021 A 
ATOM      6  C12 ZIN A   1      18.491  -1.577   9.278  0.00  0.00     0.085 A 
ENDROOT
BRANCH   6   7
ATOM      7  O13 ZIN A   1      19.204  -2.328   8.399  0.00  0.00    -0.325 OA
BRANCH   7   8
ATOM      8  C14 ZIN A   1      18.467  -3.014   7.384  0.00  0.00     0.358 C 
BRANCH   8   9
ATOM      9  O15 ZIN A   1      18.529  -4.422   7.621  0.00  0.00    -0.264 OA
BRANCH   9  10
ATOM     10  P16 ZIN A   1      19.848  -5.302   7.334  0.00  0.00     0.407 P 
ATOM     11  O17 ZIN A   1      19.543  -6.341   6.232  0.00  0.00    -0.624 OA
ATOM     12  O18 ZIN A   1      20.271  -6.032   8.628  0.00  0.00    -0.624 OA
BRANCH  10  13
ATOM     13  O19 ZIN A   1      21.041  -4.337   6.847  0.00  0.00    -0.300 OA
ATOM     14  H39 ZIN A   1      21.745  -4.794   6.367  0.00  0.00     0.223 HD
ENDBRANCH  10  13
ENDBRANCH   9  10
ENDBRANCH   8   9
ENDBRANCH   7   8
ENDBRANCH   6   7
BRANCH   1  15
ATOM     15  C2  ZIN A   1      18.546   0.308   7.625  0.00  0.00     0.013 C 
ATOM     16  C1  ZIN A   1      17.335   0.336   6.691  0.00  0.00     0.015 C 
ATOM     17  C3  ZIN A   1      19.067   1.733   7.829  0.00  0.00     0.015 C 
ENDBRANCH   1  15
BRANCH   5  18
ATOM     18  C9  ZIN A   1      18.504  -3.522  10.861  0.00  0.00     0.013 C 
ATOM     19  C10 ZIN A   1      19.753  -3.503  11.745  0.00  0.00     0.015 C 
ATOM     20  C11 ZIN A   1      17.354  -4.186  11.619  0.00  0.00     0.015 C 
ENDBRANCH   5  18
TORSDOF 7
ENDMDL
MODEL 3
REMARK VINA RESULT:      -6.3      1.554      3.948
REMARK  7 active torsions:
REMARK  status: ('A' for Active; 'I' for Inactive)
REMARK    1  A    between atoms: C2_2  and  C4_4 
REMARK    2  A    between atoms: C8_8  and  C9_9 
REMARK    3  A    between atoms: C12_12  and  O13_13 
REMARK    4  A    between atoms: O13_13  and  C14_14 
REMARK    5  A    between atoms: C14_14  and  O15_15 
REMARK    6  A    between atoms: O15_15  and  P16_16 
REMARK    7  A    between atoms: P16_16  and  O19_19 
ROOT
ATOM      1  C4  ZIN A   1      18.958  -0.103   7.074  0.00  0.00    -0.021 A 
ATOM      2  C5  ZIN A   1      18.814   1.270   7.123  0.00  0.00     0.010 A 
ATOM      3  C6  ZIN A   1      18.986   1.942   8.319  0.00  0.00     0.001 A 
ATOM      4  C7  ZIN A   1      19.302   1.242   9.469  0.00  0.00     0.010 A 
ATOM      5  C8  ZIN A   1      19.447  -0.130   9.425  0.00  0.00    -0.021 A 
ATOM      6  C12 ZIN A   1      19.270  -0.809   8.228  0.00  0.00     0.085 A 
ENDROOT
BRANCH   6   7
ATOM      7  O13 ZIN A   1      19.413  -2.158   8.182  0.00  0.00    -0.325 OA
BRANCH   7   8
ATOM      8  C14 ZIN A   1      18.224  -2.942   8.315  0.00  0.00     0.358 C 
BRANCH   8   9
ATOM      9  O15 ZIN A   1      18.327  -4.105   7.493  0.00  0.00    -0.264 OA
BRANCH   9  10
ATOM     10  P16 ZIN A   1      19.683  -4.964   7.353  0.00  0.00     0.407 P 
ATOM     11  O17 ZIN A   1      19.419  -6.203   6.470  0.00  0.00    -0.624 OA
ATOM     12  O18 ZIN A   1      20.150  -5.419   8.753  0.00  0.00    -0.624 OA
BRANCH  10  13
ATOM     13  O19 ZIN A   1      20.826  -4.054   6.675  0.00  0.00    -0.300 OA
ATOM     14  H39 ZIN A   1      21.484  -3.722   7.301  0.00  0.00     0.223 HD
ENDBRANCH  10  13
ENDBRANCH   9  10
ENDBRANCH   8   9
ENDBRANCH   7   8
ENDBRANCH   6   7
BRANCH   1  15
ATOM     15  C2  ZIN A   1      18.770  -0.835   5.770  0.00  0.00     0.013 C 
ATOM     16  C1  ZIN A   1      17.279  -0.897   5.430  0.00  0.00     0.015 C 
ATOM     17  C3  ZIN A   1      19.517  -0.096   4.658  0.00  0.00     0.015 C 
ENDBRANCH   1  15
BRANCH   5  18
ATOM     18  C9  ZIN A   1      19.791  -0.893  10.679  0.00  0.00     0.013 C 
ATOM     19  C10 ZIN A   1      20.778  -0.076  11.517  0.00  0.00     0.015 C 
ATOM     20  C11 ZIN A   1      18.519  -1.143  11.489  0.00  0.00     0.015 C 
ENDBRANCH   5  18
TORSDOF 7
ENDMDL
MODEL 4
REMARK VINA RESULT:      -6.3      1.550      2.467
REMARK  7 active torsions:
REMARK  status: ('A' for Active; 'I' for Inactive)
REMARK    1  A    between atoms: C2_2  and  C4_4 
REMARK    2  A    between atoms: C8_8  and  C9_9 
REMARK    3  A    between atoms: C12_12  and  O13_13 
REMARK    4  A    between atoms: O13_13  and  C14_14 
REMARK    5  A    between atoms: C14_14  and  O15_15 
REMARK    6  A    between atoms: O15_15  and  P16_16 
REMARK    7  A    between atoms: P16_16  and  O19_19 
ROOT
ATOM      1  C4  ZIN A   1      19.422  -0.152   9.434  0.00  0.00    -0.021 A 
ATOM      2  C5  ZIN A   1      19.278   1.221   9.472  0.00  0.00     0.010 A 
ATOM      3  C6  ZIN A   1      18.974   1.918   8.316  0.00  0.00     0.001 A 
ATOM      4  C7  ZIN A   1      18.815   1.242   7.121  0.00  0.00     0.010 A 
ATOM      5  C8  ZIN A   1      18.958  -0.131   7.078  0.00  0.00    -0.021 A 
ATOM      6  C12 ZIN A   1      19.268  -0.833   8.234  0.00  0.00     0.085 A 
ENDROOT
BRANCH   6   7
ATOM      7  O13 ZIN A   1      19.409  -2.182   8.195  0.00  0.00    -0.325 OA
BRANCH   7   8
ATOM      8  C14 ZIN A   1      18.217  -2.964   8.304  0.00  0.00     0.358 C 
BRANCH   8   9
ATOM      9  O15 ZIN A   1      18.327  -4.119   7.470  0.00  0.00    -0.264 OA
BRANCH   9  10
ATOM     10  P16 ZIN A   1      19.677  -4.988   7.351  0.00  0.00     0.407 P 
ATOM     11  O17 ZIN A   1      19.419  -6.220   6.456  0.00  0.00    -0.624 OA
ATOM     12  O18 ZIN A   1      20.114  -5.456   8.757  0.00  0.00    -0.624 OA
BRANCH  10  13
ATOM     13  O19 ZIN A   1      20.841  -4.085   6.700  0.00  0.00    -0.300 OA
ATOM     14  H39 ZIN A   1      21.606  -3.955   7.277  0.00  0.00     0.223 HD
ENDBRANCH  10  13
ENDBRANCH   9  10
ENDBRANCH   8   9
ENDBRANCH   7   8
ENDBRANCH   6   7
BRANCH   1  15
ATOM     15  C2  ZIN A   1      19.754  -0.911  10.693  0.00  0.00     0.013 C 
ATOM     16  C1  ZIN A   1      20.758  -0.108  11.523  0.00  0.00     0.015 C 
ATOM     17  C3  ZIN A   1      18.477  -1.128  11.509  0.00  0.00     0.015 C 
ENDBRANCH   1  15
BRANCH   5  18
ATOM     18  C9  ZIN A   1      18.784  -0.867   5.774  0.00  0.00     0.013 C 
ATOM     19  C10 ZIN A   1      17.298  -0.924   5.416  0.00  0.00     0.015 C 
ATOM     20  C11 ZIN A   1      19.548  -0.136   4.670  0.00  0.00     0.015 C 
ENDBRANCH   5  18
TORSDOF 7
ENDMDL
MODEL 5
REMARK VINA RESULT:      -6.3      7.066      9.212
REMARK  7 active torsions:
REMARK  status: ('A' for Active; 'I' for Inactive)
REMARK    1  A    between atoms: C2_2  and  C4_4 
REMARK    2  A    between atoms: C8_8  and  C9_9 
REMARK    3  A    between atoms: C12_12  and  O13_13 
REMARK    4  A    between atoms: O13_13  and  C14_14 
REMARK    5  A    between atoms: C14_14  and  O15_15 
REMARK    6  A    between atoms: O15_15  and  P16_16 
REMARK    7  A    between atoms: P16_16  and  O19_19 
ROOT
ATOM      1  C4  ZIN A   1      18.571   0.888  12.954  0.00  0.00    -0.021 A 
ATOM      2  C5  ZIN A   1      18.914  -0.217  12.200  0.00  0.00     0.010 A 
ATOM      3  C6  ZIN A   1      19.094  -1.444  12.813  0.00  0.00     0.001 A 
ATOM      4  C7  ZIN A   1      18.931  -1.567  14.180  0.00  0.00     0.010 A 
ATOM      5  C8  ZIN A   1      18.590  -0.464  14.938  0.00  0.00    -0.021 A 
ATOM      6  C12 ZIN A   1      18.414   0.769  14.328  0.00  0.00     0.085 A 
ENDROOT
BRANCH   6   7
ATOM      7  O13 ZIN A   1      18.077   1.855  15.071  0.00  0.00    -0.325 OA
BRANCH   7   8
ATOM      8  C14 ZIN A   1      19.124   2.484  15.813  0.00  0.00     0.358 C 
BRANCH   8   9
ATOM      9  O15 ZIN A   1      18.565   3.180  16.928  0.00  0.00    -0.264 OA
BRANCH   9  10
ATOM     10  P16 ZIN A   1      18.622   2.613  18.435  0.00  0.00     0.407 P 
ATOM     11  O17 ZIN A   1      19.843   1.679  18.587  0.00  0.00    -0.624 OA
ATOM     12  O18 ZIN A   1      17.329   1.824  18.737  0.00  0.00    -0.624 OA
BRANCH  10  13
ATOM     13  O19 ZIN A   1      18.754   3.843  19.466  0.00  0.00    -0.300 OA
ATOM     14  H39 ZIN A   1      19.023   4.674  19.053  0.00  0.00     0.223 HD
ENDBRANCH  10  13
ENDBRANCH   9  10
ENDBRANCH   8   9
ENDBRANCH   7   8
ENDBRANCH   6   7
BRANCH   1  15
ATOM     15  C2  ZIN A   1      18.376   2.225  12.286  0.00  0.00     0.013 C 
ATOM     16  C1  ZIN A   1      19.740   2.822  11.931  0.00  0.00     0.015 C 
ATOM     17  C3  ZIN A   1      17.551   2.042  11.010  0.00  0.00     0.015 C 
ENDBRANCH   1  15
BRANCH   5  18
ATOM     18  C9  ZIN A   1      18.413  -0.598  16.429  0.00  0.00     0.013 C 
ATOM     19  C10 ZIN A   1      16.989  -1.068  16.733  0.00  0.00     0.015 C 
ATOM     20  C11 ZIN A   1      19.414  -1.620  16.971  0.00  0.00     0.015 C 
ENDBRANCH   5  18
TORSDOF 7
ENDMDL
MODEL 6
REMARK VINA RESULT:      -6.3      6.568      8.930
REMARK  7 active torsions:
REMARK  status: ('A' for Active; 'I' for Inactive)
REMARK    1  A    between atoms: C2_2  and  C4_4 
REMARK    2  A    between atoms: C8_8  and  C9_9 
REMARK    3  A    between atoms: C12_12  and  O13_13 
REMARK    4  A    between atoms: O13_13  and  C14_14 
REMARK    5  A    between atoms: C14_14  and  O15_15 
REMARK    6  A    between atoms: O15_15  and  P16_16 
REMARK    7  A    between atoms: P16_16  and  O19_19 
ROOT
ATOM      1  C4  ZIN A   1      18.014   1.927  11.718  0.00  0.00    -0.021 A 
ATOM      2  C5  ZIN A   1      17.234   1.010  11.041  0.00  0.00     0.010 A 
ATOM      3  C6  ZIN A   1      16.907  -0.195  11.636  0.00  0.00     0.001 A 
ATOM      4  C7  ZIN A   1      17.360  -0.484  12.910  0.00  0.00     0.010 A 
ATOM      5  C8  ZIN A   1      18.140   0.429  13.591  0.00  0.00    -0.021 A 
ATOM      6  C12 ZIN A   1      18.475   1.637  12.995  0.00  0.00     0.085 A 
ENDROOT
BRANCH   6   7
ATOM      7  O13 ZIN A   1      19.241   2.536  13.662  0.00  0.00    -0.325 OA
BRANCH   7   8
ATOM      8  C14 ZIN A   1      18.567   3.436  14.545  0.00  0.00     0.358 C 
BRANCH   8   9
ATOM      9  O15 ZIN A   1      19.152   4.735  14.439  0.00  0.00    -0.264 OA
BRANCH   9  10
ATOM     10  P16 ZIN A   1      20.029   5.401  15.615  0.00  0.00     0.407 P 
ATOM     11  O17 ZIN A   1      19.089   6.065  16.645  0.00  0.00    -0.624 OA
ATOM     12  O18 ZIN A   1      20.970   6.468  15.013  0.00  0.00    -0.624 OA
BRANCH  10  13
ATOM     13  O19 ZIN A   1      20.905   4.261  16.341  0.00  0.00    -0.300 OA
ATOM     14  H39 ZIN A   1      21.510   3.794  15.749  0.00  0.00     0.223 HD
ENDBRANCH  10  13
ENDBRANCH   9  10
ENDBRANCH   8   9
ENDBRANCH   7   8
ENDBRANCH   6   7
BRANCH   1  15
ATOM     15  C2  ZIN A   1      18.371   3.239  11.068  0.00  0.00     0.013 C 
ATOM     16  C1  ZIN A   1      18.680   3.008   9.588  0.00  0.00     0.015 C 
ATOM     17  C3  ZIN A   1      17.194   4.209  11.199  0.00  0.00     0.015 C 
ENDBRANCH   1  15
BRANCH   5  18
ATOM     18  C9  ZIN A   1      18.634   0.113  14.980  0.00  0.00     0.013 C 
ATOM     19  C10 ZIN A   1      17.450   0.099  15.950  0.00  0.00     0.015 C 
ATOM     20  C11 ZIN A   1      19.310  -1.258  14.981  0.00  0.00     0.015 C 
ENDBRANCH   5  18
TORSDOF 7
ENDMDL
MODEL 7
REMARK VINA RESULT:      -6.2      6.569      8.173
REMARK  7 active torsions:
REMARK  status: ('A' for Active; 'I' for Inactive)
REMARK    1  A    between atoms: C2_2  and  C4_4 
REMARK    2  A    between atoms: C8_8  and  C9_9 
REMARK    3  A    between atoms: C12_12  and  O13_13 
REMARK    4  A    between atoms: O13_13  and  C14_14 
REMARK    5  A    between atoms: C14_14  and  O15_15 
REMARK    6  A    between atoms: O15_15  and  P16_16 
REMARK    7  A    between atoms: P16_16  and  O19_19 
ROOT
ATOM      1  C4  ZIN A   1      18.121   0.399  13.534  0.00  0.00    -0.021 A 
ATOM      2  C5  ZIN A   1      17.393  -0.541  12.830  0.00  0.00     0.010 A 
ATOM      3  C6  ZIN A   1      16.968  -0.267  11.543  0.00  0.00     0.001 A 
ATOM      4  C7  ZIN A   1      17.272   0.949  10.957  0.00  0.00     0.010 A 
ATOM      5  C8  ZIN A   1      17.999   1.891  11.657  0.00  0.00    -0.021 A 
ATOM      6  C12 ZIN A   1      18.421   1.621  12.951  0.00  0.00     0.085 A 
ENDROOT
BRANCH   6   7
ATOM      7  O13 ZIN A   1      19.137   2.547  13.640  0.00  0.00    -0.325 OA
BRANCH   7   8
ATOM      8  C14 ZIN A   1      18.399   3.472  14.443  0.00  0.00     0.358 C 
BRANCH   8   9
ATOM      9  O15 ZIN A   1      19.160   4.670  14.609  0.00  0.00    -0.264 OA
BRANCH   9  10
ATOM     10  P16 ZIN A   1      19.811   5.107  16.016  0.00  0.00     0.407 P 
ATOM     11  O17 ZIN A   1      19.239   4.223  17.145  0.00  0.00    -0.624 OA
ATOM     12  O18 ZIN A   1      19.475   6.587  16.300  0.00  0.00    -0.624 OA
BRANCH  10  13
ATOM     13  O19 ZIN A   1      21.410   4.924  15.947  0.00  0.00    -0.300 OA
ATOM     14  H39 ZIN A   1      21.900   5.757  15.929  0.00  0.00     0.223 HD
ENDBRANCH  10  13
ENDBRANCH   9  10
ENDBRANCH   8   9
ENDBRANCH   7   8
ENDBRANCH   6   7
BRANCH   1  15
ATOM     15  C2  ZIN A   1      18.582   0.099  14.937  0.00  0.00     0.013 C 
ATOM     16  C1  ZIN A   1      17.375   0.080  15.878  0.00  0.00     0.015 C 
ATOM     17  C3  ZIN A   1      19.273  -1.266  14.966  0.00  0.00     0.015 C 
ENDBRANCH   1  15
BRANCH   5  18
ATOM     18  C9  ZIN A   1      18.329   3.216  11.018  0.00  0.00     0.013 C 
ATOM     19  C10 ZIN A   1      18.702   2.995   9.551  0.00  0.00     0.015 C 
ATOM     20  C11 ZIN A   1      17.112   4.139  11.101  0.00  0.00     0.015 C 
ENDBRANCH   5  18
TORSDOF 7
ENDMDL
MODEL 8
REMARK VINA RESULT:      -6.1      4.600      6.544
REMARK  7 active torsions:
REMARK  status: ('A' for Active; 'I' for Inactive)
REMARK    1  A    between atoms: C2_2  and  C4_4 
REMARK    2  A    between atoms: C8_8  and  C9_9 
REMARK    3  A    between atoms: C12_12  and  O13_13 
REMARK    4  A    between atoms: O13_13  and  C14_14 
REMARK    5  A    between atoms: C14_14  and  O15_15 
REMARK    6  A    between atoms: O15_15  and  P16_16 
REMARK    7  A    between atoms: P16_16  and  O19_19 
ROOT
ATOM      1  C4  ZIN A   1      17.985   2.722  10.523  0.00  0.00    -0.021 A 
ATOM      2  C5  ZIN A   1      18.677   3.097   9.388  0.00  0.00     0.010 A 
ATOM      3  C6  ZIN A   1      19.123   2.135   8.500  0.00  0.00     0.001 A 
ATOM      4  C7  ZIN A   1      18.877   0.797   8.746  0.00  0.00     0.010 A 
ATOM      5  C8  ZIN A   1      18.185   0.418   9.879  0.00  0.00    -0.021 A 
ATOM      6  C12 ZIN A   1      17.741   1.379  10.775  0.00  0.00     0.085 A 
ENDROOT
BRANCH   6   7
ATOM      7  O13 ZIN A   1      17.060   1.008  11.890  0.00  0.00    -0.325 OA
BRANCH   7   8
ATOM      8  C14 ZIN A   1      17.773   1.047  13.129  0.00  0.00     0.358 C 
BRANCH   8   9
ATOM      9  O15 ZIN A   1      17.724  -0.241  13.745  0.00  0.00    -0.264 OA
BRANCH   9  10
ATOM     10  P16 ZIN A   1      18.725  -0.687  14.926  0.00  0.00     0.407 P 
ATOM     11  O17 ZIN A   1      17.970  -1.585  15.930  0.00  0.00    -0.624 OA
ATOM     12  O18 ZIN A   1      19.253   0.569  15.654  0.00  0.00    -0.624 OA
BRANCH  10  13
ATOM     13  O19 ZIN A   1      19.963  -1.504  14.299  0.00  0.00    -0.300 OA
ATOM     14  H39 ZIN A   1      20.830  -1.140  14.528  0.00  0.00     0.223 HD
ENDBRANCH  10  13
ENDBRANCH   9  10
ENDBRANCH   8   9
ENDBRANCH   7   8
ENDBRANCH   6   7
BRANCH   1  15
ATOM     15  C2  ZIN A   1      17.500   3.770  11.492  0.00  0.00     0.013 C 
ATOM     16  C1  ZIN A   1      18.699   4.402  12.203  0.00  0.00     0.015 C 
ATOM     17  C3  ZIN A   1      16.731   4.852  10.729  0.00  0.00     0.015 C 
ENDBRANCH   1  15
BRANCH   5  18
ATOM     18  C9  ZIN A   1      17.917  -1.042  10.146  0.00  0.00     0.013 C 
ATOM     19  C10 ZIN A   1      17.720  -1.775   8.817  0.00  0.00     0.015 C 
ATOM     20  C11 ZIN A   1      19.105  -1.650  10.893  0.00  0.00     0.015 C 
ENDBRANCH   5  18
TORSDOF 7
ENDMDL
MODEL 9
REMARK VINA RESULT:      -6.1      2.026      4.271
REMARK  7 active torsions:
REMARK  status: ('A' for Active; 'I' for Inactive)
REMARK    1  A    between atoms: C2_2  and  C4_4 
REMARK    2  A    between atoms: C8_8  and  C9_9 
REMARK    3  A    between atoms: C12_12  and  O13_13 
REMARK    4  A    between atoms: O13_13  and  C14_14 
REMARK    5  A    between atoms: C14_14  and  O15_15 
REMARK    6  A    between atoms: O15_15  and  P16_16 
REMARK    7  A    between atoms: P16_16  and  O19_19 
ROOT
ATOM      1  C4  ZIN A   1      18.877   0.570   7.884  0.00  0.00    -0.021 A 
ATOM      2  C5  ZIN A   1      18.755   1.945   7.941  0.00  0.00     0.010 A 
ATOM      3  C6  ZIN A   1      18.948   2.608   9.139  0.00  0.00     0.001 A 
ATOM      4  C7  ZIN A   1      19.263   1.897  10.282  0.00  0.00     0.010 A 
ATOM      5  C8  ZIN A   1      19.386   0.523  10.230  0.00  0.00    -0.021 A 
ATOM      6  C12 ZIN A   1      19.187  -0.147   9.031  0.00  0.00     0.085 A 
ENDROOT
BRANCH   6   7
ATOM      7  O13 ZIN A   1      19.308  -1.498   8.978  0.00  0.00    -0.325 OA
BRANCH   7   8
ATOM      8  C14 ZIN A   1      18.125  -2.266   9.217  0.00  0.00     0.358 C 
BRANCH   8   9
ATOM      9  O15 ZIN A   1      18.415  -3.653   9.038  0.00  0.00    -0.264 OA
BRANCH   9  10
ATOM     10  P16 ZIN A   1      19.272  -4.513  10.097  0.00  0.00     0.407 P 
ATOM     11  O17 ZIN A   1      19.952  -5.694   9.370  0.00  0.00    -0.624 OA
ATOM     12  O18 ZIN A   1      18.335  -5.056  11.198  0.00  0.00    -0.624 OA
BRANCH  10  13
ATOM     13  O19 ZIN A   1      20.397  -3.574  10.765  0.00  0.00    -0.300 OA
ATOM     14  H39 ZIN A   1      21.159  -3.407  10.193  0.00  0.00     0.223 HD
ENDBRANCH  10  13
ENDBRANCH   9  10
ENDBRANCH   8   9
ENDBRANCH   7   8
ENDBRANCH   6   7
BRANCH   1  15
ATOM     15  C2  ZIN A   1      18.665  -0.153   6.578  0.00  0.00     0.013 C 
ATOM     16  C1  ZIN A   1      17.172  -0.177   6.245  0.00  0.00     0.015 C 
ATOM     17  C3  ZIN A   1      19.425   0.573   5.466  0.00  0.00     0.015 C 
ENDBRANCH   1  15
BRANCH   5  18
ATOM     18  C9  ZIN A   1      19.729  -0.252  11.477  0.00  0.00     0.013 C 
ATOM     19  C10 ZIN A   1      20.808   0.498  12.261  0.00  0.00     0.015 C 
ATOM     20  C11 ZIN A   1      18.479  -0.402  12.345  0.00  0.00     0.015 C 
ENDBRANCH   5  18
TORSDOF 7
ENDMDL
