MODEL 1
REMARK VINA RESULT:      -5.9      0.000      0.000
REMARK  4 active torsions:
REMARK  status: ('A' for Active; 'I' for Inactive)
REMARK    1  A    between atoms: C2_2  and  C3_3 
REMARK    2  A    between atoms: C3_3  and  C4_4 
REMARK    3  A    between atoms: C4_4  and  C5_5 
REMARK    4  A    between atoms: C5_5  and  C6_6 
ROOT
ATOM      1  C4  ZIN A   1      18.406  -0.047  12.501  0.00  0.00     0.127 A 
ATOM      2  C9  ZIN A   1      17.197   0.708  11.981  0.00  0.00     0.266 A 
ATOM      3  O10 ZIN A   1      16.165   0.132  11.711  0.00  0.00    -0.270 OA
ATOM      4  N11 ZIN A   1      17.313   2.044  11.829  0.00  0.00    -0.157 NA
ATOM      5  C12 ZIN A   1      18.445   2.695  12.122  0.00  0.00     0.351 A 
ATOM      6  O13 ZIN A   1      18.462   3.898  11.956  0.00  0.00    -0.244 OA
ATOM      7  N14 ZIN A   1      19.560   2.117  12.585  0.00  0.00    -0.276 N 
ATOM      8  C15 ZIN A   1      19.638   0.787  12.801  0.00  0.00     0.244 A 
ATOM      9  O16 ZIN A   1      20.655   0.277  13.221  0.00  0.00    -0.272 OA
ATOM     10  H31 ZIN A   1      20.334   2.670  12.770  0.00  0.00     0.173 HD
ENDROOT
BRANCH   1  11
ATOM     11  C3  ZIN A   1      17.998  -0.773  13.784  0.00  0.00     0.055 C 
BRANCH  11  12
ATOM     12  C2  ZIN A   1      17.678   0.239  14.854  0.00  0.00    -0.035 C 
ATOM     13  C1  ZIN A   1      17.466  -0.156  16.085  0.00  0.00     0.007 C 
ENDBRANCH  11  12
ENDBRANCH   1  11
BRANCH   1  14
ATOM     14  C5  ZIN A   1      18.788  -1.101  11.460  0.00  0.00     0.033 C 
BRANCH  14  15
ATOM     15  C6  ZIN A   1      18.584  -2.498  12.051  0.00  0.00    -0.021 C 
ATOM     16  C7  ZIN A   1      17.427  -3.192  11.330  0.00  0.00     0.009 C 
ATOM     17  C8  ZIN A   1      19.862  -3.318  11.872  0.00  0.00     0.009 C 
ENDBRANCH  14  15
ENDBRANCH   1  14
TORSDOF 4
ENDMDL
MODEL 2
REMARK VINA RESULT:      -5.8      2.585      4.895
REMARK  4 active torsions:
REMARK  status: ('A' for Active; 'I' for Inactive)
REMARK    1  A    between atoms: C2_2  and  C3_3 
REMARK    2  A    between atoms: C3_3  and  C4_4 
REMARK    3  A    between atoms: C4_4  and  C5_5 
REMARK    4  A    between atoms: C5_5  and  C6_6 
ROOT
ATOM      1  C4  ZIN A   1      18.329   0.214  11.111  0.00  0.00     0.127 A 
ATOM      2  C9  ZIN A   1      17.014  -0.457  11.463  0.00  0.00     0.266 A 
ATOM      3  O10 ZIN A   1      15.970   0.158  11.443  0.00  0.00    -0.270 OA
ATOM      4  N11 ZIN A   1      17.051  -1.763  11.798  0.00  0.00    -0.157 NA
ATOM      5  C12 ZIN A   1      18.196  -2.457  11.824  0.00  0.00     0.351 A 
ATOM      6  O13 ZIN A   1      18.137  -3.629  12.136  0.00  0.00    -0.244 OA
ATOM      7  N14 ZIN A   1      19.400  -1.953  11.530  0.00  0.00    -0.276 N 
ATOM      8  C15 ZIN A   1      19.566  -0.663  11.172  0.00  0.00     0.244 A 
ATOM      9  O16 ZIN A   1      20.664  -0.220  10.908  0.00  0.00    -0.272 OA
ATOM     10  H31 ZIN A   1      20.176  -2.533  11.576  0.00  0.00     0.173 HD
ENDROOT
BRANCH   1  11
ATOM     11  C3  ZIN A   1      18.212   0.775   9.692  0.00  0.00     0.055 C 
BRANCH  11  12
ATOM     12  C2  ZIN A   1      18.001  -0.358   8.720  0.00  0.00    -0.035 C 
ATOM     13  C1  ZIN A   1      17.237  -0.185   7.670  0.00  0.00     0.007 C 
ENDBRANCH  11  12
ENDBRANCH   1  11
BRANCH   1  14
ATOM     14  C5  ZIN A   1      18.530   1.389  12.069  0.00  0.00     0.033 C 
BRANCH  14  15
ATOM     15  C6  ZIN A   1      18.649   2.687  11.268  0.00  0.00    -0.021 C 
ATOM     16  C7  ZIN A   1      17.518   3.637  11.667  0.00  0.00     0.009 C 
ATOM     17  C8  ZIN A   1      19.997   3.347  11.562  0.00  0.00     0.009 C 
ENDBRANCH  14  15
ENDBRANCH   1  14
TORSDOF 4
ENDMDL
MODEL 3
REMARK VINA RESULT:      -5.6      2.339      4.267
REMARK  4 active torsions:
REMARK  status: ('A' for Active; 'I' for Inactive)
REMARK    1  A    between atoms: C2_2  and  C3_3 
REMARK    2  A    between atoms: C3_3  and  C4_4 
REMARK    3  A    between atoms: C4_4  and  C5_5 
REMARK    4  A    between atoms: C5_5  and  C6_6 
ROOT
ATOM      1  C4  ZIN A   1      18.220   1.354  11.254  0.00  0.00     0.127 A 
ATOM      2  C9  ZIN A   1      19.424   1.796  12.064  0.00  0.00     0.266 A 
ATOM      3  O10 ZIN A   1      20.339   2.404  11.551  0.00  0.00    -0.270 OA
ATOM      4  N11 ZIN A   1      19.438   1.489  13.378  0.00  0.00    -0.157 NA
ATOM      5  C12 ZIN A   1      18.436   0.819  13.960  0.00  0.00     0.351 A 
ATOM      6  O13 ZIN A   1      18.531   0.585  15.149  0.00  0.00    -0.244 OA
ATOM      7  N14 ZIN A   1      17.337   0.390  13.329  0.00  0.00    -0.276 N 
ATOM      8  C15 ZIN A   1      17.142   0.602  12.011  0.00  0.00     0.244 A 
ATOM      9  O16 ZIN A   1      16.141   0.206  11.452  0.00  0.00    -0.272 OA
ATOM     10  H31 ZIN A   1      16.662  -0.089  13.834  0.00  0.00     0.173 HD
ENDROOT
BRANCH   1  11
ATOM     11  C3  ZIN A   1      17.584   2.597  10.629  0.00  0.00     0.055 C 
BRANCH  11  12
ATOM     12  C2  ZIN A   1      17.303   3.613  11.706  0.00  0.00    -0.035 C 
ATOM     13  C1  ZIN A   1      16.914   4.821  11.381  0.00  0.00     0.007 C 
ENDBRANCH  11  12
ENDBRANCH   1  11
BRANCH   1  14
ATOM     14  C5  ZIN A   1      18.719   0.457  10.120  0.00  0.00     0.033 C 
BRANCH  14  15
ATOM     15  C6  ZIN A   1      18.198   0.987   8.783  0.00  0.00    -0.021 C 
ATOM     16  C7  ZIN A   1      19.379   1.406   7.905  0.00  0.00     0.009 C 
ATOM     17  C8  ZIN A   1      17.401  -0.110   8.075  0.00  0.00     0.009 C 
ENDBRANCH  14  15
ENDBRANCH   1  14
TORSDOF 4
ENDMDL
MODEL 4
REMARK VINA RESULT:      -5.5      1.732      2.470
REMARK  4 active torsions:
REMARK  status: ('A' for Active; 'I' for Inactive)
REMARK    1  A    between atoms: C2_2  and  C3_3 
REMARK    2  A    between atoms: C3_3  and  C4_4 
REMARK    3  A    between atoms: C4_4  and  C5_5 
REMARK    4  A    between atoms: C5_5  and  C6_6 
ROOT
ATOM      1  C4  ZIN A   1      18.615   0.014  11.627  0.00  0.00     0.127 A 
ATOM      2  C9  ZIN A   1      17.278   0.718  11.766  0.00  0.00     0.266 A 
ATOM      3  O10 ZIN A   1      16.239   0.147  11.514  0.00  0.00    -0.270 OA
ATOM      4  N11 ZIN A   1      17.289   2.002  12.180  0.00  0.00    -0.157 NA
ATOM      5  C12 ZIN A   1      18.428   2.646  12.462  0.00  0.00     0.351 A 
ATOM      6  O13 ZIN A   1      18.345   3.801  12.830  0.00  0.00    -0.244 OA
ATOM      7  N14 ZIN A   1      19.650   2.110  12.370  0.00  0.00    -0.276 N 
ATOM      8  C15 ZIN A   1      19.843   0.836  11.972  0.00  0.00     0.244 A 
ATOM      9  O16 ZIN A   1      20.958   0.364  11.893  0.00  0.00    -0.272 OA
ATOM     10  H31 ZIN A   1      20.420   2.655  12.596  0.00  0.00     0.173 HD
ENDROOT
BRANCH   1  11
ATOM     11  C3  ZIN A   1      18.599  -1.221  12.529  0.00  0.00     0.055 C 
BRANCH  11  12
ATOM     12  C2  ZIN A   1      18.410  -0.794  13.963  0.00  0.00    -0.035 C 
ATOM     13  C1  ZIN A   1      19.176  -1.292  14.900  0.00  0.00     0.007 C 
ENDBRANCH  11  12
ENDBRANCH   1  11
BRANCH   1  14
ATOM     14  C5  ZIN A   1      18.751  -0.459  10.179  0.00  0.00     0.033 C 
BRANCH  14  15
ATOM     15  C6  ZIN A   1      18.215   0.620   9.236  0.00  0.00    -0.021 C 
ATOM     16  C7  ZIN A   1      19.388   1.367   8.597  0.00  0.00     0.009 C 
ATOM     17  C8  ZIN A   1      17.369  -0.032   8.142  0.00  0.00     0.009 C 
ENDBRANCH  14  15
ENDBRANCH   1  14
TORSDOF 4
ENDMDL
MODEL 5
REMARK VINA RESULT:      -5.5      1.871      3.812
REMARK  4 active torsions:
REMARK  status: ('A' for Active; 'I' for Inactive)
REMARK    1  A    between atoms: C2_2  and  C3_3 
REMARK    2  A    between atoms: C3_3  and  C4_4 
REMARK    3  A    between atoms: C4_4  and  C5_5 
REMARK    4  A    between atoms: C5_5  and  C6_6 
ROOT
ATOM      1  C4  ZIN A   1      18.593   0.270  11.566  0.00  0.00     0.127 A 
ATOM      2  C9  ZIN A   1      19.849   0.395  12.408  0.00  0.00     0.266 A 
ATOM      3  O10 ZIN A   1      20.948   0.418  11.898  0.00  0.00    -0.270 OA
ATOM      4  N11 ZIN A   1      19.696   0.480  13.747  0.00  0.00    -0.157 NA
ATOM      5  C12 ZIN A   1      18.489   0.456  14.325  0.00  0.00     0.351 A 
ATOM      6  O13 ZIN A   1      18.444   0.539  15.537  0.00  0.00    -0.244 OA
ATOM      7  N14 ZIN A   1      17.329   0.350  13.667  0.00  0.00    -0.276 N 
ATOM      8  C15 ZIN A   1      17.277   0.254  12.322  0.00  0.00     0.244 A 
ATOM      9  O16 ZIN A   1      16.218   0.158  11.739  0.00  0.00    -0.272 OA
ATOM     10  H31 ZIN A   1      16.501   0.342  14.172  0.00  0.00     0.173 HD
ENDROOT
BRANCH   1  11
ATOM     11  C3  ZIN A   1      18.562   1.442  10.582  0.00  0.00     0.055 C 
BRANCH  11  12
ATOM     12  C2  ZIN A   1      18.710   0.920   9.175  0.00  0.00    -0.035 C 
ATOM     13  C1  ZIN A   1      19.211   1.691   8.242  0.00  0.00     0.007 C 
ENDBRANCH  11  12
ENDBRANCH   1  11
BRANCH   1  14
ATOM     14  C5  ZIN A   1      18.694  -1.024  10.758  0.00  0.00     0.033 C 
BRANCH  14  15
ATOM     15  C6  ZIN A   1      18.688  -2.222  11.709  0.00  0.00    -0.021 C 
ATOM     16  C7  ZIN A   1      17.475  -3.105  11.410  0.00  0.00     0.009 C 
ATOM     17  C8  ZIN A   1      19.970  -3.033  11.516  0.00  0.00     0.009 C 
ENDBRANCH  14  15
ENDBRANCH   1  14
TORSDOF 4
ENDMDL
MODEL 6
REMARK VINA RESULT:      -5.5      1.968      3.748
REMARK  4 active torsions:
REMARK  status: ('A' for Active; 'I' for Inactive)
REMARK    1  A    between atoms: C2_2  and  C3_3 
REMARK    2  A    between atoms: C3_3  and  C4_4 
REMARK    3  A    between atoms: C4_4  and  C5_5 
REMARK    4  A    between atoms: C5_5  and  C6_6 
ROOT
ATOM      1  C4  ZIN A   1      18.098  -0.428  10.891  0.00  0.00     0.127 A 
ATOM      2  C9  ZIN A   1      17.138   0.042  11.968  0.00  0.00     0.266 A 
ATOM      3  O10 ZIN A   1      15.938   0.025  11.791  0.00  0.00    -0.270 OA
ATOM      4  N11 ZIN A   1      17.669   0.479  13.129  0.00  0.00    -0.157 NA
ATOM      5  C12 ZIN A   1      18.990   0.503  13.340  0.00  0.00     0.351 A 
ATOM      6  O13 ZIN A   1      19.381   0.911  14.415  0.00  0.00    -0.244 OA
ATOM      7  N14 ZIN A   1      19.911   0.110  12.453  0.00  0.00    -0.276 N 
ATOM      8  C15 ZIN A   1      19.574  -0.358  11.233  0.00  0.00     0.244 A 
ATOM      9  O16 ZIN A   1      20.421  -0.711  10.439  0.00  0.00    -0.272 OA
ATOM     10  H31 ZIN A   1      20.849   0.164  12.695  0.00  0.00     0.173 HD
ENDROOT
BRANCH   1  11
ATOM     11  C3  ZIN A   1      17.756  -1.880  10.549  0.00  0.00     0.055 C 
BRANCH  11  12
ATOM     12  C2  ZIN A   1      17.923  -2.738  11.777  0.00  0.00    -0.035 C 
ATOM     13  C1  ZIN A   1      18.593  -3.861  11.703  0.00  0.00     0.007 C 
ENDBRANCH  11  12
ENDBRANCH   1  11
BRANCH   1  14
ATOM     14  C5  ZIN A   1      17.858   0.422   9.642  0.00  0.00     0.033 C 
BRANCH  14  15
ATOM     15  C6  ZIN A   1      18.723   1.682   9.709  0.00  0.00    -0.021 C 
ATOM     16  C7  ZIN A   1      19.266   2.002   8.314  0.00  0.00     0.009 C 
ATOM     17  C8  ZIN A   1      17.876   2.854  10.207  0.00  0.00     0.009 C 
ENDBRANCH  14  15
ENDBRANCH   1  14
TORSDOF 4
ENDMDL
MODEL 7
REMARK VINA RESULT:      -5.4      1.750      3.630
REMARK  4 active torsions:
REMARK  status: ('A' for Active; 'I' for Inactive)
REMARK    1  A    between atoms: C2_2  and  C3_3 
REMARK    2  A    between atoms: C3_3  and  C4_4 
REMARK    3  A    between atoms: C4_4  and  C5_5 
REMARK    4  A    between atoms: C5_5  and  C6_6 
ROOT
ATOM      1  C4  ZIN A   1      18.387  -0.450  11.237  0.00  0.00     0.127 A 
ATOM      2  C9  ZIN A   1      19.768   0.172  11.334  0.00  0.00     0.266 A 
ATOM      3  O10 ZIN A   1      20.755  -0.430  10.971  0.00  0.00    -0.270 OA
ATOM      4  N11 ZIN A   1      19.855   1.420  11.840  0.00  0.00    -0.157 NA
ATOM      5  C12 ZIN A   1      18.775   2.099  12.245  0.00  0.00     0.351 A 
ATOM      6  O13 ZIN A   1      18.946   3.217  12.686  0.00  0.00    -0.244 OA
ATOM      7  N14 ZIN A   1      17.521   1.635  12.197  0.00  0.00    -0.276 N 
ATOM      8  C15 ZIN A   1      17.231   0.405  11.724  0.00  0.00     0.244 A 
ATOM      9  O16 ZIN A   1      16.089  -0.002  11.688  0.00  0.00    -0.272 OA
ATOM     10  H31 ZIN A   1      16.799   2.200  12.514  0.00  0.00     0.173 HD
ENDROOT
BRANCH   1  11
ATOM     11  C3  ZIN A   1      18.129  -0.810   9.772  0.00  0.00     0.055 C 
BRANCH  11  12
ATOM     12  C2  ZIN A   1      17.991   0.453   8.961  0.00  0.00    -0.035 C 
ATOM     13  C1  ZIN A   1      18.608   0.562   7.811  0.00  0.00     0.007 C 
ENDBRANCH  11  12
ENDBRANCH   1  11
BRANCH   1  14
ATOM     14  C5  ZIN A   1      18.395  -1.746  12.049  0.00  0.00     0.033 C 
BRANCH  14  15
ATOM     15  C6  ZIN A   1      18.410  -2.944  11.098  0.00  0.00    -0.021 C 
ATOM     16  C7  ZIN A   1      19.698  -3.743  11.305  0.00  0.00     0.009 C 
ATOM     17  C8  ZIN A   1      17.203  -3.838  11.385  0.00  0.00     0.009 C 
ENDBRANCH  14  15
ENDBRANCH   1  14
TORSDOF 4
ENDMDL
MODEL 8
REMARK VINA RESULT:      -5.4      1.652      3.733
REMARK  4 active torsions:
REMARK  status: ('A' for Active; 'I' for Inactive)
REMARK    1  A    between atoms: C2_2  and  C3_3 
REMARK    2  A    between atoms: C3_3  and  C4_4 
REMARK    3  A    between atoms: C4_4  and  C5_5 
REMARK    4  A    between atoms: C5_5  and  C6_6 
ROOT
ATOM      1  C4  ZIN A   1      18.037  -1.025  11.477  0.00  0.00     0.127 A 
ATOM      2  C9  ZIN A   1      19.490  -0.746  11.143  0.00  0.00     0.266 A 
ATOM      3  O10 ZIN A   1      20.338  -1.603  11.263  0.00  0.00    -0.270 OA
ATOM      4  N11 ZIN A   1      19.803   0.493  10.707  0.00  0.00    -0.157 NA
ATOM      5  C12 ZIN A   1      18.878   1.450  10.568  0.00  0.00     0.351 A 
ATOM      6  O13 ZIN A   1      19.248   2.536  10.169  0.00  0.00    -0.244 OA
ATOM      7  N14 ZIN A   1      17.577   1.298  10.837  0.00  0.00    -0.276 N 
ATOM      8  C15 ZIN A   1      17.071   0.130  11.284  0.00  0.00     0.244 A 
ATOM      9  O16 ZIN A   1      15.889   0.007  11.524  0.00  0.00    -0.272 OA
ATOM     10  H31 ZIN A   1      16.979   2.050  10.706  0.00  0.00     0.173 HD
ENDROOT
BRANCH   1  11
ATOM     11  C3  ZIN A   1      17.564  -2.191  10.606  0.00  0.00     0.055 C 
BRANCH  11  12
ATOM     12  C2  ZIN A   1      17.414  -3.426  11.459  0.00  0.00    -0.035 C 
ATOM     13  C1  ZIN A   1      16.844  -4.496  10.965  0.00  0.00     0.007 C 
ENDBRANCH  11  12
ENDBRANCH   1  11
BRANCH   1  14
ATOM     14  C5  ZIN A   1      17.965  -1.467  12.939  0.00  0.00     0.033 C 
BRANCH  14  15
ATOM     15  C6  ZIN A   1      18.682  -0.440  13.818  0.00  0.00    -0.021 C 
ATOM     16  C7  ZIN A   1      17.650   0.357  14.618  0.00  0.00     0.009 C 
ATOM     17  C8  ZIN A   1      19.625  -1.163  14.781  0.00  0.00     0.009 C 
ENDBRANCH  14  15
ENDBRANCH   1  14
TORSDOF 4
ENDMDL
MODEL 9
REMARK VINA RESULT:      -5.4      2.354      3.583
REMARK  4 active torsions:
REMARK  status: ('A' for Active; 'I' for Inactive)
REMARK    1  A    between atoms: C2_2  and  C3_3 
REMARK    2  A    between atoms: C3_3  and  C4_4 
REMARK    3  A    between atoms: C4_4  and  C5_5 
REMARK    4  A    between atoms: C5_5  and  C6_6 
ROOT
ATOM      1  C4  ZIN A   1      19.076   0.628  11.461  0.00  0.00     0.127 A 
ATOM      2  C9  ZIN A   1      17.908   1.270  10.735  0.00  0.00     0.266 A 
ATOM      3  O10 ZIN A   1      16.998   1.788  11.345  0.00  0.00    -0.270 OA
ATOM      4  N11 ZIN A   1      17.923   1.244   9.386  0.00  0.00    -0.157 NA
ATOM      5  C12 ZIN A   1      18.921   0.677   8.698  0.00  0.00     0.351 A 
ATOM      6  O13 ZIN A   1      18.853   0.699   7.486  0.00  0.00    -0.244 OA
ATOM      7  N14 ZIN A   1      19.988   0.088   9.249  0.00  0.00    -0.276 N 
ATOM      8  C15 ZIN A   1      20.153   0.014  10.586  0.00  0.00     0.244 A 
ATOM      9  O16 ZIN A   1      21.126  -0.523  11.071  0.00  0.00    -0.272 OA
ATOM     10  H31 ZIN A   1      20.664  -0.297   8.670  0.00  0.00     0.173 HD
ENDROOT
BRANCH   1  11
ATOM     11  C3  ZIN A   1      19.729   1.691  12.346  0.00  0.00     0.055 C 
BRANCH  11  12
ATOM     12  C2  ZIN A   1      20.023   2.919  11.522  0.00  0.00    -0.035 C 
ATOM     13  C1  ZIN A   1      19.856   4.110  12.041  0.00  0.00     0.007 C 
ENDBRANCH  11  12
ENDBRANCH   1  11
BRANCH   1  14
ATOM     14  C5  ZIN A   1      18.519  -0.468  12.371  0.00  0.00     0.033 C 
BRANCH  14  15
ATOM     15  C6  ZIN A   1      18.875  -0.154  13.825  0.00  0.00    -0.021 C 
ATOM     16  C7  ZIN A   1      17.593   0.095  14.622  0.00  0.00     0.009 C 
ATOM     17  C8  ZIN A   1      19.631  -1.336  14.433  0.00  0.00     0.009 C 
ENDBRANCH  14  15
ENDBRANCH   1  14
TORSDOF 4
ENDMDL
