MODEL 1
REMARK VINA RESULT:      -6.7      0.000      0.000
REMARK  6 active torsions:
REMARK  status: ('A' for Active; 'I' for Inactive)
REMARK    1  A    between atoms: C2_2  and  N3_3 
REMARK    2  A    between atoms: N3_3  and  C4_4 
REMARK       I    between atoms: N3_3  and  C6_6 
REMARK    3  A    between atoms: C6_6  and  C8_8 
REMARK    4  A    between atoms: C8_8  and  C9_9 
REMARK    5  A    between atoms: C16_16  and  C18_17 
REMARK    6  A    between atoms: C18_17  and  N19_18 
ROOT
ATOM      1  C8  ZIN A   1      18.203   0.515  10.072  0.00  0.00     0.074 A 
ATOM      2  C15 ZIN A   1      18.089   1.864  10.785  0.00  0.00     0.032 A 
ATOM      3  C16 ZIN A   1      19.436   1.140  10.727  0.00  0.00     0.035 A 
ENDROOT
BRANCH   1   4
ATOM      4  C6  ZIN A   1      17.590  -0.684  10.749  0.00  0.00     0.233 C 
ATOM      5  N3  ZIN A   1      18.080  -1.916  10.512  0.00  0.00    -0.352 N 
ATOM      6  O7  ZIN A   1      16.653  -0.540  11.505  0.00  0.00    -0.272 OA
BRANCH   5   7
ATOM      7  C2  ZIN A   1      17.402  -3.093  11.060  0.00  0.00     0.121 C 
ATOM      8  C1  ZIN A   1      18.291  -3.747  12.120  0.00  0.00     0.026 C 
ENDBRANCH   5   7
BRANCH   5   9
ATOM      9  C4  ZIN A   1      19.295  -2.079   9.707  0.00  0.00     0.121 C 
ATOM     10  C5  ZIN A   1      19.027  -3.072   8.574  0.00  0.00     0.026 C 
ENDBRANCH   5   9
ENDBRANCH   1   4
BRANCH   1  11
ATOM     11  C9  ZIN A   1      18.138   0.516   8.566  0.00  0.00    -0.040 A 
ATOM     12  C14 ZIN A   1      19.125   1.149   7.833  0.00  0.00     0.008 A 
ATOM     13  C13 ZIN A   1      19.069   1.147   6.452  0.00  0.00     0.001 A 
ATOM     14  C12 ZIN A   1      18.021   0.520   5.804  0.00  0.00     0.000 A 
ATOM     15  C11 ZIN A   1      17.032  -0.108   6.537  0.00  0.00     0.001 A 
ATOM     16  C10 ZIN A   1      17.090  -0.110   7.918  0.00  0.00     0.008 A 
ENDBRANCH   1  11
BRANCH   3  17
ATOM     17  C18 ZIN A   1      19.953   0.502  12.018  0.00  0.00     0.235 C 
BRANCH  17  18
ATOM     18  N19 ZIN A   1      21.419   0.568  12.044  0.00  0.00    -0.079 N 
ATOM     19  H20 ZIN A   1      21.709   1.432  12.477  0.00  0.00     0.274 HD
ATOM     20  H21 ZIN A   1      21.782  -0.211  12.572  0.00  0.00     0.274 HD
ATOM     21  H22 ZIN A   1      21.775   0.529  11.100  0.00  0.00     0.274 HD
ENDBRANCH  17  18
ENDBRANCH   3  17
TORSDOF 6
ENDMDL
MODEL 2
REMARK VINA RESULT:      -6.6      1.808      2.184
REMARK  6 active torsions:
REMARK  status: ('A' for Active; 'I' for Inactive)
REMARK    1  A    between atoms: C2_2  and  N3_3 
REMARK    2  A    between atoms: N3_3  and  C4_4 
REMARK       I    between atoms: N3_3  and  C6_6 
REMARK    3  A    between atoms: C6_6  and  C8_8 
REMARK    4  A    between atoms: C8_8  and  C9_9 
REMARK    5  A    between atoms: C16_16  and  C18_17 
REMARK    6  A    between atoms: C18_17  and  N19_18 
ROOT
ATOM      1  C8  ZIN A   1      18.139   1.955  10.355  0.00  0.00     0.074 A 
ATOM      2  C15 ZIN A   1      17.537   3.360  10.417  0.00  0.00     0.032 A 
ATOM      3  C16 ZIN A   1      19.051   3.170  10.531  0.00  0.00     0.035 A 
ENDROOT
BRANCH   1   4
ATOM      4  C6  ZIN A   1      17.938   1.058  11.549  0.00  0.00     0.233 C 
ATOM      5  N3  ZIN A   1      18.858   0.122  11.853  0.00  0.00    -0.352 N 
ATOM      6  O7  ZIN A   1      16.945   1.176  12.236  0.00  0.00    -0.272 OA
BRANCH   5   7
ATOM      7  C2  ZIN A   1      18.600  -0.839  12.927  0.00  0.00     0.121 C 
ATOM      8  C1  ZIN A   1      19.538  -0.552  14.103  0.00  0.00     0.026 C 
ENDBRANCH   5   7
BRANCH   5   9
ATOM      9  C4  ZIN A   1      20.119   0.067  11.107  0.00  0.00     0.121 C 
ATOM     10  C5  ZIN A   1      20.292  -1.326  10.499  0.00  0.00     0.026 C 
ENDBRANCH   5   9
ENDBRANCH   1   4
BRANCH   1  11
ATOM     11  C9  ZIN A   1      18.153   1.263   9.016  0.00  0.00    -0.040 A 
ATOM     12  C14 ZIN A   1      18.997   1.710   8.016  0.00  0.00     0.008 A 
ATOM     13  C13 ZIN A   1      19.014   1.073   6.789  0.00  0.00     0.001 A 
ATOM     14  C12 ZIN A   1      18.179  -0.004   6.559  0.00  0.00     0.000 A 
ATOM     15  C11 ZIN A   1      17.332  -0.448   7.557  0.00  0.00     0.001 A 
ATOM     16  C10 ZIN A   1      17.318   0.185   8.785  0.00  0.00     0.008 A 
ENDBRANCH   1  11
BRANCH   3  17
ATOM     17  C18 ZIN A   1      19.689   3.383  11.906  0.00  0.00     0.235 C 
BRANCH  17  18
ATOM     18  N19 ZIN A   1      21.143   3.518  11.755  0.00  0.00    -0.079 N 
ATOM     19  H20 ZIN A   1      21.387   4.497  11.712  0.00  0.00     0.274 HD
ATOM     20  H21 ZIN A   1      21.604   3.091  12.544  0.00  0.00     0.274 HD
ATOM     21  H22 ZIN A   1      21.438   3.061  10.905  0.00  0.00     0.274 HD
ENDBRANCH  17  18
ENDBRANCH   3  17
TORSDOF 6
ENDMDL
MODEL 3
REMARK VINA RESULT:      -6.5      3.167      6.374
REMARK  6 active torsions:
REMARK  status: ('A' for Active; 'I' for Inactive)
REMARK    1  A    between atoms: C2_2  and  N3_3 
REMARK    2  A    between atoms: N3_3  and  C4_4 
REMARK       I    between atoms: N3_3  and  C6_6 
REMARK    3  A    between atoms: C6_6  and  C8_8 
REMARK    4  A    between atoms: C8_8  and  C9_9 
REMARK    5  A    between atoms: C16_16  and  C18_17 
REMARK    6  A    between atoms: C18_17  and  N19_18 
ROOT
ATOM      1  C8  ZIN A   1      18.233  -0.694  12.916  0.00  0.00     0.074 A 
ATOM      2  C15 ZIN A   1      18.110  -2.050  12.218  0.00  0.00     0.032 A 
ATOM      3  C16 ZIN A   1      19.459  -1.328  12.256  0.00  0.00     0.035 A 
ENDROOT
BRANCH   1   4
ATOM      4  C6  ZIN A   1      17.615   0.499  12.233  0.00  0.00     0.233 C 
ATOM      5  N3  ZIN A   1      18.132   1.729  12.424  0.00  0.00    -0.352 N 
ATOM      6  O7  ZIN A   1      16.651   0.353  11.512  0.00  0.00    -0.272 OA
BRANCH   5   7
ATOM      7  C2  ZIN A   1      17.453   2.903  11.873  0.00  0.00     0.121 C 
ATOM      8  C1  ZIN A   1      18.193   3.379  10.620  0.00  0.00     0.026 C 
ENDBRANCH   5   7
BRANCH   5   9
ATOM      9  C4  ZIN A   1      19.376   1.890  13.184  0.00  0.00     0.121 C 
ATOM     10  C5  ZIN A   1      19.152   2.886  14.323  0.00  0.00     0.026 C 
ENDBRANCH   5   9
ENDBRANCH   1   4
BRANCH   1  11
ATOM     11  C9  ZIN A   1      18.183  -0.679  14.422  0.00  0.00    -0.040 A 
ATOM     12  C14 ZIN A   1      19.160  -1.331  15.152  0.00  0.00     0.008 A 
ATOM     13  C13 ZIN A   1      19.118  -1.314  16.534  0.00  0.00     0.001 A 
ATOM     14  C12 ZIN A   1      18.092  -0.655  17.185  0.00  0.00     0.000 A 
ATOM     15  C11 ZIN A   1      17.112  -0.008  16.456  0.00  0.00     0.001 A 
ATOM     16  C10 ZIN A   1      17.157  -0.021  15.074  0.00  0.00     0.008 A 
ENDBRANCH   1  11
BRANCH   3  17
ATOM     17  C18 ZIN A   1      19.964  -0.703  10.953  0.00  0.00     0.235 C 
BRANCH  17  18
ATOM     18  N19 ZIN A   1      21.425  -0.569  11.009  0.00  0.00    -0.079 N 
ATOM     19  H20 ZIN A   1      21.852  -1.471  10.858  0.00  0.00     0.274 HD
ATOM     20  H21 ZIN A   1      21.732   0.073  10.294  0.00  0.00     0.274 HD
ATOM     21  H22 ZIN A   1      21.697  -0.217  11.915  0.00  0.00     0.274 HD
ENDBRANCH  17  18
ENDBRANCH   3  17
TORSDOF 6
ENDMDL
MODEL 4
REMARK VINA RESULT:      -6.4      2.206      4.506
REMARK  6 active torsions:
REMARK  status: ('A' for Active; 'I' for Inactive)
REMARK    1  A    between atoms: C2_2  and  N3_3 
REMARK    2  A    between atoms: N3_3  and  C4_4 
REMARK       I    between atoms: N3_3  and  C6_6 
REMARK    3  A    between atoms: C6_6  and  C8_8 
REMARK    4  A    between atoms: C8_8  and  C9_9 
REMARK    5  A    between atoms: C16_16  and  C18_17 
REMARK    6  A    between atoms: C18_17  and  N19_18 
ROOT
ATOM      1  C8  ZIN A   1      19.040   1.244   9.740  0.00  0.00     0.074 A 
ATOM      2  C15 ZIN A   1      19.505   1.431   8.294  0.00  0.00     0.032 A 
ATOM      3  C16 ZIN A   1      18.068   0.994   8.585  0.00  0.00     0.035 A 
ENDROOT
BRANCH   1   4
ATOM      4  C6  ZIN A   1      19.556   0.041  10.486  0.00  0.00     0.233 C 
ATOM      5  N3  ZIN A   1      18.830  -0.494  11.488  0.00  0.00    -0.352 N 
ATOM      6  O7  ZIN A   1      20.626  -0.446  10.187  0.00  0.00    -0.272 OA
BRANCH   5   7
ATOM      7  C2  ZIN A   1      19.390  -1.574  12.303  0.00  0.00     0.121 C 
ATOM      8  C1  ZIN A   1      18.632  -2.873  12.016  0.00  0.00     0.026 C 
ENDBRANCH   5   7
BRANCH   5   9
ATOM      9  C4  ZIN A   1      17.480   0.007  11.761  0.00  0.00     0.121 C 
ATOM     10  C5  ZIN A   1      17.394   0.476  13.215  0.00  0.00     0.026 C 
ENDBRANCH   5   9
ENDBRANCH   1   4
BRANCH   1  11
ATOM     11  C9  ZIN A   1      18.831   2.485  10.570  0.00  0.00    -0.040 A 
ATOM     12  C14 ZIN A   1      17.665   3.216  10.437  0.00  0.00     0.008 A 
ATOM     13  C13 ZIN A   1      17.470   4.351  11.201  0.00  0.00     0.001 A 
ATOM     14  C12 ZIN A   1      18.446   4.761  12.090  0.00  0.00     0.000 A 
ATOM     15  C11 ZIN A   1      19.614   4.033  12.219  0.00  0.00     0.001 A 
ATOM     16  C10 ZIN A   1      19.807   2.895  11.459  0.00  0.00     0.008 A 
ENDBRANCH   1  11
BRANCH   3  17
ATOM     17  C18 ZIN A   1      17.694  -0.457   8.277  0.00  0.00     0.235 C 
BRANCH  17  18
ATOM     18  N19 ZIN A   1      16.833  -0.499   7.087  0.00  0.00    -0.079 N 
ATOM     19  H20 ZIN A   1      16.494  -1.439   6.950  0.00  0.00     0.274 HD
ATOM     20  H21 ZIN A   1      16.051   0.126   7.216  0.00  0.00     0.274 HD
ATOM     21  H22 ZIN A   1      17.363  -0.212   6.278  0.00  0.00     0.274 HD
ENDBRANCH  17  18
ENDBRANCH   3  17
TORSDOF 6
ENDMDL
MODEL 5
REMARK VINA RESULT:      -6.1      2.979      6.424
REMARK  6 active torsions:
REMARK  status: ('A' for Active; 'I' for Inactive)
REMARK    1  A    between atoms: C2_2  and  N3_3 
REMARK    2  A    between atoms: N3_3  and  C4_4 
REMARK       I    between atoms: N3_3  and  C6_6 
REMARK    3  A    between atoms: C6_6  and  C8_8 
REMARK    4  A    between atoms: C8_8  and  C9_9 
REMARK    5  A    between atoms: C16_16  and  C18_17 
REMARK    6  A    between atoms: C18_17  and  N19_18 
ROOT
ATOM      1  C8  ZIN A   1      18.781  -0.497  12.927  0.00  0.00     0.074 A 
ATOM      2  C15 ZIN A   1      17.452  -0.999  12.358  0.00  0.00     0.032 A 
ATOM      3  C16 ZIN A   1      18.655  -1.941  12.438  0.00  0.00     0.035 A 
ENDROOT
BRANCH   1   4
ATOM      4  C6  ZIN A   1      19.585   0.455  12.081  0.00  0.00     0.233 C 
ATOM      5  N3  ZIN A   1      18.984   1.506  11.490  0.00  0.00    -0.352 N 
ATOM      6  O7  ZIN A   1      20.776   0.275  11.930  0.00  0.00    -0.272 OA
BRANCH   5   7
ATOM      7  C2  ZIN A   1      19.734   2.352  10.560  0.00  0.00     0.121 C 
ATOM      8  C1  ZIN A   1      19.194   2.154   9.141  0.00  0.00     0.026 C 
ENDBRANCH   5   7
BRANCH   5   9
ATOM      9  C4  ZIN A   1      17.578   1.803  11.780  0.00  0.00     0.121 C 
ATOM     10  C5  ZIN A   1      17.450   3.251  12.256  0.00  0.00     0.026 C 
ENDBRANCH   5   9
ENDBRANCH   1   4
BRANCH   1  11
ATOM     11  C9  ZIN A   1      18.860  -0.272  14.416  0.00  0.00    -0.040 A 
ATOM     12  C14 ZIN A   1      18.798  -1.347  15.281  0.00  0.00     0.008 A 
ATOM     13  C13 ZIN A   1      18.875  -1.142  16.646  0.00  0.00     0.001 A 
ATOM     14  C12 ZIN A   1      19.003   0.141  17.145  0.00  0.00     0.000 A 
ATOM     15  C11 ZIN A   1      19.059   1.217  16.280  0.00  0.00     0.001 A 
ATOM     16  C10 ZIN A   1      18.987   1.011  14.914  0.00  0.00     0.008 A 
ENDBRANCH   1  11
BRANCH   3  17
ATOM     17  C18 ZIN A   1      19.354  -2.308  11.127  0.00  0.00     0.235 C 
BRANCH  17  18
ATOM     18  N19 ZIN A   1      20.670  -2.890  11.421  0.00  0.00    -0.079 N 
ATOM     19  H20 ZIN A   1      20.551  -3.815  11.807  0.00  0.00     0.274 HD
ATOM     20  H21 ZIN A   1      21.210  -2.948  10.570  0.00  0.00     0.274 HD
ATOM     21  H22 ZIN A   1      21.155  -2.307  12.088  0.00  0.00     0.274 HD
ENDBRANCH  17  18
ENDBRANCH   3  17
TORSDOF 6
ENDMDL
MODEL 6
REMARK VINA RESULT:      -6.0      2.383      4.808
REMARK  6 active torsions:
REMARK  status: ('A' for Active; 'I' for Inactive)
REMARK    1  A    between atoms: C2_2  and  N3_3 
REMARK    2  A    between atoms: N3_3  and  C4_4 
REMARK       I    between atoms: N3_3  and  C6_6 
REMARK    3  A    between atoms: C6_6  and  C8_8 
REMARK    4  A    between atoms: C8_8  and  C9_9 
REMARK    5  A    between atoms: C16_16  and  C18_17 
REMARK    6  A    between atoms: C18_17  and  N19_18 
ROOT
ATOM      1  C8  ZIN A   1      18.404  -0.887  12.637  0.00  0.00     0.074 A 
ATOM      2  C15 ZIN A   1      19.564  -0.411  13.513  0.00  0.00     0.032 A 
ATOM      3  C16 ZIN A   1      18.215  -0.755  14.149  0.00  0.00     0.035 A 
ENDROOT
BRANCH   1   4
ATOM      4  C6  ZIN A   1      17.729   0.137  11.760  0.00  0.00     0.233 C 
ATOM      5  N3  ZIN A   1      18.440   0.804  10.830  0.00  0.00    -0.352 N 
ATOM      6  O7  ZIN A   1      16.544   0.361  11.894  0.00  0.00    -0.272 OA
BRANCH   5   7
ATOM      7  C2  ZIN A   1      17.818   1.892  10.074  0.00  0.00     0.121 C 
ATOM      8  C1  ZIN A   1      18.682   3.151  10.188  0.00  0.00     0.026 C 
ENDBRANCH   5   7
BRANCH   5   9
ATOM      9  C4  ZIN A   1      19.836   0.438  10.576  0.00  0.00     0.121 C 
ATOM     10  C5  ZIN A   1      19.926  -0.354   9.270  0.00  0.00     0.026 C 
ENDBRANCH   5   9
ENDBRANCH   1   4
BRANCH   1  11
ATOM     11  C9  ZIN A   1      18.489  -2.279  12.065  0.00  0.00    -0.040 A 
ATOM     12  C14 ZIN A   1      19.705  -2.935  12.022  0.00  0.00     0.008 A 
ATOM     13  C13 ZIN A   1      19.783  -4.214  11.503  0.00  0.00     0.001 A 
ATOM     14  C12 ZIN A   1      18.646  -4.831  11.015  0.00  0.00     0.000 A 
ATOM     15  C11 ZIN A   1      17.431  -4.173  11.052  0.00  0.00     0.001 A 
ATOM     16  C10 ZIN A   1      17.352  -2.896  11.577  0.00  0.00     0.008 A 
ENDBRANCH   1  11
BRANCH   3  17
ATOM     17  C18 ZIN A   1      17.356   0.405  14.657  0.00  0.00     0.235 C 
BRANCH  17  18
ATOM     18  N19 ZIN A   1      17.209   0.304  16.114  0.00  0.00    -0.079 N 
ATOM     19  H20 ZIN A   1      17.533   1.157  16.545  0.00  0.00     0.274 HD
ATOM     20  H21 ZIN A   1      16.237   0.159  16.345  0.00  0.00     0.274 HD
ATOM     21  H22 ZIN A   1      17.755  -0.473  16.455  0.00  0.00     0.274 HD
ENDBRANCH  17  18
ENDBRANCH   3  17
TORSDOF 6
ENDMDL
MODEL 7
REMARK VINA RESULT:      -6.0      2.459      5.093
REMARK  6 active torsions:
REMARK  status: ('A' for Active; 'I' for Inactive)
REMARK    1  A    between atoms: C2_2  and  N3_3 
REMARK    2  A    between atoms: N3_3  and  C4_4 
REMARK       I    between atoms: N3_3  and  C6_6 
REMARK    3  A    between atoms: C6_6  and  C8_8 
REMARK    4  A    between atoms: C8_8  and  C9_9 
REMARK    5  A    between atoms: C16_16  and  C18_17 
REMARK    6  A    between atoms: C18_17  and  N19_18 
ROOT
ATOM      1  C8  ZIN A   1      19.146  -1.165  12.994  0.00  0.00     0.074 A 
ATOM      2  C15 ZIN A   1      19.604  -1.250  14.451  0.00  0.00     0.032 A 
ATOM      3  C16 ZIN A   1      18.167  -0.839  14.123  0.00  0.00     0.035 A 
ENDROOT
BRANCH   1   4
ATOM      4  C6  ZIN A   1      19.662  -0.014  12.168  0.00  0.00     0.233 C 
ATOM      5  N3  ZIN A   1      18.946   0.438  11.120  0.00  0.00    -0.352 N 
ATOM      6  O7  ZIN A   1      20.723   0.503  12.446  0.00  0.00    -0.272 OA
BRANCH   5   7
ATOM      7  C2  ZIN A   1      19.507   1.462  10.236  0.00  0.00     0.121 C 
ATOM      8  C1  ZIN A   1      18.766   2.785  10.453  0.00  0.00     0.026 C 
ENDBRANCH   5   7
BRANCH   5   9
ATOM      9  C4  ZIN A   1      17.604  -0.094  10.866  0.00  0.00     0.121 C 
ATOM     10  C5  ZIN A   1      17.501  -0.544   9.407  0.00  0.00     0.026 C 
ENDBRANCH   5   9
ENDBRANCH   1   4
BRANCH   1  11
ATOM     11  C9  ZIN A   1      18.946  -2.461  12.251  0.00  0.00    -0.040 A 
ATOM     12  C14 ZIN A   1      17.708  -3.075  12.255  0.00  0.00     0.008 A 
ATOM     13  C13 ZIN A   1      17.522  -4.261  11.570  0.00  0.00     0.001 A 
ATOM     14  C12 ZIN A   1      18.578  -4.839  10.890  0.00  0.00     0.000 A 
ATOM     15  C11 ZIN A   1      19.817  -4.227  10.889  0.00  0.00     0.001 A 
ATOM     16  C10 ZIN A   1      20.002  -3.038  11.570  0.00  0.00     0.008 A 
ENDBRANCH   1  11
BRANCH   3  17
ATOM     17  C18 ZIN A   1      17.785   0.628  14.328  0.00  0.00     0.235 C 
BRANCH  17  18
ATOM     18  N19 ZIN A   1      17.052   0.771  15.592  0.00  0.00    -0.079 N 
ATOM     19  H20 ZIN A   1      16.986   1.749  15.834  0.00  0.00     0.274 HD
ATOM     20  H21 ZIN A   1      16.124   0.388  15.488  0.00  0.00     0.274 HD
ATOM     21  H22 ZIN A   1      17.540   0.276  16.323  0.00  0.00     0.274 HD
ENDBRANCH  17  18
ENDBRANCH   3  17
TORSDOF 6
ENDMDL
MODEL 8
REMARK VINA RESULT:      -5.8      2.940      5.558
REMARK  6 active torsions:
REMARK  status: ('A' for Active; 'I' for Inactive)
REMARK    1  A    between atoms: C2_2  and  N3_3 
REMARK    2  A    between atoms: N3_3  and  C4_4 
REMARK       I    between atoms: N3_3  and  C6_6 
REMARK    3  A    between atoms: C6_6  and  C8_8 
REMARK    4  A    between atoms: C8_8  and  C9_9 
REMARK    5  A    between atoms: C16_16  and  C18_17 
REMARK    6  A    between atoms: C18_17  and  N19_18 
ROOT
ATOM      1  C8  ZIN A   1      18.687  -0.654  12.889  0.00  0.00     0.074 A 
ATOM      2  C15 ZIN A   1      20.124  -0.478  12.394  0.00  0.00     0.032 A 
ATOM      3  C16 ZIN A   1      19.125   0.675  12.270  0.00  0.00     0.035 A 
ENDROOT
BRANCH   1   4
ATOM      4  C6  ZIN A   1      17.773  -1.532  12.074  0.00  0.00     0.233 C 
ATOM      5  N3  ZIN A   1      18.215  -2.716  11.605  0.00  0.00    -0.352 N 
ATOM      6  O7  ZIN A   1      16.639  -1.173  11.838  0.00  0.00    -0.272 OA
BRANCH   5   7
ATOM      7  C2  ZIN A   1      17.377  -3.506  10.701  0.00  0.00     0.121 C 
ATOM      8  C1  ZIN A   1      16.705  -4.636  11.485  0.00  0.00     0.026 C 
ENDBRANCH   5   7
BRANCH   5   9
ATOM      9  C4  ZIN A   1      19.536  -3.213  12.002  0.00  0.00     0.121 C 
ATOM     10  C5  ZIN A   1      20.041  -4.209  10.957  0.00  0.00     0.026 C 
ENDBRANCH   5   9
ENDBRANCH   1   4
BRANCH   1  11
ATOM     11  C9  ZIN A   1      18.463  -0.688  14.379  0.00  0.00    -0.040 A 
ATOM     12  C14 ZIN A   1      17.536   0.159  14.957  0.00  0.00     0.008 A 
ATOM     13  C13 ZIN A   1      17.326   0.126  16.323  0.00  0.00     0.001 A 
ATOM     14  C12 ZIN A   1      18.053  -0.747  17.112  0.00  0.00     0.000 A 
ATOM     15  C11 ZIN A   1      18.983  -1.590  16.535  0.00  0.00     0.001 A 
ATOM     16  C10 ZIN A   1      19.189  -1.560  15.168  0.00  0.00     0.008 A 
ENDBRANCH   1  11
BRANCH   3  17
ATOM     17  C18 ZIN A   1      18.603   1.011  10.872  0.00  0.00     0.235 C 
BRANCH  17  18
ATOM     18  N19 ZIN A   1      17.377   1.811  10.986  0.00  0.00    -0.079 N 
ATOM     19  H20 ZIN A   1      16.624   1.228  11.319  0.00  0.00     0.274 HD
ATOM     20  H21 ZIN A   1      17.529   2.567  11.637  0.00  0.00     0.274 HD
ATOM     21  H22 ZIN A   1      17.135   2.189  10.082  0.00  0.00     0.274 HD
ENDBRANCH  17  18
ENDBRANCH   3  17
TORSDOF 6
ENDMDL
MODEL 9
REMARK VINA RESULT:      -5.8      2.887      5.506
REMARK  6 active torsions:
REMARK  status: ('A' for Active; 'I' for Inactive)
REMARK    1  A    between atoms: C2_2  and  N3_3 
REMARK    2  A    between atoms: N3_3  and  C4_4 
REMARK       I    between atoms: N3_3  and  C6_6 
REMARK    3  A    between atoms: C6_6  and  C8_8 
REMARK    4  A    between atoms: C8_8  and  C9_9 
REMARK    5  A    between atoms: C16_16  and  C18_17 
REMARK    6  A    between atoms: C18_17  and  N19_18 
ROOT
ATOM      1  C8  ZIN A   1      18.810  -0.007  12.836  0.00  0.00     0.074 A 
ATOM      2  C15 ZIN A   1      20.255   0.325  12.459  0.00  0.00     0.032 A 
ATOM      3  C16 ZIN A   1      19.199   1.432  12.490  0.00  0.00     0.035 A 
ENDROOT
BRANCH   1   4
ATOM      4  C6  ZIN A   1      17.984  -0.765  11.829  0.00  0.00     0.233 C 
ATOM      5  N3  ZIN A   1      18.556  -1.719  11.069  0.00  0.00    -0.352 N 
ATOM      6  O7  ZIN A   1      16.804  -0.515  11.702  0.00  0.00    -0.272 OA
BRANCH   5   7
ATOM      7  C2  ZIN A   1      17.789  -2.360   9.998  0.00  0.00     0.121 C 
ATOM      8  C1  ZIN A   1      18.140  -1.706   8.659  0.00  0.00     0.026 C 
ENDBRANCH   5   7
BRANCH   5   9
ATOM      9  C4  ZIN A   1      19.946  -2.116  11.314  0.00  0.00     0.121 C 
ATOM     10  C5  ZIN A   1      19.991  -3.590  11.721  0.00  0.00     0.026 C 
ENDBRANCH   5   9
ENDBRANCH   1   4
BRANCH   1  11
ATOM     11  C9  ZIN A   1      18.523  -0.321  14.282  0.00  0.00    -0.040 A 
ATOM     12  C14 ZIN A   1      19.214  -1.336  14.919  0.00  0.00     0.008 A 
ATOM     13  C13 ZIN A   1      18.955  -1.621  16.246  0.00  0.00     0.001 A 
ATOM     14  C12 ZIN A   1      17.997  -0.900  16.934  0.00  0.00     0.000 A 
ATOM     15  C11 ZIN A   1      17.303   0.111  16.296  0.00  0.00     0.001 A 
ATOM     16  C10 ZIN A   1      17.565   0.400  14.970  0.00  0.00     0.008 A 
ENDBRANCH   1  11
BRANCH   3  17
ATOM     17  C18 ZIN A   1      18.720   1.990  11.148  0.00  0.00     0.235 C 
BRANCH  17  18
ATOM     18  N19 ZIN A   1      17.446   2.695  11.338  0.00  0.00    -0.079 N 
ATOM     19  H20 ZIN A   1      17.616   3.688  11.400  0.00  0.00     0.274 HD
ATOM     20  H21 ZIN A   1      16.837   2.506  10.556  0.00  0.00     0.274 HD
ATOM     21  H22 ZIN A   1      17.008   2.375  12.190  0.00  0.00     0.274 HD
ENDBRANCH  17  18
ENDBRANCH   3  17
TORSDOF 6
ENDMDL
