MODEL 1
REMARK VINA RESULT:      -7.4      0.000      0.000
REMARK  2 active torsions:
REMARK  status: ('A' for Active; 'I' for Inactive)
REMARK    1  A    between atoms: C8_8  and  N9_9 
REMARK       I    between atoms: N9_9  and  C10_10 
REMARK    2  A    between atoms: C10_10  and  C12_12 
ROOT
ATOM      1  N9  <0> d   1      19.835   1.580  13.862  0.00  0.00    -0.324 N 
ATOM      2  C10 <0> d   1      19.057   2.294  13.026  0.00  0.00     0.253 C 
ATOM      3  O11 <0> d   1      17.850   2.255  13.137  0.00  0.00    -0.271 OA
ATOM      4  H30 <0> d   1      20.801   1.649  13.805  0.00  0.00     0.169 HD
ENDROOT
BRANCH   1   5
ATOM      5  C8  <0> d   1      19.249   0.738  14.814  0.00  0.00     0.046 A 
ATOM      6  C2  <0> d   1      18.959   1.218  16.085  0.00  0.00    -0.035 A 
ATOM      7  C1  <0> d   1      19.270   2.650  16.438  0.00  0.00     0.050 C 
ATOM      8  C3  <0> d   1      18.380   0.385  17.020  0.00  0.00     0.009 A 
ATOM      9  C4  <0> d   1      18.094  -0.929  16.697  0.00  0.00     0.001 A 
ATOM     10  C5  <0> d   1      18.387  -1.413  15.435  0.00  0.00     0.009 A 
ATOM     11  C6  <0> d   1      18.967  -0.584  14.494  0.00  0.00    -0.035 A 
ATOM     12  C7  <0> d   1      19.285  -1.111  13.118  0.00  0.00     0.050 C 
ENDBRANCH   1   5
BRANCH   2  13
ATOM     13  C12 <0> d   1      19.687   3.144  11.951  0.00  0.00     0.279 C 
ATOM     14  N18 <0> d   1      19.251   4.536  12.110  0.00  0.00    -0.062 N 
ATOM     15  C17 <0> d   1      17.786   4.607  12.073  0.00  0.00     0.235 C 
ATOM     16  H19 <0> d   1      19.632   5.094  11.362  0.00  0.00     0.280 HD
ATOM     17  C20 <0> d   1      19.732   5.051  13.399  0.00  0.00     0.270 C 
ATOM     18  C16 <0> d   1      17.284   4.146  10.703  0.00  0.00     0.028 C 
ATOM     19  C15 <0> d   1      17.733   2.702  10.461  0.00  0.00     0.004 C 
ATOM     20  C14 <0> d   1      19.259   2.625  10.577  0.00  0.00     0.043 C 
ENDBRANCH   2  13
TORSDOF 2
ENDMDL
MODEL 2
REMARK VINA RESULT:      -7.4      0.022      2.019
REMARK  2 active torsions:
REMARK  status: ('A' for Active; 'I' for Inactive)
REMARK    1  A    between atoms: C8_8  and  N9_9 
REMARK       I    between atoms: N9_9  and  C10_10 
REMARK    2  A    between atoms: C10_10  and  C12_12 
ROOT
ATOM      1  N9  <0> d   1      19.832   1.594  13.878  0.00  0.00    -0.324 N 
ATOM      2  C10 <0> d   1      19.053   2.298  13.033  0.00  0.00     0.253 C 
ATOM      3  O11 <0> d   1      17.846   2.250  13.139  0.00  0.00    -0.271 OA
ATOM      4  H30 <0> d   1      20.797   1.669  13.825  0.00  0.00     0.169 HD
ENDROOT
BRANCH   1   5
ATOM      5  C8  <0> d   1      19.247   0.753  14.832  0.00  0.00     0.046 A 
ATOM      6  C2  <0> d   1      18.951  -0.565  14.511  0.00  0.00    -0.035 A 
ATOM      7  C1  <0> d   1      19.266  -1.094  13.136  0.00  0.00     0.050 C 
ATOM      8  C3  <0> d   1      18.375  -1.391  15.455  0.00  0.00     0.009 A 
ATOM      9  C4  <0> d   1      18.087  -0.906  16.718  0.00  0.00     0.001 A 
ATOM     10  C5  <0> d   1      18.375   0.408  17.039  0.00  0.00     0.009 A 
ATOM     11  C6  <0> d   1      18.951   1.240  16.099  0.00  0.00    -0.035 A 
ATOM     12  C7  <0> d   1      19.265   2.672  16.450  0.00  0.00     0.050 C 
ENDBRANCH   1   5
BRANCH   2  13
ATOM     13  C12 <0> d   1      19.682   3.145  11.957  0.00  0.00     0.279 C 
ATOM     14  N18 <0> d   1      19.251   4.539  12.117  0.00  0.00    -0.062 N 
ATOM     15  C17 <0> d   1      17.786   4.614  12.084  0.00  0.00     0.235 C 
ATOM     16  H19 <0> d   1      19.632   5.096  11.368  0.00  0.00     0.280 HD
ATOM     17  C20 <0> d   1      19.737   5.053  13.405  0.00  0.00     0.270 C 
ATOM     18  C16 <0> d   1      17.278   4.155  10.716  0.00  0.00     0.028 C 
ATOM     19  C15 <0> d   1      17.723   2.709  10.473  0.00  0.00     0.004 C 
ATOM     20  C14 <0> d   1      19.248   2.628  10.584  0.00  0.00     0.043 C 
ENDBRANCH   2  13
TORSDOF 2
ENDMDL
MODEL 3
REMARK VINA RESULT:      -7.3      5.403      8.518
REMARK  2 active torsions:
REMARK  status: ('A' for Active; 'I' for Inactive)
REMARK    1  A    between atoms: C8_8  and  N9_9 
REMARK       I    between atoms: N9_9  and  C10_10 
REMARK    2  A    between atoms: C10_10  and  C12_12 
ROOT
ATOM      1  N9  <0> d   1      19.656  -2.486   8.268  0.00  0.00    -0.324 N 
ATOM      2  C10 <0> d   1      18.667  -3.249   8.773  0.00  0.00     0.253 C 
ATOM      3  O11 <0> d   1      17.560  -2.780   8.933  0.00  0.00    -0.271 OA
ATOM      4  H30 <0> d   1      20.528  -2.873   8.095  0.00  0.00     0.169 HD
ENDROOT
BRANCH   1   5
ATOM      5  C8  <0> d   1      19.425  -1.133   7.995  0.00  0.00     0.046 A 
ATOM      6  C2  <0> d   1      18.987  -0.742   6.737  0.00  0.00    -0.035 A 
ATOM      7  C1  <0> d   1      18.753  -1.775   5.665  0.00  0.00     0.050 C 
ATOM      8  C3  <0> d   1      18.759   0.594   6.471  0.00  0.00     0.009 A 
ATOM      9  C4  <0> d   1      18.974   1.543   7.455  0.00  0.00     0.001 A 
ATOM     10  C5  <0> d   1      19.416   1.157   8.707  0.00  0.00     0.009 A 
ATOM     11  C6  <0> d   1      19.645  -0.177   8.979  0.00  0.00    -0.035 A 
ATOM     12  C7  <0> d   1      20.127  -0.597  10.345  0.00  0.00     0.050 C 
ENDBRANCH   1   5
BRANCH   2  13
ATOM     13  C12 <0> d   1      18.936  -4.687   9.137  0.00  0.00     0.279 C 
ATOM     14  N18 <0> d   1      17.668  -5.359   9.445  0.00  0.00    -0.062 N 
ATOM     15  C17 <0> d   1      16.972  -4.644  10.521  0.00  0.00     0.235 C 
ATOM     16  H19 <0> d   1      17.852  -6.306   9.737  0.00  0.00     0.280 HD
ATOM     17  C20 <0> d   1      16.823  -5.374   8.243  0.00  0.00     0.270 C 
ATOM     18  C16 <0> d   1      17.814  -4.694  11.798  0.00  0.00     0.028 C 
ATOM     19  C15 <0> d   1      19.169  -4.032  11.535  0.00  0.00     0.004 C 
ATOM     20  C14 <0> d   1      19.854  -4.738  10.361  0.00  0.00     0.043 C 
ENDBRANCH   2  13
TORSDOF 2
ENDMDL
MODEL 4
REMARK VINA RESULT:      -7.3      5.413      8.328
REMARK  2 active torsions:
REMARK  status: ('A' for Active; 'I' for Inactive)
REMARK    1  A    between atoms: C8_8  and  N9_9 
REMARK       I    between atoms: N9_9  and  C10_10 
REMARK    2  A    between atoms: C10_10  and  C12_12 
ROOT
ATOM      1  N9  <0> d   1      19.655  -2.487   8.255  0.00  0.00    -0.324 N 
ATOM      2  C10 <0> d   1      18.666  -3.244   8.770  0.00  0.00     0.253 C 
ATOM      3  O11 <0> d   1      17.564  -2.768   8.940  0.00  0.00    -0.271 OA
ATOM      4  H30 <0> d   1      20.523  -2.880   8.073  0.00  0.00     0.169 HD
ENDROOT
BRANCH   1   5
ATOM      5  C8  <0> d   1      19.429  -1.133   7.981  0.00  0.00     0.046 A 
ATOM      6  C2  <0> d   1      19.647  -0.178   8.965  0.00  0.00    -0.035 A 
ATOM      7  C1  <0> d   1      20.134  -0.598  10.328  0.00  0.00     0.050 C 
ATOM      8  C3  <0> d   1      19.424   1.156   8.691  0.00  0.00     0.009 A 
ATOM      9  C4  <0> d   1      18.977   1.542   7.441  0.00  0.00     0.001 A 
ATOM     10  C5  <0> d   1      18.753   0.594   6.460  0.00  0.00     0.009 A 
ATOM     11  C6  <0> d   1      18.974  -0.743   6.728  0.00  0.00    -0.035 A 
ATOM     12  C7  <0> d   1      18.730  -1.777   5.658  0.00  0.00     0.050 C 
ENDBRANCH   1   5
BRANCH   2  13
ATOM     13  C12 <0> d   1      18.930  -4.682   9.134  0.00  0.00     0.279 C 
ATOM     14  N18 <0> d   1      17.661  -5.348   9.448  0.00  0.00    -0.062 N 
ATOM     15  C17 <0> d   1      16.973  -4.629  10.527  0.00  0.00     0.235 C 
ATOM     16  H19 <0> d   1      17.842  -6.296   9.740  0.00  0.00     0.280 HD
ATOM     17  C20 <0> d   1      16.810  -5.360   8.250  0.00  0.00     0.270 C 
ATOM     18  C16 <0> d   1      17.820  -4.682  11.800  0.00  0.00     0.028 C 
ATOM     19  C15 <0> d   1      19.178  -4.026  11.530  0.00  0.00     0.004 C 
ATOM     20  C14 <0> d   1      19.853  -4.737  10.354  0.00  0.00     0.043 C 
ENDBRANCH   2  13
TORSDOF 2
ENDMDL
MODEL 5
REMARK VINA RESULT:      -7.1      4.771      7.861
REMARK  2 active torsions:
REMARK  status: ('A' for Active; 'I' for Inactive)
REMARK    1  A    between atoms: C8_8  and  N9_9 
REMARK       I    between atoms: N9_9  and  C10_10 
REMARK    2  A    between atoms: C10_10  and  C12_12 
ROOT
ATOM      1  N9  <0> d   1      19.719  -1.319   8.496  0.00  0.00    -0.324 N 
ATOM      2  C10 <0> d   1      18.820  -1.659   9.440  0.00  0.00     0.253 C 
ATOM      3  O11 <0> d   1      17.649  -1.778   9.148  0.00  0.00    -0.271 OA
ATOM      4  H30 <0> d   1      20.662  -1.271   8.717  0.00  0.00     0.169 HD
ENDROOT
BRANCH   1   5
ATOM      5  C8  <0> d   1      19.291  -1.036   7.193  0.00  0.00     0.046 A 
ATOM      6  C2  <0> d   1      19.268  -2.040   6.234  0.00  0.00    -0.035 A 
ATOM      7  C1  <0> d   1      19.697  -3.438   6.596  0.00  0.00     0.050 C 
ATOM      8  C3  <0> d   1      18.845  -1.757   4.951  0.00  0.00     0.009 A 
ATOM      9  C4  <0> d   1      18.451  -0.473   4.618  0.00  0.00     0.001 A 
ATOM     10  C5  <0> d   1      18.479   0.530   5.569  0.00  0.00     0.009 A 
ATOM     11  C6  <0> d   1      18.901   0.253   6.855  0.00  0.00    -0.035 A 
ATOM     12  C7  <0> d   1      18.930   1.348   7.891  0.00  0.00     0.050 C 
ENDBRANCH   1   5
BRANCH   2  13
ATOM     13  C12 <0> d   1      19.270  -1.891  10.860  0.00  0.00     0.279 C 
ATOM     14  N18 <0> d   1      18.098  -2.111  11.715  0.00  0.00    -0.062 N 
ATOM     15  C17 <0> d   1      17.184  -0.968  11.612  0.00  0.00     0.235 C 
ATOM     16  H19 <0> d   1      18.396  -2.217  12.672  0.00  0.00     0.280 HD
ATOM     17  C20 <0> d   1      17.404  -3.332  11.282  0.00  0.00     0.270 C 
ATOM     18  C16 <0> d   1      17.876   0.291  12.137  0.00  0.00     0.028 C 
ATOM     19  C15 <0> d   1      19.131   0.562  11.302  0.00  0.00     0.004 C 
ATOM     20  C14 <0> d   1      20.044  -0.667  11.355  0.00  0.00     0.043 C 
ENDBRANCH   2  13
TORSDOF 2
ENDMDL
MODEL 6
REMARK VINA RESULT:      -7.0      4.071      7.410
REMARK  2 active torsions:
REMARK  status: ('A' for Active; 'I' for Inactive)
REMARK    1  A    between atoms: C8_8  and  N9_9 
REMARK       I    between atoms: N9_9  and  C10_10 
REMARK    2  A    between atoms: C10_10  and  C12_12 
ROOT
ATOM      1  N9  <0> d   1      19.327  -0.539   9.417  0.00  0.00    -0.324 N 
ATOM      2  C10 <0> d   1      18.254  -0.506  10.231  0.00  0.00     0.253 C 
ATOM      3  O11 <0> d   1      17.146  -0.341   9.767  0.00  0.00    -0.271 OA
ATOM      4  H30 <0> d   1      20.208  -0.718   9.781  0.00  0.00     0.169 HD
ENDROOT
BRANCH   1   5
ATOM      5  C8  <0> d   1      19.171  -0.313   8.044  0.00  0.00     0.046 A 
ATOM      6  C2  <0> d   1      19.087  -1.386   7.167  0.00  0.00    -0.035 A 
ATOM      7  C1  <0> d   1      19.158  -2.796   7.693  0.00  0.00     0.050 C 
ATOM      8  C3  <0> d   1      18.932  -1.159   5.815  0.00  0.00     0.009 A 
ATOM      9  C4  <0> d   1      18.866   0.135   5.331  0.00  0.00     0.001 A 
ATOM     10  C5  <0> d   1      18.956   1.206   6.201  0.00  0.00     0.009 A 
ATOM     11  C6  <0> d   1      19.111   0.986   7.556  0.00  0.00    -0.035 A 
ATOM     12  C7  <0> d   1      19.208   2.154   8.504  0.00  0.00     0.050 C 
ENDBRANCH   1   5
BRANCH   2  13
ATOM     13  C12 <0> d   1      18.432  -0.674  11.718  0.00  0.00     0.279 C 
ATOM     14  N18 <0> d   1      19.802  -1.117  12.001  0.00  0.00    -0.062 N 
ATOM     15  C17 <0> d   1      20.085  -2.359  11.273  0.00  0.00     0.235 C 
ATOM     16  H19 <0> d   1      19.906  -1.277  12.991  0.00  0.00     0.280 HD
ATOM     17  C20 <0> d   1      20.746  -0.075  11.573  0.00  0.00     0.270 C 
ATOM     18  C16 <0> d   1      19.157  -3.469  11.771  0.00  0.00     0.028 C 
ATOM     19  C15 <0> d   1      17.702  -3.055  11.532  0.00  0.00     0.004 C 
ATOM     20  C14 <0> d   1      17.439  -1.719  12.234  0.00  0.00     0.043 C 
ENDBRANCH   2  13
TORSDOF 2
ENDMDL
MODEL 7
REMARK VINA RESULT:      -7.0      4.622      7.549
REMARK  2 active torsions:
REMARK  status: ('A' for Active; 'I' for Inactive)
REMARK    1  A    between atoms: C8_8  and  N9_9 
REMARK       I    between atoms: N9_9  and  C10_10 
REMARK    2  A    between atoms: C10_10  and  C12_12 
ROOT
ATOM      1  N9  <0> d   1      19.773  -1.270   8.606  0.00  0.00    -0.324 N 
ATOM      2  C10 <0> d   1      18.951  -1.677   9.592  0.00  0.00     0.253 C 
ATOM      3  O11 <0> d   1      17.769  -1.839   9.370  0.00  0.00    -0.271 OA
ATOM      4  H30 <0> d   1      20.725  -1.187   8.770  0.00  0.00     0.169 HD
ENDROOT
BRANCH   1   5
ATOM      5  C8  <0> d   1      19.252  -0.967   7.342  0.00  0.00     0.046 A 
ATOM      6  C2  <0> d   1      18.816   0.320   7.059  0.00  0.00    -0.035 A 
ATOM      7  C1  <0> d   1      18.909   1.395   8.111  0.00  0.00     0.050 C 
ATOM      8  C3  <0> d   1      18.304   0.615   5.812  0.00  0.00     0.009 A 
ATOM      9  C4  <0> d   1      18.219  -0.372   4.846  0.00  0.00     0.001 A 
ATOM     10  C5  <0> d   1      18.646  -1.656   5.126  0.00  0.00     0.009 A 
ATOM     11  C6  <0> d   1      19.160  -1.958   6.372  0.00  0.00    -0.035 A 
ATOM     12  C7  <0> d   1      19.627  -3.359   6.677  0.00  0.00     0.050 C 
ENDBRANCH   1   5
BRANCH   2  13
ATOM     13  C12 <0> d   1      19.499  -1.931  10.973  0.00  0.00     0.279 C 
ATOM     14  N18 <0> d   1      18.403  -2.309  11.873  0.00  0.00    -0.062 N 
ATOM     15  C17 <0> d   1      17.377  -1.260  11.878  0.00  0.00     0.235 C 
ATOM     16  H19 <0> d   1      18.762  -2.431  12.807  0.00  0.00     0.280 HD
ATOM     17  C20 <0> d   1      17.808  -3.571  11.410  0.00  0.00     0.270 C 
ATOM     18  C16 <0> d   1      17.971   0.036  12.434  0.00  0.00     0.028 C 
ATOM     19  C15 <0> d   1      19.145   0.471  11.553  0.00  0.00     0.004 C 
ATOM     20  C14 <0> d   1      20.175  -0.661  11.494  0.00  0.00     0.043 C 
ENDBRANCH   2  13
TORSDOF 2
ENDMDL
MODEL 8
REMARK VINA RESULT:      -7.0      4.109      7.198
REMARK  2 active torsions:
REMARK  status: ('A' for Active; 'I' for Inactive)
REMARK    1  A    between atoms: C8_8  and  N9_9 
REMARK       I    between atoms: N9_9  and  C10_10 
REMARK    2  A    between atoms: C10_10  and  C12_12 
ROOT
ATOM      1  N9  <0> d   1      19.270  -0.577   9.380  0.00  0.00    -0.324 N 
ATOM      2  C10 <0> d   1      18.220  -0.516  10.222  0.00  0.00     0.253 C 
ATOM      3  O11 <0> d   1      17.105  -0.313   9.788  0.00  0.00    -0.271 OA
ATOM      4  H30 <0> d   1      20.154  -0.787   9.721  0.00  0.00     0.169 HD
ENDROOT
BRANCH   1   5
ATOM      5  C8  <0> d   1      19.086  -0.338   8.014  0.00  0.00     0.046 A 
ATOM      6  C2  <0> d   1      19.067   0.964   7.531  0.00  0.00    -0.035 A 
ATOM      7  C1  <0> d   1      19.252   2.121   8.477  0.00  0.00     0.050 C 
ATOM      8  C3  <0> d   1      18.885   1.195   6.182  0.00  0.00     0.009 A 
ATOM      9  C4  <0> d   1      18.716   0.132   5.313  0.00  0.00     0.001 A 
ATOM     10  C5  <0> d   1      18.727  -1.165   5.791  0.00  0.00     0.009 A 
ATOM     11  C6  <0> d   1      18.909  -1.403   7.139  0.00  0.00    -0.035 A 
ATOM     12  C7  <0> d   1      18.923  -2.818   7.660  0.00  0.00     0.050 C 
ENDBRANCH   1   5
BRANCH   2  13
ATOM     13  C12 <0> d   1      18.430  -0.699  11.704  0.00  0.00     0.279 C 
ATOM     14  N18 <0> d   1      19.799  -1.166  11.949  0.00  0.00    -0.062 N 
ATOM     15  C17 <0> d   1      20.044  -2.407  11.206  0.00  0.00     0.235 C 
ATOM     16  H19 <0> d   1      19.924  -1.336  12.935  0.00  0.00     0.280 HD
ATOM     17  C20 <0> d   1      20.750  -0.137  11.507  0.00  0.00     0.270 C 
ATOM     18  C16 <0> d   1      19.110  -3.505  11.718  0.00  0.00     0.028 C 
ATOM     19  C15 <0> d   1      17.656  -3.065  11.518  0.00  0.00     0.004 C 
ATOM     20  C14 <0> d   1      17.433  -1.731  12.235  0.00  0.00     0.043 C 
ENDBRANCH   2  13
TORSDOF 2
ENDMDL
MODEL 9
REMARK VINA RESULT:      -7.0      4.902      8.046
REMARK  2 active torsions:
REMARK  status: ('A' for Active; 'I' for Inactive)
REMARK    1  A    between atoms: C8_8  and  N9_9 
REMARK       I    between atoms: N9_9  and  C10_10 
REMARK    2  A    between atoms: C10_10  and  C12_12 
ROOT
ATOM      1  N9  <0> d   1      17.381  -1.546   8.547  0.00  0.00    -0.324 N 
ATOM      2  C10 <0> d   1      18.060  -2.592   9.056  0.00  0.00     0.253 C 
ATOM      3  O11 <0> d   1      19.103  -2.410   9.647  0.00  0.00    -0.271 OA
ATOM      4  H30 <0> d   1      16.523  -1.686   8.117  0.00  0.00     0.169 HD
ENDROOT
BRANCH   1   5
ATOM      5  C8  <0> d   1      17.914  -0.255   8.640  0.00  0.00     0.046 A 
ATOM      6  C2  <0> d   1      18.702   0.248   7.614  0.00  0.00    -0.035 A 
ATOM      7  C1  <0> d   1      18.979  -0.593   6.395  0.00  0.00     0.050 C 
ATOM      8  C3  <0> d   1      19.226   1.522   7.709  0.00  0.00     0.009 A 
ATOM      9  C4  <0> d   1      18.971   2.295   8.827  0.00  0.00     0.001 A 
ATOM     10  C5  <0> d   1      18.192   1.795   9.854  0.00  0.00     0.009 A 
ATOM     11  C6  <0> d   1      17.665   0.521   9.765  0.00  0.00    -0.035 A 
ATOM     12  C7  <0> d   1      16.815  -0.024  10.885  0.00  0.00     0.050 C 
ENDBRANCH   1   5
BRANCH   2  13
ATOM     13  C12 <0> d   1      17.522  -3.991   8.891  0.00  0.00     0.279 C 
ATOM     14  N18 <0> d   1      17.886  -4.796  10.062  0.00  0.00    -0.062 N 
ATOM     15  C17 <0> d   1      19.342  -4.789  10.241  0.00  0.00     0.235 C 
ATOM     16  H19 <0> d   1      17.570  -5.745   9.929  0.00  0.00     0.280 HD
ATOM     17  C20 <0> d   1      17.245  -4.231  11.258  0.00  0.00     0.270 C 
ATOM     18  C16 <0> d   1      20.011  -5.449   9.033  0.00  0.00     0.028 C 
ATOM     19  C15 <0> d   1      19.646  -4.670   7.766  0.00  0.00     0.004 C 
ATOM     20  C14 <0> d   1      18.121  -4.620   7.630  0.00  0.00     0.043 C 
ENDBRANCH   2  13
TORSDOF 2
ENDMDL
