MODEL 1
REMARK VINA RESULT:      -7.7      0.000      0.000
REMARK  9 active torsions:
REMARK  status: ('A' for Active; 'I' for Inactive)
REMARK    1  A    between atoms: O2_2  and  C3_3 
REMARK    2  A    between atoms: C4_4  and  O5_5 
REMARK    3  A    between atoms: C12_12  and  N13_13 
REMARK    4  A    between atoms: N13_13  and  C15_15 
REMARK    5  A    between atoms: C15_15  and  C16_16 
REMARK    6  A    between atoms: C16_16  and  C17_17 
REMARK    7  A    between atoms: C17_17  and  N18_18 
REMARK       I    between atoms: N18_18  and  C19_19 
REMARK    8  A    between atoms: C19_19  and  C21_21 
REMARK    9  A    between atoms: C29_28  and  N30_29 
ROOT
ATOM      1  C3  <0> d   1      17.829   2.826  11.268  0.00  0.00     0.103 A 
ATOM      2  C4  <0> d   1      18.936   2.545  12.080  0.00  0.00     0.102 A 
ATOM      3  C7  <0> d   1      19.810   1.549  11.747  0.00  0.00     0.057 A 
ATOM      4  C8  <0> d   1      19.599   0.801  10.583  0.00  0.00     0.040 A 
ATOM      5  C9  <0> d   1      18.482   1.079   9.757  0.00  0.00     0.092 A 
ATOM      6  C10 <0> d   1      17.595   2.100  10.120  0.00  0.00     0.073 A 
ATOM      7  N11 <0> d   1      18.300   0.346   8.646  0.00  0.00    -0.064 NA
ATOM      8  C12 <0> d   1      19.148  -0.613   8.334  0.00  0.00     0.704 A 
ATOM      9  N27 <0> d   1      20.209  -0.907   9.081  0.00  0.00    -0.174 N 
ATOM     10  H28 <0> d   1      20.801  -1.624   8.803  0.00  0.00     0.186 HD
ATOM     11  C29 <0> d   1      20.476  -0.243  10.195  0.00  0.00     0.127 A 
ENDROOT
BRANCH   8  12
ATOM     12  N13 <0> d   1      18.926  -1.345   7.180  0.00  0.00    -0.220 N 
ATOM     13  C14 <0> d   1      18.175  -0.753   6.071  0.00  0.00     0.168 C 
BRANCH  12  14
ATOM     14  C15 <0> d   1      19.441  -2.712   7.069  0.00  0.00     0.142 C 
BRANCH  14  15
ATOM     15  C16 <0> d   1      18.348  -3.703   7.476  0.00  0.00     0.040 C 
BRANCH  15  16
ATOM     16  C17 <0> d   1      18.762  -4.420   8.762  0.00  0.00     0.124 C 
BRANCH  16  17
ATOM     17  N18 <0> d   1      18.053  -3.831   9.900  0.00  0.00    -0.359 N 
ATOM     18  C19 <0> d   1      18.747  -3.356  10.954  0.00  0.00     0.246 C 
ATOM     19  O20 <0> d   1      19.958  -3.417  10.960  0.00  0.00    -0.271 OA
ATOM     20  H48 <0> d   1      17.085  -3.781   9.895  0.00  0.00     0.162 HD
BRANCH  18  21
ATOM     21  C21 <0> d   1      18.016  -2.749  12.124  0.00  0.00     0.213 C 
ATOM     22  O26 <0> d   1      17.097  -1.742  11.670  0.00  0.00    -0.376 OA
ATOM     23  C25 <0> d   1      17.060  -0.657  12.608  0.00  0.00     0.168 C 
ATOM     24  C24 <0> d   1      18.064  -0.980  13.735  0.00  0.00     0.029 C 
ATOM     25  C23 <0> d   1      19.010  -2.004  13.051  0.00  0.00     0.043 C 
ENDBRANCH  18  21
ENDBRANCH  16  17
ENDBRANCH  15  16
ENDBRANCH  14  15
ENDBRANCH  12  14
ENDBRANCH   8  12
BRANCH  11  26
ATOM     26  N30 <0> d   1      21.579  -0.559  10.961  0.00  0.00    -0.384 N 
ATOM     27  H55 <0> d   1      21.805  -0.017  11.731  0.00  0.00     0.157 HD
ATOM     28  H56 <0> d   1      22.126  -1.325  10.728  0.00  0.00     0.157 HD
ENDBRANCH  11  26
BRANCH   1  29
ATOM     29  O2  <0> d   1      16.973   3.820  11.620  0.00  0.00    -0.353 OA
ATOM     30  C1  <0> d   1      16.886   4.943  10.740  0.00  0.00     0.210 C 
ENDBRANCH   1  29
BRANCH   2  31
ATOM     31  O5  <0> d   1      19.142   3.271  13.210  0.00  0.00    -0.353 OA
ATOM     32  C6  <0> d   1      18.714   2.687  14.443  0.00  0.00     0.210 C 
ENDBRANCH   2  31
TORSDOF 9
ENDMDL
MODEL 2
REMARK VINA RESULT:      -7.3      2.261      5.549
REMARK  9 active torsions:
REMARK  status: ('A' for Active; 'I' for Inactive)
REMARK    1  A    between atoms: O2_2  and  C3_3 
REMARK    2  A    between atoms: C4_4  and  O5_5 
REMARK    3  A    between atoms: C12_12  and  N13_13 
REMARK    4  A    between atoms: N13_13  and  C15_15 
REMARK    5  A    between atoms: C15_15  and  C16_16 
REMARK    6  A    between atoms: C16_16  and  C17_17 
REMARK    7  A    between atoms: C17_17  and  N18_18 
REMARK       I    between atoms: N18_18  and  C19_19 
REMARK    8  A    between atoms: C19_19  and  C21_21 
REMARK    9  A    between atoms: C29_28  and  N30_29 
ROOT
ATOM      1  C3  <0> d   1      18.258  -0.758   7.027  0.00  0.00     0.103 A 
ATOM      2  C4  <0> d   1      19.254  -1.606   7.531  0.00  0.00     0.102 A 
ATOM      3  C7  <0> d   1      19.939  -1.278   8.667  0.00  0.00     0.057 A 
ATOM      4  C8  <0> d   1      19.646  -0.083   9.334  0.00  0.00     0.040 A 
ATOM      5  C9  <0> d   1      18.641   0.780   8.830  0.00  0.00     0.092 A 
ATOM      6  C10 <0> d   1      17.955   0.427   7.661  0.00  0.00     0.073 A 
ATOM      7  N11 <0> d   1      18.379   1.922   9.487  0.00  0.00    -0.064 NA
ATOM      8  C12 <0> d   1      19.047   2.229  10.581  0.00  0.00     0.704 A 
ATOM      9  N27 <0> d   1      19.997   1.449  11.088  0.00  0.00    -0.174 N 
ATOM     10  H28 <0> d   1      20.457   1.725  11.897  0.00  0.00     0.186 HD
ATOM     11  C29 <0> d   1      20.330   0.302  10.514  0.00  0.00     0.127 A 
ENDROOT
BRANCH   8  12
ATOM     12  N13 <0> d   1      18.746   3.415  11.229  0.00  0.00    -0.220 N 
ATOM     13  C14 <0> d   1      17.933   4.431  10.557  0.00  0.00     0.168 C 
BRANCH  12  14
ATOM     14  C15 <0> d   1      19.242   3.654  12.587  0.00  0.00     0.142 C 
BRANCH  14  15
ATOM     15  C16 <0> d   1      18.114   3.410  13.592  0.00  0.00     0.040 C 
BRANCH  15  16
ATOM     16  C17 <0> d   1      18.547   2.337  14.593  0.00  0.00     0.124 C 
BRANCH  16  17
ATOM     17  N18 <0> d   1      18.021   1.036  14.173  0.00  0.00    -0.359 N 
ATOM     18  C19 <0> d   1      18.869   0.040  13.848  0.00  0.00     0.246 C 
ATOM     19  O20 <0> d   1      20.067   0.220  13.903  0.00  0.00    -0.271 OA
ATOM     20  H48 <0> d   1      17.063   0.892  14.129  0.00  0.00     0.162 HD
BRANCH  18  21
ATOM     21  C21 <0> d   1      18.327  -1.299  13.415  0.00  0.00     0.213 C 
ATOM     22  O26 <0> d   1      19.401  -2.167  13.020  0.00  0.00    -0.376 OA
ATOM     23  C25 <0> d   1      18.992  -2.974  11.907  0.00  0.00     0.168 C 
ATOM     24  C24 <0> d   1      17.551  -2.563  11.538  0.00  0.00     0.029 C 
ATOM     25  C23 <0> d   1      17.446  -1.140  12.150  0.00  0.00     0.043 C 
ENDBRANCH  18  21
ENDBRANCH  16  17
ENDBRANCH  15  16
ENDBRANCH  14  15
ENDBRANCH  12  14
ENDBRANCH   8  12
BRANCH  11  26
ATOM     26  N30 <0> d   1      21.318  -0.497  11.050  0.00  0.00    -0.384 N 
ATOM     27  H55 <0> d   1      21.399  -1.421  10.769  0.00  0.00     0.157 HD
ATOM     28  H56 <0> d   1      21.931  -0.133  11.708  0.00  0.00     0.157 HD
ENDBRANCH  11  26
BRANCH   1  29
ATOM     29  O2  <0> d   1      17.591  -1.104   5.895  0.00  0.00    -0.353 OA
ATOM     30  C1  <0> d   1      18.138  -0.652   4.655  0.00  0.00     0.210 C 
ENDBRANCH   1  29
BRANCH   2  31
ATOM     31  O5  <0> d   1      19.539  -2.766   6.884  0.00  0.00    -0.353 OA
ATOM     32  C6  <0> d   1      19.242  -3.983   7.573  0.00  0.00     0.210 C 
ENDBRANCH   2  31
TORSDOF 9
ENDMDL
MODEL 3
REMARK VINA RESULT:      -7.3      1.996      4.029
REMARK  9 active torsions:
REMARK  status: ('A' for Active; 'I' for Inactive)
REMARK    1  A    between atoms: O2_2  and  C3_3 
REMARK    2  A    between atoms: C4_4  and  O5_5 
REMARK    3  A    between atoms: C12_12  and  N13_13 
REMARK    4  A    between atoms: N13_13  and  C15_15 
REMARK    5  A    between atoms: C15_15  and  C16_16 
REMARK    6  A    between atoms: C16_16  and  C17_17 
REMARK    7  A    between atoms: C17_17  and  N18_18 
REMARK       I    between atoms: N18_18  and  C19_19 
REMARK    8  A    between atoms: C19_19  and  C21_21 
REMARK    9  A    between atoms: C29_28  and  N30_29 
ROOT
ATOM      1  C3  <0> d   1      18.192   0.004  14.821  0.00  0.00     0.103 A 
ATOM      2  C4  <0> d   1      19.242   0.806  14.354  0.00  0.00     0.102 A 
ATOM      3  C7  <0> d   1      19.968   0.435  13.257  0.00  0.00     0.057 A 
ATOM      4  C8  <0> d   1      19.659  -0.758  12.592  0.00  0.00     0.040 A 
ATOM      5  C9  <0> d   1      18.599  -1.573  13.059  0.00  0.00     0.092 A 
ATOM      6  C10 <0> d   1      17.873  -1.177  14.189  0.00  0.00     0.073 A 
ATOM      7  N11 <0> d   1      18.324  -2.714  12.405  0.00  0.00    -0.064 NA
ATOM      8  C12 <0> d   1      19.030  -3.063  11.348  0.00  0.00     0.704 A 
ATOM      9  N27 <0> d   1      20.033  -2.327  10.877  0.00  0.00    -0.174 N 
ATOM     10  H28 <0> d   1      20.519  -2.633  10.095  0.00  0.00     0.186 HD
ATOM     11  C29 <0> d   1      20.383  -1.186  11.451  0.00  0.00     0.127 A 
ENDROOT
BRANCH   8  12
ATOM     12  N13 <0> d   1      18.715  -4.246  10.702  0.00  0.00    -0.220 N 
ATOM     13  C14 <0> d   1      18.015  -5.311  11.425  0.00  0.00     0.168 C 
BRANCH  12  14
ATOM     14  C15 <0> d   1      19.080  -4.433   9.296  0.00  0.00     0.142 C 
BRANCH  14  15
ATOM     15  C16 <0> d   1      17.872  -4.125   8.409  0.00  0.00     0.040 C 
BRANCH  15  16
ATOM     16  C17 <0> d   1      18.253  -3.060   7.379  0.00  0.00     0.124 C 
BRANCH  16  17
ATOM     17  N18 <0> d   1      17.795  -1.748   7.842  0.00  0.00    -0.359 N 
ATOM     18  C19 <0> d   1      18.694  -0.806   8.194  0.00  0.00     0.246 C 
ATOM     19  O20 <0> d   1      19.881  -1.046   8.128  0.00  0.00    -0.271 OA
ATOM     20  H48 <0> d   1      16.846  -1.556   7.895  0.00  0.00     0.162 HD
BRANCH  18  21
ATOM     21  C21 <0> d   1      18.223   0.544   8.671  0.00  0.00     0.213 C 
ATOM     22  O26 <0> d   1      19.347   1.380   8.990  0.00  0.00    -0.376 OA
ATOM     23  C25 <0> d   1      19.043   2.191  10.133  0.00  0.00     0.168 C 
ATOM     24  C24 <0> d   1      17.621   1.817  10.605  0.00  0.00     0.029 C 
ATOM     25  C23 <0> d   1      17.433   0.401   9.996  0.00  0.00     0.043 C 
ENDBRANCH  18  21
ENDBRANCH  16  17
ENDBRANCH  15  16
ENDBRANCH  14  15
ENDBRANCH  12  14
ENDBRANCH   8  12
BRANCH  11  26
ATOM     26  N30 <0> d   1      21.426  -0.433  10.952  0.00  0.00    -0.384 N 
ATOM     27  H55 <0> d   1      21.355  -0.031  10.073  0.00  0.00     0.157 HD
ATOM     28  H56 <0> d   1      22.228  -0.306  11.482  0.00  0.00     0.157 HD
ENDBRANCH  11  26
BRANCH   1  29
ATOM     29  O2  <0> d   1      17.486   0.393  15.915  0.00  0.00    -0.353 OA
ATOM     30  C1  <0> d   1      17.613  -0.412  17.089  0.00  0.00     0.210 C 
ENDBRANCH   1  29
BRANCH   2  31
ATOM     31  O5  <0> d   1      19.542   1.964  14.999  0.00  0.00    -0.353 OA
ATOM     32  C6  <0> d   1      18.846   3.140  14.578  0.00  0.00     0.210 C 
ENDBRANCH   2  31
TORSDOF 9
ENDMDL
MODEL 4
REMARK VINA RESULT:      -6.9      1.559      2.170
REMARK  9 active torsions:
REMARK  status: ('A' for Active; 'I' for Inactive)
REMARK    1  A    between atoms: O2_2  and  C3_3 
REMARK    2  A    between atoms: C4_4  and  O5_5 
REMARK    3  A    between atoms: C12_12  and  N13_13 
REMARK    4  A    between atoms: N13_13  and  C15_15 
REMARK    5  A    between atoms: C15_15  and  C16_16 
REMARK    6  A    between atoms: C16_16  and  C17_17 
REMARK    7  A    between atoms: C17_17  and  N18_18 
REMARK       I    between atoms: N18_18  and  C19_19 
REMARK    8  A    between atoms: C19_19  and  C21_21 
REMARK    9  A    between atoms: C29_28  and  N30_29 
ROOT
ATOM      1  C3  <0> d   1      17.795   2.813  11.396  0.00  0.00     0.103 A 
ATOM      2  C4  <0> d   1      18.884   2.489  12.216  0.00  0.00     0.102 A 
ATOM      3  C7  <0> d   1      19.758   1.502  11.858  0.00  0.00     0.057 A 
ATOM      4  C8  <0> d   1      19.566   0.805  10.660  0.00  0.00     0.040 A 
ATOM      5  C9  <0> d   1      18.467   1.127   9.825  0.00  0.00     0.092 A 
ATOM      6  C10 <0> d   1      17.579   2.138  10.214  0.00  0.00     0.073 A 
ATOM      7  N11 <0> d   1      18.302   0.443   8.681  0.00  0.00    -0.064 NA
ATOM      8  C12 <0> d   1      19.151  -0.509   8.344  0.00  0.00     0.704 A 
ATOM      9  N27 <0> d   1      20.194  -0.842   9.099  0.00  0.00    -0.174 N 
ATOM     10  H28 <0> d   1      20.787  -1.550   8.803  0.00  0.00     0.186 HD
ATOM     11  C29 <0> d   1      20.443  -0.227  10.246  0.00  0.00     0.127 A 
ENDROOT
BRANCH   8  12
ATOM     12  N13 <0> d   1      18.946  -1.190   7.157  0.00  0.00    -0.220 N 
ATOM     13  C14 <0> d   1      18.136  -0.586   6.097  0.00  0.00     0.168 C 
BRANCH  12  14
ATOM     14  C15 <0> d   1      19.540  -2.515   6.961  0.00  0.00     0.142 C 
BRANCH  14  15
ATOM     15  C16 <0> d   1      18.894  -3.188   5.748  0.00  0.00     0.040 C 
BRANCH  15  16
ATOM     16  C17 <0> d   1      18.045  -4.372   6.215  0.00  0.00     0.124 C 
BRANCH  16  17
ATOM     17  N18 <0> d   1      17.618  -4.152   7.598  0.00  0.00    -0.359 N 
ATOM     18  C19 <0> d   1      17.190  -5.190   8.345  0.00  0.00     0.246 C 
ATOM     19  O20 <0> d   1      17.159  -6.306   7.871  0.00  0.00    -0.271 OA
ATOM     20  H48 <0> d   1      17.643  -3.260   7.977  0.00  0.00     0.162 HD
BRANCH  18  21
ATOM     21  C21 <0> d   1      16.751  -4.962   9.769  0.00  0.00     0.213 C 
ATOM     22  O26 <0> d   1      17.301  -3.733  10.269  0.00  0.00    -0.376 OA
ATOM     23  C25 <0> d   1      17.648  -3.882  11.652  0.00  0.00     0.168 C 
ATOM     24  C24 <0> d   1      17.329  -5.336  12.060  0.00  0.00     0.029 C 
ATOM     25  C23 <0> d   1      17.323  -6.068  10.691  0.00  0.00     0.043 C 
ENDBRANCH  18  21
ENDBRANCH  16  17
ENDBRANCH  15  16
ENDBRANCH  14  15
ENDBRANCH  12  14
ENDBRANCH   8  12
BRANCH  11  26
ATOM     26  N30 <0> d   1      21.529  -0.583  11.018  0.00  0.00    -0.384 N 
ATOM     27  H55 <0> d   1      22.216  -1.159  10.651  0.00  0.00     0.157 HD
ATOM     28  H56 <0> d   1      21.604  -0.256  11.928  0.00  0.00     0.157 HD
ENDBRANCH  11  26
BRANCH   1  29
ATOM     29  O2  <0> d   1      16.938   3.797  11.773  0.00  0.00    -0.353 OA
ATOM     30  C1  <0> d   1      16.894   4.968  10.954  0.00  0.00     0.210 C 
ENDBRANCH   1  29
BRANCH   2  31
ATOM     31  O5  <0> d   1      19.072   3.165  13.381  0.00  0.00    -0.353 OA
ATOM     32  C6  <0> d   1      18.820   2.452  14.593  0.00  0.00     0.210 C 
ENDBRANCH   2  31
TORSDOF 9
ENDMDL
MODEL 5
REMARK VINA RESULT:      -6.8      2.606      5.944
REMARK  9 active torsions:
REMARK  status: ('A' for Active; 'I' for Inactive)
REMARK    1  A    between atoms: O2_2  and  C3_3 
REMARK    2  A    between atoms: C4_4  and  O5_5 
REMARK    3  A    between atoms: C12_12  and  N13_13 
REMARK    4  A    between atoms: N13_13  and  C15_15 
REMARK    5  A    between atoms: C15_15  and  C16_16 
REMARK    6  A    between atoms: C16_16  and  C17_17 
REMARK    7  A    between atoms: C17_17  and  N18_18 
REMARK       I    between atoms: N18_18  and  C19_19 
REMARK    8  A    between atoms: C19_19  and  C21_21 
REMARK    9  A    between atoms: C29_28  and  N30_29 
ROOT
ATOM      1  C3  <0> d   1      18.273  -0.598   6.600  0.00  0.00     0.103 A 
ATOM      2  C4  <0> d   1      18.836  -1.730   7.204  0.00  0.00     0.102 A 
ATOM      3  C7  <0> d   1      19.412  -1.648   8.440  0.00  0.00     0.057 A 
ATOM      4  C8  <0> d   1      19.440  -0.420   9.112  0.00  0.00     0.040 A 
ATOM      5  C9  <0> d   1      18.872   0.729   8.508  0.00  0.00     0.092 A 
ATOM      6  C10 <0> d   1      18.292   0.623   7.238  0.00  0.00     0.073 A 
ATOM      7  N11 <0> d   1      18.913   1.895   9.172  0.00  0.00    -0.064 NA
ATOM      8  C12 <0> d   1      19.471   1.965  10.364  0.00  0.00     0.704 A 
ATOM      9  N27 <0> d   1      20.015   0.912  10.967  0.00  0.00    -0.174 N 
ATOM     10  H28 <0> d   1      20.413   1.020  11.845  0.00  0.00     0.186 HD
ATOM     11  C29 <0> d   1      20.026  -0.283  10.395  0.00  0.00     0.127 A 
ENDROOT
BRANCH   8  12
ATOM     12  N13 <0> d   1      19.492   3.186  11.016  0.00  0.00    -0.220 N 
ATOM     13  C14 <0> d   1      20.699   3.616  11.726  0.00  0.00     0.168 C 
BRANCH  12  14
ATOM     14  C15 <0> d   1      18.308   4.048  10.995  0.00  0.00     0.142 C 
BRANCH  14  15
ATOM     15  C16 <0> d   1      18.167   4.754  12.346  0.00  0.00     0.040 C 
BRANCH  15  16
ATOM     16  C17 <0> d   1      17.232   3.946  13.248  0.00  0.00     0.124 C 
BRANCH  16  17
ATOM     17  N18 <0> d   1      18.024   3.049  14.092  0.00  0.00    -0.359 N 
ATOM     18  C19 <0> d   1      18.038   1.724  13.841  0.00  0.00     0.246 C 
ATOM     19  O20 <0> d   1      17.395   1.276  12.915  0.00  0.00    -0.271 OA
ATOM     20  H48 <0> d   1      18.538   3.407  14.832  0.00  0.00     0.162 HD
BRANCH  18  21
ATOM     21  C21 <0> d   1      18.853   0.801  14.710  0.00  0.00     0.213 C 
ATOM     22  O26 <0> d   1      19.592  -0.125  13.897  0.00  0.00    -0.376 OA
ATOM     23  C25 <0> d   1      19.643  -1.405  14.540  0.00  0.00     0.168 C 
ATOM     24  C24 <0> d   1      18.840  -1.301  15.854  0.00  0.00     0.029 C 
ATOM     25  C23 <0> d   1      17.921  -0.078  15.582  0.00  0.00     0.043 C 
ENDBRANCH  18  21
ENDBRANCH  16  17
ENDBRANCH  15  16
ENDBRANCH  14  15
ENDBRANCH  12  14
ENDBRANCH   8  12
BRANCH  11  26
ATOM     26  N30 <0> d   1      20.595  -1.367  11.031  0.00  0.00    -0.384 N 
ATOM     27  H55 <0> d   1      20.630  -1.397  11.999  0.00  0.00     0.157 HD
ATOM     28  H56 <0> d   1      20.958  -2.100  10.509  0.00  0.00     0.157 HD
ENDBRANCH  11  26
BRANCH   1  29
ATOM     29  O2  <0> d   1      17.707  -0.704   5.370  0.00  0.00    -0.353 OA
ATOM     30  C1  <0> d   1      18.512  -0.330   4.250  0.00  0.00     0.210 C 
ENDBRANCH   1  29
BRANCH   2  31
ATOM     31  O5  <0> d   1      18.810  -2.923   6.552  0.00  0.00    -0.353 OA
ATOM     32  C6  <0> d   1      19.824  -3.871   6.892  0.00  0.00     0.210 C 
ENDBRANCH   2  31
TORSDOF 9
ENDMDL
MODEL 6
REMARK VINA RESULT:      -6.8      1.802      2.244
REMARK  9 active torsions:
REMARK  status: ('A' for Active; 'I' for Inactive)
REMARK    1  A    between atoms: O2_2  and  C3_3 
REMARK    2  A    between atoms: C4_4  and  O5_5 
REMARK    3  A    between atoms: C12_12  and  N13_13 
REMARK    4  A    between atoms: N13_13  and  C15_15 
REMARK    5  A    between atoms: C15_15  and  C16_16 
REMARK    6  A    between atoms: C16_16  and  C17_17 
REMARK    7  A    between atoms: C17_17  and  N18_18 
REMARK       I    between atoms: N18_18  and  C19_19 
REMARK    8  A    between atoms: C19_19  and  C21_21 
REMARK    9  A    between atoms: C29_28  and  N30_29 
ROOT
ATOM      1  C3  <0> d   1      17.615   4.928  12.483  0.00  0.00     0.103 A 
ATOM      2  C4  <0> d   1      18.673   4.519  13.306  0.00  0.00     0.102 A 
ATOM      3  C7  <0> d   1      19.450   3.448  12.963  0.00  0.00     0.057 A 
ATOM      4  C8  <0> d   1      19.187   2.751  11.778  0.00  0.00     0.040 A 
ATOM      5  C9  <0> d   1      18.118   3.159  10.942  0.00  0.00     0.092 A 
ATOM      6  C10 <0> d   1      17.331   4.255  11.315  0.00  0.00     0.073 A 
ATOM      7  N11 <0> d   1      17.884   2.473   9.811  0.00  0.00    -0.064 NA
ATOM      8  C12 <0> d   1      18.639   1.440   9.489  0.00  0.00     0.704 A 
ATOM      9  N27 <0> d   1      19.650   1.025  10.246  0.00  0.00    -0.174 N 
ATOM     10  H28 <0> d   1      20.173   0.259   9.961  0.00  0.00     0.186 HD
ATOM     11  C29 <0> d   1      19.962   1.634  11.381  0.00  0.00     0.127 A 
ENDROOT
BRANCH   8  12
ATOM     12  N13 <0> d   1      18.365   0.760   8.315  0.00  0.00    -0.220 N 
ATOM     13  C14 <0> d   1      18.901   1.251   7.043  0.00  0.00     0.168 C 
BRANCH  12  14
ATOM     14  C15 <0> d   1      17.540  -0.450   8.345  0.00  0.00     0.142 C 
BRANCH  14  15
ATOM     15  C16 <0> d   1      18.316  -1.612   7.720  0.00  0.00     0.040 C 
BRANCH  15  16
ATOM     16  C17 <0> d   1      18.769  -2.573   8.820  0.00  0.00     0.124 C 
BRANCH  16  17
ATOM     17  N18 <0> d   1      18.041  -2.278  10.056  0.00  0.00    -0.359 N 
ATOM     18  C19 <0> d   1      18.718  -1.930  11.169  0.00  0.00     0.246 C 
ATOM     19  O20 <0> d   1      19.928  -1.861  11.147  0.00  0.00    -0.271 OA
ATOM     20  H48 <0> d   1      17.073  -2.332  10.074  0.00  0.00     0.162 HD
BRANCH  18  21
ATOM     21  C21 <0> d   1      17.968  -1.626  12.442  0.00  0.00     0.213 C 
ATOM     22  O26 <0> d   1      17.365  -0.324  12.366  0.00  0.00    -0.376 OA
ATOM     23  C25 <0> d   1      17.423   0.315  13.648  0.00  0.00     0.168 C 
ATOM     24  C24 <0> d   1      18.154  -0.641  14.614  0.00  0.00     0.029 C 
ATOM     25  C23 <0> d   1      18.949  -1.550  13.639  0.00  0.00     0.043 C 
ENDBRANCH  18  21
ENDBRANCH  16  17
ENDBRANCH  15  16
ENDBRANCH  14  15
ENDBRANCH  12  14
ENDBRANCH   8  12
BRANCH  11  26
ATOM     26  N30 <0> d   1      21.013   1.192  12.156  0.00  0.00    -0.384 N 
ATOM     27  H55 <0> d   1      21.429   0.337  11.966  0.00  0.00     0.157 HD
ATOM     28  H56 <0> d   1      21.337   1.737  12.890  0.00  0.00     0.157 HD
ENDBRANCH  11  26
BRANCH   1  29
ATOM     29  O2  <0> d   1      16.856   5.995  12.845  0.00  0.00    -0.353 OA
ATOM     30  C1  <0> d   1      15.723   5.734  13.676  0.00  0.00     0.210 C 
ENDBRANCH   1  29
BRANCH   2  31
ATOM     31  O5  <0> d   1      18.930   5.195  14.457  0.00  0.00    -0.353 OA
ATOM     32  C6  <0> d   1      20.065   6.065  14.460  0.00  0.00     0.210 C 
ENDBRANCH   2  31
TORSDOF 9
ENDMDL
MODEL 7
REMARK VINA RESULT:      -6.8      2.354      4.555
REMARK  9 active torsions:
REMARK  status: ('A' for Active; 'I' for Inactive)
REMARK    1  A    between atoms: O2_2  and  C3_3 
REMARK    2  A    between atoms: C4_4  and  O5_5 
REMARK    3  A    between atoms: C12_12  and  N13_13 
REMARK    4  A    between atoms: N13_13  and  C15_15 
REMARK    5  A    between atoms: C15_15  and  C16_16 
REMARK    6  A    between atoms: C16_16  and  C17_17 
REMARK    7  A    between atoms: C17_17  and  N18_18 
REMARK       I    between atoms: N18_18  and  C19_19 
REMARK    8  A    between atoms: C19_19  and  C21_21 
REMARK    9  A    between atoms: C29_28  and  N30_29 
ROOT
ATOM      1  C3  <0> d   1      18.682  -0.058  15.274  0.00  0.00     0.103 A 
ATOM      2  C4  <0> d   1      19.294   0.959  14.529  0.00  0.00     0.102 A 
ATOM      3  C7  <0> d   1      19.711   0.730  13.248  0.00  0.00     0.057 A 
ATOM      4  C8  <0> d   1      19.527  -0.533  12.673  0.00  0.00     0.040 A 
ATOM      5  C9  <0> d   1      18.909  -1.566  13.421  0.00  0.00     0.092 A 
ATOM      6  C10 <0> d   1      18.494  -1.312  14.734  0.00  0.00     0.073 A 
ATOM      7  N11 <0> d   1      18.745  -2.769  12.848  0.00  0.00    -0.064 NA
ATOM      8  C12 <0> d   1      19.152  -2.980  11.611  0.00  0.00     0.704 A 
ATOM      9  N27 <0> d   1      19.736  -2.039  10.876  0.00  0.00    -0.174 N 
ATOM     10  H28 <0> d   1      20.016  -2.249   9.971  0.00  0.00     0.186 HD
ATOM     11  C29 <0> d   1      19.944  -0.819  11.350  0.00  0.00     0.127 A 
ENDROOT
BRANCH   8  12
ATOM     12  N13 <0> d   1      18.964  -4.235  11.057  0.00  0.00    -0.220 N 
ATOM     13  C14 <0> d   1      17.692  -4.936  11.248  0.00  0.00     0.168 C 
BRANCH  12  14
ATOM     14  C15 <0> d   1      20.037  -4.860  10.280  0.00  0.00     0.142 C 
BRANCH  14  15
ATOM     15  C16 <0> d   1      19.431  -5.651   9.118  0.00  0.00     0.040 C 
BRANCH  15  16
ATOM     16  C17 <0> d   1      19.818  -4.989   7.794  0.00  0.00     0.124 C 
BRANCH  16  17
ATOM     17  N18 <0> d   1      19.496  -3.561   7.850  0.00  0.00    -0.359 N 
ATOM     18  C19 <0> d   1      19.524  -2.820   6.724  0.00  0.00     0.246 C 
ATOM     19  O20 <0> d   1      19.816  -3.334   5.666  0.00  0.00    -0.271 OA
ATOM     20  H48 <0> d   1      19.261  -3.149   8.696  0.00  0.00     0.162 HD
BRANCH  18  21
ATOM     21  C21 <0> d   1      19.191  -1.351   6.782  0.00  0.00     0.213 C 
ATOM     22  O26 <0> d   1      18.792  -0.982   8.112  0.00  0.00    -0.376 OA
ATOM     23  C25 <0> d   1      17.747  -0.002   8.053  0.00  0.00     0.168 C 
ATOM     24  C24 <0> d   1      17.425   0.249   6.564  0.00  0.00     0.029 C 
ATOM     25  C23 <0> d   1      17.963  -1.041   5.888  0.00  0.00     0.043 C 
ENDBRANCH  18  21
ENDBRANCH  16  17
ENDBRANCH  15  16
ENDBRANCH  14  15
ENDBRANCH  12  14
ENDBRANCH   8  12
BRANCH  11  26
ATOM     26  N30 <0> d   1      20.551   0.147  10.576  0.00  0.00    -0.384 N 
ATOM     27  H55 <0> d   1      21.515   0.246  10.593  0.00  0.00     0.157 HD
ATOM     28  H56 <0> d   1      20.014   0.726  10.013  0.00  0.00     0.157 HD
ENDBRANCH  11  26
BRANCH   1  29
ATOM     29  O2  <0> d   1      18.276   0.192  16.547  0.00  0.00    -0.353 OA
ATOM     30  C1  <0> d   1      16.952  -0.214  16.897  0.00  0.00     0.210 C 
ENDBRANCH   1  29
BRANCH   2  31
ATOM     31  O5  <0> d   1      19.473   2.186  15.087  0.00  0.00    -0.353 OA
ATOM     32  C6  <0> d   1      18.686   3.258  14.563  0.00  0.00     0.210 C 
ENDBRANCH   2  31
TORSDOF 9
ENDMDL
MODEL 8
REMARK VINA RESULT:      -6.8      4.044      7.412
REMARK  9 active torsions:
REMARK  status: ('A' for Active; 'I' for Inactive)
REMARK    1  A    between atoms: O2_2  and  C3_3 
REMARK    2  A    between atoms: C4_4  and  O5_5 
REMARK    3  A    between atoms: C12_12  and  N13_13 
REMARK    4  A    between atoms: N13_13  and  C15_15 
REMARK    5  A    between atoms: C15_15  and  C16_16 
REMARK    6  A    between atoms: C16_16  and  C17_17 
REMARK    7  A    between atoms: C17_17  and  N18_18 
REMARK       I    between atoms: N18_18  and  C19_19 
REMARK    8  A    between atoms: C19_19  and  C21_21 
REMARK    9  A    between atoms: C29_28  and  N30_29 
ROOT
ATOM      1  C3  <0> d   1      19.279   1.142  11.753  0.00  0.00     0.103 A 
ATOM      2  C4  <0> d   1      19.038   1.650  10.469  0.00  0.00     0.102 A 
ATOM      3  C7  <0> d   1      18.394   2.844  10.301  0.00  0.00     0.057 A 
ATOM      4  C8  <0> d   1      17.971   3.568  11.421  0.00  0.00     0.040 A 
ATOM      5  C9  <0> d   1      18.211   3.060  12.722  0.00  0.00     0.092 A 
ATOM      6  C10 <0> d   1      18.867   1.832  12.872  0.00  0.00     0.073 A 
ATOM      7  N11 <0> d   1      17.793   3.773  13.782  0.00  0.00    -0.064 NA
ATOM      8  C12 <0> d   1      17.173   4.924  13.609  0.00  0.00     0.704 A 
ATOM      9  N27 <0> d   1      16.927   5.435  12.406  0.00  0.00    -0.174 N 
ATOM     10  H28 <0> d   1      16.466   6.286  12.337  0.00  0.00     0.186 HD
ATOM     11  C29 <0> d   1      17.298   4.809  11.299  0.00  0.00     0.127 A 
ENDROOT
BRANCH   8  12
ATOM     12  N13 <0> d   1      16.759   5.628  14.726  0.00  0.00    -0.220 N 
ATOM     13  C14 <0> d   1      15.339   5.937  14.913  0.00  0.00     0.168 C 
BRANCH  12  14
ATOM     14  C15 <0> d   1      17.741   6.064  15.722  0.00  0.00     0.142 C 
BRANCH  14  15
ATOM     15  C16 <0> d   1      17.530   5.285  17.022  0.00  0.00     0.040 C 
BRANCH  15  16
ATOM     16  C17 <0> d   1      18.695   4.315  17.230  0.00  0.00     0.124 C 
BRANCH  16  17
ATOM     17  N18 <0> d   1      18.227   2.941  17.030  0.00  0.00    -0.359 N 
ATOM     18  C19 <0> d   1      18.745   1.939  17.769  0.00  0.00     0.246 C 
ATOM     19  O20 <0> d   1      19.597   2.175  18.599  0.00  0.00    -0.271 OA
ATOM     20  H48 <0> d   1      17.545   2.752  16.367  0.00  0.00     0.162 HD
BRANCH  18  21
ATOM     21  C21 <0> d   1      18.264   0.526  17.563  0.00  0.00     0.213 C 
ATOM     22  O26 <0> d   1      19.360  -0.396  17.678  0.00  0.00    -0.376 OA
ATOM     23  C25 <0> d   1      19.199  -1.465  16.737  0.00  0.00     0.168 C 
ATOM     24  C24 <0> d   1      17.914  -1.186  15.929  0.00  0.00     0.029 C 
ATOM     25  C23 <0> d   1      17.730   0.344  16.120  0.00  0.00     0.043 C 
ENDBRANCH  18  21
ENDBRANCH  16  17
ENDBRANCH  15  16
ENDBRANCH  14  15
ENDBRANCH  12  14
ENDBRANCH   8  12
BRANCH  11  26
ATOM     26  N30 <0> d   1      17.036   5.351  10.058  0.00  0.00    -0.384 N 
ATOM     27  H55 <0> d   1      16.893   4.769   9.296  0.00  0.00     0.157 HD
ATOM     28  H56 <0> d   1      16.994   6.314   9.949  0.00  0.00     0.157 HD
ENDBRANCH  11  26
BRANCH   1  29
ATOM     29  O2  <0> d   1      19.919  -0.047  11.896  0.00  0.00    -0.353 OA
ATOM     30  C1  <0> d   1      19.113  -1.185  12.209  0.00  0.00     0.210 C 
ENDBRANCH   1  29
BRANCH   2  31
ATOM     31  O5  <0> d   1      19.448   0.947   9.381  0.00  0.00    -0.353 OA
ATOM     32  C6  <0> d   1      19.364   1.605   8.114  0.00  0.00     0.210 C 
ENDBRANCH   2  31
TORSDOF 9
ENDMDL
MODEL 9
REMARK VINA RESULT:      -6.6      2.101      3.346
REMARK  9 active torsions:
REMARK  status: ('A' for Active; 'I' for Inactive)
REMARK    1  A    between atoms: O2_2  and  C3_3 
REMARK    2  A    between atoms: C4_4  and  O5_5 
REMARK    3  A    between atoms: C12_12  and  N13_13 
REMARK    4  A    between atoms: N13_13  and  C15_15 
REMARK    5  A    between atoms: C15_15  and  C16_16 
REMARK    6  A    between atoms: C16_16  and  C17_17 
REMARK    7  A    between atoms: C17_17  and  N18_18 
REMARK       I    between atoms: N18_18  and  C19_19 
REMARK    8  A    between atoms: C19_19  and  C21_21 
REMARK    9  A    between atoms: C29_28  and  N30_29 
ROOT
ATOM      1  C3  <0> d   1      18.517   0.841  14.173  0.00  0.00     0.103 A 
ATOM      2  C4  <0> d   1      19.143  -0.375  14.479  0.00  0.00     0.102 A 
ATOM      3  C7  <0> d   1      19.574  -1.208  13.485  0.00  0.00     0.057 A 
ATOM      4  C8  <0> d   1      19.389  -0.844  12.146  0.00  0.00     0.040 A 
ATOM      5  C9  <0> d   1      18.756   0.384  11.829  0.00  0.00     0.092 A 
ATOM      6  C10 <0> d   1      18.317   1.219  12.863  0.00  0.00     0.073 A 
ATOM      7  N11 <0> d   1      18.589   0.710  10.537  0.00  0.00    -0.064 NA
ATOM      8  C12 <0> d   1      19.008  -0.100   9.585  0.00  0.00     0.704 A 
ATOM      9  N27 <0> d   1      19.605  -1.261   9.839  0.00  0.00    -0.174 N 
ATOM     10  H28 <0> d   1      19.894  -1.818   9.099  0.00  0.00     0.186 HD
ATOM     11  C29 <0> d   1      19.817  -1.673  11.080  0.00  0.00     0.127 A 
ENDROOT
BRANCH   8  12
ATOM     12  N13 <0> d   1      18.816   0.273   8.265  0.00  0.00    -0.220 N 
ATOM     13  C14 <0> d   1      19.247   1.597   7.809  0.00  0.00     0.168 C 
BRANCH  12  14
ATOM     14  C15 <0> d   1      18.183  -0.656   7.326  0.00  0.00     0.142 C 
BRANCH  14  15
ATOM     15  C16 <0> d   1      19.211  -1.111   6.288  0.00  0.00     0.040 C 
BRANCH  15  16
ATOM     16  C17 <0> d   1      19.093  -2.622   6.082  0.00  0.00     0.124 C 
BRANCH  16  17
ATOM     17  N18 <0> d   1      18.124  -3.171   7.033  0.00  0.00    -0.359 N 
ATOM     18  C19 <0> d   1      18.554  -3.840   8.122  0.00  0.00     0.246 C 
ATOM     19  O20 <0> d   1      19.742  -3.988   8.314  0.00  0.00    -0.271 OA
ATOM     20  H48 <0> d   1      17.174  -3.052   6.881  0.00  0.00     0.162 HD
BRANCH  18  21
ATOM     21  C21 <0> d   1      17.556  -4.404   9.101  0.00  0.00     0.213 C 
ATOM     22  O26 <0> d   1      17.381  -3.504  10.208  0.00  0.00    -0.376 OA
ATOM     23  C25 <0> d   1      17.205  -4.250  11.420  0.00  0.00     0.168 C 
ATOM     24  C24 <0> d   1      17.313  -5.749  11.065  0.00  0.00     0.029 C 
ATOM     25  C23 <0> d   1      18.097  -5.715   9.725  0.00  0.00     0.043 C 
ENDBRANCH  18  21
ENDBRANCH  16  17
ENDBRANCH  15  16
ENDBRANCH  14  15
ENDBRANCH  12  14
ENDBRANCH   8  12
BRANCH  11  26
ATOM     26  N30 <0> d   1      20.437  -2.879  11.329  0.00  0.00    -0.384 N 
ATOM     27  H55 <0> d   1      20.325  -3.618  10.712  0.00  0.00     0.157 HD
ATOM     28  H56 <0> d   1      20.987  -2.987  12.120  0.00  0.00     0.157 HD
ENDBRANCH  11  26
BRANCH   1  29
ATOM     29  O2  <0> d   1      18.095   1.651  15.178  0.00  0.00    -0.353 OA
ATOM     30  C1  <0> d   1      18.492   3.023  15.115  0.00  0.00     0.210 C 
ENDBRANCH   1  29
BRANCH   2  31
ATOM     31  O5  <0> d   1      19.323  -0.730  15.779  0.00  0.00    -0.353 OA
ATOM     32  C6  <0> d   1      18.360  -1.620  16.348  0.00  0.00     0.210 C 
ENDBRANCH   2  31
TORSDOF 9
ENDMDL
