MODEL 1
REMARK VINA RESULT:      -6.5      0.000      0.000
REMARK  24 active torsions:
REMARK  status: ('A' for Active; 'I' for Inactive)
REMARK    1  A    between atoms: C2_2  and  C3_3 
REMARK    2  A    between atoms: C3_3  and  C4_4 
REMARK    3  A    between atoms: C4_4  and  C5_5 
REMARK    4  A    between atoms: C5_5  and  C6_6 
REMARK    5  A    between atoms: C6_6  and  C7_7 
REMARK    6  A    between atoms: C7_7  and  C8_8 
REMARK    7  A    between atoms: C8_8  and  C9_9 
REMARK    8  A    between atoms: C9_9  and  C10_10 
REMARK    9  A    between atoms: C10_10  and  C11_11 
REMARK   10  A    between atoms: C11_11  and  C12_12 
REMARK   11  A    between atoms: C12_12  and  C14_13 
REMARK   12  A    between atoms: C12_12  and  O28_25 
REMARK   13  A    between atoms: C14_13  and  C15_14 
REMARK   14  A    between atoms: C20_18  and  C22_19 
REMARK   15  A    between atoms: C22_19  and  C23_20 
REMARK   16  A    between atoms: C23_20  and  C24_21 
REMARK   17  A    between atoms: C24_21  and  C25_22 
REMARK   18  A    between atoms: C25_22  and  C26_23 
REMARK   19  A    between atoms: O28_25  and  C29_26 
REMARK   20  A    between atoms: C29_26  and  C31_28 
REMARK   21  A    between atoms: C31_28  and  C33_29 
REMARK   22  A    between atoms: C31_28  and  N37_33 
REMARK   23  A    between atoms: C33_29  and  C34_30 
REMARK   24  A    between atoms: N37_33  and  C38_34 
ROOT
ATOM      1  C12 ZIN A   1      18.716   0.197  12.890  0.00  0.00     0.134 C 
ENDROOT
BRANCH   1   2
ATOM      2  C11 ZIN A   1      18.533   0.114  14.407  0.00  0.00     0.032 C 
BRANCH   2   3
ATOM      3  C10 ZIN A   1      19.236  -1.137  14.937  0.00  0.00     0.002 C 
BRANCH   3   4
ATOM      4  C9  ZIN A   1      18.933  -1.300  16.427  0.00  0.00     0.000 C 
BRANCH   4   5
ATOM      5  C8  ZIN A   1      17.535  -0.754  16.727  0.00  0.00     0.000 C 
BRANCH   5   6
ATOM      6  C7  ZIN A   1      17.601   0.179  17.938  0.00  0.00     0.000 C 
BRANCH   6   7
ATOM      7  C6  ZIN A   1      19.061   0.527  18.234  0.00  0.00     0.000 C 
BRANCH   7   8
ATOM      8  C5  ZIN A   1      19.204   2.043  18.380  0.00  0.00     0.000 C 
BRANCH   8   9
ATOM      9  C4  ZIN A   1      18.667   2.730  17.123  0.00  0.00     0.000 C 
BRANCH   9  10
ATOM     10  C3  ZIN A   1      19.781   3.557  16.477  0.00  0.00    -0.000 C 
BRANCH  10  11
ATOM     11  C2  ZIN A   1      19.197   4.398  15.340  0.00  0.00    -0.005 C 
ATOM     12  C1  ZIN A   1      17.969   3.691  14.762  0.00  0.00     0.005 C 
ENDBRANCH  10  11
ENDBRANCH   9  10
ENDBRANCH   8   9
ENDBRANCH   7   8
ENDBRANCH   6   7
ENDBRANCH   5   6
ENDBRANCH   4   5
ENDBRANCH   3   4
ENDBRANCH   2   3
ENDBRANCH   1   2
BRANCH   1  13
ATOM     13  C14 ZIN A   1      20.000   0.965  12.572  0.00  0.00     0.066 C 
BRANCH  13  14
ATOM     14  C15 ZIN A   1      19.748   1.917  11.401  0.00  0.00     0.147 C 
ATOM     15  C20 ZIN A   1      18.269   2.005  10.971  0.00  0.00     0.115 C 
ATOM     16  C18 ZIN A   1      18.515   3.510  10.961  0.00  0.00     0.266 C 
ATOM     17  O17 ZIN A   1      19.572   3.319  11.797  0.00  0.00    -0.315 OA
ATOM     18  O19 ZIN A   1      17.996   4.465  10.433  0.00  0.00    -0.265 OA
BRANCH  15  19
ATOM     19  C22 ZIN A   1      17.979   1.414   9.590  0.00  0.00     0.017 C 
BRANCH  19  20
ATOM     20  C23 ZIN A   1      19.187   1.631   8.677  0.00  0.00     0.001 C 
BRANCH  20  21
ATOM     21  C24 ZIN A   1      19.190   0.571   7.574  0.00  0.00     0.000 C 
BRANCH  21  22
ATOM     22  C25 ZIN A   1      18.571   1.156   6.303  0.00  0.00    -0.000 C 
BRANCH  22  23
ATOM     23  C26 ZIN A   1      19.242   0.534   5.076  0.00  0.00    -0.005 C 
ATOM     24  C27 ZIN A   1      19.337  -0.982   5.259  0.00  0.00     0.005 C 
ENDBRANCH  22  23
ENDBRANCH  21  22
ENDBRANCH  20  21
ENDBRANCH  19  20
ENDBRANCH  15  19
ENDBRANCH  13  14
ENDBRANCH   1  13
BRANCH   1  25
ATOM     25  O28 ZIN A   1      18.805  -1.144  12.339  0.00  0.00    -0.314 OA
BRANCH  25  26
ATOM     26  C29 ZIN A   1      17.734  -1.601  11.671  0.00  0.00     0.282 C 
ATOM     27  O30 ZIN A   1      16.655  -1.084  11.834  0.00  0.00    -0.263 OA
BRANCH  26  28
ATOM     28  C31 ZIN A   1      17.880  -2.757  10.715  0.00  0.00     0.184 C 
BRANCH  28  29
ATOM     29  C33 ZIN A   1      18.690  -3.871  11.383  0.00  0.00     0.039 C 
BRANCH  29  30
ATOM     30  C34 ZIN A   1      17.902  -5.181  11.320  0.00  0.00    -0.020 C 
ATOM     31  C35 ZIN A   1      16.403  -4.877  11.333  0.00  0.00     0.009 C 
ATOM     32  C36 ZIN A   1      18.260  -5.930  10.035  0.00  0.00     0.009 C 
ENDBRANCH  29  30
ENDBRANCH  28  29
BRANCH  28  33
ATOM     33  N37 ZIN A   1      18.574  -2.306   9.507  0.00  0.00    -0.354 N 
ATOM     34  H87 ZIN A   1      19.221  -1.585   9.559  0.00  0.00     0.162 HD
BRANCH  33  35
ATOM     35  C38 ZIN A   1      18.314  -2.893   8.321  0.00  0.00     0.349 C 
ATOM     36  O39 ZIN A   1      19.207  -3.426   7.700  0.00  0.00    -0.284 OA
ENDBRANCH  33  35
ENDBRANCH  28  33
ENDBRANCH  26  28
ENDBRANCH  25  26
ENDBRANCH   1  25
TORSDOF 24
ENDMDL
MODEL 2
REMARK VINA RESULT:      -6.4      1.766      4.790
REMARK  24 active torsions:
REMARK  status: ('A' for Active; 'I' for Inactive)
REMARK    1  A    between atoms: C2_2  and  C3_3 
REMARK    2  A    between atoms: C3_3  and  C4_4 
REMARK    3  A    between atoms: C4_4  and  C5_5 
REMARK    4  A    between atoms: C5_5  and  C6_6 
REMARK    5  A    between atoms: C6_6  and  C7_7 
REMARK    6  A    between atoms: C7_7  and  C8_8 
REMARK    7  A    between atoms: C8_8  and  C9_9 
REMARK    8  A    between atoms: C9_9  and  C10_10 
REMARK    9  A    between atoms: C10_10  and  C11_11 
REMARK   10  A    between atoms: C11_11  and  C12_12 
REMARK   11  A    between atoms: C12_12  and  C14_13 
REMARK   12  A    between atoms: C12_12  and  O28_25 
REMARK   13  A    between atoms: C14_13  and  C15_14 
REMARK   14  A    between atoms: C20_18  and  C22_19 
REMARK   15  A    between atoms: C22_19  and  C23_20 
REMARK   16  A    between atoms: C23_20  and  C24_21 
REMARK   17  A    between atoms: C24_21  and  C25_22 
REMARK   18  A    between atoms: C25_22  and  C26_23 
REMARK   19  A    between atoms: O28_25  and  C29_26 
REMARK   20  A    between atoms: C29_26  and  C31_28 
REMARK   21  A    between atoms: C31_28  and  C33_29 
REMARK   22  A    between atoms: C31_28  and  N37_33 
REMARK   23  A    between atoms: C33_29  and  C34_30 
REMARK   24  A    between atoms: N37_33  and  C38_34 
ROOT
ATOM      1  C12 ZIN A   1      19.205   0.316  10.216  0.00  0.00     0.134 C 
ENDROOT
BRANCH   1   2
ATOM      2  C11 ZIN A   1      20.170  -0.455  11.121  0.00  0.00     0.032 C 
BRANCH   2   3
ATOM      3  C10 ZIN A   1      19.540  -0.629  12.504  0.00  0.00     0.002 C 
BRANCH   3   4
ATOM      4  C9  ZIN A   1      20.235   0.300  13.502  0.00  0.00     0.000 C 
BRANCH   4   5
ATOM      5  C8  ZIN A   1      19.362   0.457  14.748  0.00  0.00     0.000 C 
BRANCH   5   6
ATOM      6  C7  ZIN A   1      18.255  -0.600  14.732  0.00  0.00     0.000 C 
BRANCH   6   7
ATOM      7  C6  ZIN A   1      18.338  -1.445  16.005  0.00  0.00     0.000 C 
BRANCH   7   8
ATOM      8  C5  ZIN A   1      17.133  -1.144  16.897  0.00  0.00     0.000 C 
BRANCH   8   9
ATOM      9  C4  ZIN A   1      17.298   0.240  17.527  0.00  0.00     0.000 C 
BRANCH   9  10
ATOM     10  C3  ZIN A   1      18.453   0.210  18.530  0.00  0.00    -0.000 C 
BRANCH  10  11
ATOM     11  C2  ZIN A   1      19.262   1.504  18.415  0.00  0.00    -0.005 C 
ATOM     12  C1  ZIN A   1      18.424   2.566  17.699  0.00  0.00     0.005 C 
ENDBRANCH  10  11
ENDBRANCH   9  10
ENDBRANCH   8   9
ENDBRANCH   7   8
ENDBRANCH   6   7
ENDBRANCH   5   6
ENDBRANCH   4   5
ENDBRANCH   3   4
ENDBRANCH   2   3
ENDBRANCH   1   2
BRANCH   1  13
ATOM     13  C14 ZIN A   1      19.542   1.808  10.266  0.00  0.00     0.066 C 
BRANCH  13  14
ATOM     14  C15 ZIN A   1      18.539   2.526  11.170  0.00  0.00     0.147 C 
ATOM     15  C20 ZIN A   1      18.657   4.064  11.141  0.00  0.00     0.115 C 
ATOM     16  C18 ZIN A   1      17.138   4.030  11.010  0.00  0.00     0.266 C 
ATOM     17  O17 ZIN A   1      17.230   2.753  10.548  0.00  0.00    -0.315 OA
ATOM     18  O19 ZIN A   1      16.236   4.805  11.228  0.00  0.00    -0.265 OA
BRANCH  15  19
ATOM     19  C22 ZIN A   1      19.155   4.683  12.448  0.00  0.00     0.017 C 
BRANCH  19  20
ATOM     20  C23 ZIN A   1      18.753   3.789  13.622  0.00  0.00     0.001 C 
BRANCH  20  21
ATOM     21  C24 ZIN A   1      17.963   4.610  14.643  0.00  0.00     0.000 C 
BRANCH  21  22
ATOM     22  C25 ZIN A   1      17.869   6.061  14.166  0.00  0.00    -0.000 C 
BRANCH  22  23
ATOM     23  C26 ZIN A   1      18.473   6.986  15.225  0.00  0.00    -0.005 C 
ATOM     24  C27 ZIN A   1      18.757   6.187  16.499  0.00  0.00     0.005 C 
ENDBRANCH  22  23
ENDBRANCH  21  22
ENDBRANCH  20  21
ENDBRANCH  19  20
ENDBRANCH  15  19
ENDBRANCH  13  14
ENDBRANCH   1  13
BRANCH   1  25
ATOM     25  O28 ZIN A   1      19.335  -0.164   8.852  0.00  0.00    -0.314 OA
BRANCH  25  26
ATOM     26  C29 ZIN A   1      18.260  -0.759   8.311  0.00  0.00     0.282 C 
ATOM     27  O30 ZIN A   1      17.193  -0.193   8.308  0.00  0.00    -0.263 OA
BRANCH  26  28
ATOM     28  C31 ZIN A   1      18.385  -2.134   7.706  0.00  0.00     0.184 C 
BRANCH  28  29
ATOM     29  C33 ZIN A   1      18.858  -3.121   8.776  0.00  0.00     0.039 C 
BRANCH  29  30
ATOM     30  C34 ZIN A   1      17.644  -3.778   9.436  0.00  0.00    -0.020 C 
ATOM     31  C35 ZIN A   1      17.816  -5.299   9.420  0.00  0.00     0.009 C 
ATOM     32  C36 ZIN A   1      17.525  -3.293  10.882  0.00  0.00     0.009 C 
ENDBRANCH  29  30
ENDBRANCH  28  29
BRANCH  28  33
ATOM     33  N37 ZIN A   1      19.357  -2.098   6.611  0.00  0.00    -0.354 N 
ATOM     34  H87 ZIN A   1      20.082  -2.742   6.585  0.00  0.00     0.162 HD
BRANCH  33  35
ATOM     35  C38 ZIN A   1      19.246  -1.169   5.640  0.00  0.00     0.349 C 
ATOM     36  O39 ZIN A   1      19.907  -1.267   4.629  0.00  0.00    -0.284 OA
ENDBRANCH  33  35
ENDBRANCH  28  33
ENDBRANCH  26  28
ENDBRANCH  25  26
ENDBRANCH   1  25
TORSDOF 24
ENDMDL
MODEL 3
REMARK VINA RESULT:      -6.4      3.275      5.814
REMARK  24 active torsions:
REMARK  status: ('A' for Active; 'I' for Inactive)
REMARK    1  A    between atoms: C2_2  and  C3_3 
REMARK    2  A    between atoms: C3_3  and  C4_4 
REMARK    3  A    between atoms: C4_4  and  C5_5 
REMARK    4  A    between atoms: C5_5  and  C6_6 
REMARK    5  A    between atoms: C6_6  and  C7_7 
REMARK    6  A    between atoms: C7_7  and  C8_8 
REMARK    7  A    between atoms: C8_8  and  C9_9 
REMARK    8  A    between atoms: C9_9  and  C10_10 
REMARK    9  A    between atoms: C10_10  and  C11_11 
REMARK   10  A    between atoms: C11_11  and  C12_12 
REMARK   11  A    between atoms: C12_12  and  C14_13 
REMARK   12  A    between atoms: C12_12  and  O28_25 
REMARK   13  A    between atoms: C14_13  and  C15_14 
REMARK   14  A    between atoms: C20_18  and  C22_19 
REMARK   15  A    between atoms: C22_19  and  C23_20 
REMARK   16  A    between atoms: C23_20  and  C24_21 
REMARK   17  A    between atoms: C24_21  and  C25_22 
REMARK   18  A    between atoms: C25_22  and  C26_23 
REMARK   19  A    between atoms: O28_25  and  C29_26 
REMARK   20  A    between atoms: C29_26  and  C31_28 
REMARK   21  A    between atoms: C31_28  and  C33_29 
REMARK   22  A    between atoms: C31_28  and  N37_33 
REMARK   23  A    between atoms: C33_29  and  C34_30 
REMARK   24  A    between atoms: N37_33  and  C38_34 
ROOT
ATOM      1  C12 ZIN A   1      18.781  -4.244   7.808  0.00  0.00     0.134 C 
ENDROOT
BRANCH   1   2
ATOM      2  C11 ZIN A   1      19.107  -4.285   9.303  0.00  0.00     0.032 C 
BRANCH   2   3
ATOM      3  C10 ZIN A   1      18.568  -3.021   9.976  0.00  0.00     0.002 C 
BRANCH   3   4
ATOM      4  C9  ZIN A   1      17.710  -3.412  11.181  0.00  0.00     0.000 C 
BRANCH   4   5
ATOM      5  C8  ZIN A   1      17.892  -2.377  12.294  0.00  0.00     0.000 C 
BRANCH   5   6
ATOM      6  C7  ZIN A   1      19.384  -2.145  12.535  0.00  0.00     0.000 C 
BRANCH   6   7
ATOM      7  C6  ZIN A   1      19.575  -1.365  13.838  0.00  0.00     0.000 C 
BRANCH   7   8
ATOM      8  C5  ZIN A   1      18.215  -1.143  14.503  0.00  0.00     0.000 C 
BRANCH   8   9
ATOM      9  C4  ZIN A   1      18.336  -1.390  16.008  0.00  0.00     0.000 C 
BRANCH   9  10
ATOM     10  C3  ZIN A   1      17.199  -0.671  16.737  0.00  0.00    -0.000 C 
BRANCH  10  11
ATOM     11  C2  ZIN A   1      17.784   0.293  17.769  0.00  0.00    -0.005 C 
ATOM     12  C1  ZIN A   1      19.219  -0.124  18.101  0.00  0.00     0.005 C 
ENDBRANCH  10  11
ENDBRANCH   9  10
ENDBRANCH   8   9
ENDBRANCH   7   8
ENDBRANCH   6   7
ENDBRANCH   5   6
ENDBRANCH   4   5
ENDBRANCH   3   4
ENDBRANCH   2   3
ENDBRANCH   1   2
BRANCH   1  13
ATOM     13  C14 ZIN A   1      19.570  -3.114   7.144  0.00  0.00     0.066 C 
BRANCH  13  14
ATOM     14  C15 ZIN A   1      18.605  -2.181   6.411  0.00  0.00     0.147 C 
ATOM     15  C20 ZIN A   1      19.102  -0.724   6.302  0.00  0.00     0.115 C 
ATOM     16  C18 ZIN A   1      18.665  -0.840   4.846  0.00  0.00     0.266 C 
ATOM     17  O17 ZIN A   1      18.754  -2.194   4.951  0.00  0.00    -0.315 OA
ATOM     18  O19 ZIN A   1      18.364  -0.062   3.972  0.00  0.00    -0.265 OA
BRANCH  15  19
ATOM     19  C22 ZIN A   1      18.287   0.282   7.118  0.00  0.00     0.017 C 
BRANCH  19  20
ATOM     20  C23 ZIN A   1      19.178   1.463   7.507  0.00  0.00     0.001 C 
BRANCH  20  21
ATOM     21  C24 ZIN A   1      18.874   1.878   8.948  0.00  0.00     0.000 C 
BRANCH  21  22
ATOM     22  C25 ZIN A   1      18.645   0.629   9.801  0.00  0.00    -0.000 C 
BRANCH  22  23
ATOM     23  C26 ZIN A   1      17.363   0.797  10.619  0.00  0.00    -0.005 C 
ATOM     24  C27 ZIN A   1      17.677   1.557  11.910  0.00  0.00     0.005 C 
ENDBRANCH  22  23
ENDBRANCH  21  22
ENDBRANCH  20  21
ENDBRANCH  19  20
ENDBRANCH  15  19
ENDBRANCH  13  14
ENDBRANCH   1  13
BRANCH   1  25
ATOM     25  O28 ZIN A   1      19.144  -5.511   7.199  0.00  0.00    -0.314 OA
BRANCH  25  26
ATOM     26  C29 ZIN A   1      18.214  -6.111   6.438  0.00  0.00     0.282 C 
ATOM     27  O30 ZIN A   1      18.488  -7.120   5.834  0.00  0.00    -0.263 OA
BRANCH  26  28
ATOM     28  C31 ZIN A   1      16.829  -5.524   6.340  0.00  0.00     0.184 C 
BRANCH  28  29
ATOM     29  C33 ZIN A   1      15.792  -6.645   6.440  0.00  0.00     0.039 C 
BRANCH  29  30
ATOM     30  C34 ZIN A   1      14.690  -6.234   7.417  0.00  0.00    -0.020 C 
ATOM     31  C35 ZIN A   1      13.782  -7.434   7.696  0.00  0.00     0.009 C 
ATOM     32  C36 ZIN A   1      15.321  -5.757   8.727  0.00  0.00     0.009 C 
ENDBRANCH  29  30
ENDBRANCH  28  29
BRANCH  28  33
ATOM     33  N37 ZIN A   1      16.682  -4.836   5.055  0.00  0.00    -0.354 N 
ATOM     34  H87 ZIN A   1      17.200  -4.037   4.871  0.00  0.00     0.162 HD
BRANCH  33  35
ATOM     35  C38 ZIN A   1      15.825  -5.312   4.129  0.00  0.00     0.349 C 
ATOM     36  O39 ZIN A   1      15.057  -4.558   3.572  0.00  0.00    -0.284 OA
ENDBRANCH  33  35
ENDBRANCH  28  33
ENDBRANCH  26  28
ENDBRANCH  25  26
ENDBRANCH   1  25
TORSDOF 24
ENDMDL
MODEL 4
REMARK VINA RESULT:      -6.3      2.404      8.145
REMARK  24 active torsions:
REMARK  status: ('A' for Active; 'I' for Inactive)
REMARK    1  A    between atoms: C2_2  and  C3_3 
REMARK    2  A    between atoms: C3_3  and  C4_4 
REMARK    3  A    between atoms: C4_4  and  C5_5 
REMARK    4  A    between atoms: C5_5  and  C6_6 
REMARK    5  A    between atoms: C6_6  and  C7_7 
REMARK    6  A    between atoms: C7_7  and  C8_8 
REMARK    7  A    between atoms: C8_8  and  C9_9 
REMARK    8  A    between atoms: C9_9  and  C10_10 
REMARK    9  A    between atoms: C10_10  and  C11_11 
REMARK   10  A    between atoms: C11_11  and  C12_12 
REMARK   11  A    between atoms: C12_12  and  C14_13 
REMARK   12  A    between atoms: C12_12  and  O28_25 
REMARK   13  A    between atoms: C14_13  and  C15_14 
REMARK   14  A    between atoms: C20_18  and  C22_19 
REMARK   15  A    between atoms: C22_19  and  C23_20 
REMARK   16  A    between atoms: C23_20  and  C24_21 
REMARK   17  A    between atoms: C24_21  and  C25_22 
REMARK   18  A    between atoms: C25_22  and  C26_23 
REMARK   19  A    between atoms: O28_25  and  C29_26 
REMARK   20  A    between atoms: C29_26  and  C31_28 
REMARK   21  A    between atoms: C31_28  and  C33_29 
REMARK   22  A    between atoms: C31_28  and  N37_33 
REMARK   23  A    between atoms: C33_29  and  C34_30 
REMARK   24  A    between atoms: N37_33  and  C38_34 
ROOT
ATOM      1  C12 ZIN A   1      18.558   1.956  10.141  0.00  0.00     0.134 C 
ENDROOT
BRANCH   1   2
ATOM      2  C11 ZIN A   1      19.352   1.584   8.887  0.00  0.00     0.032 C 
BRANCH   2   3
ATOM      3  C10 ZIN A   1      18.473   0.744   7.958  0.00  0.00     0.002 C 
BRANCH   3   4
ATOM      4  C9  ZIN A   1      18.696   1.183   6.510  0.00  0.00     0.000 C 
BRANCH   4   5
ATOM      5  C8  ZIN A   1      18.065   0.160   5.563  0.00  0.00     0.000 C 
BRANCH   5   6
ATOM      6  C7  ZIN A   1      19.130  -0.368   4.600  0.00  0.00     0.000 C 
BRANCH   6   7
ATOM      7  C6  ZIN A   1      19.194  -1.894   4.697  0.00  0.00     0.000 C 
BRANCH   7   8
ATOM      8  C5  ZIN A   1      18.461  -2.356   5.958  0.00  0.00     0.000 C 
BRANCH   8   9
ATOM      9  C4  ZIN A   1      19.479  -2.841   6.991  0.00  0.00     0.000 C 
BRANCH   9  10
ATOM     10  C3  ZIN A   1      18.832  -3.896   7.890  0.00  0.00    -0.000 C 
BRANCH  10  11
ATOM     11  C2  ZIN A   1      19.774  -5.093   8.031  0.00  0.00    -0.005 C 
ATOM     12  C1  ZIN A   1      19.105  -6.169   8.890  0.00  0.00     0.005 C 
ENDBRANCH  10  11
ENDBRANCH   9  10
ENDBRANCH   8   9
ENDBRANCH   7   8
ENDBRANCH   6   7
ENDBRANCH   5   6
ENDBRANCH   4   5
ENDBRANCH   3   4
ENDBRANCH   2   3
ENDBRANCH   1   2
BRANCH   1  13
ATOM     13  C14 ZIN A   1      18.231   3.450  10.113  0.00  0.00     0.066 C 
BRANCH  13  14
ATOM     14  C15 ZIN A   1      18.615   4.081  11.452  0.00  0.00     0.147 C 
ATOM     15  C20 ZIN A   1      17.440   4.218  12.442  0.00  0.00     0.115 C 
ATOM     16  C18 ZIN A   1      18.424   3.649  13.459  0.00  0.00     0.266 C 
ATOM     17  O17 ZIN A   1      19.147   3.127  12.432  0.00  0.00    -0.315 OA
ATOM     18  O19 ZIN A   1      18.521   3.660  14.664  0.00  0.00    -0.265 OA
BRANCH  15  19
ATOM     19  C22 ZIN A   1      17.019   5.662  12.725  0.00  0.00     0.017 C 
BRANCH  19  20
ATOM     20  C23 ZIN A   1      15.734   5.666  13.555  0.00  0.00     0.001 C 
BRANCH  20  21
ATOM     21  C24 ZIN A   1      15.917   6.572  14.774  0.00  0.00     0.000 C 
BRANCH  21  22
ATOM     22  C25 ZIN A   1      14.746   6.371  15.738  0.00  0.00    -0.000 C 
BRANCH  22  23
ATOM     23  C26 ZIN A   1      13.444   6.253  14.943  0.00  0.00    -0.005 C 
ATOM     24  C27 ZIN A   1      12.254   6.517  15.868  0.00  0.00     0.005 C 
ENDBRANCH  22  23
ENDBRANCH  21  22
ENDBRANCH  20  21
ENDBRANCH  19  20
ENDBRANCH  15  19
ENDBRANCH  13  14
ENDBRANCH   1  13
BRANCH   1  25
ATOM     25  O28 ZIN A   1      17.324   1.191  10.177  0.00  0.00    -0.314 OA
BRANCH  25  26
ATOM     26  C29 ZIN A   1      17.180   0.315  11.184  0.00  0.00     0.282 C 
ATOM     27  O30 ZIN A   1      16.088   0.118  11.661  0.00  0.00    -0.263 OA
BRANCH  26  28
ATOM     28  C31 ZIN A   1      18.380  -0.424  11.718  0.00  0.00     0.184 C 
BRANCH  28  29
ATOM     29  C33 ZIN A   1      18.625  -1.677  10.874  0.00  0.00     0.039 C 
BRANCH  29  30
ATOM     30  C34 ZIN A   1      18.558  -2.916  11.769  0.00  0.00    -0.020 C 
ATOM     31  C35 ZIN A   1      17.382  -3.794  11.336  0.00  0.00     0.009 C 
ATOM     32  C36 ZIN A   1      19.861  -3.708  11.641  0.00  0.00     0.009 C 
ENDBRANCH  29  30
ENDBRANCH  28  29
BRANCH  28  33
ATOM     33  N37 ZIN A   1      18.135  -0.812  13.109  0.00  0.00    -0.354 N 
ATOM     34  H87 ZIN A   1      17.681  -1.647  13.306  0.00  0.00     0.162 HD
BRANCH  33  35
ATOM     35  C38 ZIN A   1      18.536  -0.009  14.115  0.00  0.00     0.349 C 
ATOM     36  O39 ZIN A   1      19.707   0.288  14.222  0.00  0.00    -0.284 OA
ENDBRANCH  33  35
ENDBRANCH  28  33
ENDBRANCH  26  28
ENDBRANCH  25  26
ENDBRANCH   1  25
TORSDOF 24
ENDMDL
MODEL 5
REMARK VINA RESULT:      -6.2      1.953      7.958
REMARK  24 active torsions:
REMARK  status: ('A' for Active; 'I' for Inactive)
REMARK    1  A    between atoms: C2_2  and  C3_3 
REMARK    2  A    between atoms: C3_3  and  C4_4 
REMARK    3  A    between atoms: C4_4  and  C5_5 
REMARK    4  A    between atoms: C5_5  and  C6_6 
REMARK    5  A    between atoms: C6_6  and  C7_7 
REMARK    6  A    between atoms: C7_7  and  C8_8 
REMARK    7  A    between atoms: C8_8  and  C9_9 
REMARK    8  A    between atoms: C9_9  and  C10_10 
REMARK    9  A    between atoms: C10_10  and  C11_11 
REMARK   10  A    between atoms: C11_11  and  C12_12 
REMARK   11  A    between atoms: C12_12  and  C14_13 
REMARK   12  A    between atoms: C12_12  and  O28_25 
REMARK   13  A    between atoms: C14_13  and  C15_14 
REMARK   14  A    between atoms: C20_18  and  C22_19 
REMARK   15  A    between atoms: C22_19  and  C23_20 
REMARK   16  A    between atoms: C23_20  and  C24_21 
REMARK   17  A    between atoms: C24_21  and  C25_22 
REMARK   18  A    between atoms: C25_22  and  C26_23 
REMARK   19  A    between atoms: O28_25  and  C29_26 
REMARK   20  A    between atoms: C29_26  and  C31_28 
REMARK   21  A    between atoms: C31_28  and  C33_29 
REMARK   22  A    between atoms: C31_28  and  N37_33 
REMARK   23  A    between atoms: C33_29  and  C34_30 
REMARK   24  A    between atoms: N37_33  and  C38_34 
ROOT
ATOM      1  C12 ZIN A   1      18.477   1.685  10.160  0.00  0.00     0.134 C 
ENDROOT
BRANCH   1   2
ATOM      2  C11 ZIN A   1      19.411   1.367   8.989  0.00  0.00     0.032 C 
BRANCH   2   3
ATOM      3  C10 ZIN A   1      18.658   0.535   7.949  0.00  0.00     0.002 C 
BRANCH   3   4
ATOM      4  C9  ZIN A   1      18.821   1.175   6.569  0.00  0.00     0.000 C 
BRANCH   4   5
ATOM      5  C8  ZIN A   1      18.270   0.230   5.500  0.00  0.00     0.000 C 
BRANCH   5   6
ATOM      6  C7  ZIN A   1      19.431  -0.430   4.755  0.00  0.00     0.000 C 
BRANCH   6   7
ATOM      7  C6  ZIN A   1      19.252  -1.949   4.774  0.00  0.00     0.000 C 
BRANCH   7   8
ATOM      8  C5  ZIN A   1      18.120  -2.317   5.736  0.00  0.00     0.000 C 
BRANCH   8   9
ATOM      9  C4  ZIN A   1      18.708  -2.947   7.000  0.00  0.00     0.000 C 
BRANCH   9  10
ATOM     10  C3  ZIN A   1      19.912  -3.814   6.626  0.00  0.00    -0.000 C 
BRANCH  10  11
ATOM     11  C2  ZIN A   1      19.932  -5.065   7.505  0.00  0.00    -0.005 C 
ATOM     12  C1  ZIN A   1      18.536  -5.301   8.087  0.00  0.00     0.005 C 
ENDBRANCH  10  11
ENDBRANCH   9  10
ENDBRANCH   8   9
ENDBRANCH   7   8
ENDBRANCH   6   7
ENDBRANCH   5   6
ENDBRANCH   4   5
ENDBRANCH   3   4
ENDBRANCH   2   3
ENDBRANCH   1   2
BRANCH   1  13
ATOM     13  C14 ZIN A   1      18.140   3.177  10.153  0.00  0.00     0.066 C 
BRANCH  13  14
ATOM     14  C15 ZIN A   1      17.532   3.569  11.501  0.00  0.00     0.147 C 
ATOM     15  C20 ZIN A   1      18.250   4.745  12.195  0.00  0.00     0.115 C 
ATOM     16  C18 ZIN A   1      16.839   5.274  12.430  0.00  0.00     0.266 C 
ATOM     17  O17 ZIN A   1      16.403   4.500  11.400  0.00  0.00    -0.315 OA
ATOM     18  O19 ZIN A   1      16.327   6.048  13.204  0.00  0.00    -0.265 OA
BRANCH  15  19
ATOM     19  C22 ZIN A   1      18.992   4.362  13.477  0.00  0.00     0.017 C 
BRANCH  19  20
ATOM     20  C23 ZIN A   1      18.202   3.284  14.222  0.00  0.00     0.001 C 
BRANCH  20  21
ATOM     21  C24 ZIN A   1      18.542   3.339  15.712  0.00  0.00     0.000 C 
BRANCH  21  22
ATOM     22  C25 ZIN A   1      19.244   2.043  16.123  0.00  0.00    -0.000 C 
BRANCH  22  23
ATOM     23  C26 ZIN A   1      18.264   1.155  16.894  0.00  0.00    -0.005 C 
ATOM     24  C27 ZIN A   1      18.012   1.756  18.279  0.00  0.00     0.005 C 
ENDBRANCH  22  23
ENDBRANCH  21  22
ENDBRANCH  20  21
ENDBRANCH  19  20
ENDBRANCH  15  19
ENDBRANCH  13  14
ENDBRANCH   1  13
BRANCH   1  25
ATOM     25  O28 ZIN A   1      17.255   0.912  10.028  0.00  0.00    -0.314 OA
BRANCH  25  26
ATOM     26  C29 ZIN A   1      16.921   0.120  11.059  0.00  0.00     0.282 C 
ATOM     27  O30 ZIN A   1      15.790   0.126  11.484  0.00  0.00    -0.263 OA
BRANCH  26  28
ATOM     28  C31 ZIN A   1      17.956  -0.778  11.685  0.00  0.00     0.184 C 
BRANCH  28  29
ATOM     29  C33 ZIN A   1      17.871  -2.171  11.057  0.00  0.00     0.039 C 
BRANCH  29  30
ATOM     30  C34 ZIN A   1      19.271  -2.635  10.651  0.00  0.00    -0.020 C 
ATOM     31  C35 ZIN A   1      20.246  -1.459  10.748  0.00  0.00     0.009 C 
ATOM     32  C36 ZIN A   1      19.729  -3.756  11.585  0.00  0.00     0.009 C 
ENDBRANCH  29  30
ENDBRANCH  28  29
BRANCH  28  33
ATOM     33  N37 ZIN A   1      17.710  -0.876  13.126  0.00  0.00    -0.354 N 
ATOM     34  H87 ZIN A   1      16.814  -0.748  13.474  0.00  0.00     0.162 HD
BRANCH  33  35
ATOM     35  C38 ZIN A   1      18.729  -1.143  13.968  0.00  0.00     0.349 C 
ATOM     36  O39 ZIN A   1      19.777  -0.544  13.860  0.00  0.00    -0.284 OA
ENDBRANCH  33  35
ENDBRANCH  28  33
ENDBRANCH  26  28
ENDBRANCH  25  26
ENDBRANCH   1  25
TORSDOF 24
ENDMDL
MODEL 6
REMARK VINA RESULT:      -6.2      1.986      5.508
REMARK  24 active torsions:
REMARK  status: ('A' for Active; 'I' for Inactive)
REMARK    1  A    between atoms: C2_2  and  C3_3 
REMARK    2  A    between atoms: C3_3  and  C4_4 
REMARK    3  A    between atoms: C4_4  and  C5_5 
REMARK    4  A    between atoms: C5_5  and  C6_6 
REMARK    5  A    between atoms: C6_6  and  C7_7 
REMARK    6  A    between atoms: C7_7  and  C8_8 
REMARK    7  A    between atoms: C8_8  and  C9_9 
REMARK    8  A    between atoms: C9_9  and  C10_10 
REMARK    9  A    between atoms: C10_10  and  C11_11 
REMARK   10  A    between atoms: C11_11  and  C12_12 
REMARK   11  A    between atoms: C12_12  and  C14_13 
REMARK   12  A    between atoms: C12_12  and  O28_25 
REMARK   13  A    between atoms: C14_13  and  C15_14 
REMARK   14  A    between atoms: C20_18  and  C22_19 
REMARK   15  A    between atoms: C22_19  and  C23_20 
REMARK   16  A    between atoms: C23_20  and  C24_21 
REMARK   17  A    between atoms: C24_21  and  C25_22 
REMARK   18  A    between atoms: C25_22  and  C26_23 
REMARK   19  A    between atoms: O28_25  and  C29_26 
REMARK   20  A    between atoms: C29_26  and  C31_28 
REMARK   21  A    between atoms: C31_28  and  C33_29 
REMARK   22  A    between atoms: C31_28  and  N37_33 
REMARK   23  A    between atoms: C33_29  and  C34_30 
REMARK   24  A    between atoms: N37_33  and  C38_34 
ROOT
ATOM      1  C12 ZIN A   1      17.756   0.580   9.312  0.00  0.00     0.134 C 
ENDROOT
BRANCH   1   2
ATOM      2  C11 ZIN A   1      19.062   1.375   9.221  0.00  0.00     0.032 C 
BRANCH   2   3
ATOM      3  C10 ZIN A   1      18.760   2.868   9.363  0.00  0.00     0.002 C 
BRANCH   3   4
ATOM      4  C9  ZIN A   1      17.767   3.081  10.507  0.00  0.00     0.000 C 
BRANCH   4   5
ATOM      5  C8  ZIN A   1      18.185   4.303  11.326  0.00  0.00     0.000 C 
BRANCH   5   6
ATOM      6  C7  ZIN A   1      19.483   3.995  12.075  0.00  0.00     0.000 C 
BRANCH   6   7
ATOM      7  C6  ZIN A   1      19.623   4.946  13.266  0.00  0.00     0.000 C 
BRANCH   7   8
ATOM      8  C5  ZIN A   1      18.236   5.274  13.821  0.00  0.00     0.000 C 
BRANCH   8   9
ATOM      9  C4  ZIN A   1      18.202   4.970  15.320  0.00  0.00     0.000 C 
BRANCH   9  10
ATOM     10  C3  ZIN A   1      19.613   4.631  15.805  0.00  0.00    -0.000 C 
BRANCH  10  11
ATOM     11  C2  ZIN A   1      19.527   3.675  16.996  0.00  0.00    -0.005 C 
ATOM     12  C1  ZIN A   1      19.101   2.288  16.507  0.00  0.00     0.005 C 
ENDBRANCH  10  11
ENDBRANCH   9  10
ENDBRANCH   8   9
ENDBRANCH   7   8
ENDBRANCH   6   7
ENDBRANCH   5   6
ENDBRANCH   4   5
ENDBRANCH   3   4
ENDBRANCH   2   3
ENDBRANCH   1   2
BRANCH   1  13
ATOM     13  C14 ZIN A   1      17.386   0.049   7.926  0.00  0.00     0.066 C 
BRANCH  13  14
ATOM     14  C15 ZIN A   1      18.662  -0.285   7.150  0.00  0.00     0.147 C 
ATOM     15  C20 ZIN A   1      18.654  -1.683   6.500  0.00  0.00     0.115 C 
ATOM     16  C18 ZIN A   1      19.180  -0.952   5.270  0.00  0.00     0.266 C 
ATOM     17  O17 ZIN A   1      18.666   0.206   5.767  0.00  0.00    -0.315 OA
ATOM     18  O19 ZIN A   1      19.794  -1.266   4.277  0.00  0.00    -0.265 OA
BRANCH  15  19
ATOM     19  C22 ZIN A   1      19.652  -2.668   7.112  0.00  0.00     0.017 C 
BRANCH  19  20
ATOM     20  C23 ZIN A   1      18.907  -3.658   8.010  0.00  0.00     0.001 C 
BRANCH  20  21
ATOM     21  C24 ZIN A   1      19.249  -5.088   7.588  0.00  0.00     0.000 C 
BRANCH  21  22
ATOM     22  C25 ZIN A   1      17.957  -5.880   7.379  0.00  0.00    -0.000 C 
BRANCH  22  23
ATOM     23  C26 ZIN A   1      17.820  -6.932   8.482  0.00  0.00    -0.005 C 
ATOM     24  C27 ZIN A   1      16.862  -6.420   9.560  0.00  0.00     0.005 C 
ENDBRANCH  22  23
ENDBRANCH  21  22
ENDBRANCH  20  21
ENDBRANCH  19  20
ENDBRANCH  15  19
ENDBRANCH  13  14
ENDBRANCH   1  13
BRANCH   1  25
ATOM     25  O28 ZIN A   1      17.931  -0.534  10.226  0.00  0.00    -0.314 OA
BRANCH  25  26
ATOM     26  C29 ZIN A   1      17.083  -0.607  11.265  0.00  0.00     0.282 C 
ATOM     27  O30 ZIN A   1      16.068   0.046  11.264  0.00  0.00    -0.263 OA
BRANCH  26  28
ATOM     28  C31 ZIN A   1      17.400  -1.506  12.433  0.00  0.00     0.184 C 
BRANCH  28  29
ATOM     29  C33 ZIN A   1      17.851  -0.657  13.623  0.00  0.00     0.039 C 
BRANCH  29  30
ATOM     30  C34 ZIN A   1      19.334  -0.911  13.898  0.00  0.00    -0.020 C 
ATOM     31  C35 ZIN A   1      20.137   0.350  13.572  0.00  0.00     0.009 C 
ATOM     32  C36 ZIN A   1      19.525  -1.271  15.373  0.00  0.00     0.009 C 
ENDBRANCH  29  30
ENDBRANCH  28  29
BRANCH  28  33
ATOM     33  N37 ZIN A   1      18.472  -2.431  12.058  0.00  0.00    -0.354 N 
ATOM     34  H87 ZIN A   1      19.388  -2.116  12.005  0.00  0.00     0.162 HD
BRANCH  33  35
ATOM     35  C38 ZIN A   1      18.187  -3.721  11.787  0.00  0.00     0.349 C 
ATOM     36  O39 ZIN A   1      19.084  -4.520  11.632  0.00  0.00    -0.284 OA
ENDBRANCH  33  35
ENDBRANCH  28  33
ENDBRANCH  26  28
ENDBRANCH  25  26
ENDBRANCH   1  25
TORSDOF 24
ENDMDL
MODEL 7
REMARK VINA RESULT:      -6.2      2.122      5.986
REMARK  24 active torsions:
REMARK  status: ('A' for Active; 'I' for Inactive)
REMARK    1  A    between atoms: C2_2  and  C3_3 
REMARK    2  A    between atoms: C3_3  and  C4_4 
REMARK    3  A    between atoms: C4_4  and  C5_5 
REMARK    4  A    between atoms: C5_5  and  C6_6 
REMARK    5  A    between atoms: C6_6  and  C7_7 
REMARK    6  A    between atoms: C7_7  and  C8_8 
REMARK    7  A    between atoms: C8_8  and  C9_9 
REMARK    8  A    between atoms: C9_9  and  C10_10 
REMARK    9  A    between atoms: C10_10  and  C11_11 
REMARK   10  A    between atoms: C11_11  and  C12_12 
REMARK   11  A    between atoms: C12_12  and  C14_13 
REMARK   12  A    between atoms: C12_12  and  O28_25 
REMARK   13  A    between atoms: C14_13  and  C15_14 
REMARK   14  A    between atoms: C20_18  and  C22_19 
REMARK   15  A    between atoms: C22_19  and  C23_20 
REMARK   16  A    between atoms: C23_20  and  C24_21 
REMARK   17  A    between atoms: C24_21  and  C25_22 
REMARK   18  A    between atoms: C25_22  and  C26_23 
REMARK   19  A    between atoms: O28_25  and  C29_26 
REMARK   20  A    between atoms: C29_26  and  C31_28 
REMARK   21  A    between atoms: C31_28  and  C33_29 
REMARK   22  A    between atoms: C31_28  and  N37_33 
REMARK   23  A    between atoms: C33_29  and  C34_30 
REMARK   24  A    between atoms: N37_33  and  C38_34 
ROOT
ATOM      1  C12 ZIN A   1      19.082  -1.846  11.965  0.00  0.00     0.134 C 
ENDROOT
BRANCH   1   2
ATOM      2  C11 ZIN A   1      19.056  -0.934  13.194  0.00  0.00     0.032 C 
BRANCH   2   3
ATOM      3  C10 ZIN A   1      17.634  -0.415  13.412  0.00  0.00     0.002 C 
BRANCH   3   4
ATOM      4  C9  ZIN A   1      17.675   1.093  13.666  0.00  0.00     0.000 C 
BRANCH   4   5
ATOM      5  C8  ZIN A   1      18.967   1.452  14.403  0.00  0.00     0.000 C 
BRANCH   5   6
ATOM      6  C7  ZIN A   1      18.865   2.880  14.944  0.00  0.00     0.000 C 
BRANCH   6   7
ATOM      7  C6  ZIN A   1      19.497   2.944  16.336  0.00  0.00     0.000 C 
BRANCH   7   8
ATOM      8  C5  ZIN A   1      18.561   2.285  17.351  0.00  0.00     0.000 C 
BRANCH   8   9
ATOM      9  C4  ZIN A   1      19.321   1.198  18.114  0.00  0.00     0.000 C 
BRANCH   9  10
ATOM     10  C3  ZIN A   1      18.357   0.071  18.492  0.00  0.00    -0.000 C 
BRANCH  10  11
ATOM     11  C2  ZIN A   1      17.965  -0.708  17.235  0.00  0.00    -0.005 C 
ATOM     12  C1  ZIN A   1      19.185  -1.466  16.704  0.00  0.00     0.005 C 
ENDBRANCH  10  11
ENDBRANCH   9  10
ENDBRANCH   8   9
ENDBRANCH   7   8
ENDBRANCH   6   7
ENDBRANCH   5   6
ENDBRANCH   4   5
ENDBRANCH   3   4
ENDBRANCH   2   3
ENDBRANCH   1   2
BRANCH   1  13
ATOM     13  C14 ZIN A   1      18.014  -2.932  12.114  0.00  0.00     0.066 C 
BRANCH  13  14
ATOM     14  C15 ZIN A   1      18.572  -4.266  11.614  0.00  0.00     0.147 C 
ATOM     15  C20 ZIN A   1      18.143  -4.627  10.177  0.00  0.00     0.115 C 
ATOM     16  C18 ZIN A   1      19.615  -4.975   9.982  0.00  0.00     0.266 C 
ATOM     17  O17 ZIN A   1      19.919  -4.174  11.039  0.00  0.00    -0.315 OA
ATOM     18  O19 ZIN A   1      20.243  -5.668   9.217  0.00  0.00    -0.265 OA
BRANCH  15  19
ATOM     19  C22 ZIN A   1      17.203  -5.830  10.083  0.00  0.00     0.017 C 
BRANCH  19  20
ATOM     20  C23 ZIN A   1      15.983  -5.461   9.237  0.00  0.00     0.001 C 
BRANCH  20  21
ATOM     21  C24 ZIN A   1      15.736  -6.551   8.193  0.00  0.00     0.000 C 
BRANCH  21  22
ATOM     22  C25 ZIN A   1      16.862  -7.585   8.260  0.00  0.00    -0.000 C 
BRANCH  22  23
ATOM     23  C26 ZIN A   1      17.569  -7.658   6.905  0.00  0.00    -0.005 C 
ATOM     24  C27 ZIN A   1      16.675  -8.391   5.902  0.00  0.00     0.005 C 
ENDBRANCH  22  23
ENDBRANCH  21  22
ENDBRANCH  20  21
ENDBRANCH  19  20
ENDBRANCH  15  19
ENDBRANCH  13  14
ENDBRANCH   1  13
BRANCH   1  25
ATOM     25  O28 ZIN A   1      18.810  -1.062  10.774  0.00  0.00    -0.314 OA
BRANCH  25  26
ATOM     26  C29 ZIN A   1      19.820  -0.323  10.287  0.00  0.00     0.282 C 
ATOM     27  O30 ZIN A   1      20.962  -0.611  10.555  0.00  0.00    -0.263 OA
BRANCH  26  28
ATOM     28  C31 ZIN A   1      19.529   0.864   9.406  0.00  0.00     0.184 C 
BRANCH  28  29
ATOM     29  C33 ZIN A   1      18.288   1.594   9.926  0.00  0.00     0.039 C 
BRANCH  29  30
ATOM     30  C34 ZIN A   1      18.660   3.030  10.299  0.00  0.00    -0.020 C 
ATOM     31  C35 ZIN A   1      17.460   3.714  10.956  0.00  0.00     0.009 C 
ATOM     32  C36 ZIN A   1      19.837   3.015  11.277  0.00  0.00     0.009 C 
ENDBRANCH  29  30
ENDBRANCH  28  29
BRANCH  28  33
ATOM     33  N37 ZIN A   1      19.287   0.406   8.036  0.00  0.00    -0.354 N 
ATOM     34  H87 ZIN A   1      19.436  -0.524   7.802  0.00  0.00     0.162 HD
BRANCH  33  35
ATOM     35  C38 ZIN A   1      18.858   1.276   7.099  0.00  0.00     0.349 C 
ATOM     36  O39 ZIN A   1      18.379   0.865   6.065  0.00  0.00    -0.284 OA
ENDBRANCH  33  35
ENDBRANCH  28  33
ENDBRANCH  26  28
ENDBRANCH  25  26
ENDBRANCH   1  25
TORSDOF 24
ENDMDL
MODEL 8
REMARK VINA RESULT:      -6.1      2.542      7.554
REMARK  24 active torsions:
REMARK  status: ('A' for Active; 'I' for Inactive)
REMARK    1  A    between atoms: C2_2  and  C3_3 
REMARK    2  A    between atoms: C3_3  and  C4_4 
REMARK    3  A    between atoms: C4_4  and  C5_5 
REMARK    4  A    between atoms: C5_5  and  C6_6 
REMARK    5  A    between atoms: C6_6  and  C7_7 
REMARK    6  A    between atoms: C7_7  and  C8_8 
REMARK    7  A    between atoms: C8_8  and  C9_9 
REMARK    8  A    between atoms: C9_9  and  C10_10 
REMARK    9  A    between atoms: C10_10  and  C11_11 
REMARK   10  A    between atoms: C11_11  and  C12_12 
REMARK   11  A    between atoms: C12_12  and  C14_13 
REMARK   12  A    between atoms: C12_12  and  O28_25 
REMARK   13  A    between atoms: C14_13  and  C15_14 
REMARK   14  A    between atoms: C20_18  and  C22_19 
REMARK   15  A    between atoms: C22_19  and  C23_20 
REMARK   16  A    between atoms: C23_20  and  C24_21 
REMARK   17  A    between atoms: C24_21  and  C25_22 
REMARK   18  A    between atoms: C25_22  and  C26_23 
REMARK   19  A    between atoms: O28_25  and  C29_26 
REMARK   20  A    between atoms: C29_26  and  C31_28 
REMARK   21  A    between atoms: C31_28  and  C33_29 
REMARK   22  A    between atoms: C31_28  and  N37_33 
REMARK   23  A    between atoms: C33_29  and  C34_30 
REMARK   24  A    between atoms: N37_33  and  C38_34 
ROOT
ATOM      1  C12 ZIN A   1      18.113  -2.208  11.003  0.00  0.00     0.134 C 
ENDROOT
BRANCH   1   2
ATOM      2  C11 ZIN A   1      18.449  -3.655  11.375  0.00  0.00     0.032 C 
BRANCH   2   3
ATOM      3  C10 ZIN A   1      17.207  -4.529  11.195  0.00  0.00     0.002 C 
BRANCH   3   4
ATOM      4  C9  ZIN A   1      17.623  -5.908  10.681  0.00  0.00     0.000 C 
BRANCH   4   5
ATOM      5  C8  ZIN A   1      18.858  -5.769   9.788  0.00  0.00     0.000 C 
BRANCH   5   6
ATOM      6  C7  ZIN A   1      18.443  -5.889   8.321  0.00  0.00     0.000 C 
BRANCH   6   7
ATOM      7  C6  ZIN A   1      17.231  -6.816   8.208  0.00  0.00     0.000 C 
BRANCH   7   8
ATOM      8  C5  ZIN A   1      16.159  -6.152   7.341  0.00  0.00     0.000 C 
BRANCH   8   9
ATOM      9  C4  ZIN A   1      14.831  -6.130   8.101  0.00  0.00     0.000 C 
BRANCH   9  10
ATOM     10  C3  ZIN A   1      13.692  -6.494   7.147  0.00  0.00    -0.000 C 
BRANCH  10  11
ATOM     11  C2  ZIN A   1      12.742  -7.475   7.838  0.00  0.00    -0.005 C 
ATOM     12  C1  ZIN A   1      11.770  -6.699   8.731  0.00  0.00     0.005 C 
ENDBRANCH  10  11
ENDBRANCH   9  10
ENDBRANCH   8   9
ENDBRANCH   7   8
ENDBRANCH   6   7
ENDBRANCH   5   6
ENDBRANCH   4   5
ENDBRANCH   3   4
ENDBRANCH   2   3
ENDBRANCH   1   2
BRANCH   1  13
ATOM     13  C14 ZIN A   1      17.765  -2.133   9.515  0.00  0.00     0.066 C 
BRANCH  13  14
ATOM     14  C15 ZIN A   1      18.736  -1.181   8.813  0.00  0.00     0.147 C 
ATOM     15  C20 ZIN A   1      18.047  -0.024   8.061  0.00  0.00     0.115 C 
ATOM     16  C18 ZIN A   1      19.103   0.846   8.733  0.00  0.00     0.266 C 
ATOM     17  O17 ZIN A   1      19.263  -0.119   9.679  0.00  0.00    -0.315 OA
ATOM     18  O19 ZIN A   1      19.592   1.930   8.518  0.00  0.00    -0.265 OA
BRANCH  15  19
ATOM     19  C22 ZIN A   1      18.178  -0.096   6.538  0.00  0.00     0.017 C 
BRANCH  19  20
ATOM     20  C23 ZIN A   1      19.295  -1.073   6.168  0.00  0.00     0.001 C 
BRANCH  20  21
ATOM     21  C24 ZIN A   1      19.124  -1.517   4.714  0.00  0.00     0.000 C 
BRANCH  21  22
ATOM     22  C25 ZIN A   1      17.658  -1.363   4.304  0.00  0.00    -0.000 C 
BRANCH  22  23
ATOM     23  C26 ZIN A   1      17.062  -2.743   4.013  0.00  0.00    -0.005 C 
ATOM     24  C27 ZIN A   1      18.187  -3.777   3.928  0.00  0.00     0.005 C 
ENDBRANCH  22  23
ENDBRANCH  21  22
ENDBRANCH  20  21
ENDBRANCH  19  20
ENDBRANCH  15  19
ENDBRANCH  13  14
ENDBRANCH   1  13
BRANCH   1  25
ATOM     25  O28 ZIN A   1      16.978  -1.759  11.788  0.00  0.00    -0.314 OA
BRANCH  25  26
ATOM     26  C29 ZIN A   1      16.893  -0.442  12.037  0.00  0.00     0.282 C 
ATOM     27  O30 ZIN A   1      16.008   0.211  11.538  0.00  0.00    -0.263 OA
BRANCH  26  28
ATOM     28  C31 ZIN A   1      17.901   0.220  12.941  0.00  0.00     0.184 C 
BRANCH  28  29
ATOM     29  C33 ZIN A   1      17.576  -0.113  14.399  0.00  0.00     0.039 C 
BRANCH  29  30
ATOM     30  C34 ZIN A   1      18.850  -0.564  15.115  0.00  0.00    -0.020 C 
ATOM     31  C35 ZIN A   1      18.479  -1.256  16.429  0.00  0.00     0.009 C 
ATOM     32  C36 ZIN A   1      19.618  -1.541  14.223  0.00  0.00     0.009 C 
ENDBRANCH  29  30
ENDBRANCH  28  29
BRANCH  28  33
ATOM     33  N37 ZIN A   1      17.849   1.672  12.748  0.00  0.00    -0.354 N 
ATOM     34  H87 ZIN A   1      17.102   2.071  12.275  0.00  0.00     0.162 HD
BRANCH  33  35
ATOM     35  C38 ZIN A   1      18.840   2.452  13.226  0.00  0.00     0.349 C 
ATOM     36  O39 ZIN A   1      18.794   3.653  13.069  0.00  0.00    -0.284 OA
ENDBRANCH  33  35
ENDBRANCH  28  33
ENDBRANCH  26  28
ENDBRANCH  25  26
ENDBRANCH   1  25
TORSDOF 24
ENDMDL
MODEL 9
REMARK VINA RESULT:      -6.1      1.898      6.087
REMARK  24 active torsions:
REMARK  status: ('A' for Active; 'I' for Inactive)
REMARK    1  A    between atoms: C2_2  and  C3_3 
REMARK    2  A    between atoms: C3_3  and  C4_4 
REMARK    3  A    between atoms: C4_4  and  C5_5 
REMARK    4  A    between atoms: C5_5  and  C6_6 
REMARK    5  A    between atoms: C6_6  and  C7_7 
REMARK    6  A    between atoms: C7_7  and  C8_8 
REMARK    7  A    between atoms: C8_8  and  C9_9 
REMARK    8  A    between atoms: C9_9  and  C10_10 
REMARK    9  A    between atoms: C10_10  and  C11_11 
REMARK   10  A    between atoms: C11_11  and  C12_12 
REMARK   11  A    between atoms: C12_12  and  C14_13 
REMARK   12  A    between atoms: C12_12  and  O28_25 
REMARK   13  A    between atoms: C14_13  and  C15_14 
REMARK   14  A    between atoms: C20_18  and  C22_19 
REMARK   15  A    between atoms: C22_19  and  C23_20 
REMARK   16  A    between atoms: C23_20  and  C24_21 
REMARK   17  A    between atoms: C24_21  and  C25_22 
REMARK   18  A    between atoms: C25_22  and  C26_23 
REMARK   19  A    between atoms: O28_25  and  C29_26 
REMARK   20  A    between atoms: C29_26  and  C31_28 
REMARK   21  A    between atoms: C31_28  and  C33_29 
REMARK   22  A    between atoms: C31_28  and  N37_33 
REMARK   23  A    between atoms: C33_29  and  C34_30 
REMARK   24  A    between atoms: N37_33  and  C38_34 
ROOT
ATOM      1  C12 ZIN A   1      17.973  -0.771   9.391  0.00  0.00     0.134 C 
ENDROOT
BRANCH   1   2
ATOM      2  C11 ZIN A   1      17.679   0.482   8.562  0.00  0.00     0.032 C 
BRANCH   2   3
ATOM      3  C10 ZIN A   1      18.973   1.270   8.354  0.00  0.00     0.002 C 
BRANCH   3   4
ATOM      4  C9  ZIN A   1      18.693   2.765   8.521  0.00  0.00     0.000 C 
BRANCH   4   5
ATOM      5  C8  ZIN A   1      18.702   3.124  10.008  0.00  0.00     0.000 C 
BRANCH   5   6
ATOM      6  C7  ZIN A   1      17.707   4.257  10.265  0.00  0.00     0.000 C 
BRANCH   6   7
ATOM      7  C6  ZIN A   1      17.856   4.750  11.706  0.00  0.00     0.000 C 
BRANCH   7   8
ATOM      8  C5  ZIN A   1      17.958   3.549  12.648  0.00  0.00     0.000 C 
BRANCH   8   9
ATOM      9  C4  ZIN A   1      18.498   4.008  14.004  0.00  0.00     0.000 C 
BRANCH   9  10
ATOM     10  C3  ZIN A   1      18.970   5.460  13.901  0.00  0.00    -0.000 C 
BRANCH  10  11
ATOM     11  C2  ZIN A   1      20.223   5.651  14.756  0.00  0.00    -0.005 C 
ATOM     12  C1  ZIN A   1      19.822   5.757  16.230  0.00  0.00     0.005 C 
ENDBRANCH  10  11
ENDBRANCH   9  10
ENDBRANCH   8   9
ENDBRANCH   7   8
ENDBRANCH   6   7
ENDBRANCH   5   6
ENDBRANCH   4   5
ENDBRANCH   3   4
ENDBRANCH   2   3
ENDBRANCH   1   2
BRANCH   1  13
ATOM     13  C14 ZIN A   1      17.199  -0.703  10.709  0.00  0.00     0.066 C 
BRANCH  13  14
ATOM     14  C15 ZIN A   1      18.002   0.106  11.729  0.00  0.00     0.147 C 
ATOM     15  C20 ZIN A   1      18.414  -0.696  12.981  0.00  0.00     0.115 C 
ATOM     16  C18 ZIN A   1      19.782  -0.061  12.756  0.00  0.00     0.266 C 
ATOM     17  O17 ZIN A   1      19.443   0.152  11.455  0.00  0.00    -0.315 OA
ATOM     18  O19 ZIN A   1      20.753   0.160  13.440  0.00  0.00    -0.265 OA
BRANCH  15  19
ATOM     19  C22 ZIN A   1      17.726  -0.248  14.272  0.00  0.00     0.017 C 
BRANCH  19  20
ATOM     20  C23 ZIN A   1      18.208  -1.116  15.436  0.00  0.00     0.001 C 
BRANCH  20  21
ATOM     21  C24 ZIN A   1      17.845  -0.441  16.760  0.00  0.00     0.000 C 
BRANCH  21  22
ATOM     22  C25 ZIN A   1      19.062  -0.454  17.688  0.00  0.00    -0.000 C 
BRANCH  22  23
ATOM     23  C26 ZIN A   1      19.229   0.926  18.329  0.00  0.00    -0.005 C 
ATOM     24  C27 ZIN A   1      19.153   2.004  17.246  0.00  0.00     0.005 C 
ENDBRANCH  22  23
ENDBRANCH  21  22
ENDBRANCH  20  21
ENDBRANCH  19  20
ENDBRANCH  15  19
ENDBRANCH  13  14
ENDBRANCH   1  13
BRANCH   1  25
ATOM     25  O28 ZIN A   1      17.562  -1.949   8.648  0.00  0.00    -0.314 OA
BRANCH  25  26
ATOM     26  C29 ZIN A   1      18.534  -2.774   8.227  0.00  0.00     0.282 C 
ATOM     27  O30 ZIN A   1      19.507  -2.325   7.670  0.00  0.00    -0.263 OA
BRANCH  26  28
ATOM     28  C31 ZIN A   1      18.411  -4.259   8.451  0.00  0.00     0.184 C 
BRANCH  28  29
ATOM     29  C33 ZIN A   1      19.400  -4.695   9.534  0.00  0.00     0.039 C 
BRANCH  29  30
ATOM     30  C34 ZIN A   1      19.119  -3.921  10.823  0.00  0.00    -0.020 C 
ATOM     31  C35 ZIN A   1      18.015  -4.628  11.613  0.00  0.00     0.009 C 
ATOM     32  C36 ZIN A   1      20.392  -3.860  11.669  0.00  0.00     0.009 C 
ENDBRANCH  29  30
ENDBRANCH  28  29
BRANCH  28  33
ATOM     33  N37 ZIN A   1      18.710  -4.966   7.203  0.00  0.00    -0.354 N 
ATOM     34  H87 ZIN A   1      18.945  -4.465   6.406  0.00  0.00     0.162 HD
BRANCH  33  35
ATOM     35  C38 ZIN A   1      18.656  -6.313   7.162  0.00  0.00     0.349 C 
ATOM     36  O39 ZIN A   1      18.589  -6.883   6.094  0.00  0.00    -0.284 OA
ENDBRANCH  33  35
ENDBRANCH  28  33
ENDBRANCH  26  28
ENDBRANCH  25  26
ENDBRANCH   1  25
TORSDOF 24
ENDMDL
