MODEL 1
REMARK VINA RESULT:      -8.9      0.000      0.000
REMARK  2 active torsions:
REMARK  status: ('A' for Active; 'I' for Inactive)
REMARK    1  A    between atoms: O2_2  and  C3_3 
REMARK    2  A    between atoms: C3_3  and  C5_5 
ROOT
ATOM      1  C5  ZIN A   1      20.549  -0.013  12.459  0.00  0.00     0.097 C 
ATOM      2  C7  ZIN A   1      20.966   1.392  12.007  0.00  0.00     0.050 C 
ATOM      3  C8  ZIN A   1      19.737   2.186  11.607  0.00  0.00    -0.064 C 
ATOM      4  C9  ZIN A   1      19.578   3.398  12.136  0.00  0.00     0.053 C 
ATOM      5  C10 ZIN A   1      18.409   4.211  11.788  0.00  0.00     0.149 C 
ATOM      6  O11 ZIN A   1      18.047   5.136  12.487  0.00  0.00    -0.293 OA
ATOM      7  C12 ZIN A   1      17.674   3.845  10.515  0.00  0.00     0.084 C 
ATOM      8  C13 ZIN A   1      17.452   2.333  10.534  0.00  0.00     0.025 C 
ATOM      9  C14 ZIN A   1      18.765   1.581  10.632  0.00  0.00     0.014 C 
ATOM     10  C15 ZIN A   1      19.417   1.545   9.249  0.00  0.00     0.023 C 
ATOM     11  C16 ZIN A   1      18.496   0.133  11.067  0.00  0.00     0.103 A 
ATOM     12  O17 ZIN A   1      17.400  -0.047  11.969  0.00  0.00    -0.368 OA
ATOM     13  C18 ZIN A   1      17.221  -0.564  10.642  0.00  0.00     0.159 A 
ATOM     14  C20 ZIN A   1      17.152  -2.096  10.549  0.00  0.00     0.047 C 
ATOM     15  C21 ZIN A   1      18.567  -2.645  10.449  0.00  0.00    -0.006 C 
ATOM     16  C22 ZIN A   1      19.215  -2.206   9.134  0.00  0.00     0.019 C 
ATOM     17  C23 ZIN A   1      19.369  -2.108  11.672  0.00  0.00     0.005 C 
ATOM     18  C25 ZIN A   1      20.565  -3.075  11.728  0.00  0.00     0.009 C 
ATOM     19  C26 ZIN A   1      19.938  -4.453  11.395  0.00  0.00     0.040 C 
ATOM     20  C27 ZIN A   1      18.653  -4.160  10.602  0.00  0.00     0.079 C 
ATOM     21  C28 ZIN A   1      17.429  -4.706  11.355  0.00  0.00     0.049 C 
ATOM     22  C29 ZIN A   1      17.237  -6.084  10.674  0.00  0.00     0.114 C 
ATOM     23  C30 ZIN A   1      17.890  -5.914   9.318  0.00  0.00     0.259 C 
ATOM     24  O31 ZIN A   1      17.726  -6.651   8.375  0.00  0.00    -0.265 OA
ATOM     25  O32 ZIN A   1      18.674  -4.827   9.317  0.00  0.00    -0.309 OA
ATOM     26  C33 ZIN A   1      19.771  -0.682  11.329  0.00  0.00     0.043 C 
ENDROOT
BRANCH   1  27
ATOM     27  C3  ZIN A   1      19.678   0.088  13.683  0.00  0.00     0.263 C 
ATOM     28  O4  ZIN A   1      19.472   1.164  14.192  0.00  0.00    -0.265 OA
BRANCH  27  29
ATOM     29  O2  ZIN A   1      19.127  -1.019  14.209  0.00  0.00    -0.326 OA
ATOM     30  C1  ZIN A   1      18.240  -0.839  15.344  0.00  0.00     0.213 C 
ENDBRANCH  27  29
ENDBRANCH   1  27
TORSDOF 2
ENDMDL
MODEL 2
REMARK VINA RESULT:      -8.4      1.904      2.286
REMARK  2 active torsions:
REMARK  status: ('A' for Active; 'I' for Inactive)
REMARK    1  A    between atoms: O2_2  and  C3_3 
REMARK    2  A    between atoms: C3_3  and  C5_5 
ROOT
ATOM      1  C5  ZIN A   1      19.312   0.001  13.330  0.00  0.00     0.097 C 
ATOM      2  C7  ZIN A   1      19.772   1.367  13.855  0.00  0.00     0.050 C 
ATOM      3  C8  ZIN A   1      18.861   2.454  13.318  0.00  0.00    -0.064 C 
ATOM      4  C9  ZIN A   1      18.341   3.318  14.189  0.00  0.00     0.053 C 
ATOM      5  C10 ZIN A   1      17.453   4.390  13.729  0.00  0.00     0.149 C 
ATOM      6  O11 ZIN A   1      16.699   4.960  14.491  0.00  0.00    -0.293 OA
ATOM      7  C12 ZIN A   1      17.519   4.752  12.260  0.00  0.00     0.084 C 
ATOM      8  C13 ZIN A   1      17.458   3.448  11.464  0.00  0.00     0.025 C 
ATOM      9  C14 ZIN A   1      18.593   2.516  11.840  0.00  0.00     0.014 C 
ATOM     10  C15 ZIN A   1      19.867   2.979  11.130  0.00  0.00     0.023 C 
ATOM     11  C16 ZIN A   1      18.272   1.094  11.356  0.00  0.00     0.103 A 
ATOM     12  O17 ZIN A   1      16.889   0.728  11.392  0.00  0.00    -0.368 OA
ATOM     13  C18 ZIN A   1      17.470   0.886  10.089  0.00  0.00     0.159 A 
ATOM     14  C20 ZIN A   1      17.599  -0.413   9.278  0.00  0.00     0.047 C 
ATOM     15  C21 ZIN A   1      18.906  -1.096   9.652  0.00  0.00    -0.006 C 
ATOM     16  C22 ZIN A   1      20.097  -0.244   9.211  0.00  0.00     0.019 C 
ATOM     17  C23 ZIN A   1      18.906  -1.298  11.197  0.00  0.00     0.005 C 
ATOM     18  C25 ZIN A   1      19.983  -2.381  11.385  0.00  0.00     0.009 C 
ATOM     19  C26 ZIN A   1      19.747  -3.342  10.191  0.00  0.00     0.040 C 
ATOM     20  C27 ZIN A   1      19.038  -2.514   9.107  0.00  0.00     0.079 C 
ATOM     21  C28 ZIN A   1      17.656  -3.116   8.800  0.00  0.00     0.049 C 
ATOM     22  C29 ZIN A   1      17.971  -3.999   7.567  0.00  0.00     0.114 C 
ATOM     23  C30 ZIN A   1      19.212  -3.367   6.973  0.00  0.00     0.259 C 
ATOM     24  O31 ZIN A   1      19.628  -3.574   5.859  0.00  0.00    -0.265 OA
ATOM     25  O32 ZIN A   1      19.781  -2.542   7.864  0.00  0.00    -0.309 OA
ATOM     26  C33 ZIN A   1      19.296   0.040  11.804  0.00  0.00     0.043 C 
ENDROOT
BRANCH   1  27
ATOM     27  C3  ZIN A   1      17.928  -0.297  13.844  0.00  0.00     0.263 C 
ATOM     28  O4  ZIN A   1      17.305  -1.231  13.397  0.00  0.00    -0.265 OA
BRANCH  27  29
ATOM     29  O2  ZIN A   1      17.387   0.473  14.801  0.00  0.00    -0.326 OA
ATOM     30  C1  ZIN A   1      17.222  -0.124  16.114  0.00  0.00     0.213 C 
ENDBRANCH  27  29
ENDBRANCH   1  27
TORSDOF 2
ENDMDL
MODEL 3
REMARK VINA RESULT:      -8.2      1.825      6.721
REMARK  2 active torsions:
REMARK  status: ('A' for Active; 'I' for Inactive)
REMARK    1  A    between atoms: O2_2  and  C3_3 
REMARK    2  A    between atoms: C3_3  and  C5_5 
ROOT
ATOM      1  C5  ZIN A   1      18.074  -2.545  11.918  0.00  0.00     0.097 C 
ATOM      2  C7  ZIN A   1      17.661  -3.821  11.174  0.00  0.00     0.050 C 
ATOM      3  C8  ZIN A   1      18.537  -4.007   9.951  0.00  0.00    -0.064 C 
ATOM      4  C9  ZIN A   1      19.122  -5.191   9.777  0.00  0.00     0.053 C 
ATOM      5  C10 ZIN A   1      19.981  -5.430   8.614  0.00  0.00     0.149 C 
ATOM      6  O11 ZIN A   1      20.791  -6.335   8.597  0.00  0.00    -0.293 OA
ATOM      7  C12 ZIN A   1      19.812  -4.496   7.433  0.00  0.00     0.084 C 
ATOM      8  C13 ZIN A   1      19.808  -3.067   7.977  0.00  0.00     0.025 C 
ATOM      9  C14 ZIN A   1      18.698  -2.863   8.989  0.00  0.00     0.014 C 
ATOM     10  C15 ZIN A   1      17.380  -2.662   8.240  0.00  0.00     0.023 C 
ATOM     11  C16 ZIN A   1      18.977  -1.592   9.807  0.00  0.00     0.103 A 
ATOM     12  O17 ZIN A   1      20.356  -1.314  10.063  0.00  0.00    -0.368 OA
ATOM     13  C18 ZIN A   1      19.684  -0.417   9.167  0.00  0.00     0.159 A 
ATOM     14  C20 ZIN A   1      19.490   1.009   9.706  0.00  0.00     0.047 C 
ATOM     15  C21 ZIN A   1      18.210   1.053  10.526  0.00  0.00    -0.006 C 
ATOM     16  C22 ZIN A   1      16.995   0.809   9.630  0.00  0.00     0.019 C 
ATOM     17  C23 ZIN A   1      18.320  -0.043  11.628  0.00  0.00     0.005 C 
ATOM     18  C25 ZIN A   1      17.254   0.406  12.642  0.00  0.00     0.009 C 
ATOM     19  C26 ZIN A   1      17.398   1.950  12.666  0.00  0.00     0.040 C 
ATOM     20  C27 ZIN A   1      18.032   2.342  11.321  0.00  0.00     0.079 C 
ATOM     21  C28 ZIN A   1      19.385   3.035  11.556  0.00  0.00     0.049 C 
ATOM     22  C29 ZIN A   1      18.978   4.529  11.515  0.00  0.00     0.114 C 
ATOM     23  C30 ZIN A   1      17.701   4.537  10.701  0.00  0.00     0.259 C 
ATOM     24  O31 ZIN A   1      17.205   5.518  10.203  0.00  0.00    -0.265 OA
ATOM     25  O32 ZIN A   1      17.202   3.295  10.615  0.00  0.00    -0.309 OA
ATOM     26  C33 ZIN A   1      17.982  -1.364  10.955  0.00  0.00     0.043 C 
ENDROOT
BRANCH   1  27
ATOM     27  C3  ZIN A   1      19.490  -2.685  12.412  0.00  0.00     0.263 C 
ATOM     28  O4  ZIN A   1      20.153  -3.641  12.086  0.00  0.00    -0.265 OA
BRANCH  27  29
ATOM     29  O2  ZIN A   1      20.017  -1.745  13.214  0.00  0.00    -0.326 OA
ATOM     30  C1  ZIN A   1      19.498  -1.668  14.568  0.00  0.00     0.213 C 
ENDBRANCH  27  29
ENDBRANCH   1  27
TORSDOF 2
ENDMDL
MODEL 4
REMARK VINA RESULT:      -8.1      2.719      4.723
REMARK  2 active torsions:
REMARK  status: ('A' for Active; 'I' for Inactive)
REMARK    1  A    between atoms: O2_2  and  C3_3 
REMARK    2  A    between atoms: C3_3  and  C5_5 
ROOT
ATOM      1  C5  ZIN A   1      19.240  -2.858  11.510  0.00  0.00     0.097 C 
ATOM      2  C7  ZIN A   1      19.829  -2.410  12.853  0.00  0.00     0.050 C 
ATOM      3  C8  ZIN A   1      18.997  -1.278  13.424  0.00  0.00    -0.064 C 
ATOM      4  C9  ZIN A   1      18.579  -1.385  14.683  0.00  0.00     0.053 C 
ATOM      5  C10 ZIN A   1      17.771  -0.323  15.290  0.00  0.00     0.149 C 
ATOM      6  O11 ZIN A   1      17.091  -0.526  16.275  0.00  0.00    -0.293 OA
ATOM      7  C12 ZIN A   1      17.824   1.039  14.630  0.00  0.00     0.084 C 
ATOM      8  C13 ZIN A   1      17.629   0.828  13.128  0.00  0.00     0.025 C 
ATOM      9  C14 ZIN A   1      18.692  -0.089  12.556  0.00  0.00     0.014 C 
ATOM     10  C15 ZIN A   1      19.979   0.714  12.354  0.00  0.00     0.023 C 
ATOM     11  C16 ZIN A   1      18.237  -0.608  11.184  0.00  0.00     0.103 A 
ATOM     12  O17 ZIN A   1      16.830  -0.825  11.041  0.00  0.00    -0.368 OA
ATOM     13  C18 ZIN A   1      17.384   0.263  10.286  0.00  0.00     0.159 A 
ATOM     14  C20 ZIN A   1      17.379   0.060   8.763  0.00  0.00     0.047 C 
ATOM     15  C21 ZIN A   1      18.633  -0.702   8.366  0.00  0.00    -0.006 C 
ATOM     16  C22 ZIN A   1      19.878   0.143   8.640  0.00  0.00     0.019 C 
ATOM     17  C23 ZIN A   1      18.662  -2.023   9.192  0.00  0.00     0.005 C 
ATOM     18  C25 ZIN A   1      19.649  -2.889   8.389  0.00  0.00     0.009 C 
ATOM     19  C26 ZIN A   1      19.298  -2.570   6.912  0.00  0.00     0.040 C 
ATOM     20  C27 ZIN A   1      18.629  -1.185   6.919  0.00  0.00     0.079 C 
ATOM     21  C28 ZIN A   1      17.193  -1.288   6.379  0.00  0.00     0.049 C 
ATOM     22  C29 ZIN A   1      17.395  -0.907   4.892  0.00  0.00     0.114 C 
ATOM     23  C30 ZIN A   1      18.667  -0.085   4.896  0.00  0.00     0.259 C 
ATOM     24  O31 ZIN A   1      19.031   0.631   3.994  0.00  0.00    -0.265 OA
ATOM     25  O32 ZIN A   1      19.329  -0.267   6.047  0.00  0.00    -0.309 OA
ATOM     26  C33 ZIN A   1      19.182  -1.654  10.573  0.00  0.00     0.043 C 
ENDROOT
BRANCH   1  27
ATOM     27  C3  ZIN A   1      17.852  -3.401  11.723  0.00  0.00     0.263 C 
ATOM     28  O4  ZIN A   1      17.409  -3.507  12.842  0.00  0.00    -0.265 OA
BRANCH  27  29
ATOM     29  O2  ZIN A   1      17.104  -3.767  10.669  0.00  0.00    -0.326 OA
ATOM     30  C1  ZIN A   1      16.697  -5.158  10.599  0.00  0.00     0.213 C 
ENDBRANCH  27  29
ENDBRANCH   1  27
TORSDOF 2
ENDMDL
MODEL 5
REMARK VINA RESULT:      -8.1      2.643      4.010
REMARK  2 active torsions:
REMARK  status: ('A' for Active; 'I' for Inactive)
REMARK    1  A    between atoms: O2_2  and  C3_3 
REMARK    2  A    between atoms: C3_3  and  C5_5 
ROOT
ATOM      1  C5  ZIN A   1      19.420  -0.544  12.364  0.00  0.00     0.097 C 
ATOM      2  C7  ZIN A   1      20.150   0.247  13.456  0.00  0.00     0.050 C 
ATOM      3  C8  ZIN A   1      19.465   1.585  13.664  0.00  0.00    -0.064 C 
ATOM      4  C9  ZIN A   1      19.141   1.933  14.907  0.00  0.00     0.053 C 
ATOM      5  C10 ZIN A   1      18.477   3.213  15.170  0.00  0.00     0.149 C 
ATOM      6  O11 ZIN A   1      17.863   3.412  16.198  0.00  0.00    -0.293 OA
ATOM      7  C12 ZIN A   1      18.592   4.277  14.098  0.00  0.00     0.084 C 
ATOM      8  C13 ZIN A   1      18.261   3.617  12.760  0.00  0.00     0.025 C 
ATOM      9  C14 ZIN A   1      19.194   2.457  12.469  0.00  0.00     0.014 C 
ATOM     10  C15 ZIN A   1      20.523   3.011  11.954  0.00  0.00     0.023 C 
ATOM     11  C16 ZIN A   1      18.589   1.575  11.367  0.00  0.00     0.103 A 
ATOM     12  O17 ZIN A   1      17.161   1.474  11.371  0.00  0.00    -0.368 OA
ATOM     13  C18 ZIN A   1      17.743   2.197  10.275  0.00  0.00     0.159 A 
ATOM     14  C20 ZIN A   1      17.599   1.517   8.905  0.00  0.00     0.047 C 
ATOM     15  C21 ZIN A   1      18.749   0.538   8.720  0.00  0.00    -0.006 C 
ATOM     16  C22 ZIN A   1      20.079   1.290   8.642  0.00  0.00     0.019 C 
ATOM     17  C23 ZIN A   1      18.732  -0.442   9.931  0.00  0.00     0.005 C 
ATOM     18  C25 ZIN A   1      19.574  -1.619   9.410  0.00  0.00     0.009 C 
ATOM     19  C26 ZIN A   1      19.135  -1.757   7.929  0.00  0.00     0.040 C 
ATOM     20  C27 ZIN A   1      18.588  -0.381   7.514  0.00  0.00     0.079 C 
ATOM     21  C28 ZIN A   1      17.110  -0.499   7.106  0.00  0.00     0.049 C 
ATOM     22  C29 ZIN A   1      17.225  -0.640   5.568  0.00  0.00     0.114 C 
ATOM     23  C30 ZIN A   1      18.558  -0.000   5.242  0.00  0.00     0.259 C 
ATOM     24  O31 ZIN A   1      18.908   0.345   4.139  0.00  0.00    -0.265 OA
ATOM     25  O32 ZIN A   1      19.292   0.128   6.356  0.00  0.00    -0.309 OA
ATOM     26  C33 ZIN A   1      19.389   0.294  11.088  0.00  0.00     0.043 C 
ENDROOT
BRANCH   1  27
ATOM     27  C3  ZIN A   1      18.012  -0.839  12.810  0.00  0.00     0.263 C 
ATOM     28  O4  ZIN A   1      17.618  -0.436  13.879  0.00  0.00    -0.265 OA
BRANCH  27  29
ATOM     29  O2  ZIN A   1      17.192  -1.549  12.018  0.00  0.00    -0.326 OA
ATOM     30  C1  ZIN A   1      17.440  -2.976  11.923  0.00  0.00     0.213 C 
ENDBRANCH  27  29
ENDBRANCH   1  27
TORSDOF 2
ENDMDL
MODEL 6
REMARK VINA RESULT:      -7.8      2.121      4.369
REMARK  2 active torsions:
REMARK  status: ('A' for Active; 'I' for Inactive)
REMARK    1  A    between atoms: O2_2  and  C3_3 
REMARK    2  A    between atoms: C3_3  and  C5_5 
ROOT
ATOM      1  C5  ZIN A   1      17.858   2.762  12.203  0.00  0.00     0.097 C 
ATOM      2  C7  ZIN A   1      17.279   3.129  13.574  0.00  0.00     0.050 C 
ATOM      3  C8  ZIN A   1      18.088   2.457  14.667  0.00  0.00    -0.064 C 
ATOM      4  C9  ZIN A   1      18.530   3.213  15.670  0.00  0.00     0.053 C 
ATOM      5  C10 ZIN A   1      19.317   2.619  16.755  0.00  0.00     0.149 C 
ATOM      6  O11 ZIN A   1      20.019   3.299  17.476  0.00  0.00    -0.293 OA
ATOM      7  C12 ZIN A   1      19.214   1.119  16.935  0.00  0.00     0.084 C 
ATOM      8  C13 ZIN A   1      19.390   0.480  15.557  0.00  0.00     0.025 C 
ATOM      9  C14 ZIN A   1      18.344   0.978  14.579  0.00  0.00     0.014 C 
ATOM     10  C15 ZIN A   1      17.032   0.236  14.840  0.00  0.00     0.023 C 
ATOM     11  C16 ZIN A   1      18.790   0.659  13.144  0.00  0.00     0.103 A 
ATOM     12  O17 ZIN A   1      20.200   0.719  12.908  0.00  0.00    -0.368 OA
ATOM     13  C18 ZIN A   1      19.604  -0.586  12.859  0.00  0.00     0.159 A 
ATOM     14  C20 ZIN A   1      19.589  -1.237  11.468  0.00  0.00     0.047 C 
ATOM     15  C21 ZIN A   1      18.350  -0.768  10.720  0.00  0.00    -0.006 C 
ATOM     16  C22 ZIN A   1      17.086  -1.290  11.406  0.00  0.00     0.019 C 
ATOM     17  C23 ZIN A   1      18.373   0.790  10.703  0.00  0.00     0.005 C 
ATOM     18  C25 ZIN A   1      17.398   1.117   9.558  0.00  0.00     0.009 C 
ATOM     19  C26 ZIN A   1      17.715   0.042   8.488  0.00  0.00     0.040 C 
ATOM     20  C27 ZIN A   1      18.344  -1.142   9.242  0.00  0.00     0.079 C 
ATOM     21  C28 ZIN A   1      19.773  -1.395   8.733  0.00  0.00     0.049 C 
ATOM     22  C29 ZIN A   1      19.535  -2.511   7.687  0.00  0.00     0.114 C 
ATOM     23  C30 ZIN A   1      18.241  -3.158   8.132  0.00  0.00     0.259 C 
ATOM     24  O31 ZIN A   1      17.842  -4.235   7.758  0.00  0.00    -0.265 OA
ATOM     25  O32 ZIN A   1      17.603  -2.362   9.002  0.00  0.00    -0.309 OA
ATOM     26  C33 ZIN A   1      17.866   1.242  12.063  0.00  0.00     0.043 C 
ENDROOT
BRANCH   1  27
ATOM     27  C3  ZIN A   1      19.264   3.288  12.091  0.00  0.00     0.263 C 
ATOM     28  O4  ZIN A   1      19.892   3.125  11.072  0.00  0.00    -0.265 OA
BRANCH  27  29
ATOM     29  O2  ZIN A   1      19.821   3.941  13.124  0.00  0.00    -0.326 OA
ATOM     30  C1  ZIN A   1      19.939   5.383  13.005  0.00  0.00     0.213 C 
ENDBRANCH  27  29
ENDBRANCH   1  27
TORSDOF 2
ENDMDL
MODEL 7
REMARK VINA RESULT:      -7.5      2.038      6.755
REMARK  2 active torsions:
REMARK  status: ('A' for Active; 'I' for Inactive)
REMARK    1  A    between atoms: O2_2  and  C3_3 
REMARK    2  A    between atoms: C3_3  and  C5_5 
ROOT
ATOM      1  C5  ZIN A   1      17.935  -1.742  11.146  0.00  0.00     0.097 C 
ATOM      2  C7  ZIN A   1      17.379  -2.517   9.946  0.00  0.00     0.050 C 
ATOM      3  C8  ZIN A   1      18.162  -2.158   8.698  0.00  0.00    -0.064 C 
ATOM      4  C9  ZIN A   1      18.642  -3.154   7.955  0.00  0.00     0.053 C 
ATOM      5  C10 ZIN A   1      19.408  -2.868   6.737  0.00  0.00     0.149 C 
ATOM      6  O11 ZIN A   1      20.142  -3.697   6.240  0.00  0.00    -0.293 OA
ATOM      7  C12 ZIN A   1      19.239  -1.491   6.129  0.00  0.00     0.084 C 
ATOM      8  C13 ZIN A   1      19.380  -0.472   7.260  0.00  0.00     0.025 C 
ATOM      9  C14 ZIN A   1      18.353  -0.708   8.350  0.00  0.00     0.014 C 
ATOM     10  C15 ZIN A   1      17.010  -0.133   7.895  0.00  0.00     0.023 C 
ATOM     11  C16 ZIN A   1      18.778   0.034   9.625  0.00  0.00     0.103 A 
ATOM     12  O17 ZIN A   1      20.188   0.107   9.856  0.00  0.00    -0.368 OA
ATOM     13  C18 ZIN A   1      19.534   1.342   9.528  0.00  0.00     0.159 A 
ATOM     14  C20 ZIN A   1      19.484   2.369  10.669  0.00  0.00     0.047 C 
ATOM     15  C21 ZIN A   1      18.264   2.085  11.532  0.00  0.00    -0.006 C 
ATOM     16  C22 ZIN A   1      16.982   2.329  10.735  0.00  0.00     0.019 C 
ATOM     17  C23 ZIN A   1      18.355   0.602  12.002  0.00  0.00     0.005 C 
ATOM     18  C25 ZIN A   1      17.391   0.580  13.201  0.00  0.00     0.009 C 
ATOM     19  C26 ZIN A   1      17.655   1.934  13.909  0.00  0.00     0.040 C 
ATOM     20  C27 ZIN A   1      18.235   2.872  12.838  0.00  0.00     0.079 C 
ATOM     21  C28 ZIN A   1      19.649   3.325  13.238  0.00  0.00     0.049 C 
ATOM     22  C29 ZIN A   1      19.357   4.686  13.916  0.00  0.00     0.114 C 
ATOM     23  C30 ZIN A   1      18.038   5.118  13.313  0.00  0.00     0.259 C 
ATOM     24  O31 ZIN A   1      17.590   6.239  13.360  0.00  0.00    -0.265 OA
ATOM     25  O32 ZIN A   1      17.440   4.076  12.718  0.00  0.00    -0.309 OA
ATOM     26  C33 ZIN A   1      17.876  -0.248  10.837  0.00  0.00     0.043 C 
ENDROOT
BRANCH   1  27
ATOM     27  C3  ZIN A   1      19.363  -2.151  11.395  0.00  0.00     0.263 C 
ATOM     28  O4  ZIN A   1      20.038  -1.539  12.188  0.00  0.00    -0.265 OA
BRANCH  27  29
ATOM     29  O2  ZIN A   1      19.886  -3.197  10.735  0.00  0.00    -0.326 OA
ATOM     30  C1  ZIN A   1      20.003  -4.446  11.467  0.00  0.00     0.213 C 
ENDBRANCH  27  29
ENDBRANCH   1  27
TORSDOF 2
ENDMDL
MODEL 8
REMARK VINA RESULT:      -7.4      3.259      4.777
REMARK  2 active torsions:
REMARK  status: ('A' for Active; 'I' for Inactive)
REMARK    1  A    between atoms: O2_2  and  C3_3 
REMARK    2  A    between atoms: C3_3  and  C5_5 
ROOT
ATOM      1  C5  ZIN A   1      19.379   1.331  14.553  0.00  0.00     0.097 C 
ATOM      2  C7  ZIN A   1      19.882   2.351  15.582  0.00  0.00     0.050 C 
ATOM      3  C8  ZIN A   1      18.956   3.551  15.607  0.00  0.00    -0.064 C 
ATOM      4  C9  ZIN A   1      18.495   3.959  16.788  0.00  0.00     0.053 C 
ATOM      5  C10 ZIN A   1      17.596   5.113  16.874  0.00  0.00     0.149 C 
ATOM      6  O11 ZIN A   1      16.891   5.298  17.845  0.00  0.00    -0.293 OA
ATOM      7  C12 ZIN A   1      17.588   6.065  15.696  0.00  0.00     0.084 C 
ATOM      8  C13 ZIN A   1      17.469   5.222  14.427  0.00  0.00     0.025 C 
ATOM      9  C14 ZIN A   1      18.611   4.232  14.311  0.00  0.00     0.014 C 
ATOM     10  C15 ZIN A   1      19.850   4.967  13.798  0.00  0.00     0.023 C 
ATOM     11  C16 ZIN A   1      18.247   3.146  13.288  0.00  0.00     0.103 A 
ATOM     12  O17 ZIN A   1      16.864   2.783  13.238  0.00  0.00    -0.368 OA
ATOM     13  C18 ZIN A   1      17.376   3.485  12.097  0.00  0.00     0.159 A 
ATOM     14  C20 ZIN A   1      17.447   2.654  10.806  0.00  0.00     0.047 C 
ATOM     15  C21 ZIN A   1      18.763   1.892  10.784  0.00  0.00    -0.006 C 
ATOM     16  C22 ZIN A   1      19.939   2.865  10.683  0.00  0.00     0.019 C 
ATOM     17  C23 ZIN A   1      18.844   1.054  12.095  0.00  0.00     0.005 C 
ATOM     18  C25 ZIN A   1      19.916   0.007  11.748  0.00  0.00     0.009 C 
ATOM     19  C26 ZIN A   1      19.606  -0.360  10.274  0.00  0.00     0.040 C 
ATOM     20  C27 ZIN A   1      18.849   0.841   9.683  0.00  0.00     0.079 C 
ATOM     21  C28 ZIN A   1      17.446   0.410   9.224  0.00  0.00     0.049 C 
ATOM     22  C29 ZIN A   1      17.684   0.137   7.719  0.00  0.00     0.114 C 
ATOM     23  C30 ZIN A   1      18.899   0.976   7.383  0.00  0.00     0.259 C 
ATOM     24  O31 ZIN A   1      19.252   1.266   6.265  0.00  0.00    -0.265 OA
ATOM     25  O32 ZIN A   1      19.524   1.351   8.508  0.00  0.00    -0.309 OA
ATOM     26  C33 ZIN A   1      19.281   2.013  13.191  0.00  0.00     0.043 C 
ENDROOT
BRANCH   1  27
ATOM     27  C3  ZIN A   1      18.021   0.826  14.965  0.00  0.00     0.263 C 
ATOM     28  O4  ZIN A   1      17.329   0.234  14.171  0.00  0.00    -0.265 OA
BRANCH  27  29
ATOM     29  O2  ZIN A   1      17.579   1.032  16.216  0.00  0.00    -0.326 OA
ATOM     30  C1  ZIN A   1      17.431  -0.137  17.064  0.00  0.00     0.213 C 
ENDBRANCH  27  29
ENDBRANCH   1  27
TORSDOF 2
ENDMDL
MODEL 9
REMARK VINA RESULT:      -7.3      3.371      5.376
REMARK  2 active torsions:
REMARK  status: ('A' for Active; 'I' for Inactive)
REMARK    1  A    between atoms: O2_2  and  C3_3 
REMARK    2  A    between atoms: C3_3  and  C5_5 
ROOT
ATOM      1  C5  ZIN A   1      19.562   2.690  15.554  0.00  0.00     0.097 C 
ATOM      2  C7  ZIN A   1      20.120   3.886  16.334  0.00  0.00     0.050 C 
ATOM      3  C8  ZIN A   1      19.216   5.088  16.143  0.00  0.00    -0.064 C 
ATOM      4  C9  ZIN A   1      18.805   5.739  17.230  0.00  0.00     0.053 C 
ATOM      5  C10 ZIN A   1      17.929   6.908  17.108  0.00  0.00     0.149 C 
ATOM      6  O11 ZIN A   1      17.264   7.304  18.043  0.00  0.00    -0.293 OA
ATOM      7  C12 ZIN A   1      17.892   7.599  15.761  0.00  0.00     0.084 C 
ATOM      8  C13 ZIN A   1      17.712   6.517  14.696  0.00  0.00     0.025 C 
ATOM      9  C14 ZIN A   1      18.833   5.497  14.748  0.00  0.00     0.014 C 
ATOM     10  C15 ZIN A   1      20.064   6.083  14.053  0.00  0.00     0.023 C 
ATOM     11  C16 ZIN A   1      18.414   4.234  13.981  0.00  0.00     0.103 A 
ATOM     12  O17 ZIN A   1      17.024   3.901  14.054  0.00  0.00    -0.368 OA
ATOM     13  C18 ZIN A   1      17.505   4.343  12.776  0.00  0.00     0.159 A 
ATOM     14  C20 ZIN A   1      17.513   3.265  11.681  0.00  0.00     0.047 C 
ATOM     15  C21 ZIN A   1      18.815   2.484  11.772  0.00  0.00    -0.006 C 
ATOM     16  C22 ZIN A   1      20.002   3.388  11.435  0.00  0.00     0.019 C 
ATOM     17  C23 ZIN A   1      18.931   1.930  13.224  0.00  0.00     0.005 C 
ATOM     18  C25 ZIN A   1      19.972   0.808  13.064  0.00  0.00     0.009 C 
ATOM     19  C26 ZIN A   1      19.601   0.155  11.707  0.00  0.00     0.040 C 
ATOM     20  C27 ZIN A   1      18.843   1.228  10.908  0.00  0.00     0.079 C 
ATOM     21  C28 ZIN A   1      17.416   0.745  10.594  0.00  0.00     0.049 C 
ATOM     22  C29 ZIN A   1      17.593   0.165   9.170  0.00  0.00     0.114 C 
ATOM     23  C30 ZIN A   1      18.808   0.889   8.629  0.00  0.00     0.259 C 
ATOM     24  O31 ZIN A   1      19.124   0.936   7.464  0.00  0.00    -0.265 OA
ATOM     25  O32 ZIN A   1      19.481   1.471   9.632  0.00  0.00    -0.309 OA
ATOM     26  C33 ZIN A   1      19.425   3.082  14.085  0.00  0.00     0.043 C 
ENDROOT
BRANCH   1  27
ATOM     27  C3  ZIN A   1      18.212   2.312  16.105  0.00  0.00     0.263 C 
ATOM     28  O4  ZIN A   1      17.779   2.875  17.083  0.00  0.00    -0.265 OA
BRANCH  27  29
ATOM     29  O2  ZIN A   1      17.488   1.351  15.509  0.00  0.00    -0.326 OA
ATOM     30  C1  ZIN A   1      17.521   0.031  16.113  0.00  0.00     0.213 C 
ENDBRANCH  27  29
ENDBRANCH   1  27
TORSDOF 2
ENDMDL
