MODEL 1
REMARK VINA RESULT:      -6.6      0.000      0.000
REMARK  10 active torsions:
REMARK  status: ('A' for Active; 'I' for Inactive)
REMARK    1  A    between atoms: C2_2  and  C3_3 
REMARK    2  A    between atoms: C3_3  and  C4_4 
REMARK    3  A    between atoms: C4_4  and  C5_5 
REMARK    4  A    between atoms: C5_5  and  C7_6 
REMARK    5  A    between atoms: C5_5  and  C9_8 
REMARK    6  A    between atoms: C9_8  and  O10_9 
REMARK    7  A    between atoms: O10_9  and  C11_10 
REMARK    8  A    between atoms: C11_10  and  C13_12 
REMARK    9  A    between atoms: C14_13  and  C15_14 
REMARK   10  A    between atoms: C18_17  and  O19_18 
ROOT
ATOM      1  C11 ZIN A   1      17.535   1.734  11.117  0.00  0.00     0.282 C 
ATOM      2  O12 ZIN A   1      17.342   2.934  11.044  0.00  0.00    -0.260 OA
ENDROOT
BRANCH   1   3
ATOM      3  O10 ZIN A   1      17.552   1.126  12.321  0.00  0.00    -0.318 OA
BRANCH   3   4
ATOM      4  C9  ZIN A   1      16.960  -0.171  12.402  0.00  0.00     0.183 C 
BRANCH   4   5
ATOM      5  C5  ZIN A   1      17.922  -1.128  13.109  0.00  0.00     0.010 C 
BRANCH   5   6
ATOM      6  C4  ZIN A   1      18.979  -0.322  13.865  0.00  0.00     0.007 C 
BRANCH   6   7
ATOM      7  C3  ZIN A   1      19.178  -0.922  15.258  0.00  0.00     0.000 C 
BRANCH   7   8
ATOM      8  C2  ZIN A   1      18.382  -0.110  16.282  0.00  0.00    -0.005 C 
ATOM      9  C1  ZIN A   1      17.173  -0.922  16.749  0.00  0.00     0.005 C 
ENDBRANCH   7   8
ENDBRANCH   6   7
ENDBRANCH   5   6
BRANCH   5  10
ATOM     10  C7  ZIN A   1      18.607  -2.020  12.071  0.00  0.00     0.002 C 
ATOM     11  C8  ZIN A   1      17.561  -2.563  11.095  0.00  0.00     0.005 C 
ENDBRANCH   5  10
ENDBRANCH   4   5
ENDBRANCH   3   4
ENDBRANCH   1   3
BRANCH   1  12
ATOM     12  C13 ZIN A   1      17.740   0.976   9.937  0.00  0.00     0.083 C 
ATOM     13  C14 ZIN A   1      18.702   1.338   9.059  0.00  0.00     0.017 C 
BRANCH  13  14
ATOM     14  C15 ZIN A   1      18.914   0.552   7.837  0.00  0.00    -0.036 A 
ATOM     15  C22 ZIN A   1      19.090  -0.835   7.914  0.00  0.00     0.014 A 
ATOM     16  C21 ZIN A   1      19.284  -1.567   6.765  0.00  0.00     0.037 A 
ATOM     17  C18 ZIN A   1      19.316  -0.931   5.530  0.00  0.00     0.068 A 
ATOM     18  C17 ZIN A   1      19.148   0.446   5.447  0.00  0.00     0.037 A 
ATOM     19  C16 ZIN A   1      18.948   1.187   6.590  0.00  0.00     0.014 A 
BRANCH  17  20
ATOM     20  O19 ZIN A   1      19.513  -1.658   4.400  0.00  0.00    -0.356 OA
ATOM     21  C20 ZIN A   1      18.890  -2.942   4.338  0.00  0.00     0.210 C 
ENDBRANCH  17  20
ENDBRANCH  13  14
ENDBRANCH   1  12
TORSDOF 10
ENDMDL
MODEL 2
REMARK VINA RESULT:      -6.6      0.821      2.495
REMARK  10 active torsions:
REMARK  status: ('A' for Active; 'I' for Inactive)
REMARK    1  A    between atoms: C2_2  and  C3_3 
REMARK    2  A    between atoms: C3_3  and  C4_4 
REMARK    3  A    between atoms: C4_4  and  C5_5 
REMARK    4  A    between atoms: C5_5  and  C7_6 
REMARK    5  A    between atoms: C5_5  and  C9_8 
REMARK    6  A    between atoms: C9_8  and  O10_9 
REMARK    7  A    between atoms: O10_9  and  C11_10 
REMARK    8  A    between atoms: C11_10  and  C13_12 
REMARK    9  A    between atoms: C14_13  and  C15_14 
REMARK   10  A    between atoms: C18_17  and  O19_18 
ROOT
ATOM      1  C11 ZIN A   1      17.907   1.860  11.143  0.00  0.00     0.282 C 
ATOM      2  O12 ZIN A   1      17.076   2.746  11.064  0.00  0.00    -0.260 OA
ENDROOT
BRANCH   1   3
ATOM      3  O10 ZIN A   1      18.598   1.683  12.288  0.00  0.00    -0.318 OA
BRANCH   3   4
ATOM      4  C9  ZIN A   1      18.009   0.838  13.278  0.00  0.00     0.183 C 
BRANCH   4   5
ATOM      5  C5  ZIN A   1      18.797  -0.471  13.366  0.00  0.00     0.010 C 
BRANCH   5   6
ATOM      6  C4  ZIN A   1      17.864  -1.647  13.076  0.00  0.00     0.007 C 
BRANCH   6   7
ATOM      7  C3  ZIN A   1      18.175  -2.214  11.689  0.00  0.00     0.000 C 
BRANCH   7   8
ATOM      8  C2  ZIN A   1      19.691  -2.260  11.485  0.00  0.00    -0.005 C 
ATOM      9  C1  ZIN A   1      20.175  -3.708  11.572  0.00  0.00     0.005 C 
ENDBRANCH   7   8
ENDBRANCH   6   7
ENDBRANCH   5   6
BRANCH   5  10
ATOM     10  C7  ZIN A   1      19.382  -0.619  14.772  0.00  0.00     0.002 C 
ATOM     11  C8  ZIN A   1      18.423  -1.438  15.639  0.00  0.00     0.005 C 
ENDBRANCH   5  10
ENDBRANCH   4   5
ENDBRANCH   3   4
ENDBRANCH   1   3
BRANCH   1  12
ATOM     12  C13 ZIN A   1      18.148   1.014  10.031  0.00  0.00     0.083 C 
ATOM     13  C14 ZIN A   1      18.612   1.534   8.874  0.00  0.00     0.017 C 
BRANCH  13  14
ATOM     14  C15 ZIN A   1      18.862   0.657   7.722  0.00  0.00    -0.036 A 
ATOM     15  C22 ZIN A   1      18.981  -0.726   7.905  0.00  0.00     0.014 A 
ATOM     16  C21 ZIN A   1      19.210  -1.544   6.822  0.00  0.00     0.037 A 
ATOM     17  C18 ZIN A   1      19.334  -0.999   5.550  0.00  0.00     0.068 A 
ATOM     18  C17 ZIN A   1      19.222   0.375   5.363  0.00  0.00     0.037 A 
ATOM     19  C16 ZIN A   1      18.987   1.201   6.438  0.00  0.00     0.014 A 
BRANCH  17  20
ATOM     20  O19 ZIN A   1      19.566  -1.809   4.486  0.00  0.00    -0.356 OA
ATOM     21  C20 ZIN A   1      18.732  -2.962   4.355  0.00  0.00     0.210 C 
ENDBRANCH  17  20
ENDBRANCH  13  14
ENDBRANCH   1  12
TORSDOF 10
ENDMDL
MODEL 3
REMARK VINA RESULT:      -6.6      1.610      3.426
REMARK  10 active torsions:
REMARK  status: ('A' for Active; 'I' for Inactive)
REMARK    1  A    between atoms: C2_2  and  C3_3 
REMARK    2  A    between atoms: C3_3  and  C4_4 
REMARK    3  A    between atoms: C4_4  and  C5_5 
REMARK    4  A    between atoms: C5_5  and  C7_6 
REMARK    5  A    between atoms: C5_5  and  C9_8 
REMARK    6  A    between atoms: C9_8  and  O10_9 
REMARK    7  A    between atoms: O10_9  and  C11_10 
REMARK    8  A    between atoms: C11_10  and  C13_12 
REMARK    9  A    between atoms: C14_13  and  C15_14 
REMARK   10  A    between atoms: C18_17  and  O19_18 
ROOT
ATOM      1  C11 ZIN A   1      19.219   2.149  12.924  0.00  0.00     0.282 C 
ATOM      2  O12 ZIN A   1      19.165   3.337  13.183  0.00  0.00    -0.260 OA
ENDROOT
BRANCH   1   3
ATOM      3  O10 ZIN A   1      19.257   1.243  13.921  0.00  0.00    -0.318 OA
BRANCH   3   4
ATOM      4  C9  ZIN A   1      20.003   0.047  13.683  0.00  0.00     0.183 C 
BRANCH   4   5
ATOM      5  C5  ZIN A   1      19.158  -1.167  14.075  0.00  0.00     0.010 C 
BRANCH   5   6
ATOM      6  C4  ZIN A   1      18.458  -1.723  12.834  0.00  0.00     0.007 C 
BRANCH   6   7
ATOM      7  C3  ZIN A   1      19.488  -1.947  11.725  0.00  0.00     0.000 C 
BRANCH   7   8
ATOM      8  C2  ZIN A   1      19.047  -3.122  10.849  0.00  0.00    -0.005 C 
ATOM      9  C1  ZIN A   1      19.883  -4.356  11.192  0.00  0.00     0.005 C 
ENDBRANCH   7   8
ENDBRANCH   6   7
ENDBRANCH   5   6
BRANCH   5  10
ATOM     10  C7  ZIN A   1      18.110  -0.747  15.107  0.00  0.00     0.002 C 
ATOM     11  C8  ZIN A   1      18.218  -1.648  16.339  0.00  0.00     0.005 C 
ENDBRANCH   5  10
ENDBRANCH   4   5
ENDBRANCH   3   4
ENDBRANCH   1   3
BRANCH   1  12
ATOM     12  C13 ZIN A   1      19.240   1.719  11.573  0.00  0.00     0.083 C 
ATOM     13  C14 ZIN A   1      18.081   1.532  10.904  0.00  0.00     0.017 C 
BRANCH  13  14
ATOM     14  C15 ZIN A   1      18.103   1.086   9.505  0.00  0.00    -0.036 A 
ATOM     15  C22 ZIN A   1      18.924   1.735   8.574  0.00  0.00     0.014 A 
ATOM     16  C21 ZIN A   1      18.945   1.311   7.265  0.00  0.00     0.037 A 
ATOM     17  C18 ZIN A   1      18.146   0.247   6.864  0.00  0.00     0.068 A 
ATOM     18  C17 ZIN A   1      17.325  -0.397   7.783  0.00  0.00     0.037 A 
ATOM     19  C16 ZIN A   1      17.300   0.016   9.095  0.00  0.00     0.014 A 
BRANCH  17  20
ATOM     20  O19 ZIN A   1      18.166  -0.164   5.570  0.00  0.00    -0.356 OA
ATOM     21  C20 ZIN A   1      19.413  -0.071   4.879  0.00  0.00     0.210 C 
ENDBRANCH  17  20
ENDBRANCH  13  14
ENDBRANCH   1  12
TORSDOF 10
ENDMDL
MODEL 4
REMARK VINA RESULT:      -6.4      2.528      8.174
REMARK  10 active torsions:
REMARK  status: ('A' for Active; 'I' for Inactive)
REMARK    1  A    between atoms: C2_2  and  C3_3 
REMARK    2  A    between atoms: C3_3  and  C4_4 
REMARK    3  A    between atoms: C4_4  and  C5_5 
REMARK    4  A    between atoms: C5_5  and  C7_6 
REMARK    5  A    between atoms: C5_5  and  C9_8 
REMARK    6  A    between atoms: C9_8  and  O10_9 
REMARK    7  A    between atoms: O10_9  and  C11_10 
REMARK    8  A    between atoms: C11_10  and  C13_12 
REMARK    9  A    between atoms: C14_13  and  C15_14 
REMARK   10  A    between atoms: C18_17  and  O19_18 
ROOT
ATOM      1  C11 ZIN A   1      19.190  -1.878  11.661  0.00  0.00     0.282 C 
ATOM      2  O12 ZIN A   1      19.353  -3.084  11.634  0.00  0.00    -0.260 OA
ENDROOT
BRANCH   1   3
ATOM      3  O10 ZIN A   1      18.794  -1.226  10.549  0.00  0.00    -0.318 OA
BRANCH   3   4
ATOM      4  C9  ZIN A   1      19.728  -0.319   9.960  0.00  0.00     0.183 C 
BRANCH   4   5
ATOM      5  C5  ZIN A   1      18.977   0.883   9.382  0.00  0.00     0.010 C 
BRANCH   5   6
ATOM      6  C4  ZIN A   1      17.635   1.038  10.098  0.00  0.00     0.007 C 
BRANCH   6   7
ATOM      7  C3  ZIN A   1      17.781   2.040  11.244  0.00  0.00     0.000 C 
BRANCH   7   8
ATOM      8  C2  ZIN A   1      18.653   3.213  10.788  0.00  0.00    -0.005 C 
ATOM      9  C1  ZIN A   1      17.762   4.327  10.236  0.00  0.00     0.005 C 
ENDBRANCH   7   8
ENDBRANCH   6   7
ENDBRANCH   5   6
BRANCH   5  10
ATOM     10  C7  ZIN A   1      18.735   0.661   7.887  0.00  0.00     0.002 C 
ATOM     11  C8  ZIN A   1      17.369   0.002   7.685  0.00  0.00     0.005 C 
ENDBRANCH   5  10
ENDBRANCH   4   5
ENDBRANCH   3   4
ENDBRANCH   1   3
BRANCH   1  12
ATOM     12  C13 ZIN A   1      19.417  -1.159  12.862  0.00  0.00     0.083 C 
ATOM     13  C14 ZIN A   1      18.571  -1.304  13.906  0.00  0.00     0.017 C 
BRANCH  13  14
ATOM     14  C15 ZIN A   1      18.806  -0.559  15.150  0.00  0.00    -0.036 A 
ATOM     15  C22 ZIN A   1      18.915   0.837  15.124  0.00  0.00     0.014 A 
ATOM     16  C21 ZIN A   1      19.131   1.530  16.293  0.00  0.00     0.037 A 
ATOM     17  C18 ZIN A   1      19.251   0.847  17.497  0.00  0.00     0.068 A 
ATOM     18  C17 ZIN A   1      19.149  -0.540  17.528  0.00  0.00     0.037 A 
ATOM     19  C16 ZIN A   1      18.928  -1.242  16.366  0.00  0.00     0.014 A 
BRANCH  17  20
ATOM     20  O19 ZIN A   1      19.469   1.535  18.647  0.00  0.00    -0.356 OA
ATOM     21  C20 ZIN A   1      19.003   2.885  18.693  0.00  0.00     0.210 C 
ENDBRANCH  17  20
ENDBRANCH  13  14
ENDBRANCH   1  12
TORSDOF 10
ENDMDL
MODEL 5
REMARK VINA RESULT:      -6.4      2.291      8.662
REMARK  10 active torsions:
REMARK  status: ('A' for Active; 'I' for Inactive)
REMARK    1  A    between atoms: C2_2  and  C3_3 
REMARK    2  A    between atoms: C3_3  and  C4_4 
REMARK    3  A    between atoms: C4_4  and  C5_5 
REMARK    4  A    between atoms: C5_5  and  C7_6 
REMARK    5  A    between atoms: C5_5  and  C9_8 
REMARK    6  A    between atoms: C9_8  and  O10_9 
REMARK    7  A    between atoms: O10_9  and  C11_10 
REMARK    8  A    between atoms: C11_10  and  C13_12 
REMARK    9  A    between atoms: C14_13  and  C15_14 
REMARK   10  A    between atoms: C18_17  and  O19_18 
ROOT
ATOM      1  C11 ZIN A   1      18.634  -1.416  11.551  0.00  0.00     0.282 C 
ATOM      2  O12 ZIN A   1      18.693  -2.631  11.544  0.00  0.00    -0.260 OA
ENDROOT
BRANCH   1   3
ATOM      3  O10 ZIN A   1      18.343  -0.748  10.416  0.00  0.00    -0.318 OA
BRANCH   3   4
ATOM      4  C9  ZIN A   1      17.478   0.384  10.531  0.00  0.00     0.183 C 
BRANCH   4   5
ATOM      5  C5  ZIN A   1      17.875   1.437   9.494  0.00  0.00     0.010 C 
BRANCH   5   6
ATOM      6  C4  ZIN A   1      19.159   0.999   8.788  0.00  0.00     0.007 C 
BRANCH   6   7
ATOM      7  C3  ZIN A   1      19.079   1.372   7.307  0.00  0.00     0.000 C 
BRANCH   7   8
ATOM      8  C2  ZIN A   1      18.688   0.138   6.491  0.00  0.00    -0.005 C 
ATOM      9  C1  ZIN A   1      19.303   0.234   5.094  0.00  0.00     0.005 C 
ENDBRANCH   7   8
ENDBRANCH   6   7
ENDBRANCH   5   6
BRANCH   5  10
ATOM     10  C7  ZIN A   1      18.109   2.778  10.194  0.00  0.00     0.002 C 
ATOM     11  C8  ZIN A   1      19.372   2.689  11.053  0.00  0.00     0.005 C 
ENDBRANCH   5  10
ENDBRANCH   4   5
ENDBRANCH   3   4
ENDBRANCH   1   3
BRANCH   1  12
ATOM     12  C13 ZIN A   1      18.870  -0.702  12.753  0.00  0.00     0.083 C 
ATOM     13  C14 ZIN A   1      18.563  -1.263  13.944  0.00  0.00     0.017 C 
BRANCH  13  14
ATOM     14  C15 ZIN A   1      18.808  -0.523  15.189  0.00  0.00    -0.036 A 
ATOM     15  C22 ZIN A   1      18.890   0.875  15.171  0.00  0.00     0.014 A 
ATOM     16  C21 ZIN A   1      19.115   1.563  16.342  0.00  0.00     0.037 A 
ATOM     17  C18 ZIN A   1      19.271   0.873  17.538  0.00  0.00     0.068 A 
ATOM     18  C17 ZIN A   1      19.195  -0.515  17.560  0.00  0.00     0.037 A 
ATOM     19  C16 ZIN A   1      18.966  -1.213  16.397  0.00  0.00     0.014 A 
BRANCH  17  20
ATOM     20  O19 ZIN A   1      19.498   1.557  18.689  0.00  0.00    -0.356 OA
ATOM     21  C20 ZIN A   1      19.039   2.909  18.741  0.00  0.00     0.210 C 
ENDBRANCH  17  20
ENDBRANCH  13  14
ENDBRANCH   1  12
TORSDOF 10
ENDMDL
MODEL 6
REMARK VINA RESULT:      -6.4      2.240      7.221
REMARK  10 active torsions:
REMARK  status: ('A' for Active; 'I' for Inactive)
REMARK    1  A    between atoms: C2_2  and  C3_3 
REMARK    2  A    between atoms: C3_3  and  C4_4 
REMARK    3  A    between atoms: C4_4  and  C5_5 
REMARK    4  A    between atoms: C5_5  and  C7_6 
REMARK    5  A    between atoms: C5_5  and  C9_8 
REMARK    6  A    between atoms: C9_8  and  O10_9 
REMARK    7  A    between atoms: O10_9  and  C11_10 
REMARK    8  A    between atoms: C11_10  and  C13_12 
REMARK    9  A    between atoms: C14_13  and  C15_14 
REMARK   10  A    between atoms: C18_17  and  O19_18 
ROOT
ATOM      1  C11 ZIN A   1      18.358  -2.352   9.076  0.00  0.00     0.282 C 
ATOM      2  O12 ZIN A   1      18.858  -3.451   8.920  0.00  0.00    -0.260 OA
ENDROOT
BRANCH   1   3
ATOM      3  O10 ZIN A   1      17.900  -1.662   8.012  0.00  0.00    -0.318 OA
BRANCH   3   4
ATOM      4  C9  ZIN A   1      17.757  -0.249   8.167  0.00  0.00     0.183 C 
BRANCH   4   5
ATOM      5  C5  ZIN A   1      18.985   0.455   7.586  0.00  0.00     0.010 C 
BRANCH   5   6
ATOM      6  C4  ZIN A   1      19.421   1.579   8.527  0.00  0.00     0.007 C 
BRANCH   6   7
ATOM      7  C3  ZIN A   1      18.326   1.828   9.566  0.00  0.00     0.000 C 
BRANCH   7   8
ATOM      8  C2  ZIN A   1      18.375   3.288  10.020  0.00  0.00    -0.005 C 
ATOM      9  C1  ZIN A   1      17.680   3.425  11.376  0.00  0.00     0.005 C 
ENDBRANCH   7   8
ENDBRANCH   6   7
ENDBRANCH   5   6
BRANCH   5  10
ATOM     10  C7  ZIN A   1      18.635   1.043   6.217  0.00  0.00     0.002 C 
ATOM     11  C8  ZIN A   1      19.216   0.154   5.117  0.00  0.00     0.005 C 
ENDBRANCH   5  10
ENDBRANCH   4   5
ENDBRANCH   3   4
ENDBRANCH   1   3
BRANCH   1  12
ATOM     12  C13 ZIN A   1      18.256  -1.799  10.378  0.00  0.00     0.083 C 
ATOM     13  C14 ZIN A   1      19.374  -1.558  11.099  0.00  0.00     0.017 C 
BRANCH  13  14
ATOM     14  C15 ZIN A   1      19.268  -0.985  12.447  0.00  0.00    -0.036 A 
ATOM     15  C22 ZIN A   1      19.687   0.330  12.686  0.00  0.00     0.014 A 
ATOM     16  C21 ZIN A   1      19.582   0.864  13.951  0.00  0.00     0.037 A 
ATOM     17  C18 ZIN A   1      19.071   0.097  14.991  0.00  0.00     0.068 A 
ATOM     18  C17 ZIN A   1      18.659  -1.211  14.761  0.00  0.00     0.037 A 
ATOM     19  C16 ZIN A   1      18.755  -1.752  13.499  0.00  0.00     0.014 A 
BRANCH  17  20
ATOM     20  O19 ZIN A   1      18.975   0.627  16.237  0.00  0.00    -0.356 OA
ATOM     21  C20 ZIN A   1      18.948  -0.291  17.332  0.00  0.00     0.210 C 
ENDBRANCH  17  20
ENDBRANCH  13  14
ENDBRANCH   1  12
TORSDOF 10
ENDMDL
MODEL 7
REMARK VINA RESULT:      -6.3      1.248      2.431
REMARK  10 active torsions:
REMARK  status: ('A' for Active; 'I' for Inactive)
REMARK    1  A    between atoms: C2_2  and  C3_3 
REMARK    2  A    between atoms: C3_3  and  C4_4 
REMARK    3  A    between atoms: C4_4  and  C5_5 
REMARK    4  A    between atoms: C5_5  and  C7_6 
REMARK    5  A    between atoms: C5_5  and  C9_8 
REMARK    6  A    between atoms: C9_8  and  O10_9 
REMARK    7  A    between atoms: O10_9  and  C11_10 
REMARK    8  A    between atoms: C11_10  and  C13_12 
REMARK    9  A    between atoms: C14_13  and  C15_14 
REMARK   10  A    between atoms: C18_17  and  O19_18 
ROOT
ATOM      1  C11 ZIN A   1      18.033   3.075  10.446  0.00  0.00     0.282 C 
ATOM      2  O12 ZIN A   1      18.107   4.290  10.482  0.00  0.00    -0.260 OA
ENDROOT
BRANCH   1   3
ATOM      3  O10 ZIN A   1      17.560   2.397  11.511  0.00  0.00    -0.318 OA
BRANCH   3   4
ATOM      4  C9  ZIN A   1      18.471   2.158  12.586  0.00  0.00     0.183 C 
BRANCH   4   5
ATOM      5  C5  ZIN A   1      19.044   0.744  12.465  0.00  0.00     0.010 C 
BRANCH   5   6
ATOM      6  C4  ZIN A   1      18.966   0.045  13.823  0.00  0.00     0.007 C 
BRANCH   6   7
ATOM      7  C3  ZIN A   1      17.919  -1.069  13.762  0.00  0.00     0.000 C 
BRANCH   7   8
ATOM      8  C2  ZIN A   1      17.615  -1.406  12.301  0.00  0.00    -0.005 C 
ATOM      9  C1  ZIN A   1      18.046  -2.845  12.009  0.00  0.00     0.005 C 
ENDBRANCH   7   8
ENDBRANCH   6   7
ENDBRANCH   5   6
BRANCH   5  10
ATOM     10  C7  ZIN A   1      20.505   0.824  12.016  0.00  0.00     0.002 C 
ATOM     11  C8  ZIN A   1      20.797  -0.310  11.030  0.00  0.00     0.005 C 
ENDBRANCH   5  10
ENDBRANCH   4   5
ENDBRANCH   3   4
ENDBRANCH   1   3
BRANCH   1  12
ATOM     12  C13 ZIN A   1      18.443   2.374   9.284  0.00  0.00     0.083 C 
ATOM     13  C14 ZIN A   1      18.057   1.093   9.096  0.00  0.00     0.017 C 
BRANCH  13  14
ATOM     14  C15 ZIN A   1      18.483   0.367   7.892  0.00  0.00    -0.036 A 
ATOM     15  C22 ZIN A   1      18.638   1.048   6.679  0.00  0.00     0.014 A 
ATOM     16  C21 ZIN A   1      19.041   0.364   5.554  0.00  0.00     0.037 A 
ATOM     17  C18 ZIN A   1      19.284  -1.003   5.619  0.00  0.00     0.068 A 
ATOM     18  C17 ZIN A   1      19.126  -1.685   6.820  0.00  0.00     0.037 A 
ATOM     19  C16 ZIN A   1      18.729  -1.010   7.951  0.00  0.00     0.014 A 
BRANCH  17  20
ATOM     20  O19 ZIN A   1      19.676  -1.674   4.506  0.00  0.00    -0.356 OA
ATOM     21  C20 ZIN A   1      19.004  -2.902   4.219  0.00  0.00     0.210 C 
ENDBRANCH  17  20
ENDBRANCH  13  14
ENDBRANCH   1  12
TORSDOF 10
ENDMDL
MODEL 8
REMARK VINA RESULT:      -6.2      2.640      6.004
REMARK  10 active torsions:
REMARK  status: ('A' for Active; 'I' for Inactive)
REMARK    1  A    between atoms: C2_2  and  C3_3 
REMARK    2  A    between atoms: C3_3  and  C4_4 
REMARK    3  A    between atoms: C4_4  and  C5_5 
REMARK    4  A    between atoms: C5_5  and  C7_6 
REMARK    5  A    between atoms: C5_5  and  C9_8 
REMARK    6  A    between atoms: C9_8  and  O10_9 
REMARK    7  A    between atoms: O10_9  and  C11_10 
REMARK    8  A    between atoms: C11_10  and  C13_12 
REMARK    9  A    between atoms: C14_13  and  C15_14 
REMARK   10  A    between atoms: C18_17  and  O19_18 
ROOT
ATOM      1  C11 ZIN A   1      19.026   0.445   8.436  0.00  0.00     0.282 C 
ATOM      2  O12 ZIN A   1      19.231   0.639   7.253  0.00  0.00    -0.260 OA
ENDROOT
BRANCH   1   3
ATOM      3  O10 ZIN A   1      19.325  -0.750   8.985  0.00  0.00    -0.318 OA
BRANCH   3   4
ATOM      4  C9  ZIN A   1      18.240  -1.654   9.204  0.00  0.00     0.183 C 
BRANCH   4   5
ATOM      5  C5  ZIN A   1      18.171  -2.020  10.687  0.00  0.00     0.010 C 
BRANCH   5   6
ATOM      6  C4  ZIN A   1      17.261  -1.030  11.415  0.00  0.00     0.007 C 
BRANCH   6   7
ATOM      7  C3  ZIN A   1      17.767  -0.828  12.845  0.00  0.00     0.000 C 
BRANCH   7   8
ATOM      8  C2  ZIN A   1      17.463   0.601  13.297  0.00  0.00    -0.005 C 
ATOM      9  C1  ZIN A   1      18.451   1.012  14.391  0.00  0.00     0.005 C 
ENDBRANCH   7   8
ENDBRANCH   6   7
ENDBRANCH   5   6
BRANCH   5  10
ATOM     10  C7  ZIN A   1      19.576  -1.961  11.292  0.00  0.00     0.002 C 
ATOM     11  C8  ZIN A   1      20.101  -3.384  11.500  0.00  0.00     0.005 C 
ENDBRANCH   5  10
ENDBRANCH   4   5
ENDBRANCH   3   4
ENDBRANCH   1   3
BRANCH   1  12
ATOM     12  C13 ZIN A   1      18.474   1.476   9.239  0.00  0.00     0.083 C 
ATOM     13  C14 ZIN A   1      19.249   2.117  10.142  0.00  0.00     0.017 C 
BRANCH  13  14
ATOM     14  C15 ZIN A   1      18.677   3.185  10.973  0.00  0.00    -0.036 A 
ATOM     15  C22 ZIN A   1      19.404   3.701  12.052  0.00  0.00     0.014 A 
ATOM     16  C21 ZIN A   1      18.865   4.705  12.825  0.00  0.00     0.037 A 
ATOM     17  C18 ZIN A   1      17.598   5.199  12.541  0.00  0.00     0.068 A 
ATOM     18  C17 ZIN A   1      16.869   4.687  11.474  0.00  0.00     0.037 A 
ATOM     19  C16 ZIN A   1      17.400   3.687  10.692  0.00  0.00     0.014 A 
BRANCH  17  20
ATOM     20  O19 ZIN A   1      17.069   6.185  13.310  0.00  0.00    -0.356 OA
ATOM     21  C20 ZIN A   1      15.905   5.860  14.072  0.00  0.00     0.210 C 
ENDBRANCH  17  20
ENDBRANCH  13  14
ENDBRANCH   1  12
TORSDOF 10
ENDMDL
MODEL 9
REMARK VINA RESULT:      -6.0      1.435      2.284
REMARK  10 active torsions:
REMARK  status: ('A' for Active; 'I' for Inactive)
REMARK    1  A    between atoms: C2_2  and  C3_3 
REMARK    2  A    between atoms: C3_3  and  C4_4 
REMARK    3  A    between atoms: C4_4  and  C5_5 
REMARK    4  A    between atoms: C5_5  and  C7_6 
REMARK    5  A    between atoms: C5_5  and  C9_8 
REMARK    6  A    between atoms: C9_8  and  O10_9 
REMARK    7  A    between atoms: O10_9  and  C11_10 
REMARK    8  A    between atoms: C11_10  and  C13_12 
REMARK    9  A    between atoms: C14_13  and  C15_14 
REMARK   10  A    between atoms: C18_17  and  O19_18 
ROOT
ATOM      1  C11 ZIN A   1      18.366   2.459  12.719  0.00  0.00     0.282 C 
ATOM      2  O12 ZIN A   1      18.483   3.669  12.762  0.00  0.00    -0.260 OA
ENDROOT
BRANCH   1   3
ATOM      3  O10 ZIN A   1      18.317   1.745  13.862  0.00  0.00    -0.318 OA
BRANCH   3   4
ATOM      4  C9  ZIN A   1      17.458   0.604  13.880  0.00  0.00     0.183 C 
BRANCH   4   5
ATOM      5  C5  ZIN A   1      18.101  -0.507  14.712  0.00  0.00     0.010 C 
BRANCH   5   6
ATOM      6  C4  ZIN A   1      18.639   0.081  16.018  0.00  0.00     0.007 C 
BRANCH   6   7
ATOM      7  C3  ZIN A   1      17.935  -0.582  17.204  0.00  0.00     0.000 C 
BRANCH   7   8
ATOM      8  C2  ZIN A   1      18.576  -0.107  18.509  0.00  0.00    -0.005 C 
ATOM      9  C1  ZIN A   1      19.243   1.252  18.286  0.00  0.00     0.005 C 
ENDBRANCH   7   8
ENDBRANCH   6   7
ENDBRANCH   5   6
BRANCH   5  10
ATOM     10  C7  ZIN A   1      19.253  -1.134  13.923  0.00  0.00     0.002 C 
ATOM     11  C8  ZIN A   1      18.691  -1.907  12.729  0.00  0.00     0.005 C 
ENDBRANCH   5  10
ENDBRANCH   4   5
ENDBRANCH   3   4
ENDBRANCH   1   3
BRANCH   1  12
ATOM     12  C13 ZIN A   1      18.279   1.799  11.467  0.00  0.00     0.083 C 
ATOM     13  C14 ZIN A   1      19.366   1.723  10.667  0.00  0.00     0.017 C 
BRANCH  13  14
ATOM     14  C15 ZIN A   1      19.276   1.040   9.370  0.00  0.00    -0.036 A 
ATOM     15  C22 ZIN A   1      19.047   1.777   8.201  0.00  0.00     0.014 A 
ATOM     16  C21 ZIN A   1      18.968   1.132   6.988  0.00  0.00     0.037 A 
ATOM     17  C18 ZIN A   1      19.105  -0.250   6.922  0.00  0.00     0.068 A 
ATOM     18  C17 ZIN A   1      19.327  -0.987   8.080  0.00  0.00     0.037 A 
ATOM     19  C16 ZIN A   1      19.413  -0.351   9.297  0.00  0.00     0.014 A 
BRANCH  17  20
ATOM     20  O19 ZIN A   1      19.021  -0.881   5.723  0.00  0.00    -0.356 OA
ATOM     21  C20 ZIN A   1      19.053  -0.061   4.554  0.00  0.00     0.210 C 
ENDBRANCH  17  20
ENDBRANCH  13  14
ENDBRANCH   1  12
TORSDOF 10
ENDMDL
