MODEL 1
REMARK VINA RESULT:      -8.2      0.000      0.000
REMARK  9 active torsions:
REMARK  status: ('A' for Active; 'I' for Inactive)
REMARK    1  A    between atoms: O2_2  and  C3_3 
REMARK    2  A    between atoms: C5_5  and  N6_6 
REMARK    3  A    between atoms: N6_6  and  C7_7 
REMARK    4  A    between atoms: C10_10  and  O11_11 
REMARK    5  A    between atoms: C13_13  and  O14_14 
REMARK    6  A    between atoms: O14_14  and  C15_15 
REMARK    7  A    between atoms: C15_15  and  C16_16 
REMARK    8  A    between atoms: C16_16  and  C17_17 
REMARK    9  A    between atoms: C17_17  and  N18_18 
ROOT
ATOM      1  C7  ZIN A   1      19.005   2.517  15.309  0.00  0.00     0.068 A 
ATOM      2  C8  ZIN A   1      18.546   2.328  13.985  0.00  0.00     0.024 A 
ATOM      3  C9  ZIN A   1      18.682   3.340  13.023  0.00  0.00     0.055 A 
ATOM      4  C10 ZIN A   1      18.232   3.131  11.751  0.00  0.00     0.102 A 
ATOM      5  C13 ZIN A   1      17.634   1.914  11.396  0.00  0.00     0.104 A 
ATOM      6  C26 ZIN A   1      17.490   0.905  12.322  0.00  0.00     0.072 A 
ATOM      7  C27 ZIN A   1      17.944   1.096  13.636  0.00  0.00     0.071 A 
ATOM      8  N28 ZIN A   1      17.813   0.125  14.551  0.00  0.00    -0.259 NA
ATOM      9  C29 ZIN A   1      18.227   0.272  15.784  0.00  0.00     0.142 A 
ATOM     10  C30 ZIN A   1      18.842   1.459  16.216  0.00  0.00     0.089 A 
ATOM     11  C31 ZIN A   1      19.285   1.592  17.571  0.00  0.00     0.103 C 
ATOM     12  N32 ZIN A   1      19.636   1.696  18.646  0.00  0.00    -0.191 NA
ENDROOT
BRANCH   1  13
ATOM     13  N6  ZIN A   1      19.598   3.703  15.696  0.00  0.00    -0.353 N 
ATOM     14  H42 ZIN A   1      20.561   3.753  15.796  0.00  0.00     0.166 HD
BRANCH  13  15
ATOM     15  C5  ZIN A   1      18.809   4.830  15.946  0.00  0.00     0.057 A 
ATOM     16  C4  ZIN A   1      17.659   4.716  16.714  0.00  0.00     0.069 A 
ATOM     17  C3  ZIN A   1      16.879   5.835  16.961  0.00  0.00     0.092 A 
ATOM     18  C36 ZIN A   1      17.247   7.066  16.435  0.00  0.00     0.069 A 
ATOM     19  C35 ZIN A   1      18.396   7.180  15.674  0.00  0.00     0.052 A 
ATOM     20 Cl37 ZIN A   1      16.269   8.468  16.742  0.00  0.00    -0.081 Cl
ATOM     21  C33 ZIN A   1      19.177   6.066  15.426  0.00  0.00     0.062 A 
ATOM     22 Cl34 ZIN A   1      20.615   6.211  14.466  0.00  0.00    -0.082 Cl
BRANCH  17  23
ATOM     23  O2  ZIN A   1      15.750   5.725  17.712  0.00  0.00    -0.354 OA
ATOM     24  C1  ZIN A   1      15.896   5.180  19.024  0.00  0.00     0.210 C 
ENDBRANCH  17  23
ENDBRANCH  13  15
ENDBRANCH   1  13
BRANCH   4  25
ATOM     25  O11 ZIN A   1      18.364   4.113  10.820  0.00  0.00    -0.353 OA
ATOM     26  C12 ZIN A   1      17.293   5.053  10.711  0.00  0.00     0.210 C 
ENDBRANCH   4  25
BRANCH   5  27
ATOM     27  O14 ZIN A   1      17.193   1.726  10.125  0.00  0.00    -0.348 OA
BRANCH  27  28
ATOM     28  C15 ZIN A   1      17.694   0.586   9.425  0.00  0.00     0.177 C 
BRANCH  28  29
ATOM     29  C16 ZIN A   1      19.170   0.805   9.085  0.00  0.00     0.057 C 
BRANCH  29  30
ATOM     30  C17 ZIN A   1      19.933  -0.510   9.255  0.00  0.00     0.274 C 
BRANCH  30  31
ATOM     31  N18 ZIN A   1      19.088  -1.478   9.969  0.00  0.00     0.091 N 
ATOM     32  C25 ZIN A   1      18.860  -2.680   9.154  0.00  0.00     0.300 C 
ATOM     33  C24 ZIN A   1      17.931  -3.633   9.907  0.00  0.00     0.264 C 
ATOM     34  N21 ZIN A   1      18.540  -4.000  11.192  0.00  0.00    -0.072 N 
ATOM     35  C20 ZIN A   1      18.738  -2.792  12.003  0.00  0.00     0.264 C 
ATOM     36  H22 ZIN A   1      19.431  -4.444  11.026  0.00  0.00     0.279 HD
ATOM     37  C23 ZIN A   1      17.655  -4.930  11.906  0.00  0.00     0.269 C 
ATOM     38  C19 ZIN A   1      19.675  -1.831  11.269  0.00  0.00     0.300 C 
ENDBRANCH  30  31
ENDBRANCH  29  30
ENDBRANCH  28  29
ENDBRANCH  27  28
ENDBRANCH   5  27
TORSDOF 9
ENDMDL
MODEL 2
REMARK VINA RESULT:      -8.2      3.181      4.738
REMARK  9 active torsions:
REMARK  status: ('A' for Active; 'I' for Inactive)
REMARK    1  A    between atoms: O2_2  and  C3_3 
REMARK    2  A    between atoms: C5_5  and  N6_6 
REMARK    3  A    between atoms: N6_6  and  C7_7 
REMARK    4  A    between atoms: C10_10  and  O11_11 
REMARK    5  A    between atoms: C13_13  and  O14_14 
REMARK    6  A    between atoms: O14_14  and  C15_15 
REMARK    7  A    between atoms: C15_15  and  C16_16 
REMARK    8  A    between atoms: C16_16  and  C17_17 
REMARK    9  A    between atoms: C17_17  and  N18_18 
ROOT
ATOM      1  C7  ZIN A   1      18.692   3.445  12.814  0.00  0.00     0.068 A 
ATOM      2  C8  ZIN A   1      18.707   2.501  11.762  0.00  0.00     0.024 A 
ATOM      3  C9  ZIN A   1      19.615   1.431  11.764  0.00  0.00     0.055 A 
ATOM      4  C10 ZIN A   1      19.607   0.533  10.737  0.00  0.00     0.102 A 
ATOM      5  C13 ZIN A   1      18.700   0.669   9.676  0.00  0.00     0.104 A 
ATOM      6  C26 ZIN A   1      17.799   1.710   9.651  0.00  0.00     0.072 A 
ATOM      7  C27 ZIN A   1      17.788   2.645  10.696  0.00  0.00     0.071 A 
ATOM      8  N28 ZIN A   1      16.917   3.665  10.689  0.00  0.00    -0.259 NA
ATOM      9  C29 ZIN A   1      16.881   4.555  11.649  0.00  0.00     0.142 A 
ATOM     10  C30 ZIN A   1      17.753   4.485  12.748  0.00  0.00     0.089 A 
ATOM     11  C31 ZIN A   1      17.690   5.472  13.784  0.00  0.00     0.103 C 
ATOM     12  N32 ZIN A   1      17.640   6.255  14.605  0.00  0.00    -0.191 NA
ENDROOT
BRANCH   1  13
ATOM     13  N6  ZIN A   1      19.571   3.345  13.876  0.00  0.00    -0.353 N 
ATOM     14  H42 ZIN A   1      20.475   3.683  13.790  0.00  0.00     0.166 HD
BRANCH  13  15
ATOM     15  C5  ZIN A   1      19.156   2.753  15.073  0.00  0.00     0.057 A 
ATOM     16  C4  ZIN A   1      18.467   1.548  15.050  0.00  0.00     0.069 A 
ATOM     17  C3  ZIN A   1      18.058   0.964  16.239  0.00  0.00     0.092 A 
ATOM     18  C36 ZIN A   1      18.332   1.587  17.449  0.00  0.00     0.069 A 
ATOM     19  C35 ZIN A   1      19.022   2.785  17.471  0.00  0.00     0.052 A 
ATOM     20 Cl37 ZIN A   1      17.817   0.856  18.937  0.00  0.00    -0.081 Cl
ATOM     21  C33 ZIN A   1      19.433   3.371  16.288  0.00  0.00     0.062 A 
ATOM     22 Cl34 ZIN A   1      20.294   4.877  16.318  0.00  0.00    -0.082 Cl
BRANCH  17  23
ATOM     23  O2  ZIN A   1      17.382  -0.216  16.218  0.00  0.00    -0.354 OA
ATOM     24  C1  ZIN A   1      18.145  -1.396  15.964  0.00  0.00     0.210 C 
ENDBRANCH  17  23
ENDBRANCH  13  15
ENDBRANCH   1  13
BRANCH   4  25
ATOM     25  O11 ZIN A   1      20.488  -0.503  10.741  0.00  0.00    -0.353 OA
ATOM     26  C12 ZIN A   1      20.045  -1.729  11.326  0.00  0.00     0.210 C 
ENDBRANCH   4  25
BRANCH   5  27
ATOM     27  O14 ZIN A   1      18.709  -0.236   8.663  0.00  0.00    -0.348 OA
BRANCH  27  28
ATOM     28  C15 ZIN A   1      17.608  -0.204   7.754  0.00  0.00     0.177 C 
BRANCH  28  29
ATOM     29  C16 ZIN A   1      18.107   0.186   6.361  0.00  0.00     0.057 C 
BRANCH  29  30
ATOM     30  C17 ZIN A   1      19.180  -0.807   5.908  0.00  0.00     0.274 C 
BRANCH  30  31
ATOM     31  N18 ZIN A   1      18.629  -2.169   5.933  0.00  0.00     0.091 N 
ATOM     32  C25 ZIN A   1      18.273  -2.619   4.580  0.00  0.00     0.300 C 
ATOM     33  C24 ZIN A   1      17.650  -4.014   4.657  0.00  0.00     0.264 C 
ATOM     34  N21 ZIN A   1      18.608  -4.945   5.266  0.00  0.00    -0.072 N 
ATOM     35  C20 ZIN A   1      18.934  -4.496   6.626  0.00  0.00     0.264 C 
ATOM     36  H22 ZIN A   1      19.449  -4.973   4.710  0.00  0.00     0.279 HD
ATOM     37  C23 ZIN A   1      18.015  -6.289   5.323  0.00  0.00     0.269 C 
ATOM     38  C19 ZIN A   1      19.568  -3.105   6.565  0.00  0.00     0.300 C 
ENDBRANCH  30  31
ENDBRANCH  29  30
ENDBRANCH  28  29
ENDBRANCH  27  28
ENDBRANCH   5  27
TORSDOF 9
ENDMDL
MODEL 3
REMARK VINA RESULT:      -8.1      2.076      2.729
REMARK  9 active torsions:
REMARK  status: ('A' for Active; 'I' for Inactive)
REMARK    1  A    between atoms: O2_2  and  C3_3 
REMARK    2  A    between atoms: C5_5  and  N6_6 
REMARK    3  A    between atoms: N6_6  and  C7_7 
REMARK    4  A    between atoms: C10_10  and  O11_11 
REMARK    5  A    between atoms: C13_13  and  O14_14 
REMARK    6  A    between atoms: O14_14  and  C15_15 
REMARK    7  A    between atoms: C15_15  and  C16_16 
REMARK    8  A    between atoms: C16_16  and  C17_17 
REMARK    9  A    between atoms: C17_17  and  N18_18 
ROOT
ATOM      1  C7  ZIN A   1      18.860   2.145  15.314  0.00  0.00     0.068 A 
ATOM      2  C8  ZIN A   1      18.318   1.717  14.081  0.00  0.00     0.024 A 
ATOM      3  C9  ZIN A   1      18.396   2.525  12.938  0.00  0.00     0.055 A 
ATOM      4  C10 ZIN A   1      17.865   2.087  11.759  0.00  0.00     0.102 A 
ATOM      5  C13 ZIN A   1      17.242   0.834  11.679  0.00  0.00     0.104 A 
ATOM      6  C26 ZIN A   1      17.153   0.021  12.787  0.00  0.00     0.072 A 
ATOM      7  C27 ZIN A   1      17.690   0.450  14.009  0.00  0.00     0.071 A 
ATOM      8  N28 ZIN A   1      17.614  -0.328  15.099  0.00  0.00    -0.259 NA
ATOM      9  C29 ZIN A   1      18.106   0.043  16.254  0.00  0.00     0.142 A 
ATOM     10  C30 ZIN A   1      18.751   1.280  16.414  0.00  0.00     0.089 A 
ATOM     11  C31 ZIN A   1      19.280   1.660  17.689  0.00  0.00     0.103 C 
ATOM     12  N32 ZIN A   1      19.699   1.960  18.701  0.00  0.00    -0.191 NA
ENDROOT
BRANCH   1  13
ATOM     13  N6  ZIN A   1      19.481   3.373  15.432  0.00  0.00    -0.353 N 
ATOM     14  H42 ZIN A   1      20.449   3.428  15.443  0.00  0.00     0.166 HD
BRANCH  13  15
ATOM     15  C5  ZIN A   1      18.714   4.538  15.538  0.00  0.00     0.057 A 
ATOM     16  C4  ZIN A   1      17.772   4.658  16.551  0.00  0.00     0.069 A 
ATOM     17  C3  ZIN A   1      17.013   5.813  16.654  0.00  0.00     0.092 A 
ATOM     18  C36 ZIN A   1      17.192   6.844  15.741  0.00  0.00     0.069 A 
ATOM     19  C35 ZIN A   1      18.133   6.725  14.736  0.00  0.00     0.052 A 
ATOM     20 Cl37 ZIN A   1      16.239   8.291  15.870  0.00  0.00    -0.081 Cl
ATOM     21  C33 ZIN A   1      18.893   5.575  14.630  0.00  0.00     0.062 A 
ATOM     22 Cl34 ZIN A   1      20.070   5.426  13.363  0.00  0.00    -0.082 Cl
BRANCH  17  23
ATOM     23  O2  ZIN A   1      16.089   5.933  17.645  0.00  0.00    -0.354 OA
ATOM     24  C1  ZIN A   1      16.200   5.031  18.747  0.00  0.00     0.210 C 
ENDBRANCH  17  23
ENDBRANCH  13  15
ENDBRANCH   1  13
BRANCH   4  25
ATOM     25  O11 ZIN A   1      17.942   2.873  10.652  0.00  0.00    -0.353 OA
ATOM     26  C12 ZIN A   1      17.394   4.189  10.751  0.00  0.00     0.210 C 
ENDBRANCH   4  25
BRANCH   5  27
ATOM     27  O14 ZIN A   1      16.720   0.417  10.496  0.00  0.00    -0.348 OA
BRANCH  27  28
ATOM     28  C15 ZIN A   1      17.535  -0.437   9.692  0.00  0.00     0.177 C 
BRANCH  28  29
ATOM     29  C16 ZIN A   1      17.670   0.160   8.289  0.00  0.00     0.057 C 
BRANCH  29  30
ATOM     30  C17 ZIN A   1      19.041  -0.197   7.712  0.00  0.00     0.274 C 
BRANCH  30  31
ATOM     31  N18 ZIN A   1      18.866  -1.034   6.517  0.00  0.00     0.091 N 
ATOM     32  C25 ZIN A   1      18.852  -2.461   6.870  0.00  0.00     0.300 C 
ATOM     33  C24 ZIN A   1      18.728  -3.297   5.595  0.00  0.00     0.264 C 
ATOM     34  N21 ZIN A   1      17.491  -2.936   4.890  0.00  0.00    -0.072 N 
ATOM     35  C20 ZIN A   1      17.533  -1.515   4.522  0.00  0.00     0.264 C 
ATOM     36  H22 ZIN A   1      16.700  -3.105   5.492  0.00  0.00     0.279 HD
ATOM     37  C23 ZIN A   1      17.365  -3.753   3.675  0.00  0.00     0.269 C 
ATOM     38  C19 ZIN A   1      17.646  -0.663   5.788  0.00  0.00     0.300 C 
ENDBRANCH  30  31
ENDBRANCH  29  30
ENDBRANCH  28  29
ENDBRANCH  27  28
ENDBRANCH   5  27
TORSDOF 9
ENDMDL
MODEL 4
REMARK VINA RESULT:      -8.0      4.869     10.692
REMARK  9 active torsions:
REMARK  status: ('A' for Active; 'I' for Inactive)
REMARK    1  A    between atoms: O2_2  and  C3_3 
REMARK    2  A    between atoms: C5_5  and  N6_6 
REMARK    3  A    between atoms: N6_6  and  C7_7 
REMARK    4  A    between atoms: C10_10  and  O11_11 
REMARK    5  A    between atoms: C13_13  and  O14_14 
REMARK    6  A    between atoms: O14_14  and  C15_15 
REMARK    7  A    between atoms: C15_15  and  C16_16 
REMARK    8  A    between atoms: C16_16  and  C17_17 
REMARK    9  A    between atoms: C17_17  and  N18_18 
ROOT
ATOM      1  C7  ZIN A   1      19.082  -2.054   7.690  0.00  0.00     0.068 A 
ATOM      2  C8  ZIN A   1      18.624  -1.857   9.012  0.00  0.00     0.024 A 
ATOM      3  C9  ZIN A   1      18.753  -2.864   9.979  0.00  0.00     0.055 A 
ATOM      4  C10 ZIN A   1      18.303  -2.647  11.250  0.00  0.00     0.102 A 
ATOM      5  C13 ZIN A   1      17.712  -1.425  11.599  0.00  0.00     0.104 A 
ATOM      6  C26 ZIN A   1      17.575  -0.419  10.668  0.00  0.00     0.072 A 
ATOM      7  C27 ZIN A   1      18.029  -0.620   9.356  0.00  0.00     0.071 A 
ATOM      8  N28 ZIN A   1      17.904   0.348   8.436  0.00  0.00    -0.259 NA
ATOM      9  C29 ZIN A   1      18.318   0.193   7.203  0.00  0.00     0.142 A 
ATOM     10  C30 ZIN A   1      18.926  -1.000   6.778  0.00  0.00     0.089 A 
ATOM     11  C31 ZIN A   1      19.369  -1.141   5.424  0.00  0.00     0.103 C 
ATOM     12  N32 ZIN A   1      19.721  -1.253   4.349  0.00  0.00    -0.191 NA
ENDROOT
BRANCH   1  13
ATOM     13  N6  ZIN A   1      19.669  -3.245   7.308  0.00  0.00    -0.353 N 
ATOM     14  H42 ZIN A   1      20.634  -3.320   7.269  0.00  0.00     0.166 HD
BRANCH  13  15
ATOM     15  C5  ZIN A   1      18.869  -4.344   6.977  0.00  0.00     0.057 A 
ATOM     16  C4  ZIN A   1      17.874  -4.215   6.018  0.00  0.00     0.069 A 
ATOM     17  C3  ZIN A   1      17.083  -5.305   5.691  0.00  0.00     0.092 A 
ATOM     18  C36 ZIN A   1      17.283  -6.522   6.329  0.00  0.00     0.069 A 
ATOM     19  C35 ZIN A   1      18.278  -6.652   7.281  0.00  0.00     0.052 A 
ATOM     20 Cl37 ZIN A   1      16.291  -7.888   5.921  0.00  0.00    -0.081 Cl
ATOM     21  C33 ZIN A   1      19.070  -5.566   7.609  0.00  0.00     0.062 A 
ATOM     22 Cl34 ZIN A   1      20.312  -5.730   8.809  0.00  0.00    -0.082 Cl
BRANCH  17  23
ATOM     23  O2  ZIN A   1      16.108  -5.180   4.752  0.00  0.00    -0.354 OA
ATOM     24  C1  ZIN A   1      16.326  -4.225   3.713  0.00  0.00     0.210 C 
ENDBRANCH  17  23
ENDBRANCH  13  15
ENDBRANCH   1  13
BRANCH   4  25
ATOM     25  O11 ZIN A   1      18.429  -3.626  12.186  0.00  0.00    -0.353 OA
ATOM     26  C12 ZIN A   1      17.914  -4.916  11.849  0.00  0.00     0.210 C 
ENDBRANCH   4  25
BRANCH   5  27
ATOM     27  O14 ZIN A   1      17.271  -1.229  12.868  0.00  0.00    -0.348 OA
BRANCH  27  28
ATOM     28  C15 ZIN A   1      18.240  -0.823  13.837  0.00  0.00     0.177 C 
BRANCH  28  29
ATOM     29  C16 ZIN A   1      17.733   0.417  14.577  0.00  0.00     0.057 C 
BRANCH  29  30
ATOM     30  C17 ZIN A   1      18.659   1.599  14.286  0.00  0.00     0.274 C 
BRANCH  30  31
ATOM     31  N18 ZIN A   1      18.146   2.352  13.133  0.00  0.00     0.091 N 
ATOM     32  C25 ZIN A   1      17.687   3.688  13.538  0.00  0.00     0.300 C 
ATOM     33  C24 ZIN A   1      17.107   4.415  12.323  0.00  0.00     0.264 C 
ATOM     34  N21 ZIN A   1      18.136   4.526  11.281  0.00  0.00    -0.072 N 
ATOM     35  C20 ZIN A   1      18.566   3.183  10.870  0.00  0.00     0.264 C 
ATOM     36  H22 ZIN A   1      18.928   5.036  11.644  0.00  0.00     0.279 HD
ATOM     37  C23 ZIN A   1      17.583   5.240  10.122  0.00  0.00     0.269 C 
ATOM     38  C19 ZIN A   1      19.159   2.446  12.073  0.00  0.00     0.300 C 
ENDBRANCH  30  31
ENDBRANCH  29  30
ENDBRANCH  28  29
ENDBRANCH  27  28
ENDBRANCH   5  27
TORSDOF 9
ENDMDL
MODEL 5
REMARK VINA RESULT:      -8.0      4.280      9.780
REMARK  9 active torsions:
REMARK  status: ('A' for Active; 'I' for Inactive)
REMARK    1  A    between atoms: O2_2  and  C3_3 
REMARK    2  A    between atoms: C5_5  and  N6_6 
REMARK    3  A    between atoms: N6_6  and  C7_7 
REMARK    4  A    between atoms: C10_10  and  O11_11 
REMARK    5  A    between atoms: C13_13  and  O14_14 
REMARK    6  A    between atoms: O14_14  and  C15_15 
REMARK    7  A    between atoms: C15_15  and  C16_16 
REMARK    8  A    between atoms: C16_16  and  C17_17 
REMARK    9  A    between atoms: C17_17  and  N18_18 
ROOT
ATOM      1  C7  ZIN A   1      18.201  -0.641   7.407  0.00  0.00     0.068 A 
ATOM      2  C8  ZIN A   1      17.996   0.193   8.529  0.00  0.00     0.024 A 
ATOM      3  C9  ZIN A   1      17.214  -0.232   9.612  0.00  0.00     0.055 A 
ATOM      4  C10 ZIN A   1      17.033   0.592  10.685  0.00  0.00     0.102 A 
ATOM      5  C13 ZIN A   1      17.623   1.863  10.715  0.00  0.00     0.104 A 
ATOM      6  C26 ZIN A   1      18.396   2.305   9.665  0.00  0.00     0.072 A 
ATOM      7  C27 ZIN A   1      18.596   1.475   8.551  0.00  0.00     0.071 A 
ATOM      8  N28 ZIN A   1      19.346   1.888   7.519  0.00  0.00    -0.259 NA
ATOM      9  C29 ZIN A   1      19.552   1.137   6.466  0.00  0.00     0.142 A 
ATOM     10  C30 ZIN A   1      19.001  -0.151   6.363  0.00  0.00     0.089 A 
ATOM     11  C31 ZIN A   1      19.243  -0.949   5.200  0.00  0.00     0.103 C 
ATOM     12  N32 ZIN A   1      19.436  -1.582   4.276  0.00  0.00    -0.191 NA
ENDROOT
BRANCH   1  13
ATOM     13  N6  ZIN A   1      17.636  -1.899   7.340  0.00  0.00    -0.353 N 
ATOM     14  H42 ZIN A   1      16.745  -2.012   6.976  0.00  0.00     0.166 HD
BRANCH  13  15
ATOM     15  C5  ZIN A   1      18.349  -3.012   7.799  0.00  0.00     0.057 A 
ATOM     16  C4  ZIN A   1      18.897  -3.006   9.075  0.00  0.00     0.069 A 
ATOM     17  C3  ZIN A   1      19.603  -4.110   9.528  0.00  0.00     0.092 A 
ATOM     18  C36 ZIN A   1      19.766  -5.215   8.703  0.00  0.00     0.069 A 
ATOM     19  C35 ZIN A   1      19.215  -5.222   7.435  0.00  0.00     0.052 A 
ATOM     20 Cl37 ZIN A   1      20.652  -6.597   9.270  0.00  0.00    -0.081 Cl
ATOM     21  C33 ZIN A   1      18.509  -4.123   6.980  0.00  0.00     0.062 A 
ATOM     22 Cl34 ZIN A   1      17.824  -4.131   5.385  0.00  0.00    -0.082 Cl
BRANCH  17  23
ATOM     23  O2  ZIN A   1      20.143  -4.106  10.776  0.00  0.00    -0.354 OA
ATOM     24  C1  ZIN A   1      19.429  -3.394  11.788  0.00  0.00     0.210 C 
ENDBRANCH  17  23
ENDBRANCH  13  15
ENDBRANCH   1  13
BRANCH   4  25
ATOM     25  O11 ZIN A   1      16.273   0.177  11.734  0.00  0.00    -0.353 OA
ATOM     26  C12 ZIN A   1      16.953  -0.472  12.810  0.00  0.00     0.210 C 
ENDBRANCH   4  25
BRANCH   5  27
ATOM     27  O14 ZIN A   1      17.431   2.669  11.792  0.00  0.00    -0.348 OA
BRANCH  27  28
ATOM     28  C15 ZIN A   1      17.235   4.061  11.535  0.00  0.00     0.177 C 
BRANCH  28  29
ATOM     29  C16 ZIN A   1      17.818   4.879  12.689  0.00  0.00     0.057 C 
BRANCH  29  30
ATOM     30  C17 ZIN A   1      19.121   4.234  13.164  0.00  0.00     0.274 C 
BRANCH  30  31
ATOM     31  N18 ZIN A   1      19.114   4.138  14.631  0.00  0.00     0.091 N 
ATOM     32  C25 ZIN A   1      18.091   5.020  15.211  0.00  0.00     0.300 C 
ATOM     33  C24 ZIN A   1      18.156   4.936  16.737  0.00  0.00     0.264 C 
ATOM     34  N21 ZIN A   1      17.929   3.548  17.161  0.00  0.00    -0.072 N 
ATOM     35  C20 ZIN A   1      18.973   2.685  16.594  0.00  0.00     0.264 C 
ATOM     36  H22 ZIN A   1      17.025   3.241  16.836  0.00  0.00     0.279 HD
ATOM     37  C23 ZIN A   1      17.974   3.472  18.628  0.00  0.00     0.269 C 
ATOM     38  C19 ZIN A   1      18.915   2.750  15.067  0.00  0.00     0.300 C 
ENDBRANCH  30  31
ENDBRANCH  29  30
ENDBRANCH  28  29
ENDBRANCH  27  28
ENDBRANCH   5  27
TORSDOF 9
ENDMDL
MODEL 6
REMARK VINA RESULT:      -8.0      4.842     10.860
REMARK  9 active torsions:
REMARK  status: ('A' for Active; 'I' for Inactive)
REMARK    1  A    between atoms: O2_2  and  C3_3 
REMARK    2  A    between atoms: C5_5  and  N6_6 
REMARK    3  A    between atoms: N6_6  and  C7_7 
REMARK    4  A    between atoms: C10_10  and  O11_11 
REMARK    5  A    between atoms: C13_13  and  O14_14 
REMARK    6  A    between atoms: O14_14  and  C15_15 
REMARK    7  A    between atoms: C15_15  and  C16_16 
REMARK    8  A    between atoms: C16_16  and  C17_17 
REMARK    9  A    between atoms: C17_17  and  N18_18 
ROOT
ATOM      1  C7  ZIN A   1      19.087  -1.970   7.666  0.00  0.00     0.068 A 
ATOM      2  C8  ZIN A   1      18.615  -1.781   8.985  0.00  0.00     0.024 A 
ATOM      3  C9  ZIN A   1      18.783  -2.774   9.961  0.00  0.00     0.055 A 
ATOM      4  C10 ZIN A   1      18.320  -2.567  11.228  0.00  0.00     0.102 A 
ATOM      5  C13 ZIN A   1      17.675  -1.368  11.565  0.00  0.00     0.104 A 
ATOM      6  C26 ZIN A   1      17.498  -0.377  10.625  0.00  0.00     0.072 A 
ATOM      7  C27 ZIN A   1      17.966  -0.568   9.316  0.00  0.00     0.071 A 
ATOM      8  N28 ZIN A   1      17.803   0.386   8.388  0.00  0.00    -0.259 NA
ATOM      9  C29 ZIN A   1      18.228   0.238   7.158  0.00  0.00     0.142 A 
ATOM     10  C30 ZIN A   1      18.888  -0.930   6.745  0.00  0.00     0.089 A 
ATOM     11  C31 ZIN A   1      19.343  -1.063   5.393  0.00  0.00     0.103 C 
ATOM     12  N32 ZIN A   1      19.703  -1.169   4.321  0.00  0.00    -0.191 NA
ENDROOT
BRANCH   1  13
ATOM     13  N6  ZIN A   1      19.726  -3.137   7.297  0.00  0.00    -0.353 N 
ATOM     14  H42 ZIN A   1      20.693  -3.193   7.330  0.00  0.00     0.166 HD
BRANCH  13  15
ATOM     15  C5  ZIN A   1      18.977  -4.240   6.872  0.00  0.00     0.057 A 
ATOM     16  C4  ZIN A   1      18.109  -4.116   5.796  0.00  0.00     0.069 A 
ATOM     17  C3  ZIN A   1      17.368  -5.210   5.377  0.00  0.00     0.092 A 
ATOM     18  C36 ZIN A   1      17.492  -6.426   6.037  0.00  0.00     0.069 A 
ATOM     19  C35 ZIN A   1      18.360  -6.549   7.106  0.00  0.00     0.052 A 
ATOM     20 Cl37 ZIN A   1      16.563  -7.795   5.513  0.00  0.00    -0.081 Cl
ATOM     21  C33 ZIN A   1      19.102  -5.460   7.527  0.00  0.00     0.062 A 
ATOM     22 Cl34 ZIN A   1      20.186  -5.616   8.872  0.00  0.00    -0.082 Cl
BRANCH  17  23
ATOM     23  O2  ZIN A   1      16.516  -5.091   4.324  0.00  0.00    -0.354 OA
ATOM     24  C1  ZIN A   1      16.428  -3.808   3.703  0.00  0.00     0.210 C 
ENDBRANCH  17  23
ENDBRANCH  13  15
ENDBRANCH   1  13
BRANCH   4  25
ATOM     25  O11 ZIN A   1      18.484  -3.531  12.173  0.00  0.00    -0.353 OA
ATOM     26  C12 ZIN A   1      17.777  -4.758  11.977  0.00  0.00     0.210 C 
ENDBRANCH   4  25
BRANCH   5  27
ATOM     27  O14 ZIN A   1      17.221  -1.181  12.831  0.00  0.00    -0.348 OA
BRANCH  27  28
ATOM     28  C15 ZIN A   1      17.499   0.081  13.441  0.00  0.00     0.177 C 
BRANCH  28  29
ATOM     29  C16 ZIN A   1      18.901   0.053  14.053  0.00  0.00     0.057 C 
BRANCH  29  30
ATOM     30  C17 ZIN A   1      18.854  -0.662  15.405  0.00  0.00     0.274 C 
BRANCH  30  31
ATOM     31  N18 ZIN A   1      18.861   0.333  16.486  0.00  0.00     0.091 N 
ATOM     32  C25 ZIN A   1      19.133   1.679  15.962  0.00  0.00     0.300 C 
ATOM     33  C24 ZIN A   1      19.191   2.673  17.123  0.00  0.00     0.264 C 
ATOM     34  N21 ZIN A   1      17.911   2.659  17.845  0.00  0.00    -0.072 N 
ATOM     35  C20 ZIN A   1      17.666   1.315  18.383  0.00  0.00     0.264 C 
ATOM     36  H22 ZIN A   1      17.166   2.909  17.212  0.00  0.00     0.279 HD
ATOM     37  C23 ZIN A   1      17.962   3.627  18.949  0.00  0.00     0.269 C 
ATOM     38  C19 ZIN A   1      17.596   0.309  17.233  0.00  0.00     0.300 C 
ENDBRANCH  30  31
ENDBRANCH  29  30
ENDBRANCH  28  29
ENDBRANCH  27  28
ENDBRANCH   5  27
TORSDOF 9
ENDMDL
MODEL 7
REMARK VINA RESULT:      -7.8      5.215      9.794
REMARK  9 active torsions:
REMARK  status: ('A' for Active; 'I' for Inactive)
REMARK    1  A    between atoms: O2_2  and  C3_3 
REMARK    2  A    between atoms: C5_5  and  N6_6 
REMARK    3  A    between atoms: N6_6  and  C7_7 
REMARK    4  A    between atoms: C10_10  and  O11_11 
REMARK    5  A    between atoms: C13_13  and  O14_14 
REMARK    6  A    between atoms: O14_14  and  C15_15 
REMARK    7  A    between atoms: C15_15  and  C16_16 
REMARK    8  A    between atoms: C16_16  and  C17_17 
REMARK    9  A    between atoms: C17_17  and  N18_18 
ROOT
ATOM      1  C7  ZIN A   1      18.037  -4.012  10.053  0.00  0.00     0.068 A 
ATOM      2  C8  ZIN A   1      18.117  -2.694   9.549  0.00  0.00     0.024 A 
ATOM      3  C9  ZIN A   1      18.570  -2.446   8.245  0.00  0.00     0.055 A 
ATOM      4  C10 ZIN A   1      18.636  -1.164   7.782  0.00  0.00     0.102 A 
ATOM      5  C13 ZIN A   1      18.256  -0.089   8.599  0.00  0.00     0.104 A 
ATOM      6  C26 ZIN A   1      17.808  -0.307   9.883  0.00  0.00     0.072 A 
ATOM      7  C27 ZIN A   1      17.732  -1.616  10.380  0.00  0.00     0.071 A 
ATOM      8  N28 ZIN A   1      17.297  -1.847  11.628  0.00  0.00    -0.259 NA
ATOM      9  C29 ZIN A   1      17.214  -3.056  12.122  0.00  0.00     0.142 A 
ATOM     10  C30 ZIN A   1      17.569  -4.185  11.365  0.00  0.00     0.089 A 
ATOM     11  C31 ZIN A   1      17.467  -5.496  11.931  0.00  0.00     0.103 C 
ATOM     12  N32 ZIN A   1      17.386  -6.536  12.381  0.00  0.00    -0.191 NA
ENDROOT
BRANCH   1  13
ATOM     13  N6  ZIN A   1      18.403  -5.096   9.279  0.00  0.00    -0.353 N 
ATOM     14  H42 ZIN A   1      19.221  -5.577   9.474  0.00  0.00     0.166 HD
BRANCH  13  15
ATOM     15  C5  ZIN A   1      17.593  -5.498   8.212  0.00  0.00     0.057 A 
ATOM     16  C4  ZIN A   1      16.230  -5.674   8.403  0.00  0.00     0.069 A 
ATOM     17  C3  ZIN A   1      15.429  -6.073   7.344  0.00  0.00     0.092 A 
ATOM     18  C36 ZIN A   1      15.994  -6.301   6.096  0.00  0.00     0.069 A 
ATOM     19  C35 ZIN A   1      17.351  -6.120   5.905  0.00  0.00     0.052 A 
ATOM     20 Cl37 ZIN A   1      14.991  -6.801   4.770  0.00  0.00    -0.081 Cl
ATOM     21  C33 ZIN A   1      18.153  -5.722   6.959  0.00  0.00     0.062 A 
ATOM     22 Cl34 ZIN A   1      19.858  -5.503   6.718  0.00  0.00    -0.082 Cl
BRANCH  17  23
ATOM     23  O2  ZIN A   1      14.094  -6.247   7.529  0.00  0.00    -0.354 OA
ATOM     24  C1  ZIN A   1      13.645  -7.575   7.804  0.00  0.00     0.210 C 
ENDBRANCH  17  23
ENDBRANCH  13  15
ENDBRANCH   1  13
BRANCH   4  25
ATOM     25  O11 ZIN A   1      19.075  -0.925   6.517  0.00  0.00    -0.353 OA
ATOM     26  C12 ZIN A   1      19.168  -2.049   5.640  0.00  0.00     0.210 C 
ENDBRANCH   4  25
BRANCH   5  27
ATOM     27  O14 ZIN A   1      18.330   1.179   8.119  0.00  0.00    -0.348 OA
BRANCH  27  28
ATOM     28  C15 ZIN A   1      19.254   2.062   8.758  0.00  0.00     0.177 C 
BRANCH  28  29
ATOM     29  C16 ZIN A   1      18.584   2.713   9.970  0.00  0.00     0.057 C 
BRANCH  29  30
ATOM     30  C17 ZIN A   1      19.648   3.080  11.006  0.00  0.00     0.274 C 
BRANCH  30  31
ATOM     31  N18 ZIN A   1      19.429   2.299  12.231  0.00  0.00     0.091 N 
ATOM     32  C25 ZIN A   1      17.996   2.067  12.459  0.00  0.00     0.300 C 
ATOM     33  C24 ZIN A   1      17.808   1.305  13.772  0.00  0.00     0.264 C 
ATOM     34  N21 ZIN A   1      18.525   0.024  13.702  0.00  0.00    -0.072 N 
ATOM     35  C20 ZIN A   1      19.957   0.274  13.500  0.00  0.00     0.264 C 
ATOM     36  H22 ZIN A   1      18.166  -0.520  12.932  0.00  0.00     0.279 HD
ATOM     37  C23 ZIN A   1      18.329  -0.715  14.957  0.00  0.00     0.269 C 
ATOM     38  C19 ZIN A   1      20.164   1.027  12.184  0.00  0.00     0.300 C 
ENDBRANCH  30  31
ENDBRANCH  29  30
ENDBRANCH  28  29
ENDBRANCH  27  28
ENDBRANCH   5  27
TORSDOF 9
ENDMDL
MODEL 8
REMARK VINA RESULT:      -7.6      2.583      4.328
REMARK  9 active torsions:
REMARK  status: ('A' for Active; 'I' for Inactive)
REMARK    1  A    between atoms: O2_2  and  C3_3 
REMARK    2  A    between atoms: C5_5  and  N6_6 
REMARK    3  A    between atoms: N6_6  and  C7_7 
REMARK    4  A    between atoms: C10_10  and  O11_11 
REMARK    5  A    between atoms: C13_13  and  O14_14 
REMARK    6  A    between atoms: O14_14  and  C15_15 
REMARK    7  A    between atoms: C15_15  and  C16_16 
REMARK    8  A    between atoms: C16_16  and  C17_17 
REMARK    9  A    between atoms: C17_17  and  N18_18 
ROOT
ATOM      1  C7  ZIN A   1      19.099   3.660  14.814  0.00  0.00     0.068 A 
ATOM      2  C8  ZIN A   1      18.592   2.461  14.264  0.00  0.00     0.024 A 
ATOM      3  C9  ZIN A   1      18.415   1.319  15.059  0.00  0.00     0.055 A 
ATOM      4  C10 ZIN A   1      17.923   0.174  14.503  0.00  0.00     0.102 A 
ATOM      5  C13 ZIN A   1      17.591   0.127  13.142  0.00  0.00     0.104 A 
ATOM      6  C26 ZIN A   1      17.755   1.234  12.340  0.00  0.00     0.072 A 
ATOM      7  C27 ZIN A   1      18.260   2.422  12.889  0.00  0.00     0.071 A 
ATOM      8  N28 ZIN A   1      18.426   3.510  12.123  0.00  0.00    -0.259 NA
ATOM      9  C29 ZIN A   1      18.895   4.634  12.604  0.00  0.00     0.142 A 
ATOM     10  C30 ZIN A   1      19.244   4.763  13.959  0.00  0.00     0.089 A 
ATOM     11  C31 ZIN A   1      19.754   6.004  14.458  0.00  0.00     0.103 C 
ATOM     12  N32 ZIN A   1      20.158   6.990  14.854  0.00  0.00    -0.191 NA
ENDROOT
BRANCH   1  13
ATOM     13  N6  ZIN A   1      19.438   3.745  16.150  0.00  0.00    -0.353 N 
ATOM     14  H42 ZIN A   1      20.353   3.590  16.430  0.00  0.00     0.166 HD
BRANCH  13  15
ATOM     15  C5  ZIN A   1      18.459   4.053  17.101  0.00  0.00     0.057 A 
ATOM     16  C4  ZIN A   1      17.668   5.182  16.943  0.00  0.00     0.069 A 
ATOM     17  C3  ZIN A   1      16.699   5.485  17.886  0.00  0.00     0.092 A 
ATOM     18  C36 ZIN A   1      16.526   4.661  18.991  0.00  0.00     0.069 A 
ATOM     19  C35 ZIN A   1      17.310   3.533  19.145  0.00  0.00     0.052 A 
ATOM     20 Cl37 ZIN A   1      15.313   5.041  20.173  0.00  0.00    -0.081 Cl
ATOM     21  C33 ZIN A   1      18.278   3.227  18.205  0.00  0.00     0.062 A 
ATOM     22 Cl34 ZIN A   1      19.266   1.815  18.405  0.00  0.00    -0.082 Cl
BRANCH  17  23
ATOM     23  O2  ZIN A   1      15.925   6.592  17.734  0.00  0.00    -0.354 OA
ATOM     24  C1  ZIN A   1      14.981   6.580  16.662  0.00  0.00     0.210 C 
ENDBRANCH  17  23
ENDBRANCH  13  15
ENDBRANCH   1  13
BRANCH   4  25
ATOM     25  O11 ZIN A   1      17.752  -0.932  15.277  0.00  0.00    -0.353 OA
ATOM     26  C12 ZIN A   1      18.821  -1.278  16.160  0.00  0.00     0.210 C 
ENDBRANCH   4  25
BRANCH   5  27
ATOM     27  O14 ZIN A   1      17.102  -1.023  12.608  0.00  0.00    -0.348 OA
BRANCH  27  28
ATOM     28  C15 ZIN A   1      18.050  -1.934  12.050  0.00  0.00     0.177 C 
BRANCH  28  29
ATOM     29  C16 ZIN A   1      17.783  -2.093  10.552  0.00  0.00     0.057 C 
BRANCH  29  30
ATOM     30  C17 ZIN A   1      19.049  -1.739   9.769  0.00  0.00     0.274 C 
BRANCH  30  31
ATOM     31  N18 ZIN A   1      18.684  -1.344   8.401  0.00  0.00     0.091 N 
ATOM     32  C25 ZIN A   1      19.141   0.022   8.108  0.00  0.00     0.300 C 
ATOM     33  C24 ZIN A   1      18.691   0.416   6.700  0.00  0.00     0.264 C 
ATOM     34  N21 ZIN A   1      19.252  -0.527   5.724  0.00  0.00    -0.072 N 
ATOM     35  C20 ZIN A   1      18.767  -1.882   6.015  0.00  0.00     0.264 C 
ATOM     36  H22 ZIN A   1      20.260  -0.510   5.782  0.00  0.00     0.279 HD
ATOM     37  C23 ZIN A   1      18.834  -0.137   4.371  0.00  0.00     0.269 C 
ATOM     38  C19 ZIN A   1      19.218  -2.296   7.417  0.00  0.00     0.300 C 
ENDBRANCH  30  31
ENDBRANCH  29  30
ENDBRANCH  28  29
ENDBRANCH  27  28
ENDBRANCH   5  27
TORSDOF 9
ENDMDL
MODEL 9
REMARK VINA RESULT:      -7.6      3.883      5.773
REMARK  9 active torsions:
REMARK  status: ('A' for Active; 'I' for Inactive)
REMARK    1  A    between atoms: O2_2  and  C3_3 
REMARK    2  A    between atoms: C5_5  and  N6_6 
REMARK    3  A    between atoms: N6_6  and  C7_7 
REMARK    4  A    between atoms: C10_10  and  O11_11 
REMARK    5  A    between atoms: C13_13  and  O14_14 
REMARK    6  A    between atoms: O14_14  and  C15_15 
REMARK    7  A    between atoms: C15_15  and  C16_16 
REMARK    8  A    between atoms: C16_16  and  C17_17 
REMARK    9  A    between atoms: C17_17  and  N18_18 
ROOT
ATOM      1  C7  ZIN A   1      19.529   2.291  11.878  0.00  0.00     0.068 A 
ATOM      2  C8  ZIN A   1      19.218   1.768  10.603  0.00  0.00     0.024 A 
ATOM      3  C9  ZIN A   1      19.603   0.469  10.241  0.00  0.00     0.055 A 
ATOM      4  C10 ZIN A   1      19.288  -0.013   9.004  0.00  0.00     0.102 A 
ATOM      5  C13 ZIN A   1      18.582   0.779   8.088  0.00  0.00     0.104 A 
ATOM      6  C26 ZIN A   1      18.192   2.057   8.418  0.00  0.00     0.072 A 
ATOM      7  C27 ZIN A   1      18.504   2.574   9.684  0.00  0.00     0.071 A 
ATOM      8  N28 ZIN A   1      18.132   3.817  10.024  0.00  0.00    -0.259 NA
ATOM      9  C29 ZIN A   1      18.408   4.329  11.197  0.00  0.00     0.142 A 
ATOM     10  C30 ZIN A   1      19.106   3.597  12.172  0.00  0.00     0.089 A 
ATOM     11  C31 ZIN A   1      19.394   4.182  13.446  0.00  0.00     0.103 C 
ATOM     12  N32 ZIN A   1      19.622   4.646  14.458  0.00  0.00    -0.191 NA
ENDROOT
BRANCH   1  13
ATOM     13  N6  ZIN A   1      20.225   1.542  12.807  0.00  0.00    -0.353 N 
ATOM     14  H42 ZIN A   1      21.193   1.511  12.778  0.00  0.00     0.166 HD
BRANCH  13  15
ATOM     15  C5  ZIN A   1      19.531   0.826  13.788  0.00  0.00     0.057 A 
ATOM     16  C4  ZIN A   1      19.053   1.479  14.916  0.00  0.00     0.069 A 
ATOM     17  C3  ZIN A   1      18.366   0.768  15.887  0.00  0.00     0.092 A 
ATOM     18  C36 ZIN A   1      18.161  -0.597  15.732  0.00  0.00     0.069 A 
ATOM     19  C35 ZIN A   1      18.633  -1.245  14.606  0.00  0.00     0.052 A 
ATOM     20 Cl37 ZIN A   1      17.302  -1.488  16.949  0.00  0.00    -0.081 Cl
ATOM     21  C33 ZIN A   1      19.319  -0.539  13.635  0.00  0.00     0.062 A 
ATOM     22 Cl34 ZIN A   1      19.915  -1.358  12.225  0.00  0.00    -0.082 Cl
BRANCH  17  23
ATOM     23  O2  ZIN A   1      17.898   1.405  16.993  0.00  0.00    -0.354 OA
ATOM     24  C1  ZIN A   1      18.863   1.805  17.968  0.00  0.00     0.210 C 
ENDBRANCH  17  23
ENDBRANCH  13  15
ENDBRANCH   1  13
BRANCH   4  25
ATOM     25  O11 ZIN A   1      19.663  -1.273   8.655  0.00  0.00    -0.353 OA
ATOM     26  C12 ZIN A   1      18.778  -2.336   9.014  0.00  0.00     0.210 C 
ENDBRANCH   4  25
BRANCH   5  27
ATOM     27  O14 ZIN A   1      18.278   0.280   6.861  0.00  0.00    -0.348 OA
BRANCH  27  28
ATOM     28  C15 ZIN A   1      19.113   0.681   5.773  0.00  0.00     0.177 C 
BRANCH  28  29
ATOM     29  C16 ZIN A   1      18.957  -0.312   4.619  0.00  0.00     0.057 C 
BRANCH  29  30
ATOM     30  C17 ZIN A   1      19.532  -1.668   5.031  0.00  0.00     0.274 C 
BRANCH  30  31
ATOM     31  N18 ZIN A   1      18.655  -2.741   4.543  0.00  0.00     0.091 N 
ATOM     32  C25 ZIN A   1      18.530  -3.814   5.540  0.00  0.00     0.300 C 
ATOM     33  C24 ZIN A   1      17.660  -4.936   4.970  0.00  0.00     0.264 C 
ATOM     34  N21 ZIN A   1      16.334  -4.403   4.629  0.00  0.00    -0.072 N 
ATOM     35  C20 ZIN A   1      16.474  -3.350   3.615  0.00  0.00     0.264 C 
ATOM     36  H22 ZIN A   1      15.904  -4.018   5.456  0.00  0.00     0.279 HD
ATOM     37  C23 ZIN A   1      15.493  -5.485   4.099  0.00  0.00     0.269 C 
ATOM     38  C19 ZIN A   1      17.334  -2.215   4.173  0.00  0.00     0.300 C 
ENDBRANCH  30  31
ENDBRANCH  29  30
ENDBRANCH  28  29
ENDBRANCH  27  28
ENDBRANCH   5  27
TORSDOF 9
ENDMDL
