MODEL 1
REMARK VINA RESULT:      -9.4      0.000      0.000
REMARK  5 active torsions:
REMARK  status: ('A' for Active; 'I' for Inactive)
REMARK    1  A    between atoms: N10_10  and  C11_11 
REMARK    2  A    between atoms: C11_11  and  C12_12 
REMARK    3  A    between atoms: C12_12  and  N13_13 
REMARK    4  A    between atoms: N17_17  and  C18_18 
REMARK    5  A    between atoms: C22_22  and  C23_23 
ROOT
ATOM      1  N13 ZIN A   1      18.396   1.769  11.026  0.00  0.00    -0.067 N 
ATOM      2  H14 ZIN A   1      19.257   1.301  11.260  0.00  0.00     0.280 HD
ATOM      3  C15 ZIN A   1      18.627   2.689   9.904  0.00  0.00     0.249 C 
ATOM      4  C16 ZIN A   1      19.140   1.901   8.697  0.00  0.00     0.123 C 
ATOM      5  N17 ZIN A   1      18.148   0.883   8.322  0.00  0.00    -0.280 NA
ATOM      6  C28 ZIN A   1      17.888  -0.029   9.444  0.00  0.00     0.123 C 
ATOM      7  C29 ZIN A   1      17.384   0.774  10.645  0.00  0.00     0.249 C 
ENDROOT
BRANCH   1   8
ATOM      8  C12 ZIN A   1      17.920   2.529  12.191  0.00  0.00     0.255 C 
BRANCH   8   9
ATOM      9  C11 ZIN A   1      19.004   2.539  13.270  0.00  0.00     0.162 C 
BRANCH   9  10
ATOM     10  N10 ZIN A   1      19.282   1.165  13.696  0.00  0.00    -0.296 N 
ATOM     11  C2  ZIN A   1      20.205   0.345  13.159  0.00  0.00     0.327 A 
ATOM     12  O1  ZIN A   1      20.945   0.632  12.236  0.00  0.00    -0.246 OA
ATOM     13  N3  ZIN A   1      20.188  -0.838  13.800  0.00  0.00    -0.306 N 
ATOM     14  C4  ZIN A   1      19.211  -0.787  14.792  0.00  0.00     0.063 A 
ATOM     15  H30 ZIN A   1      20.760  -1.598  13.605  0.00  0.00     0.171 HD
ATOM     16  C9  ZIN A   1      18.634   0.483  14.723  0.00  0.00     0.065 A 
ATOM     17  C5  ZIN A   1      18.766  -1.698  15.737  0.00  0.00     0.032 A 
ATOM     18  C8  ZIN A   1      17.616   0.826  15.599  0.00  0.00     0.032 A 
ATOM     19  C7  ZIN A   1      17.180  -0.088  16.538  0.00  0.00     0.002 A 
ATOM     20  C6  ZIN A   1      17.751  -1.346  16.606  0.00  0.00     0.002 A 
ENDBRANCH   9  10
ENDBRANCH   8   9
ENDBRANCH   1   8
BRANCH   5  21
ATOM     21  C18 ZIN A   1      18.558   0.178   7.188  0.00  0.00     0.011 A 
ATOM     22  C27 ZIN A   1      18.672  -1.206   7.232  0.00  0.00     0.039 A 
ATOM     23  C22 ZIN A   1      19.073  -1.900   6.108  0.00  0.00     0.049 A 
ATOM     24  C21 ZIN A   1      19.372  -1.218   4.942  0.00  0.00     0.016 A 
ATOM     25  C20 ZIN A   1      19.266   0.160   4.897  0.00  0.00     0.003 A 
ATOM     26  C19 ZIN A   1      18.860   0.860   6.016  0.00  0.00     0.024 A 
BRANCH  23  27
ATOM     27  C23 ZIN A   1      19.190  -3.401   6.153  0.00  0.00     0.417 C 
ATOM     28  F24 ZIN A   1      19.014  -3.922   4.865  0.00  0.00    -0.166 F 
ATOM     29  F25 ZIN A   1      20.457  -3.756   6.629  0.00  0.00    -0.166 F 
ATOM     30  F26 ZIN A   1      18.209  -3.921   7.003  0.00  0.00    -0.166 F 
ENDBRANCH  23  27
ENDBRANCH   5  21
TORSDOF 5
ENDMDL
MODEL 2
REMARK VINA RESULT:      -9.1      1.537      2.064
REMARK  5 active torsions:
REMARK  status: ('A' for Active; 'I' for Inactive)
REMARK    1  A    between atoms: N10_10  and  C11_11 
REMARK    2  A    between atoms: C11_11  and  C12_12 
REMARK    3  A    between atoms: C12_12  and  N13_13 
REMARK    4  A    between atoms: N17_17  and  C18_18 
REMARK    5  A    between atoms: C22_22  and  C23_23 
ROOT
ATOM      1  N13 ZIN A   1      19.740   2.103  10.764  0.00  0.00    -0.067 N 
ATOM      2  H14 ZIN A   1      20.704   2.205  10.488  0.00  0.00     0.280 HD
ATOM      3  C15 ZIN A   1      18.874   2.745   9.766  0.00  0.00     0.249 C 
ATOM      4  C16 ZIN A   1      19.100   2.094   8.400  0.00  0.00     0.123 C 
ATOM      5  N17 ZIN A   1      18.796   0.658   8.488  0.00  0.00    -0.280 NA
ATOM      6  C28 ZIN A   1      19.638   0.008   9.502  0.00  0.00     0.123 C 
ATOM      7  C29 ZIN A   1      19.406   0.675  10.859  0.00  0.00     0.249 C 
ENDROOT
BRANCH   1   8
ATOM      8  C12 ZIN A   1      19.536   2.741  12.072  0.00  0.00     0.255 C 
BRANCH   8   9
ATOM      9  C11 ZIN A   1      18.167   2.343  12.625  0.00  0.00     0.162 C 
BRANCH   9  10
ATOM     10  N10 ZIN A   1      18.258   2.167  14.076  0.00  0.00    -0.296 N 
ATOM     11  C2  ZIN A   1      18.216   3.152  14.993  0.00  0.00     0.327 A 
ATOM     12  O1  ZIN A   1      18.094   4.338  14.743  0.00  0.00    -0.246 OA
ATOM     13  N3  ZIN A   1      18.323   2.628  16.228  0.00  0.00    -0.306 N 
ATOM     14  C4  ZIN A   1      18.446   1.245  16.109  0.00  0.00     0.063 A 
ATOM     15  H30 ZIN A   1      18.317   3.128  17.060  0.00  0.00     0.171 HD
ATOM     16  C9  ZIN A   1      18.408   0.954  14.744  0.00  0.00     0.065 A 
ATOM     17  C5  ZIN A   1      18.584   0.220  17.031  0.00  0.00     0.032 A 
ATOM     18  C8  ZIN A   1      18.511  -0.360  14.315  0.00  0.00     0.032 A 
ATOM     19  C7  ZIN A   1      18.648  -1.376  15.242  0.00  0.00     0.002 A 
ATOM     20  C6  ZIN A   1      18.685  -1.088  16.594  0.00  0.00     0.002 A 
ENDBRANCH   9  10
ENDBRANCH   8   9
ENDBRANCH   1   8
BRANCH   5  21
ATOM     21  C18 ZIN A   1      18.939   0.039   7.244  0.00  0.00     0.011 A 
ATOM     22  C27 ZIN A   1      18.955  -1.347   7.155  0.00  0.00     0.039 A 
ATOM     23  C22 ZIN A   1      19.091  -1.957   5.923  0.00  0.00     0.049 A 
ATOM     24  C21 ZIN A   1      19.225  -1.188   4.781  0.00  0.00     0.016 A 
ATOM     25  C20 ZIN A   1      19.216   0.192   4.868  0.00  0.00     0.003 A 
ATOM     26  C19 ZIN A   1      19.073   0.807   6.096  0.00  0.00     0.024 A 
BRANCH  23  27
ATOM     27  C23 ZIN A   1      19.102  -3.460   5.825  0.00  0.00     0.417 C 
ATOM     28  F24 ZIN A   1      18.048  -3.985   6.581  0.00  0.00    -0.166 F 
ATOM     29  F25 ZIN A   1      18.948  -3.841   4.487  0.00  0.00    -0.166 F 
ATOM     30  F26 ZIN A   1      20.317  -3.951   6.314  0.00  0.00    -0.166 F 
ENDBRANCH  23  27
ENDBRANCH   5  21
TORSDOF 5
ENDMDL
MODEL 3
REMARK VINA RESULT:      -8.9      3.954      8.598
REMARK  5 active torsions:
REMARK  status: ('A' for Active; 'I' for Inactive)
REMARK    1  A    between atoms: N10_10  and  C11_11 
REMARK    2  A    between atoms: C11_11  and  C12_12 
REMARK    3  A    between atoms: C12_12  and  N13_13 
REMARK    4  A    between atoms: N17_17  and  C18_18 
REMARK    5  A    between atoms: C22_22  and  C23_23 
ROOT
ATOM      1  N13 ZIN A   1      18.605   1.791  10.665  0.00  0.00    -0.067 N 
ATOM      2  H14 ZIN A   1      19.425   1.207  10.717  0.00  0.00     0.280 HD
ATOM      3  C15 ZIN A   1      17.502   1.155  11.396  0.00  0.00     0.249 C 
ATOM      4  C16 ZIN A   1      17.909   0.952  12.857  0.00  0.00     0.123 C 
ATOM      5  N17 ZIN A   1      18.231   2.254  13.459  0.00  0.00    -0.280 NA
ATOM      6  C28 ZIN A   1      19.317   2.914  12.720  0.00  0.00     0.123 C 
ATOM      7  C29 ZIN A   1      18.899   3.102  11.261  0.00  0.00     0.249 C 
ENDROOT
BRANCH   1   8
ATOM      8  C12 ZIN A   1      18.221   1.969   9.257  0.00  0.00     0.255 C 
BRANCH   8   9
ATOM      9  C11 ZIN A   1      19.420   1.662   8.359  0.00  0.00     0.162 C 
BRANCH   9  10
ATOM     10  N10 ZIN A   1      19.399   0.247   7.984  0.00  0.00    -0.296 N 
ATOM     11  C2  ZIN A   1      19.710  -0.786   8.790  0.00  0.00     0.327 A 
ATOM     12  O1  ZIN A   1      20.055  -0.689   9.953  0.00  0.00    -0.246 OA
ATOM     13  N3  ZIN A   1      19.577  -1.944   8.115  0.00  0.00    -0.306 N 
ATOM     14  C4  ZIN A   1      19.168  -1.651   6.816  0.00  0.00     0.063 A 
ATOM     15  H30 ZIN A   1      19.739  -2.831   8.473  0.00  0.00     0.171 HD
ATOM     16  C9  ZIN A   1      19.058  -0.261   6.732  0.00  0.00     0.065 A 
ATOM     17  C5  ZIN A   1      18.881  -2.435   5.710  0.00  0.00     0.032 A 
ATOM     18  C8  ZIN A   1      18.666   0.330   5.541  0.00  0.00     0.032 A 
ATOM     19  C7  ZIN A   1      18.382  -0.460   4.444  0.00  0.00     0.002 A 
ATOM     20  C6  ZIN A   1      18.490  -1.836   4.527  0.00  0.00     0.002 A 
ENDBRANCH   9  10
ENDBRANCH   8   9
ENDBRANCH   1   8
BRANCH   5  21
ATOM     21  C18 ZIN A   1      18.556   2.115  14.810  0.00  0.00     0.011 A 
ATOM     22  C27 ZIN A   1      18.487   0.868  15.417  0.00  0.00     0.039 A 
ATOM     23  C22 ZIN A   1      18.814   0.732  16.752  0.00  0.00     0.049 A 
ATOM     24  C21 ZIN A   1      19.197   1.840  17.487  0.00  0.00     0.016 A 
ATOM     25  C20 ZIN A   1      19.260   3.084  16.887  0.00  0.00     0.003 A 
ATOM     26  C19 ZIN A   1      18.940   3.224  15.551  0.00  0.00     0.024 A 
BRANCH  23  27
ATOM     27  C23 ZIN A   1      18.746  -0.621  17.410  0.00  0.00     0.417 C 
ATOM     28  F24 ZIN A   1      17.414  -1.047  17.465  0.00  0.00    -0.166 F 
ATOM     29  F25 ZIN A   1      19.498  -1.539  16.668  0.00  0.00    -0.166 F 
ATOM     30  F26 ZIN A   1      19.262  -0.535  18.708  0.00  0.00    -0.166 F 
ENDBRANCH  23  27
ENDBRANCH   5  21
TORSDOF 5
ENDMDL
MODEL 4
REMARK VINA RESULT:      -8.9      4.575      9.006
REMARK  5 active torsions:
REMARK  status: ('A' for Active; 'I' for Inactive)
REMARK    1  A    between atoms: N10_10  and  C11_11 
REMARK    2  A    between atoms: C11_11  and  C12_12 
REMARK    3  A    between atoms: C12_12  and  N13_13 
REMARK    4  A    between atoms: N17_17  and  C18_18 
REMARK    5  A    between atoms: C22_22  and  C23_23 
ROOT
ATOM      1  N13 ZIN A   1      19.319   1.468  11.219  0.00  0.00    -0.067 N 
ATOM      2  H14 ZIN A   1      19.786   2.280  11.593  0.00  0.00     0.280 HD
ATOM      3  C15 ZIN A   1      20.071   0.259  11.585  0.00  0.00     0.249 C 
ATOM      4  C16 ZIN A   1      20.161   0.157  13.109  0.00  0.00     0.123 C 
ATOM      5  N17 ZIN A   1      18.806   0.102  13.675  0.00  0.00    -0.280 NA
ATOM      6  C28 ZIN A   1      18.034   1.294  13.295  0.00  0.00     0.123 C 
ATOM      7  C29 ZIN A   1      17.960   1.386  11.770  0.00  0.00     0.249 C 
ENDROOT
BRANCH   1   8
ATOM      8  C12 ZIN A   1      19.249   1.576   9.755  0.00  0.00     0.255 C 
BRANCH   8   9
ATOM      9  C11 ZIN A   1      17.896   1.053   9.271  0.00  0.00     0.162 C 
BRANCH   9  10
ATOM     10  N10 ZIN A   1      18.093  -0.183   8.511  0.00  0.00    -0.296 N 
ATOM     11  C2  ZIN A   1      17.909  -1.432   8.978  0.00  0.00     0.327 A 
ATOM     12  O1  ZIN A   1      17.549  -1.713  10.106  0.00  0.00    -0.246 OA
ATOM     13  N3  ZIN A   1      18.178  -2.324   8.006  0.00  0.00    -0.306 N 
ATOM     14  C4  ZIN A   1      18.559  -1.626   6.862  0.00  0.00     0.063 A 
ATOM     15  H30 ZIN A   1      18.118  -3.289   8.088  0.00  0.00     0.171 HD
ATOM     16  C9  ZIN A   1      18.508  -0.268   7.183  0.00  0.00     0.065 A 
ATOM     17  C5  ZIN A   1      18.939  -2.021   5.589  0.00  0.00     0.032 A 
ATOM     18  C8  ZIN A   1      18.841   0.680   6.229  0.00  0.00     0.032 A 
ATOM     19  C7  ZIN A   1      19.218   0.277   4.963  0.00  0.00     0.002 A 
ATOM     20  C6  ZIN A   1      19.268  -1.068   4.643  0.00  0.00     0.002 A 
ENDBRANCH   9  10
ENDBRANCH   8   9
ENDBRANCH   1   8
BRANCH   5  21
ATOM     21  C18 ZIN A   1      18.849  -0.047  15.063  0.00  0.00     0.011 A 
ATOM     22  C27 ZIN A   1      18.607   1.045  15.887  0.00  0.00     0.039 A 
ATOM     23  C22 ZIN A   1      18.644   0.894  17.260  0.00  0.00     0.049 A 
ATOM     24  C21 ZIN A   1      18.934  -0.340  17.813  0.00  0.00     0.016 A 
ATOM     25  C20 ZIN A   1      19.181  -1.427  16.995  0.00  0.00     0.003 A 
ATOM     26  C19 ZIN A   1      19.140  -1.284  15.622  0.00  0.00     0.024 A 
BRANCH  23  27
ATOM     27  C23 ZIN A   1      18.376   2.076  18.155  0.00  0.00     0.417 C 
ATOM     28  F24 ZIN A   1      17.281   1.796  18.981  0.00  0.00    -0.166 F 
ATOM     29  F25 ZIN A   1      19.503   2.328  18.945  0.00  0.00    -0.166 F 
ATOM     30  F26 ZIN A   1      18.093   3.199  17.372  0.00  0.00    -0.166 F 
ENDBRANCH  23  27
ENDBRANCH   5  21
TORSDOF 5
ENDMDL
MODEL 5
REMARK VINA RESULT:      -8.8      4.610      9.321
REMARK  5 active torsions:
REMARK  status: ('A' for Active; 'I' for Inactive)
REMARK    1  A    between atoms: N10_10  and  C11_11 
REMARK    2  A    between atoms: C11_11  and  C12_12 
REMARK    3  A    between atoms: C12_12  and  N13_13 
REMARK    4  A    between atoms: N17_17  and  C18_18 
REMARK    5  A    between atoms: C22_22  and  C23_23 
ROOT
ATOM      1  N13 ZIN A   1      18.464  -0.957  11.755  0.00  0.00    -0.067 N 
ATOM      2  H14 ZIN A   1      19.140  -0.229  11.584  0.00  0.00     0.280 HD
ATOM      3  C15 ZIN A   1      19.052  -1.974  12.637  0.00  0.00     0.249 C 
ATOM      4  C16 ZIN A   1      19.469  -1.325  13.958  0.00  0.00     0.123 C 
ATOM      5  N17 ZIN A   1      18.292  -0.720  14.597  0.00  0.00    -0.280 NA
ATOM      6  C28 ZIN A   1      17.677   0.282  13.714  0.00  0.00     0.123 C 
ATOM      7  C29 ZIN A   1      17.274  -0.380  12.396  0.00  0.00     0.249 C 
ENDROOT
BRANCH   1   8
ATOM      8  C12 ZIN A   1      18.080  -1.578  10.479  0.00  0.00     0.255 C 
BRANCH   8   9
ATOM      9  C11 ZIN A   1      19.309  -1.689   9.576  0.00  0.00     0.162 C 
BRANCH   9  10
ATOM     10  N10 ZIN A   1      19.238  -0.668   8.528  0.00  0.00    -0.296 N 
ATOM     11  C2  ZIN A   1      19.291   0.663   8.719  0.00  0.00     0.327 A 
ATOM     12  O1  ZIN A   1      19.406   1.212   9.800  0.00  0.00    -0.246 OA
ATOM     13  N3  ZIN A   1      19.202   1.296   7.534  0.00  0.00    -0.306 N 
ATOM     14  C4  ZIN A   1      19.082   0.336   6.532  0.00  0.00     0.063 A 
ATOM     15  H30 ZIN A   1      19.219   2.257   7.401  0.00  0.00     0.171 HD
ATOM     16  C9  ZIN A   1      19.101  -0.910   7.162  0.00  0.00     0.065 A 
ATOM     17  C5  ZIN A   1      18.959   0.411   5.154  0.00  0.00     0.032 A 
ATOM     18  C8  ZIN A   1      18.995  -2.067   6.408  0.00  0.00     0.032 A 
ATOM     19  C7  ZIN A   1      18.874  -1.983   5.034  0.00  0.00     0.002 A 
ATOM     20  C6  ZIN A   1      18.855  -0.749   4.409  0.00  0.00     0.002 A 
ENDBRANCH   9  10
ENDBRANCH   8   9
ENDBRANCH   1   8
BRANCH   5  21
ATOM     21  C18 ZIN A   1      18.624  -0.163  15.833  0.00  0.00     0.011 A 
ATOM     22  C27 ZIN A   1      18.695   1.217  15.979  0.00  0.00     0.039 A 
ATOM     23  C22 ZIN A   1      19.018   1.765  17.204  0.00  0.00     0.049 A 
ATOM     24  C21 ZIN A   1      19.283   0.941  18.283  0.00  0.00     0.016 A 
ATOM     25  C20 ZIN A   1      19.219  -0.433  18.140  0.00  0.00     0.003 A 
ATOM     26  C19 ZIN A   1      18.890  -0.987  16.919  0.00  0.00     0.024 A 
BRANCH  23  27
ATOM     27  C23 ZIN A   1      19.089   3.261  17.365  0.00  0.00     0.417 C 
ATOM     28  F24 ZIN A   1      18.022   3.855  16.680  0.00  0.00    -0.166 F 
ATOM     29  F25 ZIN A   1      19.010   3.589  18.723  0.00  0.00    -0.166 F 
ATOM     30  F26 ZIN A   1      20.298   3.730  16.841  0.00  0.00    -0.166 F 
ENDBRANCH  23  27
ENDBRANCH   5  21
TORSDOF 5
ENDMDL
MODEL 6
REMARK VINA RESULT:      -8.6      1.835      2.784
REMARK  5 active torsions:
REMARK  status: ('A' for Active; 'I' for Inactive)
REMARK    1  A    between atoms: N10_10  and  C11_11 
REMARK    2  A    between atoms: C11_11  and  C12_12 
REMARK    3  A    between atoms: C12_12  and  N13_13 
REMARK    4  A    between atoms: N17_17  and  C18_18 
REMARK    5  A    between atoms: C22_22  and  C23_23 
ROOT
ATOM      1  N13 ZIN A   1      19.505  -1.656  12.100  0.00  0.00    -0.067 N 
ATOM      2  H14 ZIN A   1      20.023  -2.451  11.757  0.00  0.00     0.280 HD
ATOM      3  C15 ZIN A   1      20.161  -0.417  11.659  0.00  0.00     0.249 C 
ATOM      4  C16 ZIN A   1      20.218  -0.387  10.130  0.00  0.00     0.123 C 
ATOM      5  N17 ZIN A   1      18.853  -0.459   9.590  0.00  0.00    -0.280 NA
ATOM      6  C28 ZIN A   1      18.176  -1.682  10.044  0.00  0.00     0.123 C 
ATOM      7  C29 ZIN A   1      18.134  -1.701  11.573  0.00  0.00     0.249 C 
ENDROOT
BRANCH   1   8
ATOM      8  C12 ZIN A   1      19.467  -1.694  13.569  0.00  0.00     0.255 C 
BRANCH   8   9
ATOM      9  C11 ZIN A   1      18.085  -1.254  14.054  0.00  0.00     0.162 C 
BRANCH   9  10
ATOM     10  N10 ZIN A   1      18.195   0.037  14.737  0.00  0.00    -0.296 N 
ATOM     11  C2  ZIN A   1      17.954   1.242  14.187  0.00  0.00     0.327 A 
ATOM     12  O1  ZIN A   1      17.608   1.431  13.036  0.00  0.00    -0.246 OA
ATOM     13  N3  ZIN A   1      18.149   2.206  15.106  0.00  0.00    -0.306 N 
ATOM     14  C4  ZIN A   1      18.537   1.603  16.300  0.00  0.00     0.063 A 
ATOM     15  H30 ZIN A   1      18.038   3.159  14.961  0.00  0.00     0.171 HD
ATOM     16  C9  ZIN A   1      18.570   0.227  16.065  0.00  0.00     0.065 A 
ATOM     17  C5  ZIN A   1      18.863   2.098  17.553  0.00  0.00     0.032 A 
ATOM     18  C8  ZIN A   1      18.929  -0.639  17.085  0.00  0.00     0.032 A 
ATOM     19  C7  ZIN A   1      19.251  -0.137  18.331  0.00  0.00     0.002 A 
ATOM     20  C6  ZIN A   1      19.219   1.226  18.565  0.00  0.00     0.002 A 
ENDBRANCH   9  10
ENDBRANCH   8   9
ENDBRANCH   1   8
BRANCH   5  21
ATOM     21  C18 ZIN A   1      18.861  -0.379   8.195  0.00  0.00     0.011 A 
ATOM     22  C27 ZIN A   1      18.871  -1.540   7.432  0.00  0.00     0.039 A 
ATOM     23  C22 ZIN A   1      18.874  -1.458   6.054  0.00  0.00     0.049 A 
ATOM     24  C21 ZIN A   1      18.879  -0.222   5.433  0.00  0.00     0.016 A 
ATOM     25  C20 ZIN A   1      18.876   0.936   6.190  0.00  0.00     0.003 A 
ATOM     26  C19 ZIN A   1      18.867   0.860   7.569  0.00  0.00     0.024 A 
BRANCH  23  27
ATOM     27  C23 ZIN A   1      18.878  -2.716   5.225  0.00  0.00     0.417 C 
ATOM     28  F24 ZIN A   1      19.759  -3.644   5.790  0.00  0.00    -0.166 F 
ATOM     29  F25 ZIN A   1      17.588  -3.258   5.193  0.00  0.00    -0.166 F 
ATOM     30  F26 ZIN A   1      19.290  -2.415   3.923  0.00  0.00    -0.166 F 
ENDBRANCH  23  27
ENDBRANCH   5  21
TORSDOF 5
ENDMDL
MODEL 7
REMARK VINA RESULT:      -8.6      4.542      8.867
REMARK  5 active torsions:
REMARK  status: ('A' for Active; 'I' for Inactive)
REMARK    1  A    between atoms: N10_10  and  C11_11 
REMARK    2  A    between atoms: C11_11  and  C12_12 
REMARK    3  A    between atoms: C12_12  and  N13_13 
REMARK    4  A    between atoms: N17_17  and  C18_18 
REMARK    5  A    between atoms: C22_22  and  C23_23 
ROOT
ATOM      1  N13 ZIN A   1      18.786  -2.590  10.451  0.00  0.00    -0.067 N 
ATOM      2  H14 ZIN A   1      17.819  -2.322  10.361  0.00  0.00     0.280 HD
ATOM      3  C15 ZIN A   1      19.633  -1.389  10.420  0.00  0.00     0.249 C 
ATOM      4  C16 ZIN A   1      19.238  -0.458  11.568  0.00  0.00     0.123 C 
ATOM      5  N17 ZIN A   1      19.404  -1.163  12.847  0.00  0.00    -0.280 NA
ATOM      6  C28 ZIN A   1      18.582  -2.381  12.881  0.00  0.00     0.123 C 
ATOM      7  C29 ZIN A   1      18.983  -3.297  11.724  0.00  0.00     0.249 C 
ENDROOT
BRANCH   1   8
ATOM      8  C12 ZIN A   1      19.154  -3.476   9.337  0.00  0.00     0.255 C 
BRANCH   8   9
ATOM      9  C11 ZIN A   1      18.003  -3.536   8.332  0.00  0.00     0.162 C 
BRANCH   9  10
ATOM     10  N10 ZIN A   1      18.471  -3.070   7.025  0.00  0.00    -0.296 N 
ATOM     11  C2  ZIN A   1      18.839  -3.855   5.995  0.00  0.00     0.327 A 
ATOM     12  O1  ZIN A   1      18.834  -5.072   6.003  0.00  0.00    -0.246 OA
ATOM     13  N3  ZIN A   1      19.208  -3.089   4.951  0.00  0.00    -0.306 N 
ATOM     14  C4  ZIN A   1      19.079  -1.752   5.320  0.00  0.00     0.063 A 
ATOM     15  H30 ZIN A   1      19.512  -3.413   4.088  0.00  0.00     0.171 HD
ATOM     16  C9  ZIN A   1      18.615  -1.740   6.637  0.00  0.00     0.065 A 
ATOM     17  C5  ZIN A   1      19.313  -0.556   4.659  0.00  0.00     0.032 A 
ATOM     18  C8  ZIN A   1      18.392  -0.532   7.279  0.00  0.00     0.032 A 
ATOM     19  C7  ZIN A   1      18.628   0.654   6.613  0.00  0.00     0.002 A 
ATOM     20  C6  ZIN A   1      19.087   0.643   5.308  0.00  0.00     0.002 A 
ENDBRANCH   9  10
ENDBRANCH   8   9
ENDBRANCH   1   8
BRANCH   5  21
ATOM     21  C18 ZIN A   1      19.104  -0.325  13.923  0.00  0.00     0.011 A 
ATOM     22  C27 ZIN A   1      18.379  -0.812  15.004  0.00  0.00     0.039 A 
ATOM     23  C22 ZIN A   1      18.088   0.017  16.069  0.00  0.00     0.049 A 
ATOM     24  C21 ZIN A   1      18.507   1.335  16.055  0.00  0.00     0.016 A 
ATOM     25  C20 ZIN A   1      19.224   1.825  14.978  0.00  0.00     0.003 A 
ATOM     26  C19 ZIN A   1      19.522   0.999  13.913  0.00  0.00     0.024 A 
BRANCH  23  27
ATOM     27  C23 ZIN A   1      17.308  -0.512  17.244  0.00  0.00     0.417 C 
ATOM     28  F24 ZIN A   1      16.152   0.256  17.421  0.00  0.00    -0.166 F 
ATOM     29  F25 ZIN A   1      16.950  -1.844  17.005  0.00  0.00    -0.166 F 
ATOM     30  F26 ZIN A   1      18.096  -0.440  18.397  0.00  0.00    -0.166 F 
ENDBRANCH  23  27
ENDBRANCH   5  21
TORSDOF 5
ENDMDL
MODEL 8
REMARK VINA RESULT:      -8.5      4.322      7.646
REMARK  5 active torsions:
REMARK  status: ('A' for Active; 'I' for Inactive)
REMARK    1  A    between atoms: N10_10  and  C11_11 
REMARK    2  A    between atoms: C11_11  and  C12_12 
REMARK    3  A    between atoms: C12_12  and  N13_13 
REMARK    4  A    between atoms: N17_17  and  C18_18 
REMARK    5  A    between atoms: C22_22  and  C23_23 
ROOT
ATOM      1  N13 ZIN A   1      19.012   0.673   9.223  0.00  0.00    -0.067 N 
ATOM      2  H14 ZIN A   1      19.247   1.653   9.254  0.00  0.00     0.280 HD
ATOM      3  C15 ZIN A   1      20.002  -0.092   9.993  0.00  0.00     0.249 C 
ATOM      4  C16 ZIN A   1      20.012   0.400  11.442  0.00  0.00     0.123 C 
ATOM      5  N17 ZIN A   1      18.673   0.228  12.025  0.00  0.00    -0.280 NA
ATOM      6  C28 ZIN A   1      17.668   0.968  11.248  0.00  0.00     0.123 C 
ATOM      7  C29 ZIN A   1      17.676   0.471   9.802  0.00  0.00     0.249 C 
ENDROOT
BRANCH   1   8
ATOM      8  C12 ZIN A   1      19.015   0.212   7.827  0.00  0.00     0.255 C 
BRANCH   8   9
ATOM      9  C11 ZIN A   1      17.977  -0.897   7.654  0.00  0.00     0.162 C 
BRANCH   9  10
ATOM     10  N10 ZIN A   1      18.649  -2.198   7.649  0.00  0.00    -0.296 N 
ATOM     11  C2  ZIN A   1      19.443  -2.671   6.670  0.00  0.00     0.327 A 
ATOM     12  O1  ZIN A   1      19.716  -2.080   5.642  0.00  0.00    -0.246 OA
ATOM     13  N3  ZIN A   1      19.892  -3.896   7.002  0.00  0.00    -0.306 N 
ATOM     14  C4  ZIN A   1      19.365  -4.235   8.246  0.00  0.00     0.063 A 
ATOM     15  H30 ZIN A   1      20.483  -4.449   6.466  0.00  0.00     0.171 HD
ATOM     16  C9  ZIN A   1      18.574  -3.159   8.655  0.00  0.00     0.065 A 
ATOM     17  C5  ZIN A   1      19.487  -5.351   9.059  0.00  0.00     0.032 A 
ATOM     18  C8  ZIN A   1      17.911  -3.213   9.871  0.00  0.00     0.032 A 
ATOM     19  C7  ZIN A   1      18.040  -4.329  10.675  0.00  0.00     0.002 A 
ATOM     20  C6  ZIN A   1      18.823  -5.395  10.271  0.00  0.00     0.002 A 
ENDBRANCH   9  10
ENDBRANCH   8   9
ENDBRANCH   1   8
BRANCH   5  21
ATOM     21  C18 ZIN A   1      18.657   0.617  13.366  0.00  0.00     0.011 A 
ATOM     22  C27 ZIN A   1      18.524  -0.338  14.366  0.00  0.00     0.039 A 
ATOM     23  C22 ZIN A   1      18.514   0.050  15.692  0.00  0.00     0.049 A 
ATOM     24  C21 ZIN A   1      18.623   1.388  16.023  0.00  0.00     0.016 A 
ATOM     25  C20 ZIN A   1      18.749   2.342  15.029  0.00  0.00     0.003 A 
ATOM     26  C19 ZIN A   1      18.766   1.960  13.702  0.00  0.00     0.024 A 
BRANCH  23  27
ATOM     27  C23 ZIN A   1      18.377  -0.986  16.777  0.00  0.00     0.417 C 
ATOM     28  F24 ZIN A   1      19.342  -1.983  16.595  0.00  0.00    -0.166 F 
ATOM     29  F25 ZIN A   1      18.563  -0.381  18.025  0.00  0.00    -0.166 F 
ATOM     30  F26 ZIN A   1      17.101  -1.556  16.720  0.00  0.00    -0.166 F 
ENDBRANCH  23  27
ENDBRANCH   5  21
TORSDOF 5
ENDMDL
MODEL 9
REMARK VINA RESULT:      -8.4      2.416      4.157
REMARK  5 active torsions:
REMARK  status: ('A' for Active; 'I' for Inactive)
REMARK    1  A    between atoms: N10_10  and  C11_11 
REMARK    2  A    between atoms: C11_11  and  C12_12 
REMARK    3  A    between atoms: C12_12  and  N13_13 
REMARK    4  A    between atoms: N17_17  and  C18_18 
REMARK    5  A    between atoms: C22_22  and  C23_23 
ROOT
ATOM      1  N13 ZIN A   1      18.628  -1.010  11.984  0.00  0.00    -0.067 N 
ATOM      2  H14 ZIN A   1      17.932  -0.347  11.680  0.00  0.00     0.280 HD
ATOM      3  C15 ZIN A   1      18.191  -2.371  11.644  0.00  0.00     0.249 C 
ATOM      4  C16 ZIN A   1      17.991  -2.478  10.130  0.00  0.00     0.123 C 
ATOM      5  N17 ZIN A   1      19.255  -2.166   9.448  0.00  0.00    -0.280 NA
ATOM      6  C28 ZIN A   1      19.717  -0.815   9.800  0.00  0.00     0.123 C 
ATOM      7  C29 ZIN A   1      19.904  -0.722  11.316  0.00  0.00     0.249 C 
ENDROOT
BRANCH   1   8
ATOM      8  C12 ZIN A   1      18.802  -0.902  13.440  0.00  0.00     0.255 C 
BRANCH   8   9
ATOM      9  C11 ZIN A   1      17.744   0.042  14.011  0.00  0.00     0.162 C 
BRANCH   9  10
ATOM     10  N10 ZIN A   1      18.287   1.401  14.080  0.00  0.00    -0.296 N 
ATOM     11  C2  ZIN A   1      18.912   1.947  15.140  0.00  0.00     0.327 A 
ATOM     12  O1  ZIN A   1      19.116   1.384  16.200  0.00  0.00    -0.246 OA
ATOM     13  N3  ZIN A   1      19.282   3.208  14.848  0.00  0.00    -0.306 N 
ATOM     14  C4  ZIN A   1      18.876   3.495  13.547  0.00  0.00     0.063 A 
ATOM     15  H30 ZIN A   1      19.751   3.814  15.444  0.00  0.00     0.171 HD
ATOM     16  C9  ZIN A   1      18.242   2.350  13.061  0.00  0.00     0.065 A 
ATOM     17  C5  ZIN A   1      18.989   4.617  12.742  0.00  0.00     0.032 A 
ATOM     18  C8  ZIN A   1      17.726   2.340  11.775  0.00  0.00     0.032 A 
ATOM     19  C7  ZIN A   1      17.844   3.463  10.979  0.00  0.00     0.002 A 
ATOM     20  C6  ZIN A   1      18.472   4.598  11.460  0.00  0.00     0.002 A 
ENDBRANCH   9  10
ENDBRANCH   8   9
ENDBRANCH   1   8
BRANCH   5  21
ATOM     21  C18 ZIN A   1      19.125  -2.306   8.065  0.00  0.00     0.011 A 
ATOM     22  C27 ZIN A   1      18.848  -1.197   7.275  0.00  0.00     0.039 A 
ATOM     23  C22 ZIN A   1      18.726  -1.338   5.907  0.00  0.00     0.049 A 
ATOM     24  C21 ZIN A   1      18.867  -2.585   5.324  0.00  0.00     0.016 A 
ATOM     25  C20 ZIN A   1      19.136  -3.692   6.108  0.00  0.00     0.003 A 
ATOM     26  C19 ZIN A   1      19.266  -3.556   7.476  0.00  0.00     0.024 A 
BRANCH  23  27
ATOM     27  C23 ZIN A   1      18.432  -0.135   5.050  0.00  0.00     0.417 C 
ATOM     28  F24 ZIN A   1      17.815  -0.548   3.863  0.00  0.00    -0.166 F 
ATOM     29  F25 ZIN A   1      17.579   0.733   5.740  0.00  0.00    -0.166 F 
ATOM     30  F26 ZIN A   1      19.627   0.526   4.748  0.00  0.00    -0.166 F 
ENDBRANCH  23  27
ENDBRANCH   5  21
TORSDOF 5
ENDMDL
