MODEL 1
REMARK VINA RESULT:      -6.5      0.000      0.000
REMARK  4 active torsions:
REMARK  status: ('A' for Active; 'I' for Inactive)
REMARK    1  A    between atoms: C2_2  and  C3_3 
REMARK    2  A    between atoms: C5_5  and  N6_6 
REMARK    3  A    between atoms: C8_8  and  N9_9 
REMARK    4  A    between atoms: C10_10  and  C11_11 
ROOT
ATOM      1  C3  ZIN A   1      18.354   1.954  11.529  0.00  0.00     0.068 A 
ATOM      2  N4  ZIN A   1      18.605   2.117  12.817  0.00  0.00    -0.067 NA
ATOM      3  C5  ZIN A   1      19.484   1.350  13.446  0.00  0.00     0.722 A 
ATOM      4  N7  ZIN A   1      20.150   0.391  12.821  0.00  0.00    -0.045 NA
ATOM      5  C8  ZIN A   1      19.956   0.163  11.526  0.00  0.00     0.153 A 
ATOM      6  C10 ZIN A   1      19.025   0.954  10.829  0.00  0.00     0.045 A 
ENDROOT
BRANCH   6   7
ATOM      7  C11 ZIN A   1      18.775   0.737   9.384  0.00  0.00    -0.020 A 
ATOM      8  C17 ZIN A   1      19.487   1.468   8.432  0.00  0.00     0.014 A 
ATOM      9  C16 ZIN A   1      19.254   1.258   7.089  0.00  0.00     0.024 A 
ATOM     10  C14 ZIN A   1      18.309   0.331   6.684  0.00  0.00     0.034 A 
ATOM     11  C13 ZIN A   1      17.596  -0.393   7.624  0.00  0.00     0.024 A 
ATOM     12 Cl15 ZIN A   1      18.016   0.077   4.992  0.00  0.00    -0.084 Cl
ATOM     13  C12 ZIN A   1      17.825  -0.194   8.970  0.00  0.00     0.014 A 
ENDBRANCH   6   7
BRANCH   1  14
ATOM     14  C2  ZIN A   1      17.350   2.834  10.828  0.00  0.00     0.056 C 
ATOM     15  C1  ZIN A   1      17.957   4.221  10.604  0.00  0.00     0.011 C 
ENDBRANCH   1  14
BRANCH   5  16
ATOM     16  N9  ZIN A   1      20.654  -0.841  10.878  0.00  0.00    -0.383 N 
ATOM     17  H25 ZIN A   1      21.462  -0.630  10.386  0.00  0.00     0.157 HD
ATOM     18  H26 ZIN A   1      20.332  -1.755  10.913  0.00  0.00     0.157 HD
ENDBRANCH   5  16
BRANCH   3  19
ATOM     19  N6  ZIN A   1      19.712   1.557  14.795  0.00  0.00    -0.231 N 
ATOM     20  H23 ZIN A   1      18.965   1.669  15.401  0.00  0.00     0.174 HD
ATOM     21  H24 ZIN A   1      20.621   1.592  15.133  0.00  0.00     0.174 HD
ENDBRANCH   3  19
TORSDOF 4
ENDMDL
MODEL 2
REMARK VINA RESULT:      -6.3      4.045      6.428
REMARK  4 active torsions:
REMARK  status: ('A' for Active; 'I' for Inactive)
REMARK    1  A    between atoms: C2_2  and  C3_3 
REMARK    2  A    between atoms: C5_5  and  N6_6 
REMARK    3  A    between atoms: C8_8  and  N9_9 
REMARK    4  A    between atoms: C10_10  and  C11_11 
ROOT
ATOM      1  C3  ZIN A   1      18.317  -2.051  10.927  0.00  0.00     0.068 A 
ATOM      2  N4  ZIN A   1      18.586  -2.222   9.644  0.00  0.00    -0.067 NA
ATOM      3  C5  ZIN A   1      19.440  -1.430   9.012  0.00  0.00     0.722 A 
ATOM      4  N7  ZIN A   1      20.059  -0.434   9.628  0.00  0.00    -0.045 NA
ATOM      5  C8  ZIN A   1      19.844  -0.195  10.917  0.00  0.00     0.153 A 
ATOM      6  C10 ZIN A   1      18.939  -1.014  11.618  0.00  0.00     0.045 A 
ENDROOT
BRANCH   6   7
ATOM      7  C11 ZIN A   1      18.666  -0.786  13.058  0.00  0.00    -0.020 A 
ATOM      8  C17 ZIN A   1      19.380  -1.491  14.026  0.00  0.00     0.014 A 
ATOM      9  C16 ZIN A   1      19.126  -1.272  15.364  0.00  0.00     0.024 A 
ATOM     10  C14 ZIN A   1      18.157  -0.359  15.746  0.00  0.00     0.034 A 
ATOM     11  C13 ZIN A   1      17.442   0.340  14.789  0.00  0.00     0.024 A 
ATOM     12 Cl15 ZIN A   1      17.837  -0.092  17.431  0.00  0.00    -0.084 Cl
ATOM     13  C12 ZIN A   1      17.692   0.131  13.448  0.00  0.00     0.014 A 
ENDBRANCH   6   7
BRANCH   1  14
ATOM     14  C2  ZIN A   1      17.343  -2.960  11.632  0.00  0.00     0.056 C 
ATOM     15  C1  ZIN A   1      17.955  -4.356  11.766  0.00  0.00     0.011 C 
ENDBRANCH   1  14
BRANCH   5  16
ATOM     16  N9  ZIN A   1      20.493   0.845  11.557  0.00  0.00    -0.383 N 
ATOM     17  H25 ZIN A   1      20.980   0.681  12.379  0.00  0.00     0.157 HD
ATOM     18  H26 ZIN A   1      20.460   1.740  11.184  0.00  0.00     0.157 HD
ENDBRANCH   5  16
BRANCH   3  19
ATOM     19  N6  ZIN A   1      19.690  -1.647   7.668  0.00  0.00    -0.231 N 
ATOM     20  H23 ZIN A   1      20.005  -0.920   7.110  0.00  0.00     0.174 HD
ATOM     21  H24 ZIN A   1      19.549  -2.528   7.285  0.00  0.00     0.174 HD
ENDBRANCH   3  19
TORSDOF 4
ENDMDL
MODEL 3
REMARK VINA RESULT:      -6.3      0.975      2.857
REMARK  4 active torsions:
REMARK  status: ('A' for Active; 'I' for Inactive)
REMARK    1  A    between atoms: C2_2  and  C3_3 
REMARK    2  A    between atoms: C5_5  and  N6_6 
REMARK    3  A    between atoms: C8_8  and  N9_9 
REMARK    4  A    between atoms: C10_10  and  C11_11 
ROOT
ATOM      1  C3  ZIN A   1      19.595   0.531  11.653  0.00  0.00     0.068 A 
ATOM      2  N4  ZIN A   1      19.773   0.858  12.922  0.00  0.00    -0.067 NA
ATOM      3  C5  ZIN A   1      19.192   1.930  13.440  0.00  0.00     0.722 A 
ATOM      4  N7  ZIN A   1      18.411   2.721  12.720  0.00  0.00    -0.045 NA
ATOM      5  C8  ZIN A   1      18.181   2.462  11.438  0.00  0.00     0.153 A 
ATOM      6  C10 ZIN A   1      18.787   1.334  10.853  0.00  0.00     0.045 A 
ENDROOT
BRANCH   6   7
ATOM      7  C11 ZIN A   1      18.559   1.004   9.425  0.00  0.00    -0.020 A 
ATOM      8  C17 ZIN A   1      17.545   0.118   9.064  0.00  0.00     0.014 A 
ATOM      9  C16 ZIN A   1      17.335  -0.182   7.734  0.00  0.00     0.024 A 
ATOM     10  C14 ZIN A   1      18.134   0.389   6.759  0.00  0.00     0.034 A 
ATOM     11  C13 ZIN A   1      19.145   1.266   7.112  0.00  0.00     0.024 A 
ATOM     12 Cl15 ZIN A   1      17.868   0.003   5.087  0.00  0.00    -0.084 Cl
ATOM     13  C12 ZIN A   1      19.361   1.576   8.439  0.00  0.00     0.014 A 
ENDBRANCH   6   7
BRANCH   1  14
ATOM     14  C2  ZIN A   1      20.264  -0.691  11.078  0.00  0.00     0.056 C 
ATOM     15  C1  ZIN A   1      19.567  -1.949  11.603  0.00  0.00     0.011 C 
ENDBRANCH   1  14
BRANCH   5  16
ATOM     16  N9  ZIN A   1      17.364   3.291  10.689  0.00  0.00    -0.383 N 
ATOM     17  H25 ZIN A   1      16.539   2.948  10.313  0.00  0.00     0.157 HD
ATOM     18  H26 ZIN A   1      17.619   4.214  10.539  0.00  0.00     0.157 HD
ENDBRANCH   5  16
BRANCH   3  19
ATOM     19  N6  ZIN A   1      19.409   2.233  14.773  0.00  0.00    -0.231 N 
ATOM     20  H23 ZIN A   1      20.130   2.830  15.024  0.00  0.00     0.174 HD
ATOM     21  H24 ZIN A   1      18.838   1.847  15.457  0.00  0.00     0.174 HD
ENDBRANCH   3  19
TORSDOF 4
ENDMDL
MODEL 4
REMARK VINA RESULT:      -6.1      3.392      5.773
REMARK  4 active torsions:
REMARK  status: ('A' for Active; 'I' for Inactive)
REMARK    1  A    between atoms: C2_2  and  C3_3 
REMARK    2  A    between atoms: C5_5  and  N6_6 
REMARK    3  A    between atoms: C8_8  and  N9_9 
REMARK    4  A    between atoms: C10_10  and  C11_11 
ROOT
ATOM      1  C3  ZIN A   1      18.237  -1.473   6.377  0.00  0.00     0.068 A 
ATOM      2  N4  ZIN A   1      18.352  -2.629   5.745  0.00  0.00    -0.067 NA
ATOM      3  C5  ZIN A   1      18.813  -3.705   6.365  0.00  0.00     0.722 A 
ATOM      4  N7  ZIN A   1      19.179  -3.677   7.638  0.00  0.00    -0.045 NA
ATOM      5  C8  ZIN A   1      19.095  -2.555   8.344  0.00  0.00     0.153 A 
ATOM      6  C10 ZIN A   1      18.614  -1.391   7.715  0.00  0.00     0.045 A 
ENDROOT
BRANCH   6   7
ATOM      7  C11 ZIN A   1      18.502  -0.115   8.462  0.00  0.00    -0.020 A 
ATOM      8  C17 ZIN A   1      19.422   0.909   8.240  0.00  0.00     0.014 A 
ATOM      9  C16 ZIN A   1      19.310   2.096   8.934  0.00  0.00     0.024 A 
ATOM     10  C14 ZIN A   1      18.291   2.268   9.857  0.00  0.00     0.034 A 
ATOM     11  C13 ZIN A   1      17.379   1.252  10.084  0.00  0.00     0.024 A 
ATOM     12 Cl15 ZIN A   1      18.160   3.761  10.731  0.00  0.00    -0.084 Cl
ATOM     13  C12 ZIN A   1      17.479   0.063   9.392  0.00  0.00     0.014 A 
ENDBRANCH   6   7
BRANCH   1  14
ATOM     14  C2  ZIN A   1      17.711  -0.257   5.657  0.00  0.00     0.056 C 
ATOM     15  C1  ZIN A   1      18.450  -0.093   4.327  0.00  0.00     0.011 C 
ENDBRANCH   1  14
BRANCH   5  16
ATOM     16  N9  ZIN A   1      19.479  -2.530   9.673  0.00  0.00    -0.383 N 
ATOM     17  H25 ZIN A   1      18.838  -2.287  10.359  0.00  0.00     0.157 HD
ATOM     18  H26 ZIN A   1      20.389  -2.755   9.918  0.00  0.00     0.157 HD
ENDBRANCH   5  16
BRANCH   3  19
ATOM     19  N6  ZIN A   1      18.916  -4.893   5.663  0.00  0.00    -0.231 N 
ATOM     20  H23 ZIN A   1      18.189  -5.533   5.683  0.00  0.00     0.174 HD
ATOM     21  H24 ZIN A   1      19.718  -5.085   5.150  0.00  0.00     0.174 HD
ENDBRANCH   3  19
TORSDOF 4
ENDMDL
MODEL 5
REMARK VINA RESULT:      -6.1      3.655      5.451
REMARK  4 active torsions:
REMARK  status: ('A' for Active; 'I' for Inactive)
REMARK    1  A    between atoms: C2_2  and  C3_3 
REMARK    2  A    between atoms: C5_5  and  N6_6 
REMARK    3  A    between atoms: C8_8  and  N9_9 
REMARK    4  A    between atoms: C10_10  and  C11_11 
ROOT
ATOM      1  C3  ZIN A   1      18.812   0.598  16.701  0.00  0.00     0.068 A 
ATOM      2  N4  ZIN A   1      18.890   1.196  17.878  0.00  0.00    -0.067 NA
ATOM      3  C5  ZIN A   1      19.071   2.505  17.969  0.00  0.00     0.722 A 
ATOM      4  N7  ZIN A   1      19.183   3.273  16.897  0.00  0.00    -0.045 NA
ATOM      5  C8  ZIN A   1      19.115   2.751  15.677  0.00  0.00     0.153 A 
ATOM      6  C10 ZIN A   1      18.929   1.362  15.543  0.00  0.00     0.045 A 
ENDROOT
BRANCH   6   7
ATOM      7  C11 ZIN A   1      18.847   0.733  14.203  0.00  0.00    -0.020 A 
ATOM      8  C17 ZIN A   1      20.009   0.316  13.553  0.00  0.00     0.014 A 
ATOM      9  C16 ZIN A   1      19.926  -0.273  12.308  0.00  0.00     0.024 A 
ATOM     10  C14 ZIN A   1      18.694  -0.443  11.700  0.00  0.00     0.034 A 
ATOM     11  C13 ZIN A   1      17.539  -0.027  12.339  0.00  0.00     0.024 A 
ATOM     12 Cl15 ZIN A   1      18.598  -1.179  10.131  0.00  0.00    -0.084 Cl
ATOM     13  C12 ZIN A   1      17.610   0.560  13.585  0.00  0.00     0.014 A 
ENDBRANCH   6   7
BRANCH   1  14
ATOM     14  C2  ZIN A   1      18.606  -0.893  16.613  0.00  0.00     0.056 C 
ATOM     15  C1  ZIN A   1      17.129  -1.219  16.845  0.00  0.00     0.011 C 
ENDBRANCH   1  14
BRANCH   5  16
ATOM     16  N9  ZIN A   1      19.232   3.557  14.559  0.00  0.00    -0.383 N 
ATOM     17  H25 ZIN A   1      19.808   3.289  13.826  0.00  0.00     0.157 HD
ATOM     18  H26 ZIN A   1      18.741   4.392  14.510  0.00  0.00     0.157 HD
ENDBRANCH   5  16
BRANCH   3  19
ATOM     19  N6  ZIN A   1      19.147   3.086  19.223  0.00  0.00    -0.231 N 
ATOM     20  H23 ZIN A   1      19.996   3.120  19.691  0.00  0.00     0.174 HD
ATOM     21  H24 ZIN A   1      18.351   3.459  19.634  0.00  0.00     0.174 HD
ENDBRANCH   3  19
TORSDOF 4
ENDMDL
MODEL 6
REMARK VINA RESULT:      -6.0      4.092      6.141
REMARK  4 active torsions:
REMARK  status: ('A' for Active; 'I' for Inactive)
REMARK    1  A    between atoms: C2_2  and  C3_3 
REMARK    2  A    between atoms: C5_5  and  N6_6 
REMARK    3  A    between atoms: C8_8  and  N9_9 
REMARK    4  A    between atoms: C10_10  and  C11_11 
ROOT
ATOM      1  C3  ZIN A   1      19.790  -0.121  11.202  0.00  0.00     0.068 A 
ATOM      2  N4  ZIN A   1      20.004  -0.326   9.913  0.00  0.00    -0.067 NA
ATOM      3  C5  ZIN A   1      19.393  -1.307   9.265  0.00  0.00     0.722 A 
ATOM      4  N7  ZIN A   1      18.546  -2.125   9.871  0.00  0.00    -0.045 NA
ATOM      5  C8  ZIN A   1      18.275  -1.986  11.164  0.00  0.00     0.153 A 
ATOM      6  C10 ZIN A   1      18.911  -0.958  11.885  0.00  0.00     0.045 A 
ENDROOT
BRANCH   6   7
ATOM      7  C11 ZIN A   1      18.642  -0.764  13.330  0.00  0.00    -0.020 A 
ATOM      8  C17 ZIN A   1      19.371  -1.479  14.280  0.00  0.00     0.014 A 
ATOM      9  C16 ZIN A   1      19.119  -1.291  15.623  0.00  0.00     0.024 A 
ATOM     10  C14 ZIN A   1      18.139  -0.401  16.029  0.00  0.00     0.034 A 
ATOM     11  C13 ZIN A   1      17.410   0.308  15.090  0.00  0.00     0.024 A 
ATOM     12 Cl15 ZIN A   1      17.824  -0.174  17.721  0.00  0.00    -0.084 Cl
ATOM     13  C12 ZIN A   1      17.657   0.130  13.744  0.00  0.00     0.014 A 
ENDBRANCH   6   7
BRANCH   1  14
ATOM     14  C2  ZIN A   1      20.494   0.999  11.925  0.00  0.00     0.056 C 
ATOM     15  C1  ZIN A   1      19.815   2.329  11.589  0.00  0.00     0.011 C 
ENDBRANCH   1  14
BRANCH   5  16
ATOM     16  N9  ZIN A   1      17.390  -2.843  11.793  0.00  0.00    -0.383 N 
ATOM     17  H25 ZIN A   1      17.096  -3.651  11.346  0.00  0.00     0.157 HD
ATOM     18  H26 ZIN A   1      17.060  -2.633  12.680  0.00  0.00     0.157 HD
ENDBRANCH   5  16
BRANCH   3  19
ATOM     19  N6  ZIN A   1      19.649  -1.483   7.917  0.00  0.00    -0.231 N 
ATOM     20  H23 ZIN A   1      19.225  -2.208   7.433  0.00  0.00     0.174 HD
ATOM     21  H24 ZIN A   1      20.255  -0.882   7.455  0.00  0.00     0.174 HD
ENDBRANCH   3  19
TORSDOF 4
ENDMDL
MODEL 7
REMARK VINA RESULT:      -6.0      3.552      5.382
REMARK  4 active torsions:
REMARK  status: ('A' for Active; 'I' for Inactive)
REMARK    1  A    between atoms: C2_2  and  C3_3 
REMARK    2  A    between atoms: C5_5  and  N6_6 
REMARK    3  A    between atoms: C8_8  and  N9_9 
REMARK    4  A    between atoms: C10_10  and  C11_11 
ROOT
ATOM      1  C3  ZIN A   1      18.432   1.519   9.852  0.00  0.00     0.068 A 
ATOM      2  N4  ZIN A   1      18.453   1.750   8.549  0.00  0.00    -0.067 NA
ATOM      3  C5  ZIN A   1      18.946   0.857   7.704  0.00  0.00     0.722 A 
ATOM      4  N7  ZIN A   1      19.439  -0.301   8.117  0.00  0.00    -0.045 NA
ATOM      5  C8  ZIN A   1      19.454  -0.610   9.409  0.00  0.00     0.153 A 
ATOM      6  C10 ZIN A   1      18.944   0.318  10.336  0.00  0.00     0.045 A 
ENDROOT
BRANCH   6   7
ATOM      7  C11 ZIN A   1      18.940   0.018  11.788  0.00  0.00    -0.020 A 
ATOM      8  C17 ZIN A   1      17.860  -0.653  12.361  0.00  0.00     0.014 A 
ATOM      9  C16 ZIN A   1      17.864  -0.934  13.712  0.00  0.00     0.024 A 
ATOM     10  C14 ZIN A   1      18.934  -0.544  14.500  0.00  0.00     0.034 A 
ATOM     11  C13 ZIN A   1      20.005   0.127  13.936  0.00  0.00     0.024 A 
ATOM     12 Cl15 ZIN A   1      18.929  -0.895  16.199  0.00  0.00    -0.084 Cl
ATOM     13  C12 ZIN A   1      20.013   0.409  12.586  0.00  0.00     0.014 A 
ENDBRANCH   6   7
BRANCH   1  14
ATOM     14  C2  ZIN A   1      17.868   2.545  10.801  0.00  0.00     0.056 C 
ATOM     15  C1  ZIN A   1      18.040   3.943  10.202  0.00  0.00     0.011 C 
ENDBRANCH   1  14
BRANCH   5  16
ATOM     16  N9  ZIN A   1      19.971  -1.821   9.836  0.00  0.00    -0.383 N 
ATOM     17  H25 ZIN A   1      20.930  -1.937   9.918  0.00  0.00     0.157 HD
ATOM     18  H26 ZIN A   1      19.373  -2.553  10.050  0.00  0.00     0.157 HD
ENDBRANCH   5  16
BRANCH   3  19
ATOM     19  N6  ZIN A   1      18.947   1.143   6.350  0.00  0.00    -0.231 N 
ATOM     20  H23 ZIN A   1      18.335   0.682   5.757  0.00  0.00     0.174 HD
ATOM     21  H24 ZIN A   1      19.562   1.805   5.995  0.00  0.00     0.174 HD
ENDBRANCH   3  19
TORSDOF 4
ENDMDL
MODEL 8
REMARK VINA RESULT:      -5.9      3.454      5.149
REMARK  4 active torsions:
REMARK  status: ('A' for Active; 'I' for Inactive)
REMARK    1  A    between atoms: C2_2  and  C3_3 
REMARK    2  A    between atoms: C5_5  and  N6_6 
REMARK    3  A    between atoms: C8_8  and  N9_9 
REMARK    4  A    between atoms: C10_10  and  C11_11 
ROOT
ATOM      1  C3  ZIN A   1      19.296  -2.354  10.559  0.00  0.00     0.068 A 
ATOM      2  N4  ZIN A   1      19.413  -3.666  10.432  0.00  0.00    -0.067 NA
ATOM      3  C5  ZIN A   1      18.942  -4.294   9.365  0.00  0.00     0.722 A 
ATOM      4  N7  ZIN A   1      18.335  -3.647   8.382  0.00  0.00    -0.045 NA
ATOM      5  C8  ZIN A   1      18.177  -2.329   8.433  0.00  0.00     0.153 A 
ATOM      6  C10 ZIN A   1      18.660  -1.630   9.554  0.00  0.00     0.045 A 
ENDROOT
BRANCH   6   7
ATOM      7  C11 ZIN A   1      18.507  -0.158   9.656  0.00  0.00    -0.020 A 
ATOM      8  C17 ZIN A   1      17.491   0.387  10.441  0.00  0.00     0.014 A 
ATOM      9  C16 ZIN A   1      17.355   1.757  10.536  0.00  0.00     0.024 A 
ATOM     10  C14 ZIN A   1      18.222   2.590   9.848  0.00  0.00     0.034 A 
ATOM     11  C13 ZIN A   1      19.229   2.053   9.064  0.00  0.00     0.024 A 
ATOM     12 Cl15 ZIN A   1      18.042   4.312   9.967  0.00  0.00    -0.084 Cl
ATOM     13  C12 ZIN A   1      19.375   0.685   8.966  0.00  0.00     0.014 A 
ENDBRANCH   6   7
BRANCH   1  14
ATOM     14  C2  ZIN A   1      19.836  -1.654  11.780  0.00  0.00     0.056 C 
ATOM     15  C1  ZIN A   1      18.936  -1.953  12.980  0.00  0.00     0.011 C 
ENDBRANCH   1  14
BRANCH   5  16
ATOM     16  N9  ZIN A   1      17.542  -1.657   7.404  0.00  0.00    -0.383 N 
ATOM     17  H25 ZIN A   1      17.035  -0.851   7.590  0.00  0.00     0.157 HD
ATOM     18  H26 ZIN A   1      17.601  -1.993   6.496  0.00  0.00     0.157 HD
ENDBRANCH   5  16
BRANCH   3  19
ATOM     19  N6  ZIN A   1      19.087  -5.667   9.276  0.00  0.00    -0.231 N 
ATOM     20  H23 ZIN A   1      19.749  -6.121   9.819  0.00  0.00     0.174 HD
ATOM     21  H24 ZIN A   1      18.527  -6.176   8.668  0.00  0.00     0.174 HD
ENDBRANCH   3  19
TORSDOF 4
ENDMDL
MODEL 9
REMARK VINA RESULT:      -5.8      2.535      4.427
REMARK  4 active torsions:
REMARK  status: ('A' for Active; 'I' for Inactive)
REMARK    1  A    between atoms: C2_2  and  C3_3 
REMARK    2  A    between atoms: C5_5  and  N6_6 
REMARK    3  A    between atoms: C8_8  and  N9_9 
REMARK    4  A    between atoms: C10_10  and  C11_11 
ROOT
ATOM      1  C3  ZIN A   1      18.378  -1.359   9.401  0.00  0.00     0.068 A 
ATOM      2  N4  ZIN A   1      18.701  -2.641   9.430  0.00  0.00    -0.067 NA
ATOM      3  C5  ZIN A   1      19.538  -3.114  10.342  0.00  0.00     0.722 A 
ATOM      4  N7  ZIN A   1      20.087  -2.335  11.261  0.00  0.00    -0.045 NA
ATOM      5  C8  ZIN A   1      19.813  -1.035  11.301  0.00  0.00     0.153 A 
ATOM      6  C10 ZIN A   1      18.933  -0.497  10.343  0.00  0.00     0.045 A 
ENDROOT
BRANCH   6   7
ATOM      7  C11 ZIN A   1      18.598   0.947  10.347  0.00  0.00    -0.020 A 
ATOM      8  C17 ZIN A   1      19.196   1.807   9.427  0.00  0.00     0.014 A 
ATOM      9  C16 ZIN A   1      18.876   3.149   9.432  0.00  0.00     0.024 A 
ATOM     10  C14 ZIN A   1      17.970   3.644  10.354  0.00  0.00     0.034 A 
ATOM     11  C13 ZIN A   1      17.377   2.796  11.272  0.00  0.00     0.024 A 
ATOM     12 Cl15 ZIN A   1      17.577   5.335  10.358  0.00  0.00    -0.084 Cl
ATOM     13  C12 ZIN A   1      17.686   1.451  11.273  0.00  0.00     0.014 A 
ENDBRANCH   6   7
BRANCH   1  14
ATOM     14  C2  ZIN A   1      17.425  -0.835   8.357  0.00  0.00     0.056 C 
ATOM     15  C1  ZIN A   1      18.135  -0.777   7.002  0.00  0.00     0.011 C 
ENDBRANCH   1  14
BRANCH   5  16
ATOM     16  N9  ZIN A   1      20.389  -0.225  12.263  0.00  0.00    -0.383 N 
ATOM     17  H25 ZIN A   1      19.841   0.396  12.766  0.00  0.00     0.157 HD
ATOM     18  H26 ZIN A   1      21.343  -0.276  12.432  0.00  0.00     0.157 HD
ENDBRANCH   5  16
BRANCH   3  19
ATOM     19  N6  ZIN A   1      19.848  -4.463  10.333  0.00  0.00    -0.231 N 
ATOM     20  H23 ZIN A   1      20.547  -4.796   9.751  0.00  0.00     0.174 HD
ATOM     21  H24 ZIN A   1      19.364  -5.076  10.910  0.00  0.00     0.174 HD
ENDBRANCH   3  19
TORSDOF 4
ENDMDL
