MODEL 1
REMARK VINA RESULT:      -8.3      0.000      0.000
REMARK  8 active torsions:
REMARK  status: ('A' for Active; 'I' for Inactive)
REMARK    1  A    between atoms: C2_2  and  C3_3 
REMARK    2  A    between atoms: C3_3  and  N4_4 
REMARK    3  A    between atoms: C7_7  and  C9_8 
REMARK       I    between atoms: C9_8  and  N11_10 
REMARK    4  A    between atoms: N11_10  and  C12_11 
REMARK       I    between atoms: N11_10  and  C19_18 
REMARK    5  A    between atoms: C12_11  and  C13_12 
REMARK    6  A    between atoms: C13_12  and  C14_13 
REMARK    7  A    between atoms: C14_13  and  N15_14 
REMARK       I    between atoms: C19_18  and  N21_20 
REMARK    8  A    between atoms: N21_20  and  C22_21 
ROOT
ATOM      1  N4  <0> d   1      19.152   2.241  14.317  0.00  0.00    -0.062 N 
ATOM      2  H5  <0> d   1      20.032   2.717  14.445  0.00  0.00     0.280 HD
ATOM      3  C6  <0> d   1      18.052   3.191  14.513  0.00  0.00     0.249 C 
ATOM      4  C7  <0> d   1      18.216   4.368  13.549  0.00  0.00     0.105 C 
ATOM      5  C24 <0> d   1      18.188   3.847  12.110  0.00  0.00     0.027 C 
ATOM      6  C25 <0> d   1      19.289   2.796  11.932  0.00  0.00     0.051 C 
ATOM      7  C27 <0> d   1      19.227   2.239  10.543  0.00  0.00    -0.039 A 
ATOM      8  C28 <0> d   1      19.640   0.913  10.384  0.00  0.00     0.005 A 
ATOM      9  C29 <0> d   1      20.106   0.031  11.454  0.00  0.00    -0.028 A 
ATOM     10  C30 <0> d   1      20.394  -1.119  10.864  0.00  0.00     0.096 A 
ATOM     11  N31 <0> d   1      20.143  -1.037   9.503  0.00  0.00    -0.365 N 
ATOM     12  C32 <0> d   1      19.672   0.200   9.181  0.00  0.00     0.043 A 
ATOM     13  C33 <0> d   1      19.247   0.865   8.032  0.00  0.00     0.030 A 
ATOM     14  C34 <0> d   1      18.833   2.181   8.188  0.00  0.00     0.003 A 
ATOM     15  C35 <0> d   1      18.819   2.860   9.405  0.00  0.00     0.008 A 
ATOM     16  C36 <0> d   1      20.149   0.565  12.863  0.00  0.00     0.075 C 
ATOM     17  C37 <0> d   1      19.094   1.681  12.961  0.00  0.00     0.201 C 
ATOM     18  H67 <0> d   1      20.283  -1.758   8.870  0.00  0.00     0.165 HD
ENDROOT
BRANCH   4  19
ATOM     19  C9  <0> d   1      17.089   5.348  13.754  0.00  0.00     0.233 C 
ATOM     20  O10 <0> d   1      16.032   5.184  13.183  0.00  0.00    -0.272 OA
ATOM     21  N11 <0> d   1      17.257   6.408  14.569  0.00  0.00    -0.270 N 
ATOM     22  C19 <0> d   1      18.447   6.618  15.164  0.00  0.00     0.325 C 
ATOM     23  O20 <0> d   1      18.736   7.727  15.569  0.00  0.00    -0.247 OA
ATOM     24  N21 <0> d   1      19.318   5.600  15.309  0.00  0.00    -0.343 N 
ATOM     25  H58 <0> d   1      19.123   4.736  14.915  0.00  0.00     0.164 HD
BRANCH  21  26
ATOM     26  C12 <0> d   1      16.144   7.330  14.809  0.00  0.00     0.138 C 
BRANCH  26  27
ATOM     27  C13 <0> d   1      15.176   6.710  15.818  0.00  0.00     0.048 C 
BRANCH  27  28
ATOM     28  C14 <0> d   1      15.758   6.837  17.228  0.00  0.00     0.235 C 
BRANCH  28  29
ATOM     29  N15 <0> d   1      15.695   5.534  17.902  0.00  0.00    -0.079 N 
ATOM     30  H16 <0> d   1      15.214   4.872  17.312  0.00  0.00     0.278 HD
ATOM     31  C17 <0> d   1      17.058   5.054  18.167  0.00  0.00     0.269 C 
ATOM     32  C18 <0> d   1      14.971   5.674  19.173  0.00  0.00     0.269 C 
ENDBRANCH  28  29
ENDBRANCH  27  28
ENDBRANCH  26  27
ENDBRANCH  21  26
BRANCH  24  33
ATOM     33  C22 <0> d   1      20.559   5.798  16.063  0.00  0.00     0.120 C 
ATOM     34  C23 <0> d   1      21.720   6.008  15.089  0.00  0.00     0.026 C 
ENDBRANCH  24  33
ENDBRANCH   4  19
BRANCH   1  35
ATOM     35  C3  <0> d   1      19.038   1.153  15.298  0.00  0.00     0.262 C 
BRANCH  35  36
ATOM     36  C2  <0> d   1      17.622   0.639  15.314  0.00  0.00    -0.010 C 
ATOM     37  C1  <0> d   1      17.228  -0.169  16.267  0.00  0.00     0.008 C 
ENDBRANCH  35  36
ENDBRANCH   1  35
TORSDOF 8
ENDMDL
MODEL 2
REMARK VINA RESULT:      -8.2      3.847      9.356
REMARK  8 active torsions:
REMARK  status: ('A' for Active; 'I' for Inactive)
REMARK    1  A    between atoms: C2_2  and  C3_3 
REMARK    2  A    between atoms: C3_3  and  N4_4 
REMARK    3  A    between atoms: C7_7  and  C9_8 
REMARK       I    between atoms: C9_8  and  N11_10 
REMARK    4  A    between atoms: N11_10  and  C12_11 
REMARK       I    between atoms: N11_10  and  C19_18 
REMARK    5  A    between atoms: C12_11  and  C13_12 
REMARK    6  A    between atoms: C13_12  and  C14_13 
REMARK    7  A    between atoms: C14_13  and  N15_14 
REMARK       I    between atoms: C19_18  and  N21_20 
REMARK    8  A    between atoms: N21_20  and  C22_21 
ROOT
ATOM      1  N4  <0> d   1      18.115   1.377  12.017  0.00  0.00    -0.062 N 
ATOM      2  H5  <0> d   1      19.049   1.490  11.655  0.00  0.00     0.280 HD
ATOM      3  C6  <0> d   1      17.491   0.202  11.400  0.00  0.00     0.249 C 
ATOM      4  C7  <0> d   1      18.362  -1.031  11.655  0.00  0.00     0.105 C 
ATOM      5  C24 <0> d   1      18.486  -1.254  13.164  0.00  0.00     0.027 C 
ATOM      6  C25 <0> d   1      19.064   0.006  13.815  0.00  0.00     0.051 C 
ATOM      7  C27 <0> d   1      19.131  -0.185  15.300  0.00  0.00    -0.039 A 
ATOM      8  C28 <0> d   1      18.989   0.963  16.083  0.00  0.00     0.005 A 
ATOM      9  C29 <0> d   1      18.766   2.317  15.579  0.00  0.00    -0.028 A 
ATOM     10  C30 <0> d   1      18.695   3.089  16.653  0.00  0.00     0.096 A 
ATOM     11  N31 <0> d   1      18.852   2.328  17.801  0.00  0.00    -0.365 N 
ATOM     12  C32 <0> d   1      19.028   1.016  17.481  0.00  0.00     0.043 A 
ATOM     13  C33 <0> d   1      19.219  -0.187  18.161  0.00  0.00     0.030 A 
ATOM     14  C34 <0> d   1      19.356  -1.329  17.385  0.00  0.00     0.003 A 
ATOM     15  C35 <0> d   1      19.316  -1.341  15.992  0.00  0.00     0.008 A 
ATOM     16  C36 <0> d   1      18.667   2.526  14.089  0.00  0.00     0.075 C 
ATOM     17  C37 <0> d   1      18.177   1.204  13.474  0.00  0.00     0.201 C 
ATOM     18  H67 <0> d   1      18.838   2.680  18.705  0.00  0.00     0.165 HD
ENDROOT
BRANCH   4  19
ATOM     19  C9  <0> d   1      17.725  -2.238  11.016  0.00  0.00     0.233 C 
ATOM     20  O10 <0> d   1      16.970  -2.937  11.658  0.00  0.00    -0.272 OA
ATOM     21  N11 <0> d   1      17.995  -2.542   9.731  0.00  0.00    -0.270 N 
ATOM     22  C19 <0> d   1      18.871  -1.795   9.032  0.00  0.00     0.325 C 
ATOM     23  O20 <0> d   1      19.410  -2.255   8.045  0.00  0.00    -0.247 OA
ATOM     24  N21 <0> d   1      19.151  -0.537   9.427  0.00  0.00    -0.343 N 
ATOM     25  H58 <0> d   1      18.785  -0.198  10.259  0.00  0.00     0.164 HD
BRANCH  21  26
ATOM     26  C12 <0> d   1      17.335  -3.685   9.095  0.00  0.00     0.138 C 
BRANCH  26  27
ATOM     27  C13 <0> d   1      18.059  -4.975   9.486  0.00  0.00     0.048 C 
BRANCH  27  28
ATOM     28  C14 <0> d   1      18.254  -5.847   8.245  0.00  0.00     0.235 C 
BRANCH  28  29
ATOM     29  N15 <0> d   1      18.926  -5.066   7.198  0.00  0.00    -0.079 N 
ATOM     30  H16 <0> d   1      18.803  -4.081   7.381  0.00  0.00     0.278 HD
ATOM     31  C17 <0> d   1      20.360  -5.387   7.194  0.00  0.00     0.269 C 
ATOM     32  C18 <0> d   1      18.347  -5.398   5.890  0.00  0.00     0.269 C 
ENDBRANCH  28  29
ENDBRANCH  27  28
ENDBRANCH  26  27
ENDBRANCH  21  26
BRANCH  24  33
ATOM     33  C22 <0> d   1      20.008   0.318   8.601  0.00  0.00     0.120 C 
ATOM     34  C23 <0> d   1      19.136   1.216   7.721  0.00  0.00     0.026 C 
ENDBRANCH  24  33
ENDBRANCH   4  19
BRANCH   1  35
ATOM     35  C3  <0> d   1      17.321   2.573  11.702  0.00  0.00     0.262 C 
BRANCH  35  36
ATOM     36  C2  <0> d   1      17.876   3.231  10.466  0.00  0.00    -0.010 C 
ATOM     37  C1  <0> d   1      17.655   4.504  10.244  0.00  0.00     0.008 C 
ENDBRANCH  35  36
ENDBRANCH   1  35
TORSDOF 8
ENDMDL
MODEL 3
REMARK VINA RESULT:      -8.1      3.084      5.873
REMARK  8 active torsions:
REMARK  status: ('A' for Active; 'I' for Inactive)
REMARK    1  A    between atoms: C2_2  and  C3_3 
REMARK    2  A    between atoms: C3_3  and  N4_4 
REMARK    3  A    between atoms: C7_7  and  C9_8 
REMARK       I    between atoms: C9_8  and  N11_10 
REMARK    4  A    between atoms: N11_10  and  C12_11 
REMARK       I    between atoms: N11_10  and  C19_18 
REMARK    5  A    between atoms: C12_11  and  C13_12 
REMARK    6  A    between atoms: C13_12  and  C14_13 
REMARK    7  A    between atoms: C14_13  and  N15_14 
REMARK       I    between atoms: C19_18  and  N21_20 
REMARK    8  A    between atoms: N21_20  and  C22_21 
ROOT
ATOM      1  N4  <0> d   1      18.929   0.277   9.825  0.00  0.00    -0.062 N 
ATOM      2  H5  <0> d   1      18.029   0.707   9.680  0.00  0.00     0.280 HD
ATOM      3  C6  <0> d   1      19.507   0.764  11.081  0.00  0.00     0.249 C 
ATOM      4  C7  <0> d   1      18.540   0.480  12.233  0.00  0.00     0.105 C 
ATOM      5  C24 <0> d   1      18.309  -1.030  12.332  0.00  0.00     0.027 C 
ATOM      6  C25 <0> d   1      17.780  -1.549  10.991  0.00  0.00     0.051 C 
ATOM      7  C27 <0> d   1      17.610  -3.036  11.063  0.00  0.00    -0.039 A 
ATOM      8  C28 <0> d   1      17.782  -3.742   9.870  0.00  0.00     0.005 A 
ATOM      9  C29 <0> d   1      18.129  -3.157   8.575  0.00  0.00    -0.028 A 
ATOM     10  C30 <0> d   1      18.186  -4.175   7.730  0.00  0.00     0.096 A 
ATOM     11  N31 <0> d   1      17.908  -5.362   8.389  0.00  0.00    -0.365 N 
ATOM     12  C32 <0> d   1      17.662  -5.127   9.708  0.00  0.00     0.043 A 
ATOM     13  C33 <0> d   1      17.348  -5.878  10.840  0.00  0.00     0.030 A 
ATOM     14  C34 <0> d   1      17.179  -5.179  12.027  0.00  0.00     0.003 A 
ATOM     15  C35 <0> d   1      17.303  -3.796  12.148  0.00  0.00     0.008 A 
ATOM     16  C36 <0> d   1      18.332  -1.666   8.488  0.00  0.00     0.075 C 
ATOM     17  C37 <0> d   1      18.767  -1.182   9.882  0.00  0.00     0.201 C 
ATOM     18  H67 <0> d   1      17.891  -6.237   7.970  0.00  0.00     0.165 HD
ENDROOT
BRANCH   4  19
ATOM     19  C9  <0> d   1      19.130   0.986  13.524  0.00  0.00     0.233 C 
ATOM     20  O10 <0> d   1      19.841   0.265  14.190  0.00  0.00    -0.272 OA
ATOM     21  N11 <0> d   1      18.866   2.241  13.939  0.00  0.00    -0.270 N 
ATOM     22  C19 <0> d   1      18.037   3.026  13.225  0.00  0.00     0.325 C 
ATOM     23  O20 <0> d   1      17.492   3.975  13.754  0.00  0.00    -0.247 OA
ATOM     24  N21 <0> d   1      17.809   2.759  11.924  0.00  0.00    -0.343 N 
ATOM     25  H58 <0> d   1      18.178   1.958  11.522  0.00  0.00     0.164 HD
BRANCH  21  26
ATOM     26  C12 <0> d   1      19.482   2.751  15.167  0.00  0.00     0.138 C 
BRANCH  26  27
ATOM     27  C13 <0> d   1      18.505   2.588  16.333  0.00  0.00     0.048 C 
BRANCH  27  28
ATOM     28  C14 <0> d   1      19.137   1.703  17.408  0.00  0.00     0.235 C 
BRANCH  28  29
ATOM     29  N15 <0> d   1      18.890   0.291  17.087  0.00  0.00    -0.079 N 
ATOM     30  H16 <0> d   1      19.407   0.038  16.258  0.00  0.00     0.278 HD
ATOM     31  C17 <0> d   1      19.327  -0.550  18.210  0.00  0.00     0.269 C 
ATOM     32  C18 <0> d   1      17.455   0.085  16.851  0.00  0.00     0.269 C 
ENDBRANCH  28  29
ENDBRANCH  27  28
ENDBRANCH  26  27
ENDBRANCH  21  26
BRANCH  24  33
ATOM     33  C22 <0> d   1      17.006   3.681  11.116  0.00  0.00     0.120 C 
ATOM     34  C23 <0> d   1      17.896   4.345  10.063  0.00  0.00     0.026 C 
ENDBRANCH  24  33
ENDBRANCH   4  19
BRANCH   1  35
ATOM     35  C3  <0> d   1      19.821   0.624   8.710  0.00  0.00     0.262 C 
BRANCH  35  36
ATOM     36  C2  <0> d   1      19.164   1.673   7.851  0.00  0.00    -0.010 C 
ATOM     37  C1  <0> d   1      18.881   1.413   6.598  0.00  0.00     0.008 C 
ENDBRANCH  35  36
ENDBRANCH   1  35
TORSDOF 8
ENDMDL
MODEL 4
REMARK VINA RESULT:      -8.0      1.979      2.989
REMARK  8 active torsions:
REMARK  status: ('A' for Active; 'I' for Inactive)
REMARK    1  A    between atoms: C2_2  and  C3_3 
REMARK    2  A    between atoms: C3_3  and  N4_4 
REMARK    3  A    between atoms: C7_7  and  C9_8 
REMARK       I    between atoms: C9_8  and  N11_10 
REMARK    4  A    between atoms: N11_10  and  C12_11 
REMARK       I    between atoms: N11_10  and  C19_18 
REMARK    5  A    between atoms: C12_11  and  C13_12 
REMARK    6  A    between atoms: C13_12  and  C14_13 
REMARK    7  A    between atoms: C14_13  and  N15_14 
REMARK       I    between atoms: C19_18  and  N21_20 
REMARK    8  A    between atoms: N21_20  and  C22_21 
ROOT
ATOM      1  N4  <0> d   1      18.097   0.293  11.921  0.00  0.00    -0.062 N 
ATOM      2  H5  <0> d   1      19.029   0.412  12.287  0.00  0.00     0.280 HD
ATOM      3  C6  <0> d   1      17.341   1.537  12.099  0.00  0.00     0.249 C 
ATOM      4  C7  <0> d   1      18.086   2.689  11.419  0.00  0.00     0.105 C 
ATOM      5  C24 <0> d   1      18.221   2.385   9.924  0.00  0.00     0.027 C 
ATOM      6  C25 <0> d   1      18.941   1.045   9.744  0.00  0.00     0.051 C 
ATOM      7  C27 <0> d   1      19.021   0.714   8.286  0.00  0.00    -0.039 A 
ATOM      8  C28 <0> d   1      19.017  -0.643   7.953  0.00  0.00     0.005 A 
ATOM      9  C29 <0> d   1      18.922  -1.753   8.901  0.00  0.00    -0.028 A 
ATOM     10  C30 <0> d   1      18.956  -2.853   8.163  0.00  0.00     0.096 A 
ATOM     11  N31 <0> d   1      19.060  -2.527   6.820  0.00  0.00    -0.365 N 
ATOM     12  C32 <0> d   1      19.093  -1.174   6.660  0.00  0.00     0.043 A 
ATOM     13  C33 <0> d   1      19.175  -0.271   5.602  0.00  0.00     0.030 A 
ATOM     14  C34 <0> d   1      19.176   1.078   5.930  0.00  0.00     0.003 A 
ATOM     15  C35 <0> d   1      19.103   1.569   7.232  0.00  0.00     0.008 A 
ATOM     16  C36 <0> d   1      18.812  -1.440  10.371  0.00  0.00     0.075 C 
ATOM     17  C37 <0> d   1      18.174  -0.046  10.494  0.00  0.00     0.201 C 
ATOM     18  H67 <0> d   1      19.104  -3.171   6.096  0.00  0.00     0.165 HD
ENDROOT
BRANCH   4  19
ATOM     19  C9  <0> d   1      17.313   3.969  11.606  0.00  0.00     0.233 C 
ATOM     20  O10 <0> d   1      16.531   4.336  10.755  0.00  0.00    -0.272 OA
ATOM     21  N11 <0> d   1      17.492   4.708  12.720  0.00  0.00    -0.270 N 
ATOM     22  C19 <0> d   1      18.396   4.326  13.643  0.00  0.00     0.325 C 
ATOM     23  O20 <0> d   1      18.843   5.139  14.427  0.00  0.00    -0.247 OA
ATOM     24  N21 <0> d   1      18.806   3.043  13.695  0.00  0.00    -0.343 N 
ATOM     25  H58 <0> d   1      18.512   2.412  13.020  0.00  0.00     0.164 HD
BRANCH  21  26
ATOM     26  C12 <0> d   1      16.702   5.924  12.926  0.00  0.00     0.138 C 
BRANCH  26  27
ATOM     27  C13 <0> d   1      15.663   5.678  14.022  0.00  0.00     0.048 C 
BRANCH  27  28
ATOM     28  C14 <0> d   1      15.655   6.861  14.992  0.00  0.00     0.235 C 
BRANCH  28  29
ATOM     29  N15 <0> d   1      16.800   6.753  15.905  0.00  0.00    -0.079 N 
ATOM     30  H16 <0> d   1      17.574   6.318  15.425  0.00  0.00     0.278 HD
ATOM     31  C17 <0> d   1      17.195   8.095  16.354  0.00  0.00     0.269 C 
ATOM     32  C18 <0> d   1      16.426   5.939  17.069  0.00  0.00     0.269 C 
ENDBRANCH  28  29
ENDBRANCH  27  28
ENDBRANCH  26  27
ENDBRANCH  21  26
BRANCH  24  33
ATOM     33  C22 <0> d   1      19.694   2.601  14.774  0.00  0.00     0.120 C 
ATOM     34  C23 <0> d   1      18.858   2.046  15.928  0.00  0.00     0.026 C 
ENDBRANCH  24  33
ENDBRANCH   4  19
BRANCH   1  35
ATOM     35  C3  <0> d   1      17.423  -0.795  12.644  0.00  0.00     0.262 C 
BRANCH  35  36
ATOM     36  C2  <0> d   1      18.088  -0.994  13.981  0.00  0.00    -0.010 C 
ATOM     37  C1  <0> d   1      19.381  -1.195  14.048  0.00  0.00     0.008 C 
ENDBRANCH  35  36
ENDBRANCH   1  35
TORSDOF 8
ENDMDL
MODEL 5
REMARK VINA RESULT:      -8.0      5.087     10.619
REMARK  8 active torsions:
REMARK  status: ('A' for Active; 'I' for Inactive)
REMARK    1  A    between atoms: C2_2  and  C3_3 
REMARK    2  A    between atoms: C3_3  and  N4_4 
REMARK    3  A    between atoms: C7_7  and  C9_8 
REMARK       I    between atoms: C9_8  and  N11_10 
REMARK    4  A    between atoms: N11_10  and  C12_11 
REMARK       I    between atoms: N11_10  and  C19_18 
REMARK    5  A    between atoms: C12_11  and  C13_12 
REMARK    6  A    between atoms: C13_12  and  C14_13 
REMARK    7  A    between atoms: C14_13  and  N15_14 
REMARK       I    between atoms: C19_18  and  N21_20 
REMARK    8  A    between atoms: N21_20  and  C22_21 
ROOT
ATOM      1  N4  <0> d   1      18.238  -0.938   9.240  0.00  0.00    -0.062 N 
ATOM      2  H5  <0> d   1      19.173  -1.137   8.917  0.00  0.00     0.280 HD
ATOM      3  C6  <0> d   1      17.437  -2.166   9.197  0.00  0.00     0.249 C 
ATOM      4  C7  <0> d   1      18.119  -3.250  10.035  0.00  0.00     0.105 C 
ATOM      5  C24 <0> d   1      18.233  -2.768  11.483  0.00  0.00     0.027 C 
ATOM      6  C25 <0> d   1      19.003  -1.444  11.515  0.00  0.00     0.051 C 
ATOM      7  C27 <0> d   1      19.065  -0.936  12.923  0.00  0.00    -0.039 A 
ATOM      8  C28 <0> d   1      19.108   0.451  13.084  0.00  0.00     0.005 A 
ATOM      9  C29 <0> d   1      19.080   1.437  12.004  0.00  0.00    -0.028 A 
ATOM     10  C30 <0> d   1      19.143   2.618  12.600  0.00  0.00     0.096 A 
ATOM     11  N31 <0> d   1      19.204   2.458  13.976  0.00  0.00    -0.365 N 
ATOM     12  C32 <0> d   1      19.178   1.136  14.303  0.00  0.00     0.043 A 
ATOM     13  C33 <0> d   1      19.199   0.369  15.467  0.00  0.00     0.030 A 
ATOM     14  C34 <0> d   1      19.153  -1.009  15.309  0.00  0.00     0.003 A 
ATOM     15  C35 <0> d   1      19.088  -1.656  14.076  0.00  0.00     0.008 A 
ATOM     16  C36 <0> d   1      18.989   0.946  10.582  0.00  0.00     0.075 C 
ATOM     17  C37 <0> d   1      18.297  -0.427  10.615  0.00  0.00     0.201 C 
ATOM     18  H67 <0> d   1      19.258   3.186  14.616  0.00  0.00     0.165 HD
ENDROOT
BRANCH   4  19
ATOM     19  C9  <0> d   1      17.299  -4.514   9.987  0.00  0.00     0.233 C 
ATOM     20  O10 <0> d   1      16.411  -4.692  10.793  0.00  0.00    -0.272 OA
ATOM     21  N11 <0> d   1      17.553  -5.447   9.048  0.00  0.00    -0.270 N 
ATOM     22  C19 <0> d   1      18.571  -5.272   8.182  0.00  0.00     0.325 C 
ATOM     23  O20 <0> d   1      19.052  -6.229   7.609  0.00  0.00    -0.247 OA
ATOM     24  N21 <0> d   1      19.056  -4.036   7.954  0.00  0.00    -0.343 N 
ATOM     25  H58 <0> d   1      18.729  -3.283   8.470  0.00  0.00     0.164 HD
BRANCH  21  26
ATOM     26  C12 <0> d   1      16.722  -6.651   8.968  0.00  0.00     0.138 C 
BRANCH  26  27
ATOM     27  C13 <0> d   1      15.433  -6.331   8.208  0.00  0.00     0.048 C 
BRANCH  27  28
ATOM     28  C14 <0> d   1      15.536  -6.869   6.779  0.00  0.00     0.235 C 
BRANCH  28  29
ATOM     29  N15 <0> d   1      15.287  -5.778   5.828  0.00  0.00    -0.079 N 
ATOM     30  H16 <0> d   1      15.012  -4.947   6.331  0.00  0.00     0.278 HD
ATOM     31  C17 <0> d   1      16.513  -5.505   5.066  0.00  0.00     0.269 C 
ATOM     32  C18 <0> d   1      14.214  -6.169   4.904  0.00  0.00     0.269 C 
ENDBRANCH  28  29
ENDBRANCH  27  28
ENDBRANCH  26  27
ENDBRANCH  21  26
BRANCH  24  33
ATOM     33  C22 <0> d   1      20.078  -3.828   6.924  0.00  0.00     0.120 C 
ATOM     34  C23 <0> d   1      19.429  -3.230   5.674  0.00  0.00     0.026 C 
ENDBRANCH  24  33
ENDBRANCH   4  19
BRANCH   1  35
ATOM     35  C3  <0> d   1      17.626   0.075   8.370  0.00  0.00     0.262 C 
BRANCH  35  36
ATOM     36  C2  <0> d   1      18.310   0.063   7.028  0.00  0.00    -0.010 C 
ATOM     37  C1  <0> d   1      18.908   1.142   6.586  0.00  0.00     0.008 C 
ENDBRANCH  35  36
ENDBRANCH   1  35
TORSDOF 8
ENDMDL
MODEL 6
REMARK VINA RESULT:      -8.0      2.678      4.808
REMARK  8 active torsions:
REMARK  status: ('A' for Active; 'I' for Inactive)
REMARK    1  A    between atoms: C2_2  and  C3_3 
REMARK    2  A    between atoms: C3_3  and  N4_4 
REMARK    3  A    between atoms: C7_7  and  C9_8 
REMARK       I    between atoms: C9_8  and  N11_10 
REMARK    4  A    between atoms: N11_10  and  C12_11 
REMARK       I    between atoms: N11_10  and  C19_18 
REMARK    5  A    between atoms: C12_11  and  C13_12 
REMARK    6  A    between atoms: C13_12  and  C14_13 
REMARK    7  A    between atoms: C14_13  and  N15_14 
REMARK       I    between atoms: C19_18  and  N21_20 
REMARK    8  A    between atoms: N21_20  and  C22_21 
ROOT
ATOM      1  N4  <0> d   1      18.101  -1.447  10.779  0.00  0.00    -0.062 N 
ATOM      2  H5  <0> d   1      19.043  -1.543  11.126  0.00  0.00     0.280 HD
ATOM      3  C6  <0> d   1      17.496  -0.235  11.341  0.00  0.00     0.249 C 
ATOM      4  C7  <0> d   1      18.365   0.977  10.996  0.00  0.00     0.105 C 
ATOM      5  C24 <0> d   1      18.455   1.112   9.473  0.00  0.00     0.027 C 
ATOM      6  C25 <0> d   1      19.013  -0.187   8.883  0.00  0.00     0.051 C 
ATOM      7  C27 <0> d   1      19.046  -0.082   7.389  0.00  0.00    -0.039 A 
ATOM      8  C28 <0> d   1      18.882  -1.273   6.677  0.00  0.00     0.005 A 
ATOM      9  C29 <0> d   1      18.665  -2.594   7.264  0.00  0.00    -0.028 A 
ATOM     10  C30 <0> d   1      18.566  -3.426   6.238  0.00  0.00     0.096 A 
ATOM     11  N31 <0> d   1      18.699  -2.734   5.044  0.00  0.00    -0.365 N 
ATOM     12  C32 <0> d   1      18.888  -1.406   5.284  0.00  0.00     0.043 A 
ATOM     13  C33 <0> d   1      19.068  -0.246   4.532  0.00  0.00     0.030 A 
ATOM     14  C34 <0> d   1      19.228   0.938   5.237  0.00  0.00     0.003 A 
ATOM     15  C35 <0> d   1      19.220   1.031   6.627  0.00  0.00     0.008 A 
ATOM     16  C36 <0> d   1      18.601  -2.716   8.765  0.00  0.00     0.075 C 
ATOM     17  C37 <0> d   1      18.129  -1.359   9.313  0.00  0.00     0.201 C 
ATOM     18  H67 <0> d   1      18.664  -3.138   4.163  0.00  0.00     0.165 HD
ENDROOT
BRANCH   4  19
ATOM     19  C9  <0> d   1      17.748   2.222  11.578  0.00  0.00     0.233 C 
ATOM     20  O10 <0> d   1      17.002   2.901  10.905  0.00  0.00    -0.272 OA
ATOM     21  N11 <0> d   1      18.027   2.583  12.847  0.00  0.00    -0.270 N 
ATOM     22  C19 <0> d   1      18.894   1.857  13.578  0.00  0.00     0.325 C 
ATOM     23  O20 <0> d   1      19.443   2.355  14.541  0.00  0.00    -0.247 OA
ATOM     24  N21 <0> d   1      19.154   0.578  13.242  0.00  0.00    -0.343 N 
ATOM     25  H58 <0> d   1      18.781   0.205  12.429  0.00  0.00     0.164 HD
BRANCH  21  26
ATOM     26  C12 <0> d   1      17.385   3.764  13.430  0.00  0.00     0.138 C 
BRANCH  26  27
ATOM     27  C13 <0> d   1      18.254   4.996  13.170  0.00  0.00     0.048 C 
BRANCH  27  28
ATOM     28  C14 <0> d   1      18.347   5.834  14.447  0.00  0.00     0.235 C 
BRANCH  28  29
ATOM     29  N15 <0> d   1      19.148   5.115  15.446  0.00  0.00    -0.079 N 
ATOM     30  H16 <0> d   1      19.295   4.165  15.140  0.00  0.00     0.278 HD
ATOM     31  C17 <0> d   1      20.447   5.784  15.604  0.00  0.00     0.269 C 
ATOM     32  C18 <0> d   1      18.441   5.112  16.733  0.00  0.00     0.269 C 
ENDBRANCH  28  29
ENDBRANCH  27  28
ENDBRANCH  26  27
ENDBRANCH  21  26
BRANCH  24  33
ATOM     33  C22 <0> d   1      20.002  -0.249  14.106  0.00  0.00     0.120 C 
ATOM     34  C23 <0> d   1      19.125  -1.218  14.902  0.00  0.00     0.026 C 
ENDBRANCH  24  33
ENDBRANCH   4  19
BRANCH   1  35
ATOM     35  C3  <0> d   1      17.310  -2.619  11.181  0.00  0.00     0.262 C 
BRANCH  35  36
ATOM     36  C2  <0> d   1      18.136  -3.493  12.088  0.00  0.00    -0.010 C 
ATOM     37  C1  <0> d   1      18.385  -4.735  11.753  0.00  0.00     0.008 C 
ENDBRANCH  35  36
ENDBRANCH   1  35
TORSDOF 8
ENDMDL
MODEL 7
REMARK VINA RESULT:      -7.9      3.595      9.044
REMARK  8 active torsions:
REMARK  status: ('A' for Active; 'I' for Inactive)
REMARK    1  A    between atoms: C2_2  and  C3_3 
REMARK    2  A    between atoms: C3_3  and  N4_4 
REMARK    3  A    between atoms: C7_7  and  C9_8 
REMARK       I    between atoms: C9_8  and  N11_10 
REMARK    4  A    between atoms: N11_10  and  C12_11 
REMARK       I    between atoms: N11_10  and  C19_18 
REMARK    5  A    between atoms: C12_11  and  C13_12 
REMARK    6  A    between atoms: C13_12  and  C14_13 
REMARK    7  A    between atoms: C14_13  and  N15_14 
REMARK       I    between atoms: C19_18  and  N21_20 
REMARK    8  A    between atoms: N21_20  and  C22_21 
ROOT
ATOM      1  N4  <0> d   1      19.021  -0.020  12.702  0.00  0.00    -0.062 N 
ATOM      2  H5  <0> d   1      18.157  -0.522  12.834  0.00  0.00     0.280 HD
ATOM      3  C6  <0> d   1      19.603  -0.382  11.405  0.00  0.00     0.249 C 
ATOM      4  C7  <0> d   1      18.591  -0.091  10.294  0.00  0.00     0.105 C 
ATOM      5  C24 <0> d   1      18.254   1.402  10.301  0.00  0.00     0.027 C 
ATOM      6  C25 <0> d   1      17.722   1.793  11.683  0.00  0.00     0.051 C 
ATOM      7  C27 <0> d   1      17.447   3.265  11.714  0.00  0.00    -0.039 A 
ATOM      8  C28 <0> d   1      17.598   3.902  12.948  0.00  0.00     0.005 A 
ATOM      9  C29 <0> d   1      18.014   3.259  14.194  0.00  0.00    -0.028 A 
ATOM     10  C30 <0> d   1      18.021   4.221  15.104  0.00  0.00     0.096 A 
ATOM     11  N31 <0> d   1      17.646   5.426  14.532  0.00  0.00    -0.365 N 
ATOM     12  C32 <0> d   1      17.386   5.261  13.205  0.00  0.00     0.043 A 
ATOM     13  C33 <0> d   1      16.994   6.061  12.132  0.00  0.00     0.030 A 
ATOM     14  C34 <0> d   1      16.847   5.431  10.904  0.00  0.00     0.003 A 
ATOM     15  C35 <0> d   1      17.064   4.071  10.688  0.00  0.00     0.008 A 
ATOM     16  C36 <0> d   1      18.322   1.783  14.177  0.00  0.00     0.075 C 
ATOM     17  C37 <0> d   1      18.757   1.424  12.746  0.00  0.00     0.201 C 
ATOM     18  H67 <0> d   1      17.577   6.268  15.009  0.00  0.00     0.165 HD
ENDROOT
BRANCH   4  19
ATOM     19  C9  <0> d   1      19.185  -0.469   8.961  0.00  0.00     0.233 C 
ATOM     20  O10 <0> d   1      19.864   0.330   8.351  0.00  0.00    -0.272 OA
ATOM     21  N11 <0> d   1      18.961  -1.694   8.445  0.00  0.00    -0.270 N 
ATOM     22  C19 <0> d   1      18.166  -2.564   9.099  0.00  0.00     0.325 C 
ATOM     23  O20 <0> d   1      17.650  -3.485   8.497  0.00  0.00    -0.247 OA
ATOM     24  N21 <0> d   1      17.943  -2.413  10.419  0.00  0.00    -0.343 N 
ATOM     25  H58 <0> d   1      18.288  -1.635  10.883  0.00  0.00     0.164 HD
BRANCH  21  26
ATOM     26  C12 <0> d   1      19.581  -2.079   7.175  0.00  0.00     0.138 C 
BRANCH  26  27
ATOM     27  C13 <0> d   1      18.695  -1.621   6.015  0.00  0.00     0.048 C 
BRANCH  27  28
ATOM     28  C14 <0> d   1      18.697  -2.689   4.919  0.00  0.00     0.235 C 
BRANCH  28  29
ATOM     29  N15 <0> d   1      17.450  -3.462   4.988  0.00  0.00    -0.079 N 
ATOM     30  H16 <0> d   1      16.882  -3.120   5.749  0.00  0.00     0.278 HD
ATOM     31  C17 <0> d   1      16.713  -3.314   3.725  0.00  0.00     0.269 C 
ATOM     32  C18 <0> d   1      17.763  -4.880   5.208  0.00  0.00     0.269 C 
ENDBRANCH  28  29
ENDBRANCH  27  28
ENDBRANCH  26  27
ENDBRANCH  21  26
BRANCH  24  33
ATOM     33  C22 <0> d   1      17.181  -3.426  11.155  0.00  0.00     0.120 C 
ATOM     34  C23 <0> d   1      18.148  -4.387  11.849  0.00  0.00     0.026 C 
ENDBRANCH  24  33
ENDBRANCH   4  19
BRANCH   1  35
ATOM     35  C3  <0> d   1      19.961  -0.376  13.775  0.00  0.00     0.262 C 
BRANCH  35  36
ATOM     36  C2  <0> d   1      19.421  -1.555  14.542  0.00  0.00    -0.010 C 
ATOM     37  C1  <0> d   1      19.116  -1.428  15.810  0.00  0.00     0.008 C 
ENDBRANCH  35  36
ENDBRANCH   1  35
TORSDOF 8
ENDMDL
MODEL 8
REMARK VINA RESULT:      -7.0      4.682     10.130
REMARK  8 active torsions:
REMARK  status: ('A' for Active; 'I' for Inactive)
REMARK    1  A    between atoms: C2_2  and  C3_3 
REMARK    2  A    between atoms: C3_3  and  N4_4 
REMARK    3  A    between atoms: C7_7  and  C9_8 
REMARK       I    between atoms: C9_8  and  N11_10 
REMARK    4  A    between atoms: N11_10  and  C12_11 
REMARK       I    between atoms: N11_10  and  C19_18 
REMARK    5  A    between atoms: C12_11  and  C13_12 
REMARK    6  A    between atoms: C13_12  and  C14_13 
REMARK    7  A    between atoms: C14_13  and  N15_14 
REMARK       I    between atoms: C19_18  and  N21_20 
REMARK    8  A    between atoms: N21_20  and  C22_21 
ROOT
ATOM      1  N4  <0> d   1      17.969  -0.476   8.324  0.00  0.00    -0.062 N 
ATOM      2  H5  <0> d   1      18.902  -0.580   7.956  0.00  0.00     0.280 HD
ATOM      3  C6  <0> d   1      17.489  -1.773   8.812  0.00  0.00     0.249 C 
ATOM      4  C7  <0> d   1      18.464  -2.316   9.859  0.00  0.00     0.105 C 
ATOM      5  C24 <0> d   1      18.546  -1.331  11.028  0.00  0.00     0.027 C 
ATOM      6  C25 <0> d   1      18.971   0.043  10.501  0.00  0.00     0.051 C 
ATOM      7  C27 <0> d   1      18.993   1.026  11.632  0.00  0.00    -0.039 A 
ATOM      8  C28 <0> d   1      18.707   2.355  11.309  0.00  0.00     0.005 A 
ATOM      9  C29 <0> d   1      18.374   2.855   9.976  0.00  0.00    -0.028 A 
ATOM     10  C30 <0> d   1      18.184   4.158  10.124  0.00  0.00     0.096 A 
ATOM     11  N31 <0> d   1      18.365   4.522  11.449  0.00  0.00    -0.365 N 
ATOM     12  C32 <0> d   1      18.681   3.432  12.202  0.00  0.00     0.043 A 
ATOM     13  C33 <0> d   1      18.960   3.159  13.540  0.00  0.00     0.030 A 
ATOM     14  C34 <0> d   1      19.240   1.839  13.865  0.00  0.00     0.003 A 
ATOM     15  C35 <0> d   1      19.260   0.792  12.944  0.00  0.00     0.008 A 
ATOM     16  C36 <0> d   1      18.319   1.877   8.830  0.00  0.00     0.075 C 
ATOM     17  C37 <0> d   1      17.986   0.498   9.423  0.00  0.00     0.201 C 
ATOM     18  H67 <0> d   1      18.279   5.425  11.791  0.00  0.00     0.165 HD
ENDROOT
BRANCH   4  19
ATOM     19  C9  <0> d   1      17.975  -3.652  10.357  0.00  0.00     0.233 C 
ATOM     20  O10 <0> d   1      17.255  -3.710  11.330  0.00  0.00    -0.272 OA
ATOM     21  N11 <0> d   1      18.340  -4.784   9.722  0.00  0.00    -0.270 N 
ATOM     22  C19 <0> d   1      19.180  -4.724   8.670  0.00  0.00     0.325 C 
ATOM     23  O20 <0> d   1      19.811  -5.709   8.341  0.00  0.00    -0.247 OA
ATOM     24  N21 <0> d   1      19.323  -3.572   7.985  0.00  0.00    -0.343 N 
ATOM     25  H58 <0> d   1      18.883  -2.766   8.296  0.00  0.00     0.164 HD
BRANCH  21  26
ATOM     26  C12 <0> d   1      17.822  -6.077  10.174  0.00  0.00     0.138 C 
BRANCH  26  27
ATOM     27  C13 <0> d   1      16.711  -6.540   9.229  0.00  0.00     0.048 C 
BRANCH  27  28
ATOM     28  C14 <0> d   1      16.149  -5.335   8.473  0.00  0.00     0.235 C 
BRANCH  28  29
ATOM     29  N15 <0> d   1      15.401  -5.800   7.298  0.00  0.00    -0.079 N 
ATOM     30  H16 <0> d   1      14.765  -5.077   6.995  0.00  0.00     0.278 HD
ATOM     31  C17 <0> d   1      16.340  -6.112   6.212  0.00  0.00     0.269 C 
ATOM     32  C18 <0> d   1      14.640  -7.006   7.648  0.00  0.00     0.269 C 
ENDBRANCH  28  29
ENDBRANCH  27  28
ENDBRANCH  26  27
ENDBRANCH  21  26
BRANCH  24  33
ATOM     33  C22 <0> d   1      20.141  -3.539   6.769  0.00  0.00     0.120 C 
ATOM     34  C23 <0> d   1      19.229  -3.457   5.543  0.00  0.00     0.026 C 
ENDBRANCH  24  33
ENDBRANCH   4  19
BRANCH   1  35
ATOM     35  C3  <0> d   1      17.077   0.006   7.260  0.00  0.00     0.262 C 
BRANCH  35  36
ATOM     36  C2  <0> d   1      17.770  -0.120   5.929  0.00  0.00    -0.010 C 
ATOM     37  C1  <0> d   1      19.060   0.094   5.838  0.00  0.00     0.008 C 
ENDBRANCH  35  36
ENDBRANCH   1  35
TORSDOF 8
ENDMDL
MODEL 9
REMARK VINA RESULT:      -7.0      4.420      7.574
REMARK  8 active torsions:
REMARK  status: ('A' for Active; 'I' for Inactive)
REMARK    1  A    between atoms: C2_2  and  C3_3 
REMARK    2  A    between atoms: C3_3  and  N4_4 
REMARK    3  A    between atoms: C7_7  and  C9_8 
REMARK       I    between atoms: C9_8  and  N11_10 
REMARK    4  A    between atoms: N11_10  and  C12_11 
REMARK       I    between atoms: N11_10  and  C19_18 
REMARK    5  A    between atoms: C12_11  and  C13_12 
REMARK    6  A    between atoms: C13_12  and  C14_13 
REMARK    7  A    between atoms: C14_13  and  N15_14 
REMARK       I    between atoms: C19_18  and  N21_20 
REMARK    8  A    between atoms: N21_20  and  C22_21 
ROOT
ATOM      1  N4  <0> d   1      18.840  -1.168   8.545  0.00  0.00    -0.062 N 
ATOM      2  H5  <0> d   1      17.920  -0.757   8.584  0.00  0.00     0.280 HD
ATOM      3  C6  <0> d   1      19.438  -1.156   9.884  0.00  0.00     0.249 C 
ATOM      4  C7  <0> d   1      18.518  -1.894  10.860  0.00  0.00     0.105 C 
ATOM      5  C24 <0> d   1      18.348  -3.341  10.391  0.00  0.00     0.027 C 
ATOM      6  C25 <0> d   1      17.798  -3.348   8.962  0.00  0.00     0.051 C 
ATOM      7  C27 <0> d   1      17.686  -4.761   8.476  0.00  0.00    -0.039 A 
ATOM      8  C28 <0> d   1      17.849  -4.963   7.103  0.00  0.00     0.005 A 
ATOM      9  C29 <0> d   1      18.133  -3.923   6.116  0.00  0.00    -0.028 A 
ATOM     10  C30 <0> d   1      18.203  -4.549   4.951  0.00  0.00     0.096 A 
ATOM     11  N31 <0> d   1      17.990  -5.908   5.124  0.00  0.00    -0.365 N 
ATOM     12  C32 <0> d   1      17.776  -6.192   6.438  0.00  0.00     0.043 A 
ATOM     13  C33 <0> d   1      17.526  -7.324   7.213  0.00  0.00     0.030 A 
ATOM     14  C34 <0> d   1      17.367  -7.126   8.577  0.00  0.00     0.003 A 
ATOM     15  C35 <0> d   1      17.443  -5.883   9.204  0.00  0.00     0.008 A 
ATOM     16  C36 <0> d   1      18.276  -2.499   6.588  0.00  0.00     0.075 C 
ATOM     17  C37 <0> d   1      18.736  -2.548   8.056  0.00  0.00     0.201 C 
ATOM     18  H67 <0> d   1      17.993  -6.564   4.409  0.00  0.00     0.165 HD
ENDROOT
BRANCH   4  19
ATOM     19  C9  <0> d   1      19.128  -1.877  12.238  0.00  0.00     0.233 C 
ATOM     20  O10 <0> d   1      19.799  -2.814  12.615  0.00  0.00    -0.272 OA
ATOM     21  N11 <0> d   1      18.927  -0.822  13.052  0.00  0.00    -0.270 N 
ATOM     22  C19 <0> d   1      18.141   0.197  12.651  0.00  0.00     0.325 C 
ATOM     23  O20 <0> d   1      17.643   0.939  13.475  0.00  0.00    -0.247 OA
ATOM     24  N21 <0> d   1      17.905   0.391  11.339  0.00  0.00    -0.343 N 
ATOM     25  H58 <0> d   1      18.234  -0.247  10.688  0.00  0.00     0.164 HD
BRANCH  21  26
ATOM     26  C12 <0> d   1      19.563  -0.782  14.371  0.00  0.00     0.138 C 
BRANCH  26  27
ATOM     27  C13 <0> d   1      18.587  -1.311  15.424  0.00  0.00     0.048 C 
BRANCH  27  28
ATOM     28  C14 <0> d   1      19.259  -1.291  16.798  0.00  0.00     0.235 C 
BRANCH  28  29
ATOM     29  N15 <0> d   1      18.434  -0.518  17.735  0.00  0.00    -0.079 N 
ATOM     30  H16 <0> d   1      18.235  -1.078  18.551  0.00  0.00     0.278 HD
ATOM     31  C17 <0> d   1      19.159   0.694  18.140  0.00  0.00     0.269 C 
ATOM     32  C18 <0> d   1      17.174  -0.138  17.082  0.00  0.00     0.269 C 
ENDBRANCH  28  29
ENDBRANCH  27  28
ENDBRANCH  26  27
ENDBRANCH  21  26
BRANCH  24  33
ATOM     33  C22 <0> d   1      17.152   1.568  10.896  0.00  0.00     0.120 C 
ATOM     34  C23 <0> d   1      18.118   2.597  10.303  0.00  0.00     0.026 C 
ENDBRANCH  24  33
ENDBRANCH   4  19
BRANCH   1  35
ATOM     35  C3  <0> d   1      19.684  -0.389   7.627  0.00  0.00     0.262 C 
BRANCH  35  36
ATOM     36  C2  <0> d   1      18.988   0.902   7.281  0.00  0.00    -0.010 C 
ATOM     37  C1  <0> d   1      18.513   1.087   6.074  0.00  0.00     0.008 C 
ENDBRANCH  35  36
ENDBRANCH   1  35
TORSDOF 8
ENDMDL
