MODEL 1
REMARK VINA RESULT:      -6.1      0.000      0.000
REMARK  7 active torsions:
REMARK  status: ('A' for Active; 'I' for Inactive)
REMARK    1  A    between atoms: C2_2  and  N5_5 
REMARK    2  A    between atoms: N5_5  and  C8_8 
REMARK    3  A    between atoms: C8_8  and  C9_9 
REMARK    4  A    between atoms: C9_9  and  O11_10 
REMARK    5  A    between atoms: C9_9  and  C12_11 
REMARK    6  A    between atoms: C14_13  and  O15_14 
REMARK    7  A    between atoms: C17_16  and  O18_17 
ROOT
ATOM      1  C9  <0> d   1      20.515  -0.275  12.174  0.00  0.00     0.177 C 
ENDROOT
BRANCH   1   2
ATOM      2  C8  <0> d   1      19.707  -0.154  10.880  0.00  0.00     0.269 C 
BRANCH   2   3
ATOM      3  N5  <0> d   1      20.091   1.078  10.178  0.00  0.00    -0.065 N 
ATOM      4  H6  <0> d   1      20.791   0.866   9.483  0.00  0.00     0.278 HD
ATOM      5  H7  <0> d   1      20.464   1.741  10.840  0.00  0.00     0.278 HD
BRANCH   3   6
ATOM      6  C2  <0> d   1      18.910   1.656   9.521  0.00  0.00     0.115 C 
ATOM      7  C1  <0> d   1      18.655   3.060  10.074  0.00  0.00     0.045 C 
ATOM      8  C3  <0> d   1      17.691   0.771   9.793  0.00  0.00     0.045 C 
ATOM      9  C4  <0> d   1      19.153   1.737   8.013  0.00  0.00     0.045 C 
ENDBRANCH   3   6
ENDBRANCH   2   3
ENDBRANCH   1   2
BRANCH   1  10
ATOM     10  O11 <0> d   1      21.582   0.676  12.160  0.00  0.00    -0.389 OA
ATOM     11  H31 <0> d   1      22.312   0.439  11.572  0.00  0.00     0.210 HD
ENDBRANCH   1  10
BRANCH   1  12
ATOM     12  C12 <0> d   1      19.616  -0.005  13.353  0.00  0.00    -0.023 A 
ATOM     13  C19 <0> d   1      19.329  -1.018  14.247  0.00  0.00     0.046 A 
ATOM     14  C17 <0> d   1      18.506  -0.769  15.338  0.00  0.00     0.069 A 
ATOM     15  C16 <0> d   1      17.964   0.493  15.522  0.00  0.00     0.073 A 
ATOM     16  C14 <0> d   1      18.250   1.506  14.621  0.00  0.00     0.069 A 
ATOM     17  C13 <0> d   1      19.077   1.255  13.536  0.00  0.00     0.046 A 
BRANCH  14  18
ATOM     18  O18 <0> d   1      18.227  -1.765  16.220  0.00  0.00    -0.361 OA
ATOM     19  H35 <0> d   1      18.009  -1.453  17.109  0.00  0.00     0.217 HD
ENDBRANCH  14  18
BRANCH  16  20
ATOM     20  O15 <0> d   1      17.720   2.745  14.799  0.00  0.00    -0.361 OA
ATOM     21  H33 <0> d   1      17.294   3.108  14.010  0.00  0.00     0.217 HD
ENDBRANCH  16  20
ENDBRANCH   1  12
TORSDOF 7
ENDMDL
MODEL 2
REMARK VINA RESULT:      -6.1      0.026      2.065
REMARK  7 active torsions:
REMARK  status: ('A' for Active; 'I' for Inactive)
REMARK    1  A    between atoms: C2_2  and  N5_5 
REMARK    2  A    between atoms: N5_5  and  C8_8 
REMARK    3  A    between atoms: C8_8  and  C9_9 
REMARK    4  A    between atoms: C9_9  and  O11_10 
REMARK    5  A    between atoms: C9_9  and  C12_11 
REMARK    6  A    between atoms: C14_13  and  O15_14 
REMARK    7  A    between atoms: C17_16  and  O18_17 
ROOT
ATOM      1  C9  <0> d   1      20.514  -0.280  12.175  0.00  0.00     0.177 C 
ENDROOT
BRANCH   1   2
ATOM      2  C8  <0> d   1      19.695  -0.164  10.887  0.00  0.00     0.269 C 
BRANCH   2   3
ATOM      3  N5  <0> d   1      20.091   1.052  10.164  0.00  0.00    -0.065 N 
ATOM      4  H6  <0> d   1      20.781   0.819   9.465  0.00  0.00     0.278 HD
ATOM      5  H7  <0> d   1      20.482   1.717  10.814  0.00  0.00     0.278 HD
BRANCH   3   6
ATOM      6  C2  <0> d   1      18.913   1.639   9.512  0.00  0.00     0.115 C 
ATOM      7  C1  <0> d   1      18.659   3.037  10.080  0.00  0.00     0.045 C 
ATOM      8  C3  <0> d   1      17.692   0.753   9.772  0.00  0.00     0.045 C 
ATOM      9  C4  <0> d   1      19.159   1.738   8.006  0.00  0.00     0.045 C 
ENDBRANCH   3   6
ENDBRANCH   2   3
ENDBRANCH   1   2
BRANCH   1  10
ATOM     10  O11 <0> d   1      21.577   0.675  12.151  0.00  0.00    -0.389 OA
ATOM     11  H31 <0> d   1      22.459   0.283  12.207  0.00  0.00     0.210 HD
ENDBRANCH   1  10
BRANCH   1  12
ATOM     12  C12 <0> d   1      19.623  -0.012  13.361  0.00  0.00    -0.023 A 
ATOM     13  C19 <0> d   1      19.080   1.245  13.545  0.00  0.00     0.046 A 
ATOM     14  C17 <0> d   1      18.255   1.492  14.633  0.00  0.00     0.069 A 
ATOM     15  C16 <0> d   1      17.986   0.481  15.542  0.00  0.00     0.073 A 
ATOM     16  C14 <0> d   1      18.537  -0.778  15.358  0.00  0.00     0.069 A 
ATOM     17  C13 <0> d   1      19.356  -1.022  14.266  0.00  0.00     0.046 A 
BRANCH  14  18
ATOM     18  O18 <0> d   1      17.716   2.728  14.811  0.00  0.00    -0.361 OA
ATOM     19  H35 <0> d   1      16.895   2.873  14.322  0.00  0.00     0.217 HD
ENDBRANCH  14  18
BRANCH  16  20
ATOM     20  O15 <0> d   1      18.276  -1.772  16.248  0.00  0.00    -0.361 OA
ATOM     21  H33 <0> d   1      17.682  -2.456  15.910  0.00  0.00     0.217 HD
ENDBRANCH  16  20
ENDBRANCH   1  12
TORSDOF 7
ENDMDL
MODEL 3
REMARK VINA RESULT:      -6.1      2.891      3.880
REMARK  7 active torsions:
REMARK  status: ('A' for Active; 'I' for Inactive)
REMARK    1  A    between atoms: C2_2  and  N5_5 
REMARK    2  A    between atoms: N5_5  and  C8_8 
REMARK    3  A    between atoms: C8_8  and  C9_9 
REMARK    4  A    between atoms: C9_9  and  O11_10 
REMARK    5  A    between atoms: C9_9  and  C12_11 
REMARK    6  A    between atoms: C14_13  and  O15_14 
REMARK    7  A    between atoms: C17_16  and  O18_17 
ROOT
ATOM      1  C9  <0> d   1      18.462  -1.955   9.504  0.00  0.00     0.177 C 
ENDROOT
BRANCH   1   2
ATOM      2  C8  <0> d   1      17.941  -1.526   8.130  0.00  0.00     0.269 C 
BRANCH   2   3
ATOM      3  N5  <0> d   1      19.069  -1.105   7.289  0.00  0.00    -0.065 N 
ATOM      4  H6  <0> d   1      19.347  -1.869   6.691  0.00  0.00     0.278 HD
ATOM      5  H7  <0> d   1      19.845  -0.838   7.875  0.00  0.00     0.278 HD
BRANCH   3   6
ATOM      6  C2  <0> d   1      18.663   0.040   6.463  0.00  0.00     0.115 C 
ATOM      7  C1  <0> d   1      19.048   1.341   7.170  0.00  0.00     0.045 C 
ATOM      8  C3  <0> d   1      17.148   0.004   6.250  0.00  0.00     0.045 C 
ATOM      9  C4  <0> d   1      19.370  -0.033   5.108  0.00  0.00     0.045 C 
ENDBRANCH   3   6
ENDBRANCH   2   3
ENDBRANCH   1   2
BRANCH   1  10
ATOM     10  O11 <0> d   1      19.626  -2.767   9.339  0.00  0.00    -0.389 OA
ATOM     11  H31 <0> d   1      19.439  -3.662   9.021  0.00  0.00     0.210 HD
ENDBRANCH   1  10
BRANCH   1  12
ATOM     12  C12 <0> d   1      18.814  -0.732  10.311  0.00  0.00    -0.023 A 
ATOM     13  C19 <0> d   1      20.072  -0.612  10.868  0.00  0.00     0.046 A 
ATOM     14  C17 <0> d   1      20.401   0.517  11.607  0.00  0.00     0.069 A 
ATOM     15  C16 <0> d   1      19.461   1.517  11.796  0.00  0.00     0.073 A 
ATOM     16  C14 <0> d   1      18.197   1.392  11.240  0.00  0.00     0.069 A 
ATOM     17  C13 <0> d   1      17.875   0.266  10.498  0.00  0.00     0.046 A 
BRANCH  14  18
ATOM     18  O18 <0> d   1      21.641   0.637  12.151  0.00  0.00    -0.361 OA
ATOM     19  H35 <0> d   1      22.007  -0.194  12.484  0.00  0.00     0.217 HD
ENDBRANCH  14  18
BRANCH  16  20
ATOM     20  O15 <0> d   1      17.272   2.372  11.424  0.00  0.00    -0.361 OA
ATOM     21  H33 <0> d   1      17.075   2.558  12.352  0.00  0.00     0.217 HD
ENDBRANCH  16  20
ENDBRANCH   1  12
TORSDOF 7
ENDMDL
MODEL 4
REMARK VINA RESULT:      -6.0      2.818      5.631
REMARK  7 active torsions:
REMARK  status: ('A' for Active; 'I' for Inactive)
REMARK    1  A    between atoms: C2_2  and  N5_5 
REMARK    2  A    between atoms: N5_5  and  C8_8 
REMARK    3  A    between atoms: C8_8  and  C9_9 
REMARK    4  A    between atoms: C9_9  and  O11_10 
REMARK    5  A    between atoms: C9_9  and  C12_11 
REMARK    6  A    between atoms: C14_13  and  O15_14 
REMARK    7  A    between atoms: C17_16  and  O18_17 
ROOT
ATOM      1  C9  <0> d   1      18.448   1.683  13.768  0.00  0.00     0.177 C 
ENDROOT
BRANCH   1   2
ATOM      2  C8  <0> d   1      17.757   1.140  15.021  0.00  0.00     0.269 C 
BRANCH   2   3
ATOM      3  N5  <0> d   1      18.746   0.989  16.097  0.00  0.00    -0.065 N 
ATOM      4  H6  <0> d   1      18.642   1.743  16.759  0.00  0.00     0.278 HD
ATOM      5  H7  <0> d   1      19.675   1.011  15.706  0.00  0.00     0.278 HD
BRANCH   3   6
ATOM      6  C2  <0> d   1      18.533  -0.295  16.780  0.00  0.00     0.115 C 
ATOM      7  C1  <0> d   1      19.154  -1.422  15.953  0.00  0.00     0.045 C 
ATOM      8  C3  <0> d   1      17.031  -0.545  16.939  0.00  0.00     0.045 C 
ATOM      9  C4  <0> d   1      19.191  -0.253  18.161  0.00  0.00     0.045 C 
ENDBRANCH   3   6
ENDBRANCH   2   3
ENDBRANCH   1   2
BRANCH   1  10
ATOM     10  O11 <0> d   1      19.660   2.344  14.140  0.00  0.00    -0.389 OA
ATOM     11  H31 <0> d   1      20.011   2.934  13.459  0.00  0.00     0.210 HD
ENDBRANCH   1  10
BRANCH   1  12
ATOM     12  C12 <0> d   1      18.764   0.543  12.835  0.00  0.00    -0.023 A 
ATOM     13  C19 <0> d   1      20.000   0.475  12.222  0.00  0.00     0.046 A 
ATOM     14  C17 <0> d   1      20.295  -0.577  11.367  0.00  0.00     0.069 A 
ATOM     15  C16 <0> d   1      19.344  -1.554  11.118  0.00  0.00     0.073 A 
ATOM     16  C14 <0> d   1      18.102  -1.481  11.730  0.00  0.00     0.069 A 
ATOM     17  C13 <0> d   1      17.814  -0.430  12.588  0.00  0.00     0.046 A 
BRANCH  14  18
ATOM     18  O18 <0> d   1      21.514  -0.646  10.768  0.00  0.00    -0.361 OA
ATOM     19  H35 <0> d   1      21.953  -1.502  10.867  0.00  0.00     0.217 HD
ENDBRANCH  14  18
BRANCH  16  20
ATOM     20  O15 <0> d   1      17.167  -2.438  11.488  0.00  0.00    -0.361 OA
ATOM     21  H33 <0> d   1      17.265  -2.876  10.632  0.00  0.00     0.217 HD
ENDBRANCH  16  20
ENDBRANCH   1  12
TORSDOF 7
ENDMDL
MODEL 5
REMARK VINA RESULT:      -6.0      2.816      5.515
REMARK  7 active torsions:
REMARK  status: ('A' for Active; 'I' for Inactive)
REMARK    1  A    between atoms: C2_2  and  N5_5 
REMARK    2  A    between atoms: N5_5  and  C8_8 
REMARK    3  A    between atoms: C8_8  and  C9_9 
REMARK    4  A    between atoms: C9_9  and  O11_10 
REMARK    5  A    between atoms: C9_9  and  C12_11 
REMARK    6  A    between atoms: C14_13  and  O15_14 
REMARK    7  A    between atoms: C17_16  and  O18_17 
ROOT
ATOM      1  C9  <0> d   1      18.384   1.662  13.768  0.00  0.00     0.177 C 
ENDROOT
BRANCH   1   2
ATOM      2  C8  <0> d   1      17.686   1.109  15.013  0.00  0.00     0.269 C 
BRANCH   2   3
ATOM      3  N5  <0> d   1      18.658   0.997  16.109  0.00  0.00    -0.065 N 
ATOM      4  H6  <0> d   1      18.499   1.736  16.777  0.00  0.00     0.278 HD
ATOM      5  H7  <0> d   1      19.593   1.073  15.739  0.00  0.00     0.278 HD
BRANCH   3   6
ATOM      6  C2  <0> d   1      18.498  -0.304  16.773  0.00  0.00     0.115 C 
ATOM      7  C1  <0> d   1      19.163  -1.393  15.928  0.00  0.00     0.045 C 
ATOM      8  C3  <0> d   1      17.008  -0.618  16.929  0.00  0.00     0.045 C 
ATOM      9  C4  <0> d   1      19.156  -0.256  18.154  0.00  0.00     0.045 C 
ENDBRANCH   3   6
ENDBRANCH   2   3
ENDBRANCH   1   2
BRANCH   1  10
ATOM     10  O11 <0> d   1      19.586   2.333  14.155  0.00  0.00    -0.389 OA
ATOM     11  H31 <0> d   1      20.298   2.272  13.503  0.00  0.00     0.210 HD
ENDBRANCH   1  10
BRANCH   1  12
ATOM     12  C12 <0> d   1      18.721   0.528  12.835  0.00  0.00    -0.023 A 
ATOM     13  C19 <0> d   1      17.786  -0.457  12.582  0.00  0.00     0.046 A 
ATOM     14  C17 <0> d   1      18.091  -1.500  11.718  0.00  0.00     0.069 A 
ATOM     15  C16 <0> d   1      19.340  -1.559  11.120  0.00  0.00     0.073 A 
ATOM     16  C14 <0> d   1      20.278  -0.572  11.380  0.00  0.00     0.069 A 
ATOM     17  C13 <0> d   1      19.967   0.471  12.239  0.00  0.00     0.046 A 
BRANCH  14  18
ATOM     18  O18 <0> d   1      17.169  -2.466  11.465  0.00  0.00    -0.361 OA
ATOM     19  H35 <0> d   1      16.745  -2.823  12.257  0.00  0.00     0.217 HD
ENDBRANCH  14  18
BRANCH  16  20
ATOM     20  O15 <0> d   1      21.504  -0.627  10.794  0.00  0.00    -0.361 OA
ATOM     21  H33 <0> d   1      21.958   0.225  10.750  0.00  0.00     0.217 HD
ENDBRANCH  16  20
ENDBRANCH   1  12
TORSDOF 7
ENDMDL
MODEL 6
REMARK VINA RESULT:      -5.8      2.886      5.782
REMARK  7 active torsions:
REMARK  status: ('A' for Active; 'I' for Inactive)
REMARK    1  A    between atoms: C2_2  and  N5_5 
REMARK    2  A    between atoms: N5_5  and  C8_8 
REMARK    3  A    between atoms: C8_8  and  C9_9 
REMARK    4  A    between atoms: C9_9  and  O11_10 
REMARK    5  A    between atoms: C9_9  and  C12_11 
REMARK    6  A    between atoms: C14_13  and  O15_14 
REMARK    7  A    between atoms: C17_16  and  O18_17 
ROOT
ATOM      1  C9  <0> d   1      20.339  -0.153  11.034  0.00  0.00     0.177 C 
ENDROOT
BRANCH   1   2
ATOM      2  C8  <0> d   1      19.620  -0.931  12.137  0.00  0.00     0.269 C 
BRANCH   2   3
ATOM      3  N5  <0> d   1      20.165  -0.543  13.445  0.00  0.00    -0.065 N 
ATOM      4  H6  <0> d   1      20.748   0.274  13.338  0.00  0.00     0.278 HD
ATOM      5  H7  <0> d   1      20.715  -1.302  13.819  0.00  0.00     0.278 HD
BRANCH   3   6
ATOM      6  C2  <0> d   1      19.061  -0.238  14.365  0.00  0.00     0.115 C 
ATOM      7  C1  <0> d   1      17.732  -0.315  13.610  0.00  0.00     0.045 C 
ATOM      8  C3  <0> d   1      19.244   1.170  14.934  0.00  0.00     0.045 C 
ATOM      9  C4  <0> d   1      19.056  -1.253  15.510  0.00  0.00     0.045 C 
ENDBRANCH   3   6
ENDBRANCH   2   3
ENDBRANCH   1   2
BRANCH   1  10
ATOM     10  O11 <0> d   1      21.681  -0.628  10.913  0.00  0.00    -0.389 OA
ATOM     11  H31 <0> d   1      21.817  -1.519  11.266  0.00  0.00     0.210 HD
ENDBRANCH   1  10
BRANCH   1  12
ATOM     12  C12 <0> d   1      19.616  -0.351   9.727  0.00  0.00    -0.023 A 
ATOM     13  C19 <0> d   1      18.981  -1.550   9.465  0.00  0.00     0.046 A 
ATOM     14  C17 <0> d   1      18.310  -1.733   8.264  0.00  0.00     0.069 A 
ATOM     15  C16 <0> d   1      18.287  -0.716   7.322  0.00  0.00     0.073 A 
ATOM     16  C14 <0> d   1      18.929   0.484   7.585  0.00  0.00     0.069 A 
ATOM     17  C13 <0> d   1      19.594   0.664   8.789  0.00  0.00     0.046 A 
BRANCH  14  18
ATOM     18  O18 <0> d   1      17.681  -2.910   8.008  0.00  0.00    -0.361 OA
ATOM     19  H35 <0> d   1      16.868  -2.819   7.493  0.00  0.00     0.217 HD
ENDBRANCH  14  18
BRANCH  16  20
ATOM     20  O15 <0> d   1      18.909   1.484   6.664  0.00  0.00    -0.361 OA
ATOM     21  H33 <0> d   1      18.270   1.348   5.951  0.00  0.00     0.217 HD
ENDBRANCH  16  20
ENDBRANCH   1  12
TORSDOF 7
ENDMDL
MODEL 7
REMARK VINA RESULT:      -5.8      2.879      6.102
REMARK  7 active torsions:
REMARK  status: ('A' for Active; 'I' for Inactive)
REMARK    1  A    between atoms: C2_2  and  N5_5 
REMARK    2  A    between atoms: N5_5  and  C8_8 
REMARK    3  A    between atoms: C8_8  and  C9_9 
REMARK    4  A    between atoms: C9_9  and  O11_10 
REMARK    5  A    between atoms: C9_9  and  C12_11 
REMARK    6  A    between atoms: C14_13  and  O15_14 
REMARK    7  A    between atoms: C17_16  and  O18_17 
ROOT
ATOM      1  C9  <0> d   1      20.344  -0.162  11.049  0.00  0.00     0.177 C 
ENDROOT
BRANCH   1   2
ATOM      2  C8  <0> d   1      19.641  -0.964  12.147  0.00  0.00     0.269 C 
BRANCH   2   3
ATOM      3  N5  <0> d   1      20.174  -0.570  13.458  0.00  0.00    -0.065 N 
ATOM      4  H6  <0> d   1      20.768   0.239  13.351  0.00  0.00     0.278 HD
ATOM      5  H7  <0> d   1      20.710  -1.332  13.846  0.00  0.00     0.278 HD
BRANCH   3   6
ATOM      6  C2  <0> d   1      19.061  -0.245  14.361  0.00  0.00     0.115 C 
ATOM      7  C1  <0> d   1      17.740  -0.330  13.593  0.00  0.00     0.045 C 
ATOM      8  C3  <0> d   1      19.244   1.174  14.905  0.00  0.00     0.045 C 
ATOM      9  C4  <0> d   1      19.041  -1.238  15.524  0.00  0.00     0.045 C 
ENDBRANCH   3   6
ENDBRANCH   2   3
ENDBRANCH   1   2
BRANCH   1  10
ATOM     10  O11 <0> d   1      21.690  -0.623  10.911  0.00  0.00    -0.389 OA
ATOM     11  H31 <0> d   1      22.000  -1.159  11.653  0.00  0.00     0.210 HD
ENDBRANCH   1  10
BRANCH   1  12
ATOM     12  C12 <0> d   1      19.613  -0.349   9.745  0.00  0.00    -0.023 A 
ATOM     13  C19 <0> d   1      19.591   0.673   8.815  0.00  0.00     0.046 A 
ATOM     14  C17 <0> d   1      18.923   0.501   7.610  0.00  0.00     0.069 A 
ATOM     15  C16 <0> d   1      18.268  -0.691   7.346  0.00  0.00     0.073 A 
ATOM     16  C14 <0> d   1      18.287  -1.713   8.284  0.00  0.00     0.069 A 
ATOM     17  C13 <0> d   1      18.960  -1.539   9.483  0.00  0.00     0.046 A 
BRANCH  14  18
ATOM     18  O18 <0> d   1      18.905   1.504   6.693  0.00  0.00    -0.361 OA
ATOM     19  H35 <0> d   1      18.225   1.403   6.013  0.00  0.00     0.217 HD
ENDBRANCH  14  18
BRANCH  16  20
ATOM     20  O15 <0> d   1      17.645  -2.884   8.027  0.00  0.00    -0.361 OA
ATOM     21  H33 <0> d   1      17.925  -3.617   8.592  0.00  0.00     0.217 HD
ENDBRANCH  16  20
ENDBRANCH   1  12
TORSDOF 7
ENDMDL
MODEL 8
REMARK VINA RESULT:      -5.8      3.224      4.991
REMARK  7 active torsions:
REMARK  status: ('A' for Active; 'I' for Inactive)
REMARK    1  A    between atoms: C2_2  and  N5_5 
REMARK    2  A    between atoms: N5_5  and  C8_8 
REMARK    3  A    between atoms: C8_8  and  C9_9 
REMARK    4  A    between atoms: C9_9  and  O11_10 
REMARK    5  A    between atoms: C9_9  and  C12_11 
REMARK    6  A    between atoms: C14_13  and  O15_14 
REMARK    7  A    between atoms: C17_16  and  O18_17 
ROOT
ATOM      1  C9  <0> d   1      18.869  -1.631   8.646  0.00  0.00     0.177 C 
ENDROOT
BRANCH   1   2
ATOM      2  C8  <0> d   1      18.995  -3.034   9.245  0.00  0.00     0.269 C 
BRANCH   2   3
ATOM      3  N5  <0> d   1      17.872  -3.276  10.161  0.00  0.00    -0.065 N 
ATOM      4  H6  <0> d   1      17.242  -3.950   9.751  0.00  0.00     0.278 HD
ATOM      5  H7  <0> d   1      17.379  -2.412  10.326  0.00  0.00     0.278 HD
BRANCH   3   6
ATOM      6  C2  <0> d   1      18.384  -3.799  11.435  0.00  0.00     0.115 C 
ATOM      7  C1  <0> d   1      19.861  -4.167  11.279  0.00  0.00     0.045 C 
ATOM      8  C3  <0> d   1      17.586  -5.043  11.833  0.00  0.00     0.045 C 
ATOM      9  C4  <0> d   1      18.236  -2.731  12.520  0.00  0.00     0.045 C 
ENDBRANCH   3   6
ENDBRANCH   2   3
ENDBRANCH   1   2
BRANCH   1  10
ATOM     10  O11 <0> d   1      17.577  -1.481   8.053  0.00  0.00    -0.389 OA
ATOM     11  H31 <0> d   1      16.961  -2.196   8.266  0.00  0.00     0.210 HD
ENDBRANCH   1  10
BRANCH   1  12
ATOM     12  C12 <0> d   1      19.045  -0.603   9.733  0.00  0.00    -0.023 A 
ATOM     13  C19 <0> d   1      20.248  -0.511  10.406  0.00  0.00     0.046 A 
ATOM     14  C17 <0> d   1      20.415   0.440  11.404  0.00  0.00     0.069 A 
ATOM     15  C16 <0> d   1      19.370   1.288  11.733  0.00  0.00     0.073 A 
ATOM     16  C14 <0> d   1      18.162   1.190  11.060  0.00  0.00     0.069 A 
ATOM     17  C13 <0> d   1      18.002   0.243  10.060  0.00  0.00     0.046 A 
BRANCH  14  18
ATOM     18  O18 <0> d   1      21.601   0.534  12.062  0.00  0.00    -0.361 OA
ATOM     19  H35 <0> d   1      21.779   1.411  12.429  0.00  0.00     0.217 HD
ENDBRANCH  14  18
BRANCH  16  20
ATOM     20  O15 <0> d   1      17.135   2.021  11.380  0.00  0.00    -0.361 OA
ATOM     21  H33 <0> d   1      16.474   1.622  11.963  0.00  0.00     0.217 HD
ENDBRANCH  16  20
ENDBRANCH   1  12
TORSDOF 7
ENDMDL
MODEL 9
REMARK VINA RESULT:      -5.7      2.624      5.837
REMARK  7 active torsions:
REMARK  status: ('A' for Active; 'I' for Inactive)
REMARK    1  A    between atoms: C2_2  and  N5_5 
REMARK    2  A    between atoms: N5_5  and  C8_8 
REMARK    3  A    between atoms: C8_8  and  C9_9 
REMARK    4  A    between atoms: C9_9  and  O11_10 
REMARK    5  A    between atoms: C9_9  and  C12_11 
REMARK    6  A    between atoms: C14_13  and  O15_14 
REMARK    7  A    between atoms: C17_16  and  O18_17 
ROOT
ATOM      1  C9  <0> d   1      18.183   2.629  13.823  0.00  0.00     0.177 C 
ENDROOT
BRANCH   1   2
ATOM      2  C8  <0> d   1      17.946   1.134  14.043  0.00  0.00     0.269 C 
BRANCH   2   3
ATOM      3  N5  <0> d   1      17.316   0.926  15.353  0.00  0.00    -0.065 N 
ATOM      4  H6  <0> d   1      16.361   0.626  15.225  0.00  0.00     0.278 HD
ATOM      5  H7  <0> d   1      17.329   1.790  15.874  0.00  0.00     0.278 HD
BRANCH   3   6
ATOM      6  C2  <0> d   1      18.056  -0.104  16.095  0.00  0.00     0.115 C 
ATOM      7  C1  <0> d   1      18.847  -0.970  15.112  0.00  0.00     0.045 C 
ATOM      8  C3  <0> d   1      17.071  -0.982  16.871  0.00  0.00     0.045 C 
ATOM      9  C4  <0> d   1      19.021   0.567  17.074  0.00  0.00     0.045 C 
ENDBRANCH   3   6
ENDBRANCH   2   3
ENDBRANCH   1   2
BRANCH   1  10
ATOM     10  O11 <0> d   1      19.406   3.015  14.454  0.00  0.00    -0.389 OA
ATOM     11  H31 <0> d   1      19.572   2.569  15.296  0.00  0.00     0.210 HD
ENDBRANCH   1  10
BRANCH   1  12
ATOM     12  C12 <0> d   1      18.269   2.912  12.346  0.00  0.00    -0.023 A 
ATOM     13  C19 <0> d   1      19.014   2.086  11.527  0.00  0.00     0.046 A 
ATOM     14  C17 <0> d   1      19.090   2.341  10.165  0.00  0.00     0.069 A 
ATOM     15  C16 <0> d   1      18.426   3.433   9.628  0.00  0.00     0.073 A 
ATOM     16  C14 <0> d   1      17.683   4.264  10.452  0.00  0.00     0.069 A 
ATOM     17  C13 <0> d   1      17.606   4.002  11.812  0.00  0.00     0.046 A 
BRANCH  14  18
ATOM     18  O18 <0> d   1      19.819   1.524   9.359  0.00  0.00    -0.361 OA
ATOM     19  H35 <0> d   1      20.280   0.817   9.830  0.00  0.00     0.217 HD
ENDBRANCH  14  18
BRANCH  16  20
ATOM     20  O15 <0> d   1      17.032   5.336   9.929  0.00  0.00    -0.361 OA
ATOM     21  H33 <0> d   1      17.493   5.753   9.188  0.00  0.00     0.217 HD
ENDBRANCH  16  20
ENDBRANCH   1  12
TORSDOF 7
ENDMDL
