MODEL 1
REMARK VINA RESULT:      -6.6      0.000      0.000
REMARK  7 active torsions:
REMARK  status: ('A' for Active; 'I' for Inactive)
REMARK    1  A    between atoms: O2_2  and  C3_3 
REMARK    2  A    between atoms: C6_6  and  C7_7 
REMARK    3  A    between atoms: N16_15  and  C17_16 
REMARK    4  A    between atoms: C17_16  and  C18_17 
REMARK    5  A    between atoms: C18_17  and  N19_18 
REMARK    6  A    between atoms: C24_23  and  O26_24 
REMARK    7  A    between atoms: O26_24  and  C27_25 
ROOT
ATOM      1  C7  ZIN A   1      19.403   0.368  13.878  0.00  0.00     0.124 C 
ATOM      2  S9  ZIN A   1      20.189   0.129  12.250  0.00  0.00    -0.115 SA
ATOM      3  C10 ZIN A   1      19.687  -1.507  11.823  0.00  0.00     0.028 A 
ATOM      4  C11 ZIN A   1      20.594  -2.554  11.861  0.00  0.00     0.021 A 
ATOM      5  C12 ZIN A   1      20.182  -3.829  11.519  0.00  0.00     0.002 A 
ATOM      6  C13 ZIN A   1      18.873  -4.060  11.139  0.00  0.00     0.002 A 
ATOM      7  C14 ZIN A   1      17.963  -3.018  11.100  0.00  0.00     0.031 A 
ATOM      8  C15 ZIN A   1      18.367  -1.741  11.445  0.00  0.00     0.054 A 
ATOM      9  N16 ZIN A   1      17.455  -0.674  11.427  0.00  0.00    -0.313 N 
ATOM     10  C22 ZIN A   1      17.338   0.124  12.496  0.00  0.00     0.255 C 
ATOM     11  O23 ZIN A   1      16.697   1.150  12.407  0.00  0.00    -0.270 OA
ATOM     12  C24 ZIN A   1      17.989  -0.231  13.802  0.00  0.00     0.242 C 
ENDROOT
BRANCH   1  13
ATOM     13  C6  ZIN A   1      19.319   1.839  14.195  0.00  0.00    -0.041 A 
ATOM     14  C5  ZIN A   1      19.226   2.762  13.170  0.00  0.00     0.011 A 
ATOM     15  C4  ZIN A   1      19.147   4.111  13.458  0.00  0.00     0.037 A 
ATOM     16  C3  ZIN A   1      19.163   4.539  14.777  0.00  0.00     0.068 A 
ATOM     17  C31 ZIN A   1      19.263   3.612  15.804  0.00  0.00     0.037 A 
ATOM     18  C30 ZIN A   1      19.335   2.263  15.511  0.00  0.00     0.011 A 
BRANCH  16  19
ATOM     19  O2  ZIN A   1      19.087   5.865  15.064  0.00  0.00    -0.356 OA
ATOM     20  C1  ZIN A   1      19.021   6.227  16.444  0.00  0.00     0.210 C 
ENDBRANCH  16  19
ENDBRANCH   1  13
BRANCH  12  21
ATOM     21  O26 ZIN A   1      17.187   0.292  14.894  0.00  0.00    -0.305 OA
BRANCH  21  22
ATOM     22  C27 ZIN A   1      17.218  -0.386  16.052  0.00  0.00     0.255 C 
ATOM     23  C28 ZIN A   1      18.105  -1.598  16.191  0.00  0.00     0.126 C 
ATOM     24  O29 ZIN A   1      16.538  -0.025  16.982  0.00  0.00    -0.266 OA
ENDBRANCH  21  22
ENDBRANCH  12  21
BRANCH   9  25
ATOM     25  C17 ZIN A   1      16.631  -0.434  10.240  0.00  0.00     0.162 C 
BRANCH  25  26
ATOM     26  C18 ZIN A   1      17.483   0.217   9.149  0.00  0.00     0.291 C 
BRANCH  26  27
ATOM     27  N19 ZIN A   1      17.645  -0.719   8.030  0.00  0.00     0.081 N 
ATOM     28  C20 ZIN A   1      17.185  -0.119   6.770  0.00  0.00     0.309 C 
ATOM     29  C21 ZIN A   1      19.039  -1.172   7.918  0.00  0.00     0.309 C 
ENDBRANCH  26  27
ENDBRANCH  25  26
ENDBRANCH   9  25
TORSDOF 7
ENDMDL
MODEL 2
REMARK VINA RESULT:      -6.4      2.728      7.481
REMARK  7 active torsions:
REMARK  status: ('A' for Active; 'I' for Inactive)
REMARK    1  A    between atoms: O2_2  and  C3_3 
REMARK    2  A    between atoms: C6_6  and  C7_7 
REMARK    3  A    between atoms: N16_15  and  C17_16 
REMARK    4  A    between atoms: C17_16  and  C18_17 
REMARK    5  A    between atoms: C18_17  and  N19_18 
REMARK    6  A    between atoms: C24_23  and  O26_24 
REMARK    7  A    between atoms: O26_24  and  C27_25 
ROOT
ATOM      1  C7  ZIN A   1      19.538  -0.327  10.069  0.00  0.00     0.124 C 
ATOM      2  S9  ZIN A   1      20.317   0.117  11.657  0.00  0.00    -0.115 SA
ATOM      3  C10 ZIN A   1      19.783   1.782  11.888  0.00  0.00     0.028 A 
ATOM      4  C11 ZIN A   1      20.670   2.835  11.727  0.00  0.00     0.021 A 
ATOM      5  C12 ZIN A   1      20.233   4.133  11.917  0.00  0.00     0.002 A 
ATOM      6  C13 ZIN A   1      18.919   4.382  12.268  0.00  0.00     0.002 A 
ATOM      7  C14 ZIN A   1      18.029   3.335  12.430  0.00  0.00     0.031 A 
ATOM      8  C15 ZIN A   1      18.458   2.033  12.238  0.00  0.00     0.054 A 
ATOM      9  N16 ZIN A   1      17.567   0.958  12.382  0.00  0.00    -0.313 N 
ATOM     10  C22 ZIN A   1      17.467   0.038  11.415  0.00  0.00     0.255 C 
ATOM     11  O23 ZIN A   1      16.845  -0.983  11.624  0.00  0.00    -0.270 OA
ATOM     12  C24 ZIN A   1      18.112   0.249  10.075  0.00  0.00     0.242 C 
ENDROOT
BRANCH   1  13
ATOM     13  C6  ZIN A   1      19.483  -1.826   9.928  0.00  0.00    -0.041 A 
ATOM     14  C5  ZIN A   1      19.712  -2.633  11.028  0.00  0.00     0.011 A 
ATOM     15  C4  ZIN A   1      19.661  -4.008  10.901  0.00  0.00     0.037 A 
ATOM     16  C3  ZIN A   1      19.380  -4.579   9.669  0.00  0.00     0.068 A 
ATOM     17  C31 ZIN A   1      19.156  -3.769   8.565  0.00  0.00     0.037 A 
ATOM     18  C30 ZIN A   1      19.203  -2.394   8.698  0.00  0.00     0.011 A 
BRANCH  16  19
ATOM     19  O2  ZIN A   1      19.330  -5.931   9.540  0.00  0.00    -0.356 OA
ATOM     20  C1  ZIN A   1      18.495  -6.453   8.505  0.00  0.00     0.210 C 
ENDBRANCH  16  19
ENDBRANCH   1  13
BRANCH  12  21
ATOM     21  O26 ZIN A   1      17.322  -0.414   9.054  0.00  0.00    -0.305 OA
BRANCH  21  22
ATOM     22  C27 ZIN A   1      17.386   0.090   7.811  0.00  0.00     0.255 C 
ATOM     23  C28 ZIN A   1      18.459   1.089   7.458  0.00  0.00     0.126 C 
ATOM     24  O29 ZIN A   1      16.585  -0.257   6.976  0.00  0.00    -0.266 OA
ENDBRANCH  21  22
ENDBRANCH  12  21
BRANCH   9  25
ATOM     25  C17 ZIN A   1      16.745   0.844  13.590  0.00  0.00     0.162 C 
BRANCH  25  26
ATOM     26  C18 ZIN A   1      17.653   0.735  14.816  0.00  0.00     0.291 C 
BRANCH  26  27
ATOM     27  N19 ZIN A   1      17.771  -0.673  15.216  0.00  0.00     0.081 N 
ATOM     28  C20 ZIN A   1      19.128  -1.180  14.968  0.00  0.00     0.309 C 
ATOM     29  C21 ZIN A   1      17.390  -0.856  16.623  0.00  0.00     0.309 C 
ENDBRANCH  26  27
ENDBRANCH  25  26
ENDBRANCH   9  25
TORSDOF 7
ENDMDL
MODEL 3
REMARK VINA RESULT:      -6.3      3.890      6.644
REMARK  7 active torsions:
REMARK  status: ('A' for Active; 'I' for Inactive)
REMARK    1  A    between atoms: O2_2  and  C3_3 
REMARK    2  A    between atoms: C6_6  and  C7_7 
REMARK    3  A    between atoms: N16_15  and  C17_16 
REMARK    4  A    between atoms: C17_16  and  C18_17 
REMARK    5  A    between atoms: C18_17  and  N19_18 
REMARK    6  A    between atoms: C24_23  and  O26_24 
REMARK    7  A    between atoms: O26_24  and  C27_25 
ROOT
ATOM      1  C7  ZIN A   1      17.347   6.304  13.359  0.00  0.00     0.124 C 
ATOM      2  S9  ZIN A   1      16.282   5.096  12.505  0.00  0.00    -0.115 SA
ATOM      3  C10 ZIN A   1      17.456   4.077  11.671  0.00  0.00     0.028 A 
ATOM      4  C11 ZIN A   1      17.613   4.164  10.297  0.00  0.00     0.021 A 
ATOM      5  C12 ZIN A   1      18.537   3.354   9.661  0.00  0.00     0.002 A 
ATOM      6  C13 ZIN A   1      19.299   2.460  10.391  0.00  0.00     0.002 A 
ATOM      7  C14 ZIN A   1      19.147   2.370  11.763  0.00  0.00     0.031 A 
ATOM      8  C15 ZIN A   1      18.228   3.180  12.406  0.00  0.00     0.054 A 
ATOM      9  N16 ZIN A   1      18.070   3.115  13.800  0.00  0.00    -0.313 N 
ATOM     10  C22 ZIN A   1      18.111   4.236  14.531  0.00  0.00     0.255 C 
ATOM     11  O23 ZIN A   1      17.785   4.199  15.699  0.00  0.00    -0.270 OA
ATOM     12  C24 ZIN A   1      18.553   5.538  13.928  0.00  0.00     0.242 C 
ENDROOT
BRANCH   1  13
ATOM     13  C6  ZIN A   1      16.583   6.959  14.480  0.00  0.00    -0.041 A 
ATOM     14  C5  ZIN A   1      15.419   6.380  14.952  0.00  0.00     0.011 A 
ATOM     15  C4  ZIN A   1      14.717   6.978  15.981  0.00  0.00     0.037 A 
ATOM     16  C3  ZIN A   1      15.179   8.160  16.539  0.00  0.00     0.068 A 
ATOM     17  C31 ZIN A   1      16.344   8.742  16.060  0.00  0.00     0.037 A 
ATOM     18  C30 ZIN A   1      17.046   8.138  15.035  0.00  0.00     0.011 A 
BRANCH  16  19
ATOM     19  O2  ZIN A   1      14.490   8.750  17.551  0.00  0.00    -0.356 OA
ATOM     20  C1  ZIN A   1      13.639   7.910  18.333  0.00  0.00     0.210 C 
ENDBRANCH  16  19
ENDBRANCH   1  13
BRANCH  12  21
ATOM     21  O26 ZIN A   1      19.196   6.345  14.949  0.00  0.00    -0.305 OA
BRANCH  21  22
ATOM     22  C27 ZIN A   1      20.520   6.534  14.833  0.00  0.00     0.255 C 
ATOM     23  C28 ZIN A   1      21.476   5.660  15.605  0.00  0.00     0.126 C 
ATOM     24  O29 ZIN A   1      20.946   7.404  14.111  0.00  0.00    -0.266 OA
ENDBRANCH  21  22
ENDBRANCH  12  21
BRANCH   9  25
ATOM     25  C17 ZIN A   1      17.862   1.821  14.454  0.00  0.00     0.162 C 
BRANCH  25  26
ATOM     26  C18 ZIN A   1      19.187   1.322  15.033  0.00  0.00     0.291 C 
BRANCH  26  27
ATOM     27  N19 ZIN A   1      18.932   0.586  16.278  0.00  0.00     0.081 N 
ATOM     28  C20 ZIN A   1      19.178   1.436  17.451  0.00  0.00     0.309 C 
ATOM     29  C21 ZIN A   1      17.568   0.042  16.300  0.00  0.00     0.309 C 
ENDBRANCH  26  27
ENDBRANCH  25  26
ENDBRANCH   9  25
TORSDOF 7
ENDMDL
MODEL 4
REMARK VINA RESULT:      -6.3      4.946      8.812
REMARK  7 active torsions:
REMARK  status: ('A' for Active; 'I' for Inactive)
REMARK    1  A    between atoms: O2_2  and  C3_3 
REMARK    2  A    between atoms: C6_6  and  C7_7 
REMARK    3  A    between atoms: N16_15  and  C17_16 
REMARK    4  A    between atoms: C17_16  and  C18_17 
REMARK    5  A    between atoms: C18_17  and  N19_18 
REMARK    6  A    between atoms: C24_23  and  O26_24 
REMARK    7  A    between atoms: O26_24  and  C27_25 
ROOT
ATOM      1  C7  ZIN A   1      17.937  -5.195   9.847  0.00  0.00     0.124 C 
ATOM      2  S9  ZIN A   1      16.963  -3.989  10.807  0.00  0.00    -0.115 SA
ATOM      3  C10 ZIN A   1      18.179  -2.799  11.270  0.00  0.00     0.028 A 
ATOM      4  C11 ZIN A   1      18.632  -2.727  12.577  0.00  0.00     0.021 A 
ATOM      5  C12 ZIN A   1      19.584  -1.784  12.921  0.00  0.00     0.002 A 
ATOM      6  C13 ZIN A   1      20.081  -0.916  11.966  0.00  0.00     0.002 A 
ATOM      7  C14 ZIN A   1      19.633  -0.984  10.658  0.00  0.00     0.031 A 
ATOM      8  C15 ZIN A   1      18.684  -1.928  10.307  0.00  0.00     0.054 A 
ATOM      9  N16 ZIN A   1      18.228  -2.024   8.982  0.00  0.00    -0.313 N 
ATOM     10  C22 ZIN A   1      18.224  -3.209   8.361  0.00  0.00     0.255 C 
ATOM     11  O23 ZIN A   1      17.655  -3.322   7.295  0.00  0.00    -0.270 OA
ATOM     12  C24 ZIN A   1      18.912  -4.401   8.962  0.00  0.00     0.242 C 
ENDROOT
BRANCH   1  13
ATOM     13  C6  ZIN A   1      17.021  -6.023   8.984  0.00  0.00    -0.041 A 
ATOM     14  C5  ZIN A   1      17.494  -7.174   8.381  0.00  0.00     0.011 A 
ATOM     15  C4  ZIN A   1      16.655  -7.935   7.590  0.00  0.00     0.037 A 
ATOM     16  C3  ZIN A   1      15.338  -7.544   7.401  0.00  0.00     0.068 A 
ATOM     17  C31 ZIN A   1      14.867  -6.386   8.001  0.00  0.00     0.037 A 
ATOM     18  C30 ZIN A   1      15.708  -5.630   8.796  0.00  0.00     0.011 A 
BRANCH  16  19
ATOM     19  O2  ZIN A   1      14.511  -8.291   6.622  0.00  0.00    -0.356 OA
ATOM     20  C1  ZIN A   1      13.325  -7.655   6.141  0.00  0.00     0.210 C 
ENDBRANCH  16  19
ENDBRANCH   1  13
BRANCH  12  21
ATOM     21  O26 ZIN A   1      19.401  -5.259   7.897  0.00  0.00    -0.305 OA
BRANCH  21  22
ATOM     22  C27 ZIN A   1      20.599  -4.958   7.373  0.00  0.00     0.255 C 
ATOM     23  C28 ZIN A   1      21.825  -5.718   7.810  0.00  0.00     0.126 C 
ATOM     24  O29 ZIN A   1      20.695  -4.077   6.550  0.00  0.00    -0.266 OA
ENDBRANCH  21  22
ENDBRANCH  12  21
BRANCH   9  25
ATOM     25  C17 ZIN A   1      17.757  -0.827   8.281  0.00  0.00     0.162 C 
BRANCH  25  26
ATOM     26  C18 ZIN A   1      18.921  -0.192   7.517  0.00  0.00     0.291 C 
BRANCH  26  27
ATOM     27  N19 ZIN A   1      18.480   0.171   6.164  0.00  0.00     0.081 N 
ATOM     28  C20 ZIN A   1      19.278  -0.526   5.146  0.00  0.00     0.309 C 
ATOM     29  C21 ZIN A   1      17.047  -0.102   5.986  0.00  0.00     0.309 C 
ENDBRANCH  26  27
ENDBRANCH  25  26
ENDBRANCH   9  25
TORSDOF 7
ENDMDL
MODEL 5
REMARK VINA RESULT:      -6.0      2.916      7.434
REMARK  7 active torsions:
REMARK  status: ('A' for Active; 'I' for Inactive)
REMARK    1  A    between atoms: O2_2  and  C3_3 
REMARK    2  A    between atoms: C6_6  and  C7_7 
REMARK    3  A    between atoms: N16_15  and  C17_16 
REMARK    4  A    between atoms: C17_16  and  C18_17 
REMARK    5  A    between atoms: C18_17  and  N19_18 
REMARK    6  A    between atoms: C24_23  and  O26_24 
REMARK    7  A    between atoms: O26_24  and  C27_25 
ROOT
ATOM      1  C7  ZIN A   1      17.575   1.290   8.774  0.00  0.00     0.124 C 
ATOM      2  S9  ZIN A   1      18.519   2.842   8.928  0.00  0.00    -0.115 SA
ATOM      3  C10 ZIN A   1      18.086   3.392  10.547  0.00  0.00     0.028 A 
ATOM      4  C11 ZIN A   1      17.237   4.472  10.720  0.00  0.00     0.021 A 
ATOM      5  C12 ZIN A   1      16.912   4.890  11.998  0.00  0.00     0.002 A 
ATOM      6  C13 ZIN A   1      17.433   4.236  13.099  0.00  0.00     0.002 A 
ATOM      7  C14 ZIN A   1      18.282   3.155  12.932  0.00  0.00     0.031 A 
ATOM      8  C15 ZIN A   1      18.607   2.729  11.656  0.00  0.00     0.054 A 
ATOM      9  N16 ZIN A   1      19.454   1.625  11.466  0.00  0.00    -0.313 N 
ATOM     10  C22 ZIN A   1      19.082   0.629  10.653  0.00  0.00     0.255 C 
ATOM     11  O23 ZIN A   1      19.889  -0.221  10.342  0.00  0.00    -0.270 OA
ATOM     12  C24 ZIN A   1      17.681   0.549  10.117  0.00  0.00     0.242 C 
ENDROOT
BRANCH   1  13
ATOM     13  C6  ZIN A   1      18.159   0.442   7.675  0.00  0.00    -0.041 A 
ATOM     14  C5  ZIN A   1      17.852  -0.904   7.604  0.00  0.00     0.011 A 
ATOM     15  C4  ZIN A   1      18.385  -1.684   6.596  0.00  0.00     0.037 A 
ATOM     16  C3  ZIN A   1      19.231  -1.115   5.655  0.00  0.00     0.068 A 
ATOM     17  C31 ZIN A   1      19.543   0.234   5.731  0.00  0.00     0.037 A 
ATOM     18  C30 ZIN A   1      19.002   1.011   6.738  0.00  0.00     0.011 A 
BRANCH  16  19
ATOM     19  O2  ZIN A   1      19.758  -1.880   4.662  0.00  0.00    -0.356 OA
ATOM     20  C1  ZIN A   1      18.995  -3.014   4.244  0.00  0.00     0.210 C 
ENDBRANCH  16  19
ENDBRANCH   1  13
BRANCH  12  21
ATOM     21  O26 ZIN A   1      17.321  -0.844   9.926  0.00  0.00    -0.305 OA
BRANCH  21  22
ATOM     22  C27 ZIN A   1      17.211  -1.602  11.029  0.00  0.00     0.255 C 
ATOM     23  C28 ZIN A   1      17.791  -2.994  11.047  0.00  0.00     0.126 C 
ATOM     24  O29 ZIN A   1      16.648  -1.170  12.006  0.00  0.00    -0.266 OA
ENDBRANCH  21  22
ENDBRANCH  12  21
BRANCH   9  25
ATOM     25  C17 ZIN A   1      20.744   1.563  12.158  0.00  0.00     0.162 C 
BRANCH  25  26
ATOM     26  C18 ZIN A   1      20.821   0.274  12.979  0.00  0.00     0.291 C 
BRANCH  26  27
ATOM     27  N19 ZIN A   1      19.571   0.095  13.729  0.00  0.00     0.081 N 
ATOM     28  C20 ZIN A   1      19.361  -1.318  14.073  0.00  0.00     0.309 C 
ATOM     29  C21 ZIN A   1      19.554   0.937  14.933  0.00  0.00     0.309 C 
ENDBRANCH  26  27
ENDBRANCH  25  26
ENDBRANCH   9  25
TORSDOF 7
ENDMDL
MODEL 6
REMARK VINA RESULT:      -5.9      3.057      6.046
REMARK  7 active torsions:
REMARK  status: ('A' for Active; 'I' for Inactive)
REMARK    1  A    between atoms: O2_2  and  C3_3 
REMARK    2  A    between atoms: C6_6  and  C7_7 
REMARK    3  A    between atoms: N16_15  and  C17_16 
REMARK    4  A    between atoms: C17_16  and  C18_17 
REMARK    5  A    between atoms: C18_17  and  N19_18 
REMARK    6  A    between atoms: C24_23  and  O26_24 
REMARK    7  A    between atoms: O26_24  and  C27_25 
ROOT
ATOM      1  C7  ZIN A   1      17.769   6.009  14.122  0.00  0.00     0.124 C 
ATOM      2  S9  ZIN A   1      16.604   4.843  13.341  0.00  0.00    -0.115 SA
ATOM      3  C10 ZIN A   1      17.640   3.974  12.209  0.00  0.00     0.028 A 
ATOM      4  C11 ZIN A   1      17.546   4.208  10.846  0.00  0.00     0.021 A 
ATOM      5  C12 ZIN A   1      18.364   3.513   9.974  0.00  0.00     0.002 A 
ATOM      6  C13 ZIN A   1      19.271   2.588  10.457  0.00  0.00     0.002 A 
ATOM      7  C14 ZIN A   1      19.370   2.351  11.817  0.00  0.00     0.031 A 
ATOM      8  C15 ZIN A   1      18.557   3.045  12.695  0.00  0.00     0.054 A 
ATOM      9  N16 ZIN A   1      18.653   2.830  14.079  0.00  0.00    -0.313 N 
ATOM     10  C22 ZIN A   1      18.791   3.871  14.910  0.00  0.00     0.255 C 
ATOM     11  O23 ZIN A   1      18.680   3.699  16.105  0.00  0.00    -0.270 OA
ATOM     12  C24 ZIN A   1      19.079   5.248  14.384  0.00  0.00     0.242 C 
ENDROOT
BRANCH   1  13
ATOM     13  C6  ZIN A   1      17.198   6.507  15.424  0.00  0.00    -0.041 A 
ATOM     14  C5  ZIN A   1      16.142   5.839  16.016  0.00  0.00     0.011 A 
ATOM     15  C4  ZIN A   1      15.617   6.294  17.211  0.00  0.00     0.037 A 
ATOM     16  C3  ZIN A   1      16.150   7.422  17.816  0.00  0.00     0.068 A 
ATOM     17  C31 ZIN A   1      17.206   8.094  17.218  0.00  0.00     0.037 A 
ATOM     18  C30 ZIN A   1      17.731   7.633  16.026  0.00  0.00     0.011 A 
BRANCH  16  19
ATOM     19  O2  ZIN A   1      15.636   7.872  18.991  0.00  0.00    -0.356 OA
ATOM     20  C1  ZIN A   1      14.215   8.002  19.069  0.00  0.00     0.210 C 
ENDBRANCH  16  19
ENDBRANCH   1  13
BRANCH  12  21
ATOM     21  O26 ZIN A   1      19.870   5.977  15.360  0.00  0.00    -0.305 OA
BRANCH  21  22
ATOM     22  C27 ZIN A   1      21.077   6.411  14.964  0.00  0.00     0.255 C 
ATOM     23  C28 ZIN A   1      22.325   5.740  15.479  0.00  0.00     0.126 C 
ATOM     24  O29 ZIN A   1      21.163   7.339  14.195  0.00  0.00    -0.266 OA
ENDBRANCH  21  22
ENDBRANCH  12  21
BRANCH   9  25
ATOM     25  C17 ZIN A   1      18.604   1.467  14.615  0.00  0.00     0.162 C 
BRANCH  25  26
ATOM     26  C18 ZIN A   1      17.391   0.735  14.037  0.00  0.00     0.291 C 
BRANCH  26  27
ATOM     27  N19 ZIN A   1      17.787  -0.617  13.621  0.00  0.00     0.081 N 
ATOM     28  C20 ZIN A   1      17.405  -0.872  12.226  0.00  0.00     0.309 C 
ATOM     29  C21 ZIN A   1      19.227  -0.829  13.820  0.00  0.00     0.309 C 
ENDBRANCH  26  27
ENDBRANCH  25  26
ENDBRANCH   9  25
TORSDOF 7
ENDMDL
MODEL 7
REMARK VINA RESULT:      -5.9      2.133      4.552
REMARK  7 active torsions:
REMARK  status: ('A' for Active; 'I' for Inactive)
REMARK    1  A    between atoms: O2_2  and  C3_3 
REMARK    2  A    between atoms: C6_6  and  C7_7 
REMARK    3  A    between atoms: N16_15  and  C17_16 
REMARK    4  A    between atoms: C17_16  and  C18_17 
REMARK    5  A    between atoms: C18_17  and  N19_18 
REMARK    6  A    between atoms: C24_23  and  O26_24 
REMARK    7  A    between atoms: O26_24  and  C27_25 
ROOT
ATOM      1  C7  ZIN A   1      17.797   1.270  12.519  0.00  0.00     0.124 C 
ATOM      2  S9  ZIN A   1      17.098  -0.306  11.926  0.00  0.00    -0.115 SA
ATOM      3  C10 ZIN A   1      17.630  -0.350  10.246  0.00  0.00     0.028 A 
ATOM      4  C11 ZIN A   1      16.729  -0.135   9.215  0.00  0.00     0.021 A 
ATOM      5  C12 ZIN A   1      17.165  -0.178   7.903  0.00  0.00     0.002 A 
ATOM      6  C13 ZIN A   1      18.494  -0.435   7.619  0.00  0.00     0.002 A 
ATOM      7  C14 ZIN A   1      19.399  -0.649   8.644  0.00  0.00     0.031 A 
ATOM      8  C15 ZIN A   1      18.969  -0.604   9.959  0.00  0.00     0.054 A 
ATOM      9  N16 ZIN A   1      19.875  -0.804  11.013  0.00  0.00    -0.313 N 
ATOM     10  C22 ZIN A   1      19.932   0.075  12.021  0.00  0.00     0.255 C 
ATOM     11  O23 ZIN A   1      20.570  -0.198  13.016  0.00  0.00    -0.270 OA
ATOM     12  C24 ZIN A   1      19.216   1.393  11.941  0.00  0.00     0.242 C 
ENDROOT
BRANCH   1  13
ATOM     13  C6  ZIN A   1      17.855   1.271  14.024  0.00  0.00    -0.041 A 
ATOM     14  C5  ZIN A   1      18.174   2.433  14.702  0.00  0.00     0.011 A 
ATOM     15  C4  ZIN A   1      18.227   2.437  16.083  0.00  0.00     0.037 A 
ATOM     16  C3  ZIN A   1      17.961   1.273  16.788  0.00  0.00     0.068 A 
ATOM     17  C31 ZIN A   1      17.647   0.107  16.107  0.00  0.00     0.037 A 
ATOM     18  C30 ZIN A   1      17.590   0.109  14.726  0.00  0.00     0.011 A 
BRANCH  16  19
ATOM     19  O2  ZIN A   1      18.013   1.273  18.147  0.00  0.00    -0.356 OA
ATOM     20  C1  ZIN A   1      18.540   0.103  18.775  0.00  0.00     0.210 C 
ENDBRANCH  16  19
ENDBRANCH   1  13
BRANCH  12  21
ATOM     21  O26 ZIN A   1      19.958   2.387  12.697  0.00  0.00    -0.305 OA
BRANCH  21  22
ATOM     22  C27 ZIN A   1      20.183   3.566  12.096  0.00  0.00     0.255 C 
ATOM     23  C28 ZIN A   1      19.139   4.652  12.151  0.00  0.00     0.126 C 
ATOM     24  O29 ZIN A   1      21.223   3.757  11.511  0.00  0.00    -0.266 OA
ENDBRANCH  21  22
ENDBRANCH  12  21
BRANCH   9  25
ATOM     25  C17 ZIN A   1      20.758  -1.973  11.010  0.00  0.00     0.162 C 
BRANCH  25  26
ATOM     26  C18 ZIN A   1      20.018  -3.174  11.601  0.00  0.00     0.291 C 
BRANCH  26  27
ATOM     27  N19 ZIN A   1      19.159  -3.775  10.572  0.00  0.00     0.081 N 
ATOM     28  C20 ZIN A   1      19.782  -4.978  10.003  0.00  0.00     0.309 C 
ATOM     29  C21 ZIN A   1      17.825  -4.077  11.109  0.00  0.00     0.309 C 
ENDBRANCH  26  27
ENDBRANCH  25  26
ENDBRANCH   9  25
TORSDOF 7
ENDMDL
MODEL 8
REMARK VINA RESULT:      -5.7      3.240      7.497
REMARK  7 active torsions:
REMARK  status: ('A' for Active; 'I' for Inactive)
REMARK    1  A    between atoms: O2_2  and  C3_3 
REMARK    2  A    between atoms: C6_6  and  C7_7 
REMARK    3  A    between atoms: N16_15  and  C17_16 
REMARK    4  A    between atoms: C17_16  and  C18_17 
REMARK    5  A    between atoms: C18_17  and  N19_18 
REMARK    6  A    between atoms: C24_23  and  O26_24 
REMARK    7  A    between atoms: O26_24  and  C27_25 
ROOT
ATOM      1  C7  ZIN A   1      17.089   2.560  11.226  0.00  0.00     0.124 C 
ATOM      2  S9  ZIN A   1      17.047   4.365  10.975  0.00  0.00    -0.115 SA
ATOM      3  C10 ZIN A   1      16.791   4.971  12.611  0.00  0.00     0.028 A 
ATOM      4  C11 ZIN A   1      15.563   5.493  12.985  0.00  0.00     0.021 A 
ATOM      5  C12 ZIN A   1      15.383   5.967  14.272  0.00  0.00     0.002 A 
ATOM      6  C13 ZIN A   1      16.423   5.921  15.183  0.00  0.00     0.002 A 
ATOM      7  C14 ZIN A   1      17.651   5.399  14.816  0.00  0.00     0.031 A 
ATOM      8  C15 ZIN A   1      17.836   4.920  13.531  0.00  0.00     0.054 A 
ATOM      9  N16 ZIN A   1      19.070   4.373  13.144  0.00  0.00    -0.313 N 
ATOM     10  C22 ZIN A   1      19.113   3.172  12.555  0.00  0.00     0.255 C 
ATOM     11  O23 ZIN A   1      20.149   2.791  12.051  0.00  0.00    -0.270 OA
ATOM     12  C24 ZIN A   1      17.899   2.289  12.505  0.00  0.00     0.242 C 
ENDROOT
BRANCH   1  13
ATOM     13  C6  ZIN A   1      17.754   1.894  10.050  0.00  0.00    -0.041 A 
ATOM     14  C5  ZIN A   1      18.640   2.607   9.263  0.00  0.00     0.011 A 
ATOM     15  C4  ZIN A   1      19.252   1.998   8.184  0.00  0.00     0.037 A 
ATOM     16  C3  ZIN A   1      18.976   0.672   7.890  0.00  0.00     0.068 A 
ATOM     17  C31 ZIN A   1      18.083  -0.040   8.677  0.00  0.00     0.037 A 
ATOM     18  C30 ZIN A   1      17.478   0.571   9.758  0.00  0.00     0.011 A 
BRANCH  16  19
ATOM     19  O2  ZIN A   1      19.576   0.070   6.829  0.00  0.00    -0.356 OA
ATOM     20  C1  ZIN A   1      18.989   0.287   5.544  0.00  0.00     0.210 C 
ENDBRANCH  16  19
ENDBRANCH   1  13
BRANCH  12  21
ATOM     21  O26 ZIN A   1      18.317   0.899  12.524  0.00  0.00    -0.305 OA
BRANCH  21  22
ATOM     22  C27 ZIN A   1      18.091   0.209  13.653  0.00  0.00     0.255 C 
ATOM     23  C28 ZIN A   1      18.631  -1.191  13.802  0.00  0.00     0.126 C 
ATOM     24  O29 ZIN A   1      17.456   0.710  14.550  0.00  0.00    -0.266 OA
ENDBRANCH  21  22
ENDBRANCH  12  21
BRANCH   9  25
ATOM     25  C17 ZIN A   1      20.310   5.115  13.386  0.00  0.00     0.162 C 
BRANCH  25  26
ATOM     26  C18 ZIN A   1      20.076   6.157  14.481  0.00  0.00     0.291 C 
BRANCH  26  27
ATOM     27  N19 ZIN A   1      20.945   5.865  15.629  0.00  0.00     0.081 N 
ATOM     28  C20 ZIN A   1      20.575   4.590  16.259  0.00  0.00     0.309 C 
ATOM     29  C21 ZIN A   1      22.360   5.865  15.233  0.00  0.00     0.309 C 
ENDBRANCH  26  27
ENDBRANCH  25  26
ENDBRANCH   9  25
TORSDOF 7
ENDMDL
MODEL 9
REMARK VINA RESULT:      -5.5      2.767      7.198
REMARK  7 active torsions:
REMARK  status: ('A' for Active; 'I' for Inactive)
REMARK    1  A    between atoms: O2_2  and  C3_3 
REMARK    2  A    between atoms: C6_6  and  C7_7 
REMARK    3  A    between atoms: N16_15  and  C17_16 
REMARK    4  A    between atoms: C17_16  and  C18_17 
REMARK    5  A    between atoms: C18_17  and  N19_18 
REMARK    6  A    between atoms: C24_23  and  O26_24 
REMARK    7  A    between atoms: O26_24  and  C27_25 
ROOT
ATOM      1  C7  ZIN A   1      17.472   1.199  12.624  0.00  0.00     0.124 C 
ATOM      2  S9  ZIN A   1      18.309   2.714  12.050  0.00  0.00    -0.115 SA
ATOM      3  C10 ZIN A   1      17.583   3.958  13.067  0.00  0.00     0.028 A 
ATOM      4  C11 ZIN A   1      16.670   4.857  12.538  0.00  0.00     0.021 A 
ATOM      5  C12 ZIN A   1      16.115   5.828  13.352  0.00  0.00     0.002 A 
ATOM      6  C13 ZIN A   1      16.468   5.904  14.686  0.00  0.00     0.002 A 
ATOM      7  C14 ZIN A   1      17.378   5.008  15.221  0.00  0.00     0.031 A 
ATOM      8  C15 ZIN A   1      17.935   4.032  14.413  0.00  0.00     0.054 A 
ATOM      9  N16 ZIN A   1      18.847   3.104  14.940  0.00  0.00    -0.313 N 
ATOM     10  C22 ZIN A   1      18.663   1.795  14.736  0.00  0.00     0.255 C 
ATOM     11  O23 ZIN A   1      19.547   1.015  15.023  0.00  0.00    -0.270 OA
ATOM     12  C24 ZIN A   1      17.378   1.275  14.157  0.00  0.00     0.242 C 
ENDROOT
BRANCH   1  13
ATOM     13  C6  ZIN A   1      18.271  -0.012  12.219  0.00  0.00    -0.041 A 
ATOM     14  C5  ZIN A   1      17.755  -1.279  12.423  0.00  0.00     0.011 A 
ATOM     15  C4  ZIN A   1      18.485  -2.391  12.051  0.00  0.00     0.037 A 
ATOM     16  C3  ZIN A   1      19.737  -2.237  11.474  0.00  0.00     0.068 A 
ATOM     17  C31 ZIN A   1      20.255  -0.965  11.276  0.00  0.00     0.037 A 
ATOM     18  C30 ZIN A   1      19.518   0.145  11.644  0.00  0.00     0.011 A 
BRANCH  16  19
ATOM     19  O2  ZIN A   1      20.458  -3.329  11.108  0.00  0.00    -0.356 OA
ATOM     20  C1  ZIN A   1      19.768  -4.580  11.079  0.00  0.00     0.210 C 
ENDBRANCH  16  19
ENDBRANCH   1  13
BRANCH  12  21
ATOM     21  O26 ZIN A   1      17.116  -0.051  14.687  0.00  0.00    -0.305 OA
BRANCH  21  22
ATOM     22  C27 ZIN A   1      17.213  -0.206  16.017  0.00  0.00     0.255 C 
ATOM     23  C28 ZIN A   1      18.056  -1.318  16.587  0.00  0.00     0.126 C 
ATOM     24  O29 ZIN A   1      16.625   0.547  16.758  0.00  0.00    -0.266 OA
ENDBRANCH  21  22
ENDBRANCH  12  21
BRANCH   9  25
ATOM     25  C17 ZIN A   1      20.002   3.570  15.713  0.00  0.00     0.162 C 
BRANCH  25  26
ATOM     26  C18 ZIN A   1      19.543   3.999  17.108  0.00  0.00     0.291 C 
BRANCH  26  27
ATOM     27  N19 ZIN A   1      18.694   2.951  17.688  0.00  0.00     0.081 N 
ATOM     28  C20 ZIN A   1      19.507   1.908  18.329  0.00  0.00     0.309 C 
ATOM     29  C21 ZIN A   1      17.727   3.521  18.636  0.00  0.00     0.309 C 
ENDBRANCH  26  27
ENDBRANCH  25  26
ENDBRANCH   9  25
TORSDOF 7
ENDMDL
