MODEL 1
REMARK VINA RESULT:      -8.1      0.000      0.000
REMARK  2 active torsions:
REMARK  status: ('A' for Active; 'I' for Inactive)
REMARK    1  A    between atoms: C3_3  and  O4_4 
REMARK    2  A    between atoms: C25_21  and  C26_22 
ROOT
ATOM      1  C1  ZIN A   1      15.037  -5.806   8.482  0.00  0.00     0.015 C 
ATOM      2  C2  ZIN A   1      16.078  -5.795   9.024  0.00  0.00    -0.078 C 
ATOM      3  C3  ZIN A   1      17.383  -5.782   9.705  0.00  0.00     0.128 C 
ATOM      4  C5  ZIN A   1      17.194  -5.964  11.231  0.00  0.00     0.052 C 
ATOM      5  C6  ZIN A   1      17.686  -4.648  11.894  0.00  0.00     0.010 C 
ATOM      6  C7  ZIN A   1      17.535  -3.620  10.767  0.00  0.00     0.002 C 
ATOM      7  C9  ZIN A   1      18.385  -2.369  10.898  0.00  0.00    -0.005 C 
ATOM      8  C11 ZIN A   1      17.956  -1.578  12.137  0.00  0.00     0.010 C 
ATOM      9  C12 ZIN A   1      18.866  -0.359  12.294  0.00  0.00     0.035 C 
ATOM     10  C13 ZIN A   1      18.828   0.450  11.011  0.00  0.00    -0.072 C 
ATOM     11  C14 ZIN A   1      18.628   1.763  11.111  0.00  0.00     0.053 C 
ATOM     12  C15 ZIN A   1      18.596   2.596   9.905  0.00  0.00     0.149 C 
ATOM     13  O16 ZIN A   1      18.058   3.683   9.893  0.00  0.00    -0.293 OA
ATOM     14  C17 ZIN A   1      19.271   2.027   8.672  0.00  0.00     0.084 C 
ATOM     15  C18 ZIN A   1      18.754   0.601   8.486  0.00  0.00     0.017 C 
ATOM     16  C19 ZIN A   1      19.027  -0.260   9.707  0.00  0.00     0.019 C 
ATOM     17  C21 ZIN A   1      18.153  -1.518   9.640  0.00  0.00    -0.002 C 
ATOM     18  C23 ZIN A   1      18.472  -2.281   8.358  0.00  0.00     0.006 C 
ATOM     19  C24 ZIN A   1      17.717  -3.617   8.288  0.00  0.00     0.014 C 
ATOM     20  C25 ZIN A   1      18.051  -4.420   9.541  0.00  0.00     0.006 C 
ENDROOT
BRANCH   3  21
ATOM     21  O4  ZIN A   1      18.224  -6.811   9.182  0.00  0.00    -0.377 OA
ATOM     22  H29 ZIN A   1      17.754  -7.624   8.950  0.00  0.00     0.211 HD
ENDBRANCH   3  21
BRANCH  20  23
ATOM     23  C26 ZIN A   1      19.568  -4.555   9.681  0.00  0.00     0.009 C 
ATOM     24  C27 ZIN A   1      20.152  -5.114   8.382  0.00  0.00     0.006 C 
ENDBRANCH  20  23
TORSDOF 2
ENDMDL
MODEL 2
REMARK VINA RESULT:      -7.9      1.881      3.812
REMARK  2 active torsions:
REMARK  status: ('A' for Active; 'I' for Inactive)
REMARK    1  A    between atoms: C3_3  and  O4_4 
REMARK    2  A    between atoms: C25_21  and  C26_22 
ROOT
ATOM      1  C1  ZIN A   1      21.963  -5.667   7.809  0.00  0.00     0.015 C 
ATOM      2  C2  ZIN A   1      20.798  -5.546   7.757  0.00  0.00    -0.078 C 
ATOM      3  C3  ZIN A   1      19.335  -5.392   7.690  0.00  0.00     0.128 C 
ATOM      4  C5  ZIN A   1      18.944  -4.481   6.500  0.00  0.00     0.052 C 
ATOM      5  C6  ZIN A   1      18.290  -3.213   7.114  0.00  0.00     0.010 C 
ATOM      6  C7  ZIN A   1      18.880  -3.174   8.528  0.00  0.00     0.002 C 
ATOM      7  C9  ZIN A   1      18.086  -2.384   9.553  0.00  0.00    -0.005 C 
ATOM      8  C11 ZIN A   1      18.058  -0.905   9.157  0.00  0.00     0.010 C 
ATOM      9  C12 ZIN A   1      17.198  -0.133  10.158  0.00  0.00     0.035 C 
ATOM     10  C13 ZIN A   1      17.732  -0.381  11.557  0.00  0.00    -0.072 C 
ATOM     11  C14 ZIN A   1      17.927   0.677  12.342  0.00  0.00     0.053 C 
ATOM     12  C15 ZIN A   1      18.428   0.495  13.708  0.00  0.00     0.149 C 
ATOM     13  O16 ZIN A   1      18.972   1.395  14.315  0.00  0.00    -0.293 OA
ATOM     14  C17 ZIN A   1      18.233  -0.877  14.324  0.00  0.00     0.084 C 
ATOM     15  C18 ZIN A   1      18.732  -1.907  13.311  0.00  0.00     0.017 C 
ATOM     16  C19 ZIN A   1      18.000  -1.791  11.986  0.00  0.00     0.019 C 
ATOM     17  C21 ZIN A   1      18.793  -2.539  10.907  0.00  0.00    -0.002 C 
ATOM     18  C23 ZIN A   1      18.939  -4.001  11.319  0.00  0.00     0.006 C 
ATOM     19  C24 ZIN A   1      19.620  -4.836  10.223  0.00  0.00     0.014 C 
ATOM     20  C25 ZIN A   1      18.822  -4.672   8.934  0.00  0.00     0.006 C 
ENDROOT
BRANCH   3  21
ATOM     21  O4  ZIN A   1      18.708  -6.670   7.565  0.00  0.00    -0.377 OA
ATOM     22  H29 ZIN A   1      18.322  -7.001   8.387  0.00  0.00     0.211 HD
ENDBRANCH   3  21
BRANCH  20  23
ATOM     23  C26 ZIN A   1      17.356  -5.027   9.183  0.00  0.00     0.009 C 
ATOM     24  C27 ZIN A   1      17.276  -6.243  10.110  0.00  0.00     0.006 C 
ENDBRANCH  20  23
TORSDOF 2
ENDMDL
MODEL 3
REMARK VINA RESULT:      -7.7      3.940      8.628
REMARK  2 active torsions:
REMARK  status: ('A' for Active; 'I' for Inactive)
REMARK    1  A    between atoms: C3_3  and  O4_4 
REMARK    2  A    between atoms: C25_21  and  C26_22 
ROOT
ATOM      1  C1  ZIN A   1      21.695   5.914  15.471  0.00  0.00     0.015 C 
ATOM      2  C2  ZIN A   1      20.559   5.623  15.508  0.00  0.00    -0.078 C 
ATOM      3  C3  ZIN A   1      19.134   5.255  15.556  0.00  0.00     0.128 C 
ATOM      4  C5  ZIN A   1      18.891   4.187  16.651  0.00  0.00     0.052 C 
ATOM      5  C6  ZIN A   1      18.417   2.904  15.914  0.00  0.00     0.010 C 
ATOM      6  C7  ZIN A   1      18.990   3.087  14.504  0.00  0.00     0.002 C 
ATOM      7  C9  ZIN A   1      18.305   2.295  13.406  0.00  0.00    -0.005 C 
ATOM      8  C11 ZIN A   1      18.493   0.796  13.655  0.00  0.00     0.010 C 
ATOM      9  C12 ZIN A   1      17.740   0.010  12.581  0.00  0.00     0.035 C 
ATOM     10  C13 ZIN A   1      18.217   0.466  11.215  0.00  0.00    -0.072 C 
ATOM     11  C14 ZIN A   1      18.552  -0.473  10.330  0.00  0.00     0.053 C 
ATOM     12  C15 ZIN A   1      19.007  -0.089   8.990  0.00  0.00     0.149 C 
ATOM     13  O16 ZIN A   1      19.666  -0.839   8.300  0.00  0.00    -0.293 OA
ATOM     14  C17 ZIN A   1      18.611   1.294   8.511  0.00  0.00     0.084 C 
ATOM     15  C18 ZIN A   1      18.969   2.281   9.620  0.00  0.00     0.017 C 
ATOM     16  C19 ZIN A   1      18.277   1.934  10.926  0.00  0.00     0.019 C 
ATOM     17  C21 ZIN A   1      18.967   2.680  12.075  0.00  0.00    -0.002 C 
ATOM     18  C23 ZIN A   1      18.899   4.181  11.808  0.00  0.00     0.006 C 
ATOM     19  C24 ZIN A   1      19.467   4.994  12.982  0.00  0.00     0.014 C 
ATOM     20  C25 ZIN A   1      18.715   4.594  14.247  0.00  0.00     0.006 C 
ENDROOT
BRANCH   3  21
ATOM     21  O4  ZIN A   1      18.333   6.412  15.804  0.00  0.00    -0.377 OA
ATOM     22  H29 ZIN A   1      18.227   6.990  15.035  0.00  0.00     0.211 HD
ENDBRANCH   3  21
BRANCH  20  23
ATOM     23  C26 ZIN A   1      17.210   4.758  14.029  0.00  0.00     0.009 C 
ATOM     24  C27 ZIN A   1      16.942   6.068  13.284  0.00  0.00     0.006 C 
ENDBRANCH  20  23
TORSDOF 2
ENDMDL
MODEL 4
REMARK VINA RESULT:      -7.5      5.003      9.809
REMARK  2 active torsions:
REMARK  status: ('A' for Active; 'I' for Inactive)
REMARK    1  A    between atoms: C3_3  and  O4_4 
REMARK    2  A    between atoms: C25_21  and  C26_22 
ROOT
ATOM      1  C1  ZIN A   1      15.889   5.527  17.842  0.00  0.00     0.015 C 
ATOM      2  C2  ZIN A   1      16.611   6.072  17.095  0.00  0.00    -0.078 C 
ATOM      3  C3  ZIN A   1      17.516   6.756  16.157  0.00  0.00     0.128 C 
ATOM      4  C5  ZIN A   1      16.719   7.734  15.258  0.00  0.00     0.052 C 
ATOM      5  C6  ZIN A   1      16.847   7.197  13.806  0.00  0.00     0.010 C 
ATOM      6  C7  ZIN A   1      17.139   5.707  14.015  0.00  0.00     0.002 C 
ATOM      7  C9  ZIN A   1      17.815   4.998  12.856  0.00  0.00    -0.005 C 
ATOM      8  C11 ZIN A   1      16.885   4.993  11.640  0.00  0.00     0.010 C 
ATOM      9  C12 ZIN A   1      17.605   4.338  10.459  0.00  0.00     0.035 C 
ATOM     10  C13 ZIN A   1      18.073   2.957  10.877  0.00  0.00    -0.072 C 
ATOM     11  C14 ZIN A   1      17.803   1.938  10.060  0.00  0.00     0.053 C 
ATOM     12  C15 ZIN A   1      18.244   0.584  10.406  0.00  0.00     0.149 C 
ATOM     13  O16 ZIN A   1      17.721  -0.401   9.926  0.00  0.00    -0.293 OA
ATOM     14  C17 ZIN A   1      19.388   0.476  11.396  0.00  0.00     0.084 C 
ATOM     15  C18 ZIN A   1      19.045   1.367  12.589  0.00  0.00     0.017 C 
ATOM     16  C19 ZIN A   1      18.818   2.808  12.167  0.00  0.00     0.019 C 
ATOM     17  C21 ZIN A   1      18.094   3.554  13.295  0.00  0.00    -0.002 C 
ATOM     18  C23 ZIN A   1      18.942   3.488  14.562  0.00  0.00     0.006 C 
ATOM     19  C24 ZIN A   1      18.330   4.320  15.700  0.00  0.00     0.014 C 
ATOM     20  C25 ZIN A   1      18.144   5.748  15.199  0.00  0.00     0.006 C 
ENDROOT
BRANCH   3  21
ATOM     21  O4  ZIN A   1      18.534   7.456  16.874  0.00  0.00    -0.377 OA
ATOM     22  H29 ZIN A   1      19.426   7.316  16.528  0.00  0.00     0.211 HD
ENDBRANCH   3  21
BRANCH  20  23
ATOM     23  C26 ZIN A   1      19.471   6.286  14.661  0.00  0.00     0.009 C 
ATOM     24  C27 ZIN A   1      20.611   5.844  15.581  0.00  0.00     0.006 C 
ENDBRANCH  20  23
TORSDOF 2
ENDMDL
MODEL 5
REMARK VINA RESULT:      -7.2      2.922      6.370
REMARK  2 active torsions:
REMARK  status: ('A' for Active; 'I' for Inactive)
REMARK    1  A    between atoms: C3_3  and  O4_4 
REMARK    2  A    between atoms: C25_21  and  C26_22 
ROOT
ATOM      1  C1  ZIN A   1      16.504   0.341  12.436  0.00  0.00     0.015 C 
ATOM      2  C2  ZIN A   1      17.504   0.619  11.890  0.00  0.00    -0.078 C 
ATOM      3  C3  ZIN A   1      18.759   0.969  11.204  0.00  0.00     0.128 C 
ATOM      4  C5  ZIN A   1      18.651   2.380  10.574  0.00  0.00     0.052 C 
ATOM      5  C6  ZIN A   1      18.751   2.182   9.036  0.00  0.00     0.010 C 
ATOM      6  C7  ZIN A   1      18.295   0.731   8.847  0.00  0.00     0.002 C 
ATOM      7  C9  ZIN A   1      18.749   0.059   7.564  0.00  0.00    -0.005 C 
ATOM      8  C11 ZIN A   1      18.127   0.769   6.359  0.00  0.00     0.010 C 
ATOM      9  C12 ZIN A   1      18.648   0.126   5.073  0.00  0.00     0.035 C 
ATOM     10  C13 ZIN A   1      18.361  -1.364   5.119  0.00  0.00    -0.072 C 
ATOM     11  C14 ZIN A   1      17.792  -1.919   4.050  0.00  0.00     0.053 C 
ATOM     12  C15 ZIN A   1      17.506  -3.357   4.034  0.00  0.00     0.149 C 
ATOM     13  O16 ZIN A   1      16.676  -3.834   3.288  0.00  0.00    -0.293 OA
ATOM     14  C17 ZIN A   1      18.300  -4.216   4.998  0.00  0.00     0.084 C 
ATOM     15  C18 ZIN A   1      18.214  -3.556   6.374  0.00  0.00     0.017 C 
ATOM     16  C19 ZIN A   1      18.739  -2.132   6.348  0.00  0.00     0.019 C 
ATOM     17  C21 ZIN A   1      18.265  -1.398   7.608  0.00  0.00    -0.002 C 
ATOM     18  C23 ZIN A   1      18.774  -2.140   8.840  0.00  0.00     0.006 C 
ATOM     19  C24 ZIN A   1      18.435  -1.389  10.137  0.00  0.00     0.014 C 
ATOM     20  C25 ZIN A   1      19.003   0.022  10.033  0.00  0.00     0.006 C 
ENDROOT
BRANCH   3  21
ATOM     21  O4  ZIN A   1      19.854   0.916  12.119  0.00  0.00    -0.377 OA
ATOM     22  H29 ZIN A   1      19.719   1.434  12.925  0.00  0.00     0.211 HD
ENDBRANCH   3  21
BRANCH  20  23
ATOM     23  C26 ZIN A   1      20.496  -0.043   9.708  0.00  0.00     0.009 C 
ATOM     24  C27 ZIN A   1      21.210  -0.898  10.757  0.00  0.00     0.006 C 
ENDBRANCH  20  23
TORSDOF 2
ENDMDL
MODEL 6
REMARK VINA RESULT:      -7.2      1.411      6.794
REMARK  2 active torsions:
REMARK  status: ('A' for Active; 'I' for Inactive)
REMARK    1  A    between atoms: C3_3  and  O4_4 
REMARK    2  A    between atoms: C25_21  and  C26_22 
ROOT
ATOM      1  C1  ZIN A   1      17.002   3.554  11.109  0.00  0.00     0.015 C 
ATOM      2  C2  ZIN A   1      18.011   3.023  10.834  0.00  0.00    -0.078 C 
ATOM      3  C3  ZIN A   1      19.277   2.356  10.487  0.00  0.00     0.128 C 
ATOM      4  C5  ZIN A   1      19.627   2.607   9.000  0.00  0.00     0.052 C 
ATOM      5  C6  ZIN A   1      19.583   1.221   8.299  0.00  0.00     0.010 C 
ATOM      6  C7  ZIN A   1      18.652   0.409   9.205  0.00  0.00     0.002 C 
ATOM      7  C9  ZIN A   1      18.790  -1.100   9.110  0.00  0.00    -0.005 C 
ATOM      8  C11 ZIN A   1      18.392  -1.569   7.707  0.00  0.00     0.010 C 
ATOM      9  C12 ZIN A   1      18.604  -3.080   7.604  0.00  0.00     0.035 C 
ATOM     10  C13 ZIN A   1      17.829  -3.760   8.718  0.00  0.00    -0.072 C 
ATOM     11  C14 ZIN A   1      17.057  -4.796   8.393  0.00  0.00     0.053 C 
ATOM     12  C15 ZIN A   1      16.297  -5.499   9.432  0.00  0.00     0.149 C 
ATOM     13  O16 ZIN A   1      15.321  -6.170   9.166  0.00  0.00    -0.293 OA
ATOM     14  C17 ZIN A   1      16.795  -5.345  10.856  0.00  0.00     0.084 C 
ATOM     15  C18 ZIN A   1      17.002  -3.853  11.108  0.00  0.00     0.017 C 
ATOM     16  C19 ZIN A   1      17.979  -3.246  10.117  0.00  0.00     0.019 C 
ATOM     17  C21 ZIN A   1      17.842  -1.719  10.146  0.00  0.00    -0.002 C 
ATOM     18  C23 ZIN A   1      18.123  -1.219  11.560  0.00  0.00     0.006 C 
ATOM     19  C24 ZIN A   1      18.121   0.316  11.631  0.00  0.00     0.014 C 
ATOM     20  C25 ZIN A   1      19.130   0.843  10.617  0.00  0.00     0.006 C 
ENDROOT
BRANCH   3  21
ATOM     21  O4  ZIN A   1      20.330   2.824  11.332  0.00  0.00    -0.377 OA
ATOM     22  H29 ZIN A   1      20.878   2.120  11.705  0.00  0.00     0.211 HD
ENDBRANCH   3  21
BRANCH  20  23
ATOM     23  C26 ZIN A   1      20.495   0.198  10.861  0.00  0.00     0.009 C 
ATOM     24  C27 ZIN A   1      20.819   0.240  12.356  0.00  0.00     0.006 C 
ENDBRANCH  20  23
TORSDOF 2
ENDMDL
MODEL 7
REMARK VINA RESULT:      -7.0      3.414      8.638
REMARK  2 active torsions:
REMARK  status: ('A' for Active; 'I' for Inactive)
REMARK    1  A    between atoms: C3_3  and  O4_4 
REMARK    2  A    between atoms: C25_21  and  C26_22 
ROOT
ATOM      1  C1  ZIN A   1      14.976   5.851  14.500  0.00  0.00     0.015 C 
ATOM      2  C2  ZIN A   1      15.990   5.892  13.913  0.00  0.00    -0.078 C 
ATOM      3  C3  ZIN A   1      17.263   5.945  13.173  0.00  0.00     0.128 C 
ATOM      4  C5  ZIN A   1      17.002   6.240  11.676  0.00  0.00     0.052 C 
ATOM      5  C6  ZIN A   1      17.472   4.983  10.893  0.00  0.00     0.010 C 
ATOM      6  C7  ZIN A   1      17.381   3.871  11.943  0.00  0.00     0.002 C 
ATOM      7  C9  ZIN A   1      18.232   2.643  11.679  0.00  0.00    -0.005 C 
ATOM      8  C11 ZIN A   1      17.752   1.944  10.404  0.00  0.00     0.010 C 
ATOM      9  C12 ZIN A   1      18.662   0.750  10.112  0.00  0.00     0.035 C 
ATOM     10  C13 ZIN A   1      18.689  -0.154  11.330  0.00  0.00    -0.072 C 
ATOM     11  C14 ZIN A   1      18.494  -1.458  11.139  0.00  0.00     0.053 C 
ATOM     12  C15 ZIN A   1      18.524  -2.380  12.278  0.00  0.00     0.149 C 
ATOM     13  O16 ZIN A   1      17.995  -3.471  12.232  0.00  0.00    -0.293 OA
ATOM     14  C17 ZIN A   1      19.252  -1.899  13.519  0.00  0.00     0.084 C 
ATOM     15  C18 ZIN A   1      18.734  -0.497  13.837  0.00  0.00     0.017 C 
ATOM     16  C19 ZIN A   1      18.944   0.456  12.674  0.00  0.00     0.019 C 
ATOM     17  C21 ZIN A   1      18.065   1.696  12.876  0.00  0.00    -0.002 C 
ATOM     18  C23 ZIN A   1      18.438   2.363  14.198  0.00  0.00     0.006 C 
ATOM     19  C24 ZIN A   1      17.677   3.682  14.404  0.00  0.00     0.014 C 
ATOM     20  C25 ZIN A   1      17.947   4.581  13.203  0.00  0.00     0.006 C 
ENDROOT
BRANCH   3  21
ATOM     21  O4  ZIN A   1      18.120   6.940  13.735  0.00  0.00    -0.377 OA
ATOM     22  H29 ZIN A   1      18.888   6.581  14.200  0.00  0.00     0.211 HD
ENDBRANCH   3  21
BRANCH  20  23
ATOM     23  C26 ZIN A   1      19.455   4.742  13.003  0.00  0.00     0.009 C 
ATOM     24  C27 ZIN A   1      20.099   5.179  14.321  0.00  0.00     0.006 C 
ENDBRANCH  20  23
TORSDOF 2
ENDMDL
MODEL 8
REMARK VINA RESULT:      -7.0      4.436      6.594
REMARK  2 active torsions:
REMARK  status: ('A' for Active; 'I' for Inactive)
REMARK    1  A    between atoms: C3_3  and  O4_4 
REMARK    2  A    between atoms: C25_21  and  C26_22 
ROOT
ATOM      1  C1  ZIN A   1      16.627   0.195  10.039  0.00  0.00     0.015 C 
ATOM      2  C2  ZIN A   1      17.567  -0.226  10.601  0.00  0.00    -0.078 C 
ATOM      3  C3  ZIN A   1      18.745  -0.757  11.307  0.00  0.00     0.128 C 
ATOM      4  C5  ZIN A   1      18.488  -2.216  11.758  0.00  0.00     0.052 C 
ATOM      5  C6  ZIN A   1      18.506  -2.205  13.311  0.00  0.00     0.010 C 
ATOM      6  C7  ZIN A   1      18.152  -0.752  13.647  0.00  0.00     0.002 C 
ATOM      7  C9  ZIN A   1      18.575  -0.271  15.023  0.00  0.00    -0.005 C 
ATOM      8  C11 ZIN A   1      17.824  -1.060  16.100  0.00  0.00     0.010 C 
ATOM      9  C12 ZIN A   1      18.312  -0.614  17.480  0.00  0.00     0.035 C 
ATOM     10  C13 ZIN A   1      18.144   0.890  17.596  0.00  0.00    -0.072 C 
ATOM     11  C14 ZIN A   1      17.553   1.364  18.692  0.00  0.00     0.053 C 
ATOM     12  C15 ZIN A   1      17.378   2.810  18.863  0.00  0.00     0.149 C 
ATOM     13  O16 ZIN A   1      16.542   3.267  19.615  0.00  0.00    -0.293 OA
ATOM     14  C17 ZIN A   1      18.295   3.704  18.052  0.00  0.00     0.084 C 
ATOM     15  C18 ZIN A   1      18.246   3.216  16.605  0.00  0.00     0.017 C 
ATOM     16  C19 ZIN A   1      18.657   1.759  16.489  0.00  0.00     0.019 C 
ATOM     17  C21 ZIN A   1      18.208   1.216  15.127  0.00  0.00    -0.002 C 
ATOM     18  C23 ZIN A   1      18.850   2.049  14.021  0.00  0.00     0.006 C 
ATOM     19  C24 ZIN A   1      18.537   1.483  12.628  0.00  0.00     0.014 C 
ATOM     20  C25 ZIN A   1      18.986   0.026  12.593  0.00  0.00     0.006 C 
ENDROOT
BRANCH   3  21
ATOM     21  O4  ZIN A   1      19.897  -0.692  10.464  0.00  0.00    -0.377 OA
ATOM     22  H29 ZIN A   1      19.693  -0.553   9.529  0.00  0.00     0.211 HD
ENDBRANCH   3  21
BRANCH  20  23
ATOM     23  C26 ZIN A   1      20.457  -0.073  13.004  0.00  0.00     0.009 C 
ATOM     24  C27 ZIN A   1      21.272   0.968  12.233  0.00  0.00     0.006 C 
ENDBRANCH  20  23
TORSDOF 2
ENDMDL
MODEL 9
REMARK VINA RESULT:      -7.0      2.443      6.181
REMARK  2 active torsions:
REMARK  status: ('A' for Active; 'I' for Inactive)
REMARK    1  A    between atoms: C3_3  and  O4_4 
REMARK    2  A    between atoms: C25_21  and  C26_22 
ROOT
ATOM      1  C1  ZIN A   1      16.813   0.117  12.415  0.00  0.00     0.015 C 
ATOM      2  C2  ZIN A   1      17.847  -0.352  12.117  0.00  0.00    -0.078 C 
ATOM      3  C3  ZIN A   1      19.144  -0.938  11.742  0.00  0.00     0.128 C 
ATOM      4  C5  ZIN A   1      19.968   0.071  10.905  0.00  0.00     0.052 C 
ATOM      5  C6  ZIN A   1      20.132  -0.559   9.495  0.00  0.00     0.010 C 
ATOM      6  C7  ZIN A   1      18.940  -1.518   9.408  0.00  0.00     0.002 C 
ATOM      7  C9  ZIN A   1      19.075  -2.649   8.403  0.00  0.00    -0.005 C 
ATOM      8  C11 ZIN A   1      19.152  -2.075   6.986  0.00  0.00     0.010 C 
ATOM      9  C12 ZIN A   1      19.358  -3.219   5.992  0.00  0.00     0.035 C 
ATOM     10  C13 ZIN A   1      18.248  -4.237   6.179  0.00  0.00    -0.072 C 
ATOM     11  C14 ZIN A   1      17.607  -4.662   5.091  0.00  0.00     0.053 C 
ATOM     12  C15 ZIN A   1      16.535  -5.655   5.212  0.00  0.00     0.149 C 
ATOM     13  O16 ZIN A   1      15.689  -5.790   4.352  0.00  0.00    -0.293 OA
ATOM     14  C17 ZIN A   1      16.539  -6.506   6.467  0.00  0.00     0.084 C 
ATOM     15  C18 ZIN A   1      16.679  -5.560   7.659  0.00  0.00     0.017 C 
ATOM     16  C19 ZIN A   1      17.939  -4.718   7.563  0.00  0.00     0.019 C 
ATOM     17  C21 ZIN A   1      17.827  -3.534   8.532  0.00  0.00    -0.002 C 
ATOM     18  C23 ZIN A   1      17.637  -4.065   9.950  0.00  0.00     0.006 C 
ATOM     19  C24 ZIN A   1      17.639  -2.930  10.986  0.00  0.00     0.014 C 
ATOM     20  C25 ZIN A   1      18.935  -2.143  10.829  0.00  0.00     0.006 C 
ENDROOT
BRANCH   3  21
ATOM     21  O4  ZIN A   1      19.869  -1.324  12.911  0.00  0.00    -0.377 OA
ATOM     22  H29 ZIN A   1      20.436  -0.627  13.270  0.00  0.00     0.211 HD
ENDBRANCH   3  21
BRANCH  20  23
ATOM     23  C26 ZIN A   1      20.132  -3.091  10.922  0.00  0.00     0.009 C 
ATOM     24  C27 ZIN A   1      19.723  -4.355  11.680  0.00  0.00     0.006 C 
ENDBRANCH  20  23
TORSDOF 2
ENDMDL
