MODEL 1
REMARK VINA RESULT:      -7.8      0.000      0.000
REMARK  1 active torsions:
REMARK  status: ('A' for Active; 'I' for Inactive)
REMARK    1  A    between atoms: N11_11  and  C12_12 
ROOT
ATOM      1  O1  ZIN A   1      18.644  -1.761  14.072  0.00  0.00    -0.267 OA
ATOM      2  C2  ZIN A   1      18.759  -0.618  14.466  0.00  0.00     0.262 A 
ATOM      3  C3  ZIN A   1      18.901  -0.203  15.879  0.00  0.00     0.048 A 
ATOM      4  C4  ZIN A   1      18.945  -0.881  17.086  0.00  0.00     0.018 A 
ATOM      5  C5  ZIN A   1      19.090  -0.171  18.268  0.00  0.00     0.001 A 
ATOM      6  C6  ZIN A   1      19.190   1.207  18.249  0.00  0.00     0.001 A 
ATOM      7  C7  ZIN A   1      19.147   1.899  17.049  0.00  0.00     0.018 A 
ATOM      8  C8  ZIN A   1      19.003   1.202  15.860  0.00  0.00     0.048 A 
ATOM      9  C9  ZIN A   1      18.921   1.594  14.436  0.00  0.00     0.262 A 
ATOM     10  O10 ZIN A   1      18.971   2.731  14.011  0.00  0.00    -0.267 OA
ATOM     11  N11 ZIN A   1      18.786   0.481  13.693  0.00  0.00    -0.266 N 
ENDROOT
BRANCH  11  12
ATOM     12  C12 ZIN A   1      18.672   0.470  12.232  0.00  0.00     0.189 C 
ATOM     13  C19 ZIN A   1      19.988   0.870  11.621  0.00  0.00     0.247 C 
ATOM     14  N18 ZIN A   1      20.042   1.523  10.449  0.00  0.00    -0.296 N 
ATOM     15  O20 ZIN A   1      21.019   0.600  12.199  0.00  0.00    -0.271 OA
ATOM     16  C16 ZIN A   1      18.942   1.863   9.760  0.00  0.00     0.224 C 
ATOM     17  H29 ZIN A   1      20.910   1.756  10.086  0.00  0.00     0.171 HD
ATOM     18  C15 ZIN A   1      17.566   1.518  10.265  0.00  0.00     0.106 C 
ATOM     19  O17 ZIN A   1      19.059   2.461   8.712  0.00  0.00    -0.273 OA
ATOM     20  C14 ZIN A   1      17.590   1.465  11.796  0.00  0.00     0.045 C 
ENDBRANCH  11  12
TORSDOF 1
ENDMDL
MODEL 2
REMARK VINA RESULT:      -7.7      2.438      6.373
REMARK  1 active torsions:
REMARK  status: ('A' for Active; 'I' for Inactive)
REMARK    1  A    between atoms: N11_11  and  C12_12 
ROOT
ATOM      1  O1  ZIN A   1      16.345  -0.088  11.108  0.00  0.00    -0.267 OA
ATOM      2  C2  ZIN A   1      17.234   0.578  10.619  0.00  0.00     0.262 A 
ATOM      3  C3  ZIN A   1      17.646   0.558   9.199  0.00  0.00     0.048 A 
ATOM      4  C4  ZIN A   1      17.219  -0.135   8.078  0.00  0.00     0.018 A 
ATOM      5  C5  ZIN A   1      17.838   0.085   6.857  0.00  0.00     0.001 A 
ATOM      6  C6  ZIN A   1      18.876   0.991   6.751  0.00  0.00     0.001 A 
ATOM      7  C7  ZIN A   1      19.314   1.692   7.865  0.00  0.00     0.018 A 
ATOM      8  C8  ZIN A   1      18.705   1.482   9.091  0.00  0.00     0.048 A 
ATOM      9  C9  ZIN A   1      18.900   2.033  10.449  0.00  0.00     0.262 A 
ATOM     10  O10 ZIN A   1      19.728   2.864  10.764  0.00  0.00    -0.267 OA
ATOM     11  N11 ZIN A   1      18.005   1.463  11.276  0.00  0.00    -0.266 N 
ENDROOT
BRANCH  11  12
ATOM     12  C12 ZIN A   1      17.894   1.758  12.707  0.00  0.00     0.189 C 
ATOM     13  C19 ZIN A   1      17.627   3.227  12.898  0.00  0.00     0.247 C 
ATOM     14  N18 ZIN A   1      18.069   3.879  13.985  0.00  0.00    -0.296 N 
ATOM     15  O20 ZIN A   1      17.002   3.833  12.054  0.00  0.00    -0.271 OA
ATOM     16  C16 ZIN A   1      18.774   3.275  14.953  0.00  0.00     0.224 C 
ATOM     17  H29 ZIN A   1      17.869   4.824  14.074  0.00  0.00     0.171 HD
ATOM     18  C15 ZIN A   1      19.106   1.809  14.879  0.00  0.00     0.106 C 
ATOM     19  O17 ZIN A   1      19.152   3.924  15.905  0.00  0.00    -0.273 OA
ATOM     20  C14 ZIN A   1      19.205   1.388  13.408  0.00  0.00     0.045 C 
ENDBRANCH  11  12
TORSDOF 1
ENDMDL
MODEL 3
REMARK VINA RESULT:      -7.7      3.185      7.566
REMARK  1 active torsions:
REMARK  status: ('A' for Active; 'I' for Inactive)
REMARK    1  A    between atoms: N11_11  and  C12_12 
ROOT
ATOM      1  O1  ZIN A   1      18.992   2.091   8.717  0.00  0.00    -0.267 OA
ATOM      2  C2  ZIN A   1      18.965   0.909   8.443  0.00  0.00     0.262 A 
ATOM      3  C3  ZIN A   1      19.043   0.336   7.082  0.00  0.00     0.048 A 
ATOM      4  C4  ZIN A   1      19.159   0.875   5.811  0.00  0.00     0.018 A 
ATOM      5  C5  ZIN A   1      19.206   0.035   4.709  0.00  0.00     0.001 A 
ATOM      6  C6  ZIN A   1      19.139  -1.335   4.871  0.00  0.00     0.001 A 
ATOM      7  C7  ZIN A   1      19.022  -1.890   6.136  0.00  0.00     0.018 A 
ATOM      8  C8  ZIN A   1      18.973  -1.062   7.246  0.00  0.00     0.048 A 
ATOM      9  C9  ZIN A   1      18.856  -1.292   8.702  0.00  0.00     0.262 A 
ATOM     10  O10 ZIN A   1      18.771  -2.376   9.243  0.00  0.00    -0.267 OA
ATOM     11  N11 ZIN A   1      18.864  -0.100   9.326  0.00  0.00    -0.266 N 
ENDROOT
BRANCH  11  12
ATOM     12  C12 ZIN A   1      18.764   0.076  10.778  0.00  0.00     0.189 C 
ATOM     13  C19 ZIN A   1      19.993  -0.488  11.439  0.00  0.00     0.247 C 
ATOM     14  N18 ZIN A   1      19.939  -1.021  12.670  0.00  0.00    -0.296 N 
ATOM     15  O20 ZIN A   1      21.051  -0.462  10.847  0.00  0.00    -0.271 OA
ATOM     16  C16 ZIN A   1      18.802  -1.092  13.377  0.00  0.00     0.224 C 
ATOM     17  H29 ZIN A   1      20.756  -1.366  13.063  0.00  0.00     0.171 HD
ATOM     18  C15 ZIN A   1      17.505  -0.562  12.827  0.00  0.00     0.106 C 
ATOM     19  O17 ZIN A   1      18.820  -1.594  14.481  0.00  0.00    -0.273 OA
ATOM     20  C14 ZIN A   1      17.527  -0.665  11.298  0.00  0.00     0.045 C 
ENDBRANCH  11  12
TORSDOF 1
ENDMDL
MODEL 4
REMARK VINA RESULT:      -7.7      3.175      7.302
REMARK  1 active torsions:
REMARK  status: ('A' for Active; 'I' for Inactive)
REMARK    1  A    between atoms: N11_11  and  C12_12 
ROOT
ATOM      1  O1  ZIN A   1      18.845  -2.365   9.253  0.00  0.00    -0.267 OA
ATOM      2  C2  ZIN A   1      18.897  -1.281   8.709  0.00  0.00     0.262 A 
ATOM      3  C3  ZIN A   1      19.005  -1.051   7.252  0.00  0.00     0.048 A 
ATOM      4  C4  ZIN A   1      19.074  -1.880   6.144  0.00  0.00     0.018 A 
ATOM      5  C5  ZIN A   1      19.173  -1.327   4.877  0.00  0.00     0.001 A 
ATOM      6  C6  ZIN A   1      19.202   0.045   4.712  0.00  0.00     0.001 A 
ATOM      7  C7  ZIN A   1      19.133   0.887   5.811  0.00  0.00     0.018 A 
ATOM      8  C8  ZIN A   1      19.034   0.348   7.084  0.00  0.00     0.048 A 
ATOM      9  C9  ZIN A   1      18.943   0.921   8.443  0.00  0.00     0.262 A 
ATOM     10  O10 ZIN A   1      18.938   2.105   8.714  0.00  0.00    -0.267 OA
ATOM     11  N11 ZIN A   1      18.860  -0.088   9.329  0.00  0.00    -0.266 N 
ENDROOT
BRANCH  11  12
ATOM     12  C12 ZIN A   1      18.757   0.089  10.780  0.00  0.00     0.189 C 
ATOM     13  C19 ZIN A   1      19.980  -0.483  11.445  0.00  0.00     0.247 C 
ATOM     14  N18 ZIN A   1      19.919  -1.014  12.676  0.00  0.00    -0.296 N 
ATOM     15  O20 ZIN A   1      21.041  -0.464  10.857  0.00  0.00    -0.271 OA
ATOM     16  C16 ZIN A   1      18.779  -1.077  13.380  0.00  0.00     0.224 C 
ATOM     17  H29 ZIN A   1      20.732  -1.365  13.072  0.00  0.00     0.171 HD
ATOM     18  C15 ZIN A   1      17.487  -0.539  12.825  0.00  0.00     0.106 C 
ATOM     19  O17 ZIN A   1      18.789  -1.579  14.484  0.00  0.00    -0.273 OA
ATOM     20  C14 ZIN A   1      17.514  -0.642  11.297  0.00  0.00     0.045 C 
ENDBRANCH  11  12
TORSDOF 1
ENDMDL
MODEL 5
REMARK VINA RESULT:      -7.7      4.419      6.336
REMARK  1 active torsions:
REMARK  status: ('A' for Active; 'I' for Inactive)
REMARK    1  A    between atoms: N11_11  and  C12_12 
ROOT
ATOM      1  O1  ZIN A   1      16.829  -1.213  11.836  0.00  0.00    -0.267 OA
ATOM      2  C2  ZIN A   1      17.527  -0.806  10.931  0.00  0.00     0.262 A 
ATOM      3  C3  ZIN A   1      17.786   0.615  10.613  0.00  0.00     0.048 A 
ATOM      4  C4  ZIN A   1      17.378   1.820  11.163  0.00  0.00     0.018 A 
ATOM      5  C5  ZIN A   1      17.815   3.012  10.608  0.00  0.00     0.001 A 
ATOM      6  C6  ZIN A   1      18.654   3.008   9.511  0.00  0.00     0.001 A 
ATOM      7  C7  ZIN A   1      19.071   1.810   8.949  0.00  0.00     0.018 A 
ATOM      8  C8  ZIN A   1      18.642   0.611   9.493  0.00  0.00     0.048 A 
ATOM      9  C9  ZIN A   1      18.875  -0.813   9.168  0.00  0.00     0.262 A 
ATOM     10  O10 ZIN A   1      19.565  -1.228   8.259  0.00  0.00    -0.267 OA
ATOM     11  N11 ZIN A   1      18.199  -1.570  10.051  0.00  0.00    -0.266 N 
ENDROOT
BRANCH  11  12
ATOM     12  C12 ZIN A   1      18.187  -3.035  10.048  0.00  0.00     0.189 C 
ATOM     13  C19 ZIN A   1      19.508  -3.551  10.553  0.00  0.00     0.247 C 
ATOM     14  N18 ZIN A   1      20.016  -4.713  10.114  0.00  0.00    -0.296 N 
ATOM     15  O20 ZIN A   1      20.125  -2.903  11.372  0.00  0.00    -0.271 OA
ATOM     16  C16 ZIN A   1      19.393  -5.475   9.203  0.00  0.00     0.224 C 
ATOM     17  H29 ZIN A   1      20.866  -5.013  10.471  0.00  0.00     0.171 HD
ATOM     18  C15 ZIN A   1      18.065  -5.070   8.621  0.00  0.00     0.106 C 
ATOM     19  O17 ZIN A   1      19.911  -6.510   8.841  0.00  0.00    -0.273 OA
ATOM     20  C14 ZIN A   1      17.962  -3.541   8.618  0.00  0.00     0.045 C 
ENDBRANCH  11  12
TORSDOF 1
ENDMDL
MODEL 6
REMARK VINA RESULT:      -7.6      1.319      2.476
REMARK  1 active torsions:
REMARK  status: ('A' for Active; 'I' for Inactive)
REMARK    1  A    between atoms: N11_11  and  C12_12 
ROOT
ATOM      1  O1  ZIN A   1      18.990   1.945  12.659  0.00  0.00    -0.267 OA
ATOM      2  C2  ZIN A   1      18.865   0.840  13.146  0.00  0.00     0.262 A 
ATOM      3  C3  ZIN A   1      18.874   0.527  14.591  0.00  0.00     0.048 A 
ATOM      4  C4  ZIN A   1      19.007   1.285  15.744  0.00  0.00     0.018 A 
ATOM      5  C5  ZIN A   1      18.970   0.663  16.982  0.00  0.00     0.001 A 
ATOM      6  C6  ZIN A   1      18.800  -0.705  17.074  0.00  0.00     0.001 A 
ATOM      7  C7  ZIN A   1      18.665  -1.476  15.930  0.00  0.00     0.018 A 
ATOM      8  C8  ZIN A   1      18.700  -0.868  14.685  0.00  0.00     0.048 A 
ATOM      9  C9  ZIN A   1      18.592  -1.357  13.294  0.00  0.00     0.262 A 
ATOM     10  O10 ZIN A   1      18.436  -2.514  12.960  0.00  0.00    -0.267 OA
ATOM     11  N11 ZIN A   1      18.692  -0.305  12.461  0.00  0.00    -0.266 N 
ENDROOT
BRANCH  11  12
ATOM     12  C12 ZIN A   1      18.631  -0.396  11.000  0.00  0.00     0.189 C 
ATOM     13  C19 ZIN A   1      19.997  -0.136  10.423  0.00  0.00     0.247 C 
ATOM     14  N18 ZIN A   1      20.146   0.437   9.218  0.00  0.00    -0.296 N 
ATOM     15  O20 ZIN A   1      20.981  -0.450  11.058  0.00  0.00    -0.271 OA
ATOM     16  C16 ZIN A   1      19.104   0.818   8.466  0.00  0.00     0.224 C 
ATOM     17  H29 ZIN A   1      21.043   0.581   8.879  0.00  0.00     0.171 HD
ATOM     18  C15 ZIN A   1      17.687   0.613   8.931  0.00  0.00     0.106 C 
ATOM     19  O17 ZIN A   1      19.306   1.340   7.390  0.00  0.00    -0.273 OA
ATOM     20  C14 ZIN A   1      17.649   0.650  10.463  0.00  0.00     0.045 C 
ENDBRANCH  11  12
TORSDOF 1
ENDMDL
MODEL 7
REMARK VINA RESULT:      -7.5      3.237      4.796
REMARK  1 active torsions:
REMARK  status: ('A' for Active; 'I' for Inactive)
REMARK    1  A    between atoms: N11_11  and  C12_12 
ROOT
ATOM      1  O1  ZIN A   1      16.506  -0.368  11.701  0.00  0.00    -0.267 OA
ATOM      2  C2  ZIN A   1      17.635  -0.796  11.573  0.00  0.00     0.262 A 
ATOM      3  C3  ZIN A   1      18.018  -2.225  11.547  0.00  0.00     0.048 A 
ATOM      4  C4  ZIN A   1      17.317  -3.416  11.644  0.00  0.00     0.018 A 
ATOM      5  C5  ZIN A   1      17.998  -4.621  11.580  0.00  0.00     0.001 A 
ATOM      6  C6  ZIN A   1      19.370  -4.642  11.419  0.00  0.00     0.001 A 
ATOM      7  C7  ZIN A   1      20.085  -3.458  11.320  0.00  0.00     0.018 A 
ATOM      8  C8  ZIN A   1      19.417  -2.246  11.382  0.00  0.00     0.048 A 
ATOM      9  C9  ZIN A   1      19.838  -0.830  11.315  0.00  0.00     0.262 A 
ATOM     10  O10 ZIN A   1      20.978  -0.436  11.177  0.00  0.00    -0.267 OA
ATOM     11  N11 ZIN A   1      18.746  -0.053  11.428  0.00  0.00    -0.266 N 
ENDROOT
BRANCH  11  12
ATOM     12  C12 ZIN A   1      18.766   1.412  11.406  0.00  0.00     0.189 C 
ATOM     13  C19 ZIN A   1      18.413   1.941  12.771  0.00  0.00     0.247 C 
ATOM     14  N18 ZIN A   1      17.773   3.111  12.920  0.00  0.00    -0.296 N 
ATOM     15  O20 ZIN A   1      18.712   1.296  13.753  0.00  0.00    -0.271 OA
ATOM     16  C16 ZIN A   1      17.404   3.871  11.878  0.00  0.00     0.224 C 
ATOM     17  H29 ZIN A   1      17.571   3.419  13.817  0.00  0.00     0.171 HD
ATOM     18  C15 ZIN A   1      17.699   3.452  10.462  0.00  0.00     0.106 C 
ATOM     19  O17 ZIN A   1      16.819   4.913  12.081  0.00  0.00    -0.273 OA
ATOM     20  C14 ZIN A   1      17.741   1.922  10.387  0.00  0.00     0.045 C 
ENDBRANCH  11  12
TORSDOF 1
ENDMDL
MODEL 8
REMARK VINA RESULT:      -7.4      2.690      5.653
REMARK  1 active torsions:
REMARK  status: ('A' for Active; 'I' for Inactive)
REMARK    1  A    between atoms: N11_11  and  C12_12 
ROOT
ATOM      1  O1  ZIN A   1      16.402  -0.119  12.091  0.00  0.00    -0.267 OA
ATOM      2  C2  ZIN A   1      17.362  -0.805  12.379  0.00  0.00     0.262 A 
ATOM      3  C3  ZIN A   1      17.869  -1.952  11.595  0.00  0.00     0.048 A 
ATOM      4  C4  ZIN A   1      17.480  -2.565  10.415  0.00  0.00     0.018 A 
ATOM      5  C5  ZIN A   1      18.193  -3.654   9.939  0.00  0.00     0.001 A 
ATOM      6  C6  ZIN A   1      19.288  -4.132  10.632  0.00  0.00     0.001 A 
ATOM      7  C7  ZIN A   1      19.689  -3.530  11.815  0.00  0.00     0.018 A 
ATOM      8  C8  ZIN A   1      18.986  -2.440  12.303  0.00  0.00     0.048 A 
ATOM      9  C9  ZIN A   1      19.120  -1.573  13.493  0.00  0.00     0.262 A 
ATOM     10  O10 ZIN A   1      19.972  -1.677  14.353  0.00  0.00    -0.267 OA
ATOM     11  N11 ZIN A   1      18.145  -0.647  13.461  0.00  0.00    -0.266 N 
ENDROOT
BRANCH  11  12
ATOM     12  C12 ZIN A   1      17.954   0.391  14.478  0.00  0.00     0.189 C 
ATOM     13  C19 ZIN A   1      18.983   1.474  14.291  0.00  0.00     0.247 C 
ATOM     14  N18 ZIN A   1      19.454   2.174  15.335  0.00  0.00    -0.296 N 
ATOM     15  O20 ZIN A   1      19.395   1.716  13.177  0.00  0.00    -0.271 OA
ATOM     16  C16 ZIN A   1      19.050   1.953  16.594  0.00  0.00     0.224 C 
ATOM     17  H29 ZIN A   1      20.111   2.868  15.171  0.00  0.00     0.171 HD
ATOM     18  C15 ZIN A   1      18.025   0.897  16.913  0.00  0.00     0.106 C 
ATOM     19  O17 ZIN A   1      19.522   2.614  17.494  0.00  0.00    -0.273 OA
ATOM     20  C14 ZIN A   1      18.117  -0.224  15.872  0.00  0.00     0.045 C 
ENDBRANCH  11  12
TORSDOF 1
ENDMDL
MODEL 9
REMARK VINA RESULT:      -7.4      2.058      6.156
REMARK  1 active torsions:
REMARK  status: ('A' for Active; 'I' for Inactive)
REMARK    1  A    between atoms: N11_11  and  C12_12 
ROOT
ATOM      1  O1  ZIN A   1      15.851  -0.001  11.696  0.00  0.00    -0.267 OA
ATOM      2  C2  ZIN A   1      17.044  -0.021  11.472  0.00  0.00     0.262 A 
ATOM      3  C3  ZIN A   1      17.671  -0.009  10.133  0.00  0.00     0.048 A 
ATOM      4  C4  ZIN A   1      17.183   0.026   8.837  0.00  0.00     0.018 A 
ATOM      5  C5  ZIN A   1      18.068   0.028   7.769  0.00  0.00     0.001 A 
ATOM      6  C6  ZIN A   1      19.431  -0.005   7.990  0.00  0.00     0.001 A 
ATOM      7  C7  ZIN A   1      19.935  -0.040   9.282  0.00  0.00     0.018 A 
ATOM      8  C8  ZIN A   1      19.062  -0.042  10.358  0.00  0.00     0.048 A 
ATOM      9  C9  ZIN A   1      19.233  -0.073  11.826  0.00  0.00     0.262 A 
ATOM     10  O10 ZIN A   1      20.296  -0.107  12.415  0.00  0.00    -0.267 OA
ATOM     11  N11 ZIN A   1      18.017  -0.053  12.400  0.00  0.00    -0.266 N 
ENDROOT
BRANCH  11  12
ATOM     12  C12 ZIN A   1      17.783  -0.075  13.846  0.00  0.00     0.189 C 
ATOM     13  C19 ZIN A   1      18.249   1.223  14.451  0.00  0.00     0.247 C 
ATOM     14  N18 ZIN A   1      18.728   1.275  15.704  0.00  0.00    -0.296 N 
ATOM     15  O20 ZIN A   1      18.191   2.240  13.794  0.00  0.00    -0.271 OA
ATOM     16  C16 ZIN A   1      18.830   0.189  16.484  0.00  0.00     0.224 C 
ATOM     17  H29 ZIN A   1      19.011   2.132  16.058  0.00  0.00     0.171 HD
ATOM     18  C15 ZIN A   1      18.397  -1.168  15.995  0.00  0.00     0.106 C 
ATOM     19  O17 ZIN A   1      19.281   0.302  17.604  0.00  0.00    -0.273 OA
ATOM     20  C14 ZIN A   1      18.566  -1.233  14.473  0.00  0.00     0.045 C 
ENDBRANCH  11  12
TORSDOF 1
ENDMDL
