MODEL 1
REMARK VINA RESULT:      -4.9      0.000      0.000
REMARK  11 active torsions:
REMARK  status: ('A' for Active; 'I' for Inactive)
REMARK    1  A    between atoms: C2_2  and  C3_3 
REMARK    2  A    between atoms: C3_3  and  C4_4 
REMARK    3  A    between atoms: C4_4  and  C5_5 
REMARK    4  A    between atoms: C5_5  and  C6_6 
REMARK    5  A    between atoms: C6_6  and  O7_7 
REMARK    6  A    between atoms: O7_7  and  C8_8 
REMARK    7  A    between atoms: C8_8  and  C10_10 
REMARK    8  A    between atoms: C10_10  and  C11_11 
REMARK    9  A    between atoms: C11_11  and  C12_12 
REMARK   10  A    between atoms: C12_12  and  C14_14 
REMARK   11  A    between atoms: C14_14  and  N15_15 
ROOT
ATOM      1  C8  ZIN A   1      17.041  -0.539  11.123  0.00  0.00     0.259 C 
ATOM      2  O9  ZIN A   1      16.162   0.111  11.639  0.00  0.00    -0.265 OA
ENDROOT
BRANCH   1   3
ATOM      3  O7  ZIN A   1      17.545  -0.162   9.937  0.00  0.00    -0.321 OA
BRANCH   3   4
ATOM      4  C6  ZIN A   1      17.876   1.242   9.777  0.00  0.00     0.178 C 
BRANCH   4   5
ATOM      5  C5  ZIN A   1      18.979   1.390   8.727  0.00  0.00     0.027 C 
BRANCH   5   6
ATOM      6  C4  ZIN A   1      18.687   0.461   7.547  0.00  0.00     0.002 C 
BRANCH   6   7
ATOM      7  C3  ZIN A   1      18.939   1.207   6.235  0.00  0.00    -0.000 C 
BRANCH   7   8
ATOM      8  C2  ZIN A   1      19.270   0.201   5.132  0.00  0.00    -0.005 C 
ATOM      9  C1  ZIN A   1      18.055  -0.693   4.876  0.00  0.00     0.005 C 
ENDBRANCH   7   8
ENDBRANCH   6   7
ENDBRANCH   5   6
ENDBRANCH   4   5
ENDBRANCH   3   4
ENDBRANCH   1   3
BRANCH   1  10
ATOM     10  C10 ZIN A   1      17.571  -1.770  11.811  0.00  0.00     0.118 C 
BRANCH  10  11
ATOM     11  C11 ZIN A   1      19.098  -1.694  11.886  0.00  0.00     0.090 C 
BRANCH  11  12
ATOM     12  C12 ZIN A   1      19.500  -0.652  12.898  0.00  0.00     0.155 C 
ATOM     13  O13 ZIN A   1      19.143  -0.756  14.046  0.00  0.00    -0.296 OA
BRANCH  12  14
ATOM     14  C14 ZIN A   1      20.350   0.520  12.475  0.00  0.00     0.344 C 
BRANCH  14  15
ATOM     15  N15 ZIN A   1      21.435   0.049  11.605  0.00  0.00     0.085 N 
ATOM     16  H35 ZIN A   1      21.696  -0.899  11.834  0.00  0.00     0.313 HD
ATOM     17  H36 ZIN A   1      21.179   0.128  10.632  0.00  0.00     0.313 HD
ENDBRANCH  14  15
ENDBRANCH  12  14
ENDBRANCH  11  12
ENDBRANCH  10  11
ENDBRANCH   1  10
TORSDOF 11
ENDMDL
MODEL 2
REMARK VINA RESULT:      -4.9      2.717      6.339
REMARK  11 active torsions:
REMARK  status: ('A' for Active; 'I' for Inactive)
REMARK    1  A    between atoms: C2_2  and  C3_3 
REMARK    2  A    between atoms: C3_3  and  C4_4 
REMARK    3  A    between atoms: C4_4  and  C5_5 
REMARK    4  A    between atoms: C5_5  and  C6_6 
REMARK    5  A    between atoms: C6_6  and  O7_7 
REMARK    6  A    between atoms: O7_7  and  C8_8 
REMARK    7  A    between atoms: C8_8  and  C10_10 
REMARK    8  A    between atoms: C10_10  and  C11_11 
REMARK    9  A    between atoms: C11_11  and  C12_12 
REMARK   10  A    between atoms: C12_12  and  C14_14 
REMARK   11  A    between atoms: C14_14  and  N15_15 
ROOT
ATOM      1  C8  ZIN A   1      18.662  -0.055  10.499  0.00  0.00     0.259 C 
ATOM      2  O9  ZIN A   1      19.870  -0.032  10.478  0.00  0.00    -0.265 OA
ENDROOT
BRANCH   1   3
ATOM      3  O7  ZIN A   1      18.022  -0.946  11.271  0.00  0.00    -0.321 OA
BRANCH   3   4
ATOM      4  C6  ZIN A   1      17.783  -0.570  12.653  0.00  0.00     0.178 C 
BRANCH   4   5
ATOM      5  C5  ZIN A   1      18.602  -1.474  13.576  0.00  0.00     0.027 C 
BRANCH   5   6
ATOM      6  C4  ZIN A   1      19.158  -0.647  14.738  0.00  0.00     0.002 C 
BRANCH   6   7
ATOM      7  C3  ZIN A   1      19.022  -1.441  16.040  0.00  0.00    -0.000 C 
BRANCH   7   8
ATOM      8  C2  ZIN A   1      17.564  -1.413  16.504  0.00  0.00    -0.005 C 
ATOM      9  C1  ZIN A   1      17.200   0.004  16.952  0.00  0.00     0.005 C 
ENDBRANCH   7   8
ENDBRANCH   6   7
ENDBRANCH   5   6
ENDBRANCH   4   5
ENDBRANCH   3   4
ENDBRANCH   1   3
BRANCH   1  10
ATOM     10  C10 ZIN A   1      17.876   0.917   9.659  0.00  0.00     0.118 C 
BRANCH  10  11
ATOM     11  C11 ZIN A   1      18.586   2.273   9.648  0.00  0.00     0.090 C 
BRANCH  11  12
ATOM     12  C12 ZIN A   1      18.221   3.041  10.892  0.00  0.00     0.155 C 
ATOM     13  O13 ZIN A   1      17.061   3.216  11.175  0.00  0.00    -0.296 OA
BRANCH  12  14
ATOM     14  C14 ZIN A   1      19.305   3.590  11.784  0.00  0.00     0.344 C 
BRANCH  14  15
ATOM     15  N15 ZIN A   1      20.544   2.832  11.571  0.00  0.00     0.085 N 
ATOM     16  H35 ZIN A   1      20.543   1.979  12.110  0.00  0.00     0.313 HD
ATOM     17  H36 ZIN A   1      20.687   2.639  10.590  0.00  0.00     0.313 HD
ENDBRANCH  14  15
ENDBRANCH  12  14
ENDBRANCH  11  12
ENDBRANCH  10  11
ENDBRANCH   1  10
TORSDOF 11
ENDMDL
MODEL 3
REMARK VINA RESULT:      -4.9      2.380      3.465
REMARK  11 active torsions:
REMARK  status: ('A' for Active; 'I' for Inactive)
REMARK    1  A    between atoms: C2_2  and  C3_3 
REMARK    2  A    between atoms: C3_3  and  C4_4 
REMARK    3  A    between atoms: C4_4  and  C5_5 
REMARK    4  A    between atoms: C5_5  and  C6_6 
REMARK    5  A    between atoms: C6_6  and  O7_7 
REMARK    6  A    between atoms: O7_7  and  C8_8 
REMARK    7  A    between atoms: C8_8  and  C10_10 
REMARK    8  A    between atoms: C10_10  and  C11_11 
REMARK    9  A    between atoms: C11_11  and  C12_12 
REMARK   10  A    between atoms: C12_12  and  C14_14 
REMARK   11  A    between atoms: C14_14  and  N15_15 
ROOT
ATOM      1  C8  ZIN A   1      19.421  -0.012  14.336  0.00  0.00     0.259 C 
ATOM      2  O9  ZIN A   1      18.928   0.422  15.351  0.00  0.00    -0.265 OA
ENDROOT
BRANCH   1   3
ATOM      3  O7  ZIN A   1      20.020   0.822  13.473  0.00  0.00    -0.321 OA
BRANCH   3   4
ATOM      4  C6  ZIN A   1      19.242   1.953  12.999  0.00  0.00     0.178 C 
BRANCH   4   5
ATOM      5  C5  ZIN A   1      19.806   2.435  11.661  0.00  0.00     0.027 C 
BRANCH   5   6
ATOM      6  C4  ZIN A   1      18.810   3.393  11.004  0.00  0.00     0.002 C 
BRANCH   6   7
ATOM      7  C3  ZIN A   1      18.208   2.731   9.762  0.00  0.00    -0.000 C 
BRANCH   7   8
ATOM      8  C2  ZIN A   1      19.324   2.090   8.936  0.00  0.00    -0.005 C 
ATOM      9  C1  ZIN A   1      18.719   1.074   7.964  0.00  0.00     0.005 C 
ENDBRANCH   7   8
ENDBRANCH   6   7
ENDBRANCH   5   6
ENDBRANCH   4   5
ENDBRANCH   3   4
ENDBRANCH   1   3
BRANCH   1  10
ATOM     10  C10 ZIN A   1      19.363  -1.488  14.041  0.00  0.00     0.118 C 
BRANCH  10  11
ATOM     11  C11 ZIN A   1      18.661  -1.714  12.700  0.00  0.00     0.090 C 
BRANCH  11  12
ATOM     12  C12 ZIN A   1      19.676  -2.123  11.665  0.00  0.00     0.155 C 
ATOM     13  O13 ZIN A   1      20.109  -3.249  11.656  0.00  0.00    -0.296 OA
BRANCH  12  14
ATOM     14  C14 ZIN A   1      20.150  -1.125  10.638  0.00  0.00     0.344 C 
BRANCH  14  15
ATOM     15  N15 ZIN A   1      21.469  -0.611  11.027  0.00  0.00     0.085 N 
ATOM     16  H35 ZIN A   1      21.785  -1.039  11.885  0.00  0.00     0.313 HD
ATOM     17  H36 ZIN A   1      22.142  -0.745  10.287  0.00  0.00     0.313 HD
ENDBRANCH  14  15
ENDBRANCH  12  14
ENDBRANCH  11  12
ENDBRANCH  10  11
ENDBRANCH   1  10
TORSDOF 11
ENDMDL
MODEL 4
REMARK VINA RESULT:      -4.9      2.009      2.547
REMARK  11 active torsions:
REMARK  status: ('A' for Active; 'I' for Inactive)
REMARK    1  A    between atoms: C2_2  and  C3_3 
REMARK    2  A    between atoms: C3_3  and  C4_4 
REMARK    3  A    between atoms: C4_4  and  C5_5 
REMARK    4  A    between atoms: C5_5  and  C6_6 
REMARK    5  A    between atoms: C6_6  and  O7_7 
REMARK    6  A    between atoms: O7_7  and  C8_8 
REMARK    7  A    between atoms: C8_8  and  C10_10 
REMARK    8  A    between atoms: C10_10  and  C11_11 
REMARK    9  A    between atoms: C11_11  and  C12_12 
REMARK   10  A    between atoms: C12_12  and  C14_14 
REMARK   11  A    between atoms: C14_14  and  N15_15 
ROOT
ATOM      1  C8  ZIN A   1      16.946  -0.233  10.913  0.00  0.00     0.259 C 
ATOM      2  O9  ZIN A   1      16.024   0.141  11.601  0.00  0.00    -0.265 OA
ENDROOT
BRANCH   1   3
ATOM      3  O7  ZIN A   1      17.386   0.536   9.906  0.00  0.00    -0.321 OA
BRANCH   3   4
ATOM      4  C6  ZIN A   1      17.751   1.903  10.231  0.00  0.00     0.178 C 
BRANCH   4   5
ATOM      5  C5  ZIN A   1      18.984   2.308   9.420  0.00  0.00     0.027 C 
BRANCH   5   6
ATOM      6  C4  ZIN A   1      19.362   1.173   8.466  0.00  0.00     0.002 C 
BRANCH   6   7
ATOM      7  C3  ZIN A   1      18.993   1.566   7.034  0.00  0.00    -0.000 C 
BRANCH   7   8
ATOM      8  C2  ZIN A   1      18.679   0.306   6.225  0.00  0.00    -0.005 C 
ATOM      9  C1  ZIN A   1      17.199  -0.047   6.386  0.00  0.00     0.005 C 
ENDBRANCH   7   8
ENDBRANCH   6   7
ENDBRANCH   5   6
ENDBRANCH   4   5
ENDBRANCH   3   4
ENDBRANCH   1   3
BRANCH   1  10
ATOM     10  C10 ZIN A   1      17.600  -1.562  11.189  0.00  0.00     0.118 C 
BRANCH  10  11
ATOM     11  C11 ZIN A   1      18.273  -2.074   9.914  0.00  0.00     0.090 C 
BRANCH  11  12
ATOM     12  C12 ZIN A   1      18.852  -3.442  10.165  0.00  0.00     0.155 C 
ATOM     13  O13 ZIN A   1      18.795  -4.289   9.308  0.00  0.00    -0.296 OA
BRANCH  12  14
ATOM     14  C14 ZIN A   1      19.505  -3.752  11.488  0.00  0.00     0.344 C 
BRANCH  14  15
ATOM     15  N15 ZIN A   1      20.888  -3.258  11.479  0.00  0.00     0.085 N 
ATOM     16  H35 ZIN A   1      21.519  -3.956  11.114  0.00  0.00     0.313 HD
ATOM     17  H36 ZIN A   1      20.961  -2.397  10.957  0.00  0.00     0.313 HD
ENDBRANCH  14  15
ENDBRANCH  12  14
ENDBRANCH  11  12
ENDBRANCH  10  11
ENDBRANCH   1  10
TORSDOF 11
ENDMDL
MODEL 5
REMARK VINA RESULT:      -4.8      2.317      2.679
REMARK  11 active torsions:
REMARK  status: ('A' for Active; 'I' for Inactive)
REMARK    1  A    between atoms: C2_2  and  C3_3 
REMARK    2  A    between atoms: C3_3  and  C4_4 
REMARK    3  A    between atoms: C4_4  and  C5_5 
REMARK    4  A    between atoms: C5_5  and  C6_6 
REMARK    5  A    between atoms: C6_6  and  O7_7 
REMARK    6  A    between atoms: O7_7  and  C8_8 
REMARK    7  A    between atoms: C8_8  and  C10_10 
REMARK    8  A    between atoms: C10_10  and  C11_11 
REMARK    9  A    between atoms: C11_11  and  C12_12 
REMARK   10  A    between atoms: C12_12  and  C14_14 
REMARK   11  A    between atoms: C14_14  and  N15_15 
ROOT
ATOM      1  C8  ZIN A   1      17.078   0.301  11.942  0.00  0.00     0.259 C 
ATOM      2  O9  ZIN A   1      16.026   0.092  11.385  0.00  0.00    -0.265 OA
ENDROOT
BRANCH   1   3
ATOM      3  O7  ZIN A   1      17.535   1.557  12.061  0.00  0.00    -0.321 OA
BRANCH   3   4
ATOM      4  C6  ZIN A   1      17.615   2.348  10.847  0.00  0.00     0.178 C 
BRANCH   4   5
ATOM      5  C5  ZIN A   1      19.061   2.372  10.348  0.00  0.00     0.027 C 
BRANCH   5   6
ATOM      6  C4  ZIN A   1      19.084   2.118   8.839  0.00  0.00     0.002 C 
BRANCH   6   7
ATOM      7  C3  ZIN A   1      18.606   0.692   8.554  0.00  0.00    -0.000 C 
BRANCH   7   8
ATOM      8  C2  ZIN A   1      19.652  -0.305   9.057  0.00  0.00    -0.005 C 
ATOM      9  C1  ZIN A   1      19.047  -1.711   9.075  0.00  0.00     0.005 C 
ENDBRANCH   7   8
ENDBRANCH   6   7
ENDBRANCH   5   6
ENDBRANCH   4   5
ENDBRANCH   3   4
ENDBRANCH   1   3
BRANCH   1  10
ATOM     10  C10 ZIN A   1      17.875  -0.848  12.502  0.00  0.00     0.118 C 
BRANCH  10  11
ATOM     11  C11 ZIN A   1      19.224  -0.334  13.011  0.00  0.00     0.090 C 
BRANCH  11  12
ATOM     12  C12 ZIN A   1      19.205  -0.281  14.517  0.00  0.00     0.155 C 
ATOM     13  O13 ZIN A   1      19.233  -1.304  15.157  0.00  0.00    -0.296 OA
BRANCH  12  14
ATOM     14  C14 ZIN A   1      19.154   1.049  15.224  0.00  0.00     0.344 C 
BRANCH  14  15
ATOM     15  N15 ZIN A   1      17.775   1.553  15.220  0.00  0.00     0.085 N 
ATOM     16  H35 ZIN A   1      17.171   0.958  15.769  0.00  0.00     0.313 HD
ATOM     17  H36 ZIN A   1      17.737   2.507  15.548  0.00  0.00     0.313 HD
ENDBRANCH  14  15
ENDBRANCH  12  14
ENDBRANCH  11  12
ENDBRANCH  10  11
ENDBRANCH   1  10
TORSDOF 11
ENDMDL
MODEL 6
REMARK VINA RESULT:      -4.8      2.800      6.655
REMARK  11 active torsions:
REMARK  status: ('A' for Active; 'I' for Inactive)
REMARK    1  A    between atoms: C2_2  and  C3_3 
REMARK    2  A    between atoms: C3_3  and  C4_4 
REMARK    3  A    between atoms: C4_4  and  C5_5 
REMARK    4  A    between atoms: C5_5  and  C6_6 
REMARK    5  A    between atoms: C6_6  and  O7_7 
REMARK    6  A    between atoms: O7_7  and  C8_8 
REMARK    7  A    between atoms: C8_8  and  C10_10 
REMARK    8  A    between atoms: C10_10  and  C11_11 
REMARK    9  A    between atoms: C11_11  and  C12_12 
REMARK   10  A    between atoms: C12_12  and  C14_14 
REMARK   11  A    between atoms: C14_14  and  N15_15 
ROOT
ATOM      1  C8  ZIN A   1      17.130   0.034  11.759  0.00  0.00     0.259 C 
ATOM      2  O9  ZIN A   1      15.962   0.004  11.452  0.00  0.00    -0.265 OA
ENDROOT
BRANCH   1   3
ATOM      3  O7  ZIN A   1      17.602  -0.817  12.683  0.00  0.00    -0.321 OA
BRANCH   3   4
ATOM      4  C6  ZIN A   1      18.195  -0.235  13.874  0.00  0.00     0.178 C 
BRANCH   4   5
ATOM      5  C5  ZIN A   1      18.940  -1.320  14.654  0.00  0.00     0.027 C 
BRANCH   5   6
ATOM      6  C4  ZIN A   1      18.317  -1.469  16.044  0.00  0.00     0.002 C 
BRANCH   6   7
ATOM      7  C3  ZIN A   1      17.583  -0.178  16.415  0.00  0.00    -0.000 C 
BRANCH   7   8
ATOM      8  C2  ZIN A   1      17.837   0.146  17.888  0.00  0.00    -0.005 C 
ATOM      9  C1  ZIN A   1      19.341   0.296  18.125  0.00  0.00     0.005 C 
ENDBRANCH   7   8
ENDBRANCH   6   7
ENDBRANCH   5   6
ENDBRANCH   4   5
ENDBRANCH   3   4
ENDBRANCH   1   3
BRANCH   1  10
ATOM     10  C10 ZIN A   1      18.057   1.025  11.104  0.00  0.00     0.118 C 
BRANCH  10  11
ATOM     11  C11 ZIN A   1      18.291   0.619   9.648  0.00  0.00     0.090 C 
BRANCH  11  12
ATOM     12  C12 ZIN A   1      19.325  -0.477   9.592  0.00  0.00     0.155 C 
ATOM     13  O13 ZIN A   1      19.232  -1.353   8.767  0.00  0.00    -0.296 OA
BRANCH  12  14
ATOM     14  C14 ZIN A   1      20.476  -0.477  10.565  0.00  0.00     0.344 C 
BRANCH  14  15
ATOM     15  N15 ZIN A   1      20.482  -1.740  11.315  0.00  0.00     0.085 N 
ATOM     16  H35 ZIN A   1      21.413  -2.125  11.366  0.00  0.00     0.313 HD
ATOM     17  H36 ZIN A   1      20.092  -1.614  12.238  0.00  0.00     0.313 HD
ENDBRANCH  14  15
ENDBRANCH  12  14
ENDBRANCH  11  12
ENDBRANCH  10  11
ENDBRANCH   1  10
TORSDOF 11
ENDMDL
MODEL 7
REMARK VINA RESULT:      -4.7      2.588      6.356
REMARK  11 active torsions:
REMARK  status: ('A' for Active; 'I' for Inactive)
REMARK    1  A    between atoms: C2_2  and  C3_3 
REMARK    2  A    between atoms: C3_3  and  C4_4 
REMARK    3  A    between atoms: C4_4  and  C5_5 
REMARK    4  A    between atoms: C5_5  and  C6_6 
REMARK    5  A    between atoms: C6_6  and  O7_7 
REMARK    6  A    between atoms: O7_7  and  C8_8 
REMARK    7  A    between atoms: C8_8  and  C10_10 
REMARK    8  A    between atoms: C10_10  and  C11_11 
REMARK    9  A    between atoms: C11_11  and  C12_12 
REMARK   10  A    between atoms: C12_12  and  C14_14 
REMARK   11  A    between atoms: C14_14  and  N15_15 
ROOT
ATOM      1  C8  ZIN A   1      16.987  -0.503  11.192  0.00  0.00     0.259 C 
ATOM      2  O9  ZIN A   1      16.042   0.250  11.163  0.00  0.00    -0.265 OA
ENDROOT
BRANCH   1   3
ATOM      3  O7  ZIN A   1      17.125  -1.365  12.211  0.00  0.00    -0.321 OA
BRANCH   3   4
ATOM      4  C6  ZIN A   1      18.307  -2.209  12.206  0.00  0.00     0.178 C 
BRANCH   4   5
ATOM      5  C5  ZIN A   1      19.270  -1.744  13.300  0.00  0.00     0.027 C 
BRANCH   5   6
ATOM      6  C4  ZIN A   1      18.480  -1.056  14.416  0.00  0.00     0.002 C 
BRANCH   6   7
ATOM      7  C3  ZIN A   1      19.041  -1.481  15.775  0.00  0.00    -0.000 C 
BRANCH   7   8
ATOM      8  C2  ZIN A   1      18.526  -0.531  16.858  0.00  0.00    -0.005 C 
ATOM      9  C1  ZIN A   1      17.001  -0.631  16.941  0.00  0.00     0.005 C 
ENDBRANCH   7   8
ENDBRANCH   6   7
ENDBRANCH   5   6
ENDBRANCH   4   5
ENDBRANCH   3   4
ENDBRANCH   1   3
BRANCH   1  10
ATOM     10  C10 ZIN A   1      18.008  -0.474  10.085  0.00  0.00     0.118 C 
BRANCH  10  11
ATOM     11  C11 ZIN A   1      17.688   0.674   9.125  0.00  0.00     0.090 C 
BRANCH  11  12
ATOM     12  C12 ZIN A   1      18.819   1.670   9.137  0.00  0.00     0.155 C 
ATOM     13  O13 ZIN A   1      19.678   1.617   8.291  0.00  0.00    -0.296 OA
BRANCH  12  14
ATOM     14  C14 ZIN A   1      18.875   2.733  10.204  0.00  0.00     0.344 C 
BRANCH  14  15
ATOM     15  N15 ZIN A   1      17.510   3.092  10.610  0.00  0.00     0.085 N 
ATOM     16  H35 ZIN A   1      17.514   3.598  11.483  0.00  0.00     0.313 HD
ATOM     17  H36 ZIN A   1      17.046   3.622   9.887  0.00  0.00     0.313 HD
ENDBRANCH  14  15
ENDBRANCH  12  14
ENDBRANCH  11  12
ENDBRANCH  10  11
ENDBRANCH   1  10
TORSDOF 11
ENDMDL
MODEL 8
REMARK VINA RESULT:      -4.7      2.827      6.566
REMARK  11 active torsions:
REMARK  status: ('A' for Active; 'I' for Inactive)
REMARK    1  A    between atoms: C2_2  and  C3_3 
REMARK    2  A    between atoms: C3_3  and  C4_4 
REMARK    3  A    between atoms: C4_4  and  C5_5 
REMARK    4  A    between atoms: C5_5  and  C6_6 
REMARK    5  A    between atoms: C6_6  and  O7_7 
REMARK    6  A    between atoms: O7_7  and  C8_8 
REMARK    7  A    between atoms: C8_8  and  C10_10 
REMARK    8  A    between atoms: C10_10  and  C11_11 
REMARK    9  A    between atoms: C11_11  and  C12_12 
REMARK   10  A    between atoms: C12_12  and  C14_14 
REMARK   11  A    between atoms: C14_14  and  N15_15 
ROOT
ATOM      1  C8  ZIN A   1      19.481   2.735  11.347  0.00  0.00     0.259 C 
ATOM      2  O9  ZIN A   1      20.040   3.703  11.808  0.00  0.00    -0.265 OA
ENDROOT
BRANCH   1   3
ATOM      3  O7  ZIN A   1      19.411   1.599  12.058  0.00  0.00    -0.321 OA
BRANCH   3   4
ATOM      4  C6  ZIN A   1      18.894   1.698  13.411  0.00  0.00     0.178 C 
BRANCH   4   5
ATOM      5  C5  ZIN A   1      18.211   0.383  13.793  0.00  0.00     0.027 C 
BRANCH   5   6
ATOM      6  C4  ZIN A   1      19.262  -0.611  14.291  0.00  0.00     0.002 C 
BRANCH   6   7
ATOM      7  C3  ZIN A   1      18.721  -1.356  15.514  0.00  0.00    -0.000 C 
BRANCH   7   8
ATOM      8  C2  ZIN A   1      17.532  -0.587  16.093  0.00  0.00    -0.005 C 
ATOM      9  C1  ZIN A   1      17.850  -0.161  17.528  0.00  0.00     0.005 C 
ENDBRANCH   7   8
ENDBRANCH   6   7
ENDBRANCH   5   6
ENDBRANCH   4   5
ENDBRANCH   3   4
ENDBRANCH   1   3
BRANCH   1  10
ATOM     10  C10 ZIN A   1      18.863   2.805   9.975  0.00  0.00     0.118 C 
BRANCH  10  11
ATOM     11  C11 ZIN A   1      18.232   1.455   9.630  0.00  0.00     0.090 C 
BRANCH  11  12
ATOM     12  C12 ZIN A   1      19.098   0.738   8.626  0.00  0.00     0.155 C 
ATOM     13  O13 ZIN A   1      19.279   1.217   7.533  0.00  0.00    -0.296 OA
BRANCH  12  14
ATOM     14  C14 ZIN A   1      19.740  -0.578   8.987  0.00  0.00     0.344 C 
BRANCH  14  15
ATOM     15  N15 ZIN A   1      20.841  -0.342   9.930  0.00  0.00     0.085 N 
ATOM     16  H35 ZIN A   1      20.970  -1.135  10.540  0.00  0.00     0.313 HD
ATOM     17  H36 ZIN A   1      21.695  -0.120   9.440  0.00  0.00     0.313 HD
ENDBRANCH  14  15
ENDBRANCH  12  14
ENDBRANCH  11  12
ENDBRANCH  10  11
ENDBRANCH   1  10
TORSDOF 11
ENDMDL
MODEL 9
REMARK VINA RESULT:      -4.7      1.952      3.248
REMARK  11 active torsions:
REMARK  status: ('A' for Active; 'I' for Inactive)
REMARK    1  A    between atoms: C2_2  and  C3_3 
REMARK    2  A    between atoms: C3_3  and  C4_4 
REMARK    3  A    between atoms: C4_4  and  C5_5 
REMARK    4  A    between atoms: C5_5  and  C6_6 
REMARK    5  A    between atoms: C6_6  and  O7_7 
REMARK    6  A    between atoms: O7_7  and  C8_8 
REMARK    7  A    between atoms: C8_8  and  C10_10 
REMARK    8  A    between atoms: C10_10  and  C11_11 
REMARK    9  A    between atoms: C11_11  and  C12_12 
REMARK   10  A    between atoms: C12_12  and  C14_14 
REMARK   11  A    between atoms: C14_14  and  N15_15 
ROOT
ATOM      1  C8  ZIN A   1      19.777   0.899  12.585  0.00  0.00     0.259 C 
ATOM      2  O9  ZIN A   1      20.836   0.559  12.113  0.00  0.00    -0.265 OA
ENDROOT
BRANCH   1   3
ATOM      3  O7  ZIN A   1      19.480   2.202  12.698  0.00  0.00    -0.321 OA
BRANCH   3   4
ATOM      4  C6  ZIN A   1      19.812   3.055  11.570  0.00  0.00     0.178 C 
BRANCH   4   5
ATOM      5  C5  ZIN A   1      18.526   3.607  10.953  0.00  0.00     0.027 C 
BRANCH   5   6
ATOM      6  C4  ZIN A   1      18.048   2.668   9.843  0.00  0.00     0.002 C 
BRANCH   6   7
ATOM      7  C3  ZIN A   1      19.256   2.130   9.075  0.00  0.00    -0.000 C 
BRANCH   7   8
ATOM      8  C2  ZIN A   1      18.861   0.848   8.338  0.00  0.00    -0.005 C 
ATOM      9  C1  ZIN A   1      18.848   1.111   6.830  0.00  0.00     0.005 C 
ENDBRANCH   7   8
ENDBRANCH   6   7
ENDBRANCH   5   6
ENDBRANCH   4   5
ENDBRANCH   3   4
ENDBRANCH   1   3
BRANCH   1  10
ATOM     10  C10 ZIN A   1      18.788  -0.142  13.044  0.00  0.00     0.118 C 
BRANCH  10  11
ATOM     11  C11 ZIN A   1      17.951  -0.612  11.852  0.00  0.00     0.090 C 
BRANCH  11  12
ATOM     12  C12 ZIN A   1      18.218  -2.073  11.596  0.00  0.00     0.155 C 
ATOM     13  O13 ZIN A   1      17.439  -2.722  10.942  0.00  0.00    -0.296 OA
BRANCH  12  14
ATOM     14  C14 ZIN A   1      19.458  -2.722  12.155  0.00  0.00     0.344 C 
BRANCH  14  15
ATOM     15  N15 ZIN A   1      20.576  -2.526  11.223  0.00  0.00     0.085 N 
ATOM     16  H35 ZIN A   1      20.242  -2.261  10.309  0.00  0.00     0.313 HD
ATOM     17  H36 ZIN A   1      21.229  -1.844  11.581  0.00  0.00     0.313 HD
ENDBRANCH  14  15
ENDBRANCH  12  14
ENDBRANCH  11  12
ENDBRANCH  10  11
ENDBRANCH   1  10
TORSDOF 11
ENDMDL
