MODEL 1
REMARK VINA RESULT:      -7.1      0.000      0.000
REMARK  5 active torsions:
REMARK  status: ('A' for Active; 'I' for Inactive)
REMARK    1  A    between atoms: C2_2  and  C3_3 
REMARK    2  A    between atoms: C3_3  and  C4_4 
REMARK    3  A    between atoms: C4_4  and  N5_5 
REMARK       I    between atoms: N5_5  and  C6_6 
REMARK       I    between atoms: C6_6  and  N8_8 
REMARK    4  A    between atoms: N8_8  and  S9_9 
REMARK    5  A    between atoms: S9_9  and  C12_12 
ROOT
ATOM      1  S9  ZIN A   1      17.395   0.967  10.970  0.00  0.00     0.287 S 
ATOM      2  O10 ZIN A   1      16.198   0.153  11.233  0.00  0.00    -0.198 OA
ATOM      3  O11 ZIN A   1      17.092   2.383  11.235  0.00  0.00    -0.198 OA
ENDROOT
BRANCH   1   4
ATOM      4  N8  ZIN A   1      18.508   0.521  11.860  0.00  0.00    -0.102 NA
ATOM      5  C6  ZIN A   1      18.335   0.498  13.183  0.00  0.00     0.352 C 
ATOM      6  N5  ZIN A   1      19.338   0.094  13.987  0.00  0.00    -0.341 N 
ATOM      7  O7  ZIN A   1      17.270   0.841  13.664  0.00  0.00    -0.244 OA
ATOM      8  H28 ZIN A   1      20.187  -0.179  13.605  0.00  0.00     0.164 HD
BRANCH   6   9
ATOM      9  C4  ZIN A   1      19.149   0.069  15.439  0.00  0.00     0.124 C 
BRANCH   9  10
ATOM     10  C3  ZIN A   1      18.817  -1.357  15.885  0.00  0.00     0.019 C 
BRANCH  10  11
ATOM     11  C2  ZIN A   1      17.501  -1.354  16.666  0.00  0.00    -0.003 C 
ATOM     12  C1  ZIN A   1      17.189   0.068  17.136  0.00  0.00     0.005 C 
ENDBRANCH  10  11
ENDBRANCH   9  10
ENDBRANCH   6   9
ENDBRANCH   1   4
BRANCH   1  13
ATOM     13  C12 ZIN A   1      17.878   0.776   9.286  0.00  0.00     0.081 A 
ATOM     14  C18 ZIN A   1      17.325  -0.234   8.520  0.00  0.00     0.026 A 
ATOM     15  C17 ZIN A   1      17.700  -0.382   7.198  0.00  0.00     0.008 A 
ATOM     16  C15 ZIN A   1      18.634   0.473   6.644  0.00  0.00    -0.062 A 
ATOM     17  C14 ZIN A   1      19.191   1.479   7.412  0.00  0.00     0.008 A 
ATOM     18  C16 ZIN A   1      19.046   0.309   5.204  0.00  0.00     0.048 C 
ATOM     19  C13 ZIN A   1      18.813   1.630   8.733  0.00  0.00     0.026 A 
ENDBRANCH   1  13
TORSDOF 5
ENDMDL
MODEL 2
REMARK VINA RESULT:      -6.7      1.334      1.479
REMARK  5 active torsions:
REMARK  status: ('A' for Active; 'I' for Inactive)
REMARK    1  A    between atoms: C2_2  and  C3_3 
REMARK    2  A    between atoms: C3_3  and  C4_4 
REMARK    3  A    between atoms: C4_4  and  N5_5 
REMARK       I    between atoms: N5_5  and  C6_6 
REMARK       I    between atoms: C6_6  and  N8_8 
REMARK    4  A    between atoms: N8_8  and  S9_9 
REMARK    5  A    between atoms: S9_9  and  C12_12 
ROOT
ATOM      1  S9  ZIN A   1      17.932   2.397  11.376  0.00  0.00     0.287 S 
ATOM      2  O10 ZIN A   1      16.916   3.457  11.293  0.00  0.00    -0.198 OA
ATOM      3  O11 ZIN A   1      19.216   2.980  11.799  0.00  0.00    -0.198 OA
ENDROOT
BRANCH   1   4
ATOM      4  N8  ZIN A   1      17.500   1.370  12.372  0.00  0.00    -0.102 NA
ATOM      5  C6  ZIN A   1      18.391   0.514  12.876  0.00  0.00     0.352 C 
ATOM      6  N5  ZIN A   1      18.002  -0.412  13.775  0.00  0.00    -0.341 N 
ATOM      7  O7  ZIN A   1      19.556   0.570  12.524  0.00  0.00    -0.244 OA
ATOM      8  H28 ZIN A   1      17.075  -0.457  14.055  0.00  0.00     0.164 HD
BRANCH   6   9
ATOM      9  C4  ZIN A   1      18.980  -1.352  14.328  0.00  0.00     0.124 C 
BRANCH   9  10
ATOM     10  C3  ZIN A   1      18.959  -1.269  15.855  0.00  0.00     0.019 C 
BRANCH  10  11
ATOM     11  C2  ZIN A   1      17.533  -0.979  16.330  0.00  0.00    -0.003 C 
ATOM     12  C1  ZIN A   1      17.559   0.148  17.365  0.00  0.00     0.005 C 
ENDBRANCH  10  11
ENDBRANCH   9  10
ENDBRANCH   6   9
ENDBRANCH   1   4
BRANCH   1  13
ATOM     13  C12 ZIN A   1      18.122   1.639   9.797  0.00  0.00     0.081 A 
ATOM     14  C18 ZIN A   1      17.371   0.525   9.470  0.00  0.00     0.026 A 
ATOM     15  C17 ZIN A   1      17.518  -0.067   8.230  0.00  0.00     0.008 A 
ATOM     16  C15 ZIN A   1      18.420   0.450   7.319  0.00  0.00    -0.062 A 
ATOM     17  C14 ZIN A   1      19.175   1.560   7.648  0.00  0.00     0.008 A 
ATOM     18  C16 ZIN A   1      18.582  -0.199   5.968  0.00  0.00     0.048 C 
ATOM     19  C13 ZIN A   1      19.026   2.155   8.888  0.00  0.00     0.026 A 
ENDBRANCH   1  13
TORSDOF 5
ENDMDL
MODEL 3
REMARK VINA RESULT:      -6.6      1.893      2.615
REMARK  5 active torsions:
REMARK  status: ('A' for Active; 'I' for Inactive)
REMARK    1  A    between atoms: C2_2  and  C3_3 
REMARK    2  A    between atoms: C3_3  and  C4_4 
REMARK    3  A    between atoms: C4_4  and  N5_5 
REMARK       I    between atoms: N5_5  and  C6_6 
REMARK       I    between atoms: C6_6  and  N8_8 
REMARK    4  A    between atoms: N8_8  and  S9_9 
REMARK    5  A    between atoms: S9_9  and  C12_12 
ROOT
ATOM      1  S9  ZIN A   1      17.750   3.312  11.337  0.00  0.00     0.287 S 
ATOM      2  O10 ZIN A   1      16.633   4.189  10.953  0.00  0.00    -0.198 OA
ATOM      3  O11 ZIN A   1      18.952   4.127  11.578  0.00  0.00    -0.198 OA
ENDROOT
BRANCH   1   4
ATOM      4  N8  ZIN A   1      17.395   2.569  12.583  0.00  0.00    -0.102 NA
ATOM      5  C6  ZIN A   1      18.315   1.828  13.203  0.00  0.00     0.352 C 
ATOM      6  N5  ZIN A   1      17.996   1.158  14.328  0.00  0.00    -0.341 N 
ATOM      7  O7  ZIN A   1      19.445   1.757  12.752  0.00  0.00    -0.244 OA
ATOM      8  H28 ZIN A   1      17.096   1.213  14.686  0.00  0.00     0.164 HD
BRANCH   6   9
ATOM      9  C4  ZIN A   1      19.006   0.344  15.008  0.00  0.00     0.124 C 
BRANCH   9  10
ATOM     10  C3  ZIN A   1      18.650  -1.137  14.862  0.00  0.00     0.019 C 
BRANCH  10  11
ATOM     11  C2  ZIN A   1      19.303  -1.696  13.596  0.00  0.00    -0.003 C 
ATOM     12  C1  ZIN A   1      18.233  -1.913  12.523  0.00  0.00     0.005 C 
ENDBRANCH  10  11
ENDBRANCH   9  10
ENDBRANCH   6   9
ENDBRANCH   1   4
BRANCH   1  13
ATOM     13  C12 ZIN A   1      18.069   2.164  10.040  0.00  0.00     0.081 A 
ATOM     14  C18 ZIN A   1      19.029   2.449   9.086  0.00  0.00     0.026 A 
ATOM     15  C17 ZIN A   1      19.283   1.546   8.070  0.00  0.00     0.008 A 
ATOM     16  C15 ZIN A   1      18.572   0.363   8.003  0.00  0.00    -0.062 A 
ATOM     17  C14 ZIN A   1      17.608   0.081   8.953  0.00  0.00     0.008 A 
ATOM     18  C16 ZIN A   1      18.845  -0.619   6.893  0.00  0.00     0.048 C 
ATOM     19  C13 ZIN A   1      17.357   0.982   9.971  0.00  0.00     0.026 A 
ENDBRANCH   1  13
TORSDOF 5
ENDMDL
MODEL 4
REMARK VINA RESULT:      -6.4      5.245      6.547
REMARK  5 active torsions:
REMARK  status: ('A' for Active; 'I' for Inactive)
REMARK    1  A    between atoms: C2_2  and  C3_3 
REMARK    2  A    between atoms: C3_3  and  C4_4 
REMARK    3  A    between atoms: C4_4  and  N5_5 
REMARK       I    between atoms: N5_5  and  C6_6 
REMARK       I    between atoms: C6_6  and  N8_8 
REMARK    4  A    between atoms: N8_8  and  S9_9 
REMARK    5  A    between atoms: S9_9  and  C12_12 
ROOT
ATOM      1  S9  ZIN A   1      18.961  -1.045   5.676  0.00  0.00     0.287 S 
ATOM      2  O10 ZIN A   1      19.549  -0.200   4.624  0.00  0.00    -0.198 OA
ATOM      3  O11 ZIN A   1      17.706  -1.638   5.184  0.00  0.00    -0.198 OA
ENDROOT
BRANCH   1   4
ATOM      4  N8  ZIN A   1      19.918  -2.133   6.035  0.00  0.00    -0.102 NA
ATOM      5  C6  ZIN A   1      19.463  -3.285   6.532  0.00  0.00     0.352 C 
ATOM      6  N5  ZIN A   1      20.326  -4.268   6.855  0.00  0.00    -0.341 N 
ATOM      7  O7  ZIN A   1      18.266  -3.448   6.693  0.00  0.00    -0.244 OA
ATOM      8  H28 ZIN A   1      21.279  -4.138   6.727  0.00  0.00     0.164 HD
BRANCH   6   9
ATOM      9  C4  ZIN A   1      19.826  -5.532   7.401  0.00  0.00     0.124 C 
BRANCH   9  10
ATOM     10  C3  ZIN A   1      20.255  -5.659   8.865  0.00  0.00     0.019 C 
BRANCH  10  11
ATOM     11  C2  ZIN A   1      19.087  -5.270   9.774  0.00  0.00    -0.003 C 
ATOM     12  C1  ZIN A   1      17.851  -6.089   9.396  0.00  0.00     0.005 C 
ENDBRANCH  10  11
ENDBRANCH   9  10
ENDBRANCH   6   9
ENDBRANCH   1   4
BRANCH   1  13
ATOM     13  C12 ZIN A   1      18.627  -0.063   7.100  0.00  0.00     0.081 A 
ATOM     14  C18 ZIN A   1      17.677  -0.476   8.016  0.00  0.00     0.026 A 
ATOM     15  C17 ZIN A   1      17.418   0.292   9.136  0.00  0.00     0.008 A 
ATOM     16  C15 ZIN A   1      18.102   1.476   9.336  0.00  0.00    -0.062 A 
ATOM     17  C14 ZIN A   1      19.048   1.891   8.417  0.00  0.00     0.008 A 
ATOM     18  C16 ZIN A   1      17.816   2.315  10.555  0.00  0.00     0.048 C 
ATOM     19  C13 ZIN A   1      19.310   1.121   7.299  0.00  0.00     0.026 A 
ENDBRANCH   1  13
TORSDOF 5
ENDMDL
MODEL 5
REMARK VINA RESULT:      -6.4      2.305      7.572
REMARK  5 active torsions:
REMARK  status: ('A' for Active; 'I' for Inactive)
REMARK    1  A    between atoms: C2_2  and  C3_3 
REMARK    2  A    between atoms: C3_3  and  C4_4 
REMARK    3  A    between atoms: C4_4  and  N5_5 
REMARK       I    between atoms: N5_5  and  C6_6 
REMARK       I    between atoms: C6_6  and  N8_8 
REMARK    4  A    between atoms: N8_8  and  S9_9 
REMARK    5  A    between atoms: S9_9  and  C12_12 
ROOT
ATOM      1  S9  ZIN A   1      19.809  -0.363  11.744  0.00  0.00     0.287 S 
ATOM      2  O10 ZIN A   1      20.026  -1.748  11.296  0.00  0.00    -0.198 OA
ATOM      3  O11 ZIN A   1      21.107   0.321  11.868  0.00  0.00    -0.198 OA
ENDROOT
BRANCH   1   4
ATOM      4  N8  ZIN A   1      18.961   0.357  10.747  0.00  0.00    -0.102 NA
ATOM      5  C6  ZIN A   1      19.319   0.383   9.462  0.00  0.00     0.352 C 
ATOM      6  N5  ZIN A   1      18.553   1.031   8.562  0.00  0.00    -0.341 N 
ATOM      7  O7  ZIN A   1      20.338  -0.180   9.102  0.00  0.00    -0.244 OA
ATOM      8  H28 ZIN A   1      17.742   1.479   8.848  0.00  0.00     0.164 HD
BRANCH   6   9
ATOM      9  C4  ZIN A   1      18.946   1.059   7.151  0.00  0.00     0.124 C 
BRANCH   9  10
ATOM     10  C3  ZIN A   1      17.955   0.234   6.329  0.00  0.00     0.019 C 
BRANCH  10  11
ATOM     11  C2  ZIN A   1      18.491   0.063   4.906  0.00  0.00    -0.003 C 
ATOM     12  C1  ZIN A   1      19.164  -1.305   4.775  0.00  0.00     0.005 C 
ENDBRANCH  10  11
ENDBRANCH   9  10
ENDBRANCH   6   9
ENDBRANCH   1   4
BRANCH   1  13
ATOM     13  C12 ZIN A   1      18.998  -0.371  13.308  0.00  0.00     0.081 A 
ATOM     14  C18 ZIN A   1      19.319  -1.334  14.247  0.00  0.00     0.026 A 
ATOM     15  C17 ZIN A   1      18.686  -1.338  15.476  0.00  0.00     0.008 A 
ATOM     16  C15 ZIN A   1      17.727  -0.385  15.763  0.00  0.00    -0.062 A 
ATOM     17  C14 ZIN A   1      17.402   0.573  14.822  0.00  0.00     0.008 A 
ATOM     18  C16 ZIN A   1      17.033  -0.393  17.101  0.00  0.00     0.048 C 
ATOM     19  C13 ZIN A   1      18.038   0.580  13.594  0.00  0.00     0.026 A 
ENDBRANCH   1  13
TORSDOF 5
ENDMDL
MODEL 6
REMARK VINA RESULT:      -6.2      1.672      6.968
REMARK  5 active torsions:
REMARK  status: ('A' for Active; 'I' for Inactive)
REMARK    1  A    between atoms: C2_2  and  C3_3 
REMARK    2  A    between atoms: C3_3  and  C4_4 
REMARK    3  A    between atoms: C4_4  and  N5_5 
REMARK       I    between atoms: N5_5  and  C6_6 
REMARK       I    between atoms: C6_6  and  N8_8 
REMARK    4  A    between atoms: N8_8  and  S9_9 
REMARK    5  A    between atoms: S9_9  and  C12_12 
ROOT
ATOM      1  S9  ZIN A   1      18.580   2.597  11.876  0.00  0.00     0.287 S 
ATOM      2  O10 ZIN A   1      19.593   3.625  12.161  0.00  0.00    -0.198 OA
ATOM      3  O11 ZIN A   1      17.247   3.221  11.834  0.00  0.00    -0.198 OA
ENDROOT
BRANCH   1   4
ATOM      4  N8  ZIN A   1      18.873   1.960  10.557  0.00  0.00    -0.102 NA
ATOM      5  C6  ZIN A   1      17.968   1.163   9.985  0.00  0.00     0.352 C 
ATOM      6  N5  ZIN A   1      18.230   0.589   8.795  0.00  0.00    -0.341 N 
ATOM      7  O7  ZIN A   1      16.903   0.955  10.540  0.00  0.00    -0.244 OA
ATOM      8  H28 ZIN A   1      19.078   0.755   8.353  0.00  0.00     0.164 HD
BRANCH   6   9
ATOM      9  C4  ZIN A   1      17.237  -0.285   8.168  0.00  0.00     0.124 C 
BRANCH   9  10
ATOM     10  C3  ZIN A   1      17.548  -0.423   6.676  0.00  0.00     0.019 C 
BRANCH  10  11
ATOM     11  C2  ZIN A   1      18.478   0.712   6.243  0.00  0.00    -0.003 C 
ATOM     12  C1  ZIN A   1      19.286   0.271   5.021  0.00  0.00     0.005 C 
ENDBRANCH  10  11
ENDBRANCH   9  10
ENDBRANCH   6   9
ENDBRANCH   1   4
BRANCH   1  13
ATOM     13  C12 ZIN A   1      18.615   1.371  13.140  0.00  0.00     0.081 A 
ATOM     14  C18 ZIN A   1      17.598   1.315  14.076  0.00  0.00     0.026 A 
ATOM     15  C17 ZIN A   1      17.623   0.350  15.066  0.00  0.00     0.008 A 
ATOM     16  C15 ZIN A   1      18.667  -0.553  15.125  0.00  0.00    -0.062 A 
ATOM     17  C14 ZIN A   1      19.687  -0.493  14.193  0.00  0.00     0.008 A 
ATOM     18  C16 ZIN A   1      18.697  -1.602  16.207  0.00  0.00     0.048 C 
ATOM     19  C13 ZIN A   1      19.660   0.469  13.200  0.00  0.00     0.026 A 
ENDBRANCH   1  13
TORSDOF 5
ENDMDL
MODEL 7
REMARK VINA RESULT:      -6.2      2.878      3.594
REMARK  5 active torsions:
REMARK  status: ('A' for Active; 'I' for Inactive)
REMARK    1  A    between atoms: C2_2  and  C3_3 
REMARK    2  A    between atoms: C3_3  and  C4_4 
REMARK    3  A    between atoms: C4_4  and  N5_5 
REMARK       I    between atoms: N5_5  and  C6_6 
REMARK       I    between atoms: C6_6  and  N8_8 
REMARK    4  A    between atoms: N8_8  and  S9_9 
REMARK    5  A    between atoms: S9_9  and  C12_12 
ROOT
ATOM      1  S9  ZIN A   1      17.501   0.951  11.129  0.00  0.00     0.287 S 
ATOM      2  O10 ZIN A   1      18.545   0.305  11.940  0.00  0.00    -0.198 OA
ATOM      3  O11 ZIN A   1      16.203   0.311  11.402  0.00  0.00    -0.198 OA
ENDROOT
BRANCH   1   4
ATOM      4  N8  ZIN A   1      17.424   2.401  11.478  0.00  0.00    -0.102 NA
ATOM      5  C6  ZIN A   1      17.684   2.802  12.724  0.00  0.00     0.352 C 
ATOM      6  N5  ZIN A   1      17.616   4.110  13.039  0.00  0.00    -0.341 N 
ATOM      7  O7  ZIN A   1      17.985   1.985  13.577  0.00  0.00    -0.244 OA
ATOM      8  H28 ZIN A   1      17.377   4.761  12.361  0.00  0.00     0.164 HD
BRANCH   6   9
ATOM      9  C4  ZIN A   1      17.902   4.550  14.407  0.00  0.00     0.124 C 
BRANCH   9  10
ATOM     10  C3  ZIN A   1      18.507   5.955  14.374  0.00  0.00     0.019 C 
BRANCH  10  11
ATOM     11  C2  ZIN A   1      20.031   5.852  14.271  0.00  0.00    -0.003 C 
ATOM     12  C1  ZIN A   1      20.630   5.723  15.673  0.00  0.00     0.005 C 
ENDBRANCH  10  11
ENDBRANCH   9  10
ENDBRANCH   6   9
ENDBRANCH   1   4
BRANCH   1  13
ATOM     13  C12 ZIN A   1      17.893   0.778   9.420  0.00  0.00     0.081 A 
ATOM     14  C18 ZIN A   1      17.264  -0.192   8.662  0.00  0.00     0.026 A 
ATOM     15  C17 ZIN A   1      17.568  -0.324   7.320  0.00  0.00     0.008 A 
ATOM     16  C15 ZIN A   1      18.507   0.506   6.739  0.00  0.00    -0.062 A 
ATOM     17  C14 ZIN A   1      19.141   1.472   7.499  0.00  0.00     0.008 A 
ATOM     18  C16 ZIN A   1      18.842   0.358   5.277  0.00  0.00     0.048 C 
ATOM     19  C13 ZIN A   1      18.833   1.607   8.840  0.00  0.00     0.026 A 
ENDBRANCH   1  13
TORSDOF 5
ENDMDL
MODEL 8
REMARK VINA RESULT:      -6.2      1.655      7.468
REMARK  5 active torsions:
REMARK  status: ('A' for Active; 'I' for Inactive)
REMARK    1  A    between atoms: C2_2  and  C3_3 
REMARK    2  A    between atoms: C3_3  and  C4_4 
REMARK    3  A    between atoms: C4_4  and  N5_5 
REMARK       I    between atoms: N5_5  and  C6_6 
REMARK       I    between atoms: C6_6  and  N8_8 
REMARK    4  A    between atoms: N8_8  and  S9_9 
REMARK    5  A    between atoms: S9_9  and  C12_12 
ROOT
ATOM      1  S9  ZIN A   1      17.361   0.368  11.708  0.00  0.00     0.287 S 
ATOM      2  O10 ZIN A   1      17.425   1.823  11.499  0.00  0.00    -0.198 OA
ATOM      3  O11 ZIN A   1      15.980  -0.097  11.501  0.00  0.00    -0.198 OA
ENDROOT
BRANCH   1   4
ATOM      4  N8  ZIN A   1      18.267  -0.316  10.738  0.00  0.00    -0.102 NA
ATOM      5  C6  ZIN A   1      18.128  -0.099   9.429  0.00  0.00     0.352 C 
ATOM      6  N5  ZIN A   1      18.946  -0.715   8.552  0.00  0.00    -0.341 N 
ATOM      7  O7  ZIN A   1      17.262   0.658   9.025  0.00  0.00    -0.244 OA
ATOM      8  H28 ZIN A   1      19.635  -1.317   8.873  0.00  0.00     0.164 HD
BRANCH   6   9
ATOM      9  C4  ZIN A   1      18.793  -0.476   7.115  0.00  0.00     0.124 C 
BRANCH   9  10
ATOM     10  C3  ZIN A   1      19.255  -1.713   6.341  0.00  0.00     0.019 C 
BRANCH  10  11
ATOM     11  C2  ZIN A   1      19.160  -1.439   4.839  0.00  0.00    -0.003 C 
ATOM     12  C1  ZIN A   1      17.696  -1.226   4.450  0.00  0.00     0.005 C 
ENDBRANCH  10  11
ENDBRANCH   9  10
ENDBRANCH   6   9
ENDBRANCH   1   4
BRANCH   1  13
ATOM     13  C12 ZIN A   1      17.868  -0.012  13.352  0.00  0.00     0.081 A 
ATOM     14  C18 ZIN A   1      17.372   0.721  14.415  0.00  0.00     0.026 A 
ATOM     15  C17 ZIN A   1      17.766   0.420  15.705  0.00  0.00     0.008 A 
ATOM     16  C15 ZIN A   1      18.662  -0.607  15.933  0.00  0.00    -0.062 A 
ATOM     17  C14 ZIN A   1      19.162  -1.336  14.870  0.00  0.00     0.008 A 
ATOM     18  C16 ZIN A   1      19.095  -0.932  17.340  0.00  0.00     0.048 C 
ATOM     19  C13 ZIN A   1      18.765  -1.038  13.580  0.00  0.00     0.026 A 
ENDBRANCH   1  13
TORSDOF 5
ENDMDL
MODEL 9
REMARK VINA RESULT:      -6.2      2.972      3.768
REMARK  5 active torsions:
REMARK  status: ('A' for Active; 'I' for Inactive)
REMARK    1  A    between atoms: C2_2  and  C3_3 
REMARK    2  A    between atoms: C3_3  and  C4_4 
REMARK    3  A    between atoms: C4_4  and  N5_5 
REMARK       I    between atoms: N5_5  and  C6_6 
REMARK       I    between atoms: C6_6  and  N8_8 
REMARK    4  A    between atoms: N8_8  and  S9_9 
REMARK    5  A    between atoms: S9_9  and  C12_12 
ROOT
ATOM      1  S9  ZIN A   1      20.198   0.219  11.551  0.00  0.00     0.287 S 
ATOM      2  O10 ZIN A   1      21.479   0.492  12.223  0.00  0.00    -0.198 OA
ATOM      3  O11 ZIN A   1      20.455  -0.401  10.240  0.00  0.00    -0.198 OA
ENDROOT
BRANCH   1   4
ATOM      4  N8  ZIN A   1      19.383  -0.711  12.390  0.00  0.00    -0.102 NA
ATOM      5  C6  ZIN A   1      19.371  -0.574  13.717  0.00  0.00     0.352 C 
ATOM      6  N5  ZIN A   1      18.635  -1.412  14.474  0.00  0.00    -0.341 N 
ATOM      7  O7  ZIN A   1      20.024   0.309  14.244  0.00  0.00    -0.244 OA
ATOM      8  H28 ZIN A   1      18.115  -2.114  14.054  0.00  0.00     0.164 HD
BRANCH   6   9
ATOM      9  C4  ZIN A   1      18.622  -1.262  15.931  0.00  0.00     0.124 C 
BRANCH   9  10
ATOM     10  C3  ZIN A   1      17.425  -0.402  16.343  0.00  0.00     0.019 C 
BRANCH  10  11
ATOM     11  C2  ZIN A   1      17.688   0.211  17.721  0.00  0.00    -0.003 C 
ATOM     12  C1  ZIN A   1      19.191   0.441  17.898  0.00  0.00     0.005 C 
ENDBRANCH  10  11
ENDBRANCH   9  10
ENDBRANCH   6   9
ENDBRANCH   1   4
BRANCH   1  13
ATOM     13  C12 ZIN A   1      19.319   1.729  11.325  0.00  0.00     0.081 A 
ATOM     14  C18 ZIN A   1      18.176   1.752  10.547  0.00  0.00     0.026 A 
ATOM     15  C17 ZIN A   1      17.483   2.935  10.373  0.00  0.00     0.008 A 
ATOM     16  C15 ZIN A   1      17.937   4.097  10.969  0.00  0.00    -0.062 A 
ATOM     17  C14 ZIN A   1      19.084   4.074  11.741  0.00  0.00     0.008 A 
ATOM     18  C16 ZIN A   1      17.185   5.388  10.774  0.00  0.00     0.048 C 
ATOM     19  C13 ZIN A   1      19.775   2.890  11.918  0.00  0.00     0.026 A 
ENDBRANCH   1  13
TORSDOF 5
ENDMDL
