MODEL 1
REMARK VINA RESULT:      -8.4      0.000      0.000
REMARK  9 active torsions:
REMARK  status: ('A' for Active; 'I' for Inactive)
REMARK    1  A    between atoms: O2_2  and  C3_3 
REMARK    2  A    between atoms: C8_8  and  O9_9 
REMARK    3  A    between atoms: C14_13  and  O16_14 
REMARK    4  A    between atoms: O16_14  and  C17_15 
REMARK    5  A    between atoms: C17_15  and  C19_17 
REMARK    6  A    between atoms: C19_17  and  N21_18 
REMARK    7  A    between atoms: C19_17  and  C22_19 
REMARK    8  A    between atoms: C25_22  and  C27_23 
REMARK    9  A    between atoms: C27_23  and  C28_24 
ROOT
ATOM      1  C3  ZIN A   1      19.007  -2.856   6.936  0.00  0.00     0.102 A 
ATOM      2  C4  ZIN A   1      18.987  -3.760   7.984  0.00  0.00     0.047 A 
ATOM      3  C5  ZIN A   1      19.125  -3.320   9.292  0.00  0.00    -0.045 A 
ATOM      4  C6  ZIN A   1      19.285  -1.975   9.554  0.00  0.00    -0.016 A 
ATOM      5  C7  ZIN A   1      19.302  -1.066   8.507  0.00  0.00     0.049 A 
ATOM      6  C8  ZIN A   1      19.170  -1.499   7.200  0.00  0.00     0.102 A 
ATOM      7  C11 ZIN A   1      19.448  -1.455  10.957  0.00  0.00     0.259 C 
ATOM      8  C13 ZIN A   1      18.632  -0.174  11.134  0.00  0.00     0.073 C 
ATOM      9  C14 ZIN A   1      18.831   0.355  12.558  0.00  0.00     0.140 C 
ATOM     10  C25 ZIN A   1      18.421  -0.726  13.562  0.00  0.00     0.044 C 
ATOM     11  C31 ZIN A   1      19.241  -1.993  13.308  0.00  0.00     0.280 C 
ATOM     12  N32 ZIN A   1      18.987  -2.446  11.933  0.00  0.00     0.098 N 
ATOM     13  C33 ZIN A   1      19.636  -3.736  11.664  0.00  0.00     0.278 C 
ATOM     14  C34 ZIN A   1      19.093  -4.343  10.399  0.00  0.00     0.069 C 
ENDROOT
BRANCH   9  15
ATOM     15  O16 ZIN A   1      18.012   1.537  12.756  0.00  0.00    -0.314 OA
BRANCH  15  16
ATOM     16  C17 ZIN A   1      18.653   2.685  13.027  0.00  0.00     0.292 C 
ATOM     17  O18 ZIN A   1      18.889   2.990  14.172  0.00  0.00    -0.263 OA
BRANCH  16  18
ATOM     18  C19 ZIN A   1      19.082   3.592  11.902  0.00  0.00     0.320 C 
BRANCH  18  19
ATOM     19  N21 ZIN A   1      20.420   3.201  11.441  0.00  0.00     0.092 N 
ATOM     20  H45 ZIN A   1      20.914   3.990  11.051  0.00  0.00     0.313 HD
ATOM     21  H46 ZIN A   1      20.950   2.776  12.186  0.00  0.00     0.313 HD
ENDBRANCH  18  19
BRANCH  18  22
ATOM     22  C22 ZIN A   1      18.088   3.476  10.746  0.00  0.00     0.020 C 
ATOM     23  C23 ZIN A   1      17.504   4.856  10.433  0.00  0.00     0.012 C 
ATOM     24  C24 ZIN A   1      18.807   2.935   9.509  0.00  0.00     0.012 C 
ENDBRANCH  18  22
ENDBRANCH  16  18
ENDBRANCH  15  16
ENDBRANCH   9  15
BRANCH  10  25
ATOM     25  C27 ZIN A   1      18.678  -0.226  14.985  0.00  0.00     0.012 C 
BRANCH  25  26
ATOM     26  C28 ZIN A   1      18.158  -1.257  15.989  0.00  0.00    -0.022 C 
ATOM     27  C29 ZIN A   1      19.275  -1.624  16.967  0.00  0.00     0.009 C 
ATOM     28  C30 ZIN A   1      16.978  -0.665  16.762  0.00  0.00     0.009 C 
ENDBRANCH  25  26
ENDBRANCH  10  25
BRANCH   6  29
ATOM     29  O9  ZIN A   1      19.188  -0.603   6.177  0.00  0.00    -0.353 OA
ATOM     30  C10 ZIN A   1      18.912   0.761   6.505  0.00  0.00     0.210 C 
ENDBRANCH   6  29
BRANCH   1  31
ATOM     31  O2  ZIN A   1      18.872  -3.292   5.655  0.00  0.00    -0.353 OA
ATOM     32  C1  ZIN A   1      18.090  -4.471   5.450  0.00  0.00     0.210 C 
ENDBRANCH   1  31
TORSDOF 9
ENDMDL
MODEL 2
REMARK VINA RESULT:      -8.2      1.514      2.033
REMARK  9 active torsions:
REMARK  status: ('A' for Active; 'I' for Inactive)
REMARK    1  A    between atoms: O2_2  and  C3_3 
REMARK    2  A    between atoms: C8_8  and  O9_9 
REMARK    3  A    between atoms: C14_13  and  O16_14 
REMARK    4  A    between atoms: O16_14  and  C17_15 
REMARK    5  A    between atoms: C17_15  and  C19_17 
REMARK    6  A    between atoms: C19_17  and  N21_18 
REMARK    7  A    between atoms: C19_17  and  C22_19 
REMARK    8  A    between atoms: C25_22  and  C27_23 
REMARK    9  A    between atoms: C27_23  and  C28_24 
ROOT
ATOM      1  C3  ZIN A   1      18.848  -3.449   6.230  0.00  0.00     0.102 A 
ATOM      2  C4  ZIN A   1      18.377  -4.136   7.336  0.00  0.00     0.047 A 
ATOM      3  C5  ZIN A   1      18.282  -3.503   8.566  0.00  0.00    -0.045 A 
ATOM      4  C6  ZIN A   1      18.659  -2.183   8.694  0.00  0.00    -0.016 A 
ATOM      5  C7  ZIN A   1      19.128  -1.490   7.588  0.00  0.00     0.049 A 
ATOM      6  C8  ZIN A   1      19.230  -2.117   6.359  0.00  0.00     0.102 A 
ATOM      7  C11 ZIN A   1      18.581  -1.461  10.012  0.00  0.00     0.259 C 
ATOM      8  C13 ZIN A   1      18.043  -0.045   9.798  0.00  0.00     0.073 C 
ATOM      9  C14 ZIN A   1      17.996   0.683  11.145  0.00  0.00     0.140 C 
ATOM     10  C25 ZIN A   1      17.129  -0.115  12.122  0.00  0.00     0.044 C 
ATOM     11  C31 ZIN A   1      17.693  -1.531  12.263  0.00  0.00     0.280 C 
ATOM     12  N32 ZIN A   1      17.692  -2.167  10.937  0.00  0.00     0.098 N 
ATOM     13  C33 ZIN A   1      18.093  -3.578  11.020  0.00  0.00     0.278 C 
ATOM     14  C34 ZIN A   1      17.759  -4.294   9.739  0.00  0.00     0.069 C 
ENDROOT
BRANCH   9  15
ATOM     15  O16 ZIN A   1      17.429   2.007  10.961  0.00  0.00    -0.314 OA
BRANCH  15  16
ATOM     16  C17 ZIN A   1      18.291   3.033  10.878  0.00  0.00     0.292 C 
ATOM     17  O18 ZIN A   1      18.363   3.681   9.861  0.00  0.00    -0.263 OA
BRANCH  16  18
ATOM     18  C19 ZIN A   1      19.167   3.378  12.056  0.00  0.00     0.320 C 
BRANCH  18  19
ATOM     19  N21 ZIN A   1      20.578   3.275  11.662  0.00  0.00     0.092 N 
ATOM     20  H45 ZIN A   1      21.087   4.107  11.919  0.00  0.00     0.313 HD
ATOM     21  H46 ZIN A   1      21.006   2.453  12.060  0.00  0.00     0.313 HD
ENDBRANCH  18  19
BRANCH  18  22
ATOM     22  C22 ZIN A   1      18.867   4.806  12.513  0.00  0.00     0.020 C 
ATOM     23  C23 ZIN A   1      17.483   4.854  13.164  0.00  0.00     0.012 C 
ATOM     24  C24 ZIN A   1      19.923   5.248  13.528  0.00  0.00     0.012 C 
ENDBRANCH  18  22
ENDBRANCH  16  18
ENDBRANCH  15  16
ENDBRANCH   9  15
BRANCH  10  25
ATOM     25  C27 ZIN A   1      17.131   0.575  13.488  0.00  0.00     0.012 C 
BRANCH  25  26
ATOM     26  C28 ZIN A   1      18.203  -0.059  14.377  0.00  0.00    -0.022 C 
ATOM     27  C29 ZIN A   1      19.391   0.896  14.504  0.00  0.00     0.009 C 
ATOM     28  C30 ZIN A   1      17.618  -0.332  15.764  0.00  0.00     0.009 C 
ENDBRANCH  25  26
ENDBRANCH  10  25
BRANCH   6  29
ATOM     29  O9  ZIN A   1      19.692  -1.432   5.279  0.00  0.00    -0.353 OA
ATOM     30  C10 ZIN A   1      18.909  -0.324   4.829  0.00  0.00     0.210 C 
ENDBRANCH   6  29
BRANCH   1  31
ATOM     31  O2  ZIN A   1      18.940  -4.074   5.026  0.00  0.00    -0.353 OA
ATOM     32  C1  ZIN A   1      17.735  -4.208   4.270  0.00  0.00     0.210 C 
ENDBRANCH   1  31
TORSDOF 9
ENDMDL
MODEL 3
REMARK VINA RESULT:      -8.0      2.758      6.014
REMARK  9 active torsions:
REMARK  status: ('A' for Active; 'I' for Inactive)
REMARK    1  A    between atoms: O2_2  and  C3_3 
REMARK    2  A    between atoms: C8_8  and  O9_9 
REMARK    3  A    between atoms: C14_13  and  O16_14 
REMARK    4  A    between atoms: O16_14  and  C17_15 
REMARK    5  A    between atoms: C17_15  and  C19_17 
REMARK    6  A    between atoms: C19_17  and  N21_18 
REMARK    7  A    between atoms: C19_17  and  C22_19 
REMARK    8  A    between atoms: C25_22  and  C27_23 
REMARK    9  A    between atoms: C27_23  and  C28_24 
ROOT
ATOM      1  C3  ZIN A   1      19.142   1.063   8.783  0.00  0.00     0.102 A 
ATOM      2  C4  ZIN A   1      18.722   2.382   8.804  0.00  0.00     0.047 A 
ATOM      3  C5  ZIN A   1      18.308   2.966   9.992  0.00  0.00    -0.045 A 
ATOM      4  C6  ZIN A   1      18.311   2.233  11.159  0.00  0.00    -0.016 A 
ATOM      5  C7  ZIN A   1      18.734   0.912  11.142  0.00  0.00     0.049 A 
ATOM      6  C8  ZIN A   1      19.144   0.322   9.960  0.00  0.00     0.102 A 
ATOM      7  C11 ZIN A   1      17.860   2.824  12.468  0.00  0.00     0.259 C 
ATOM      8  C13 ZIN A   1      18.800   2.380  13.590  0.00  0.00     0.073 C 
ATOM      9  C14 ZIN A   1      18.311   2.969  14.917  0.00  0.00     0.140 C 
ATOM     10  C25 ZIN A   1      18.243   4.494  14.799  0.00  0.00     0.044 C 
ATOM     11  C31 ZIN A   1      17.322   4.874  13.637  0.00  0.00     0.280 C 
ATOM     12  N32 ZIN A   1      17.864   4.288  12.402  0.00  0.00     0.098 N 
ATOM     13  C33 ZIN A   1      17.105   4.726  11.223  0.00  0.00     0.278 C 
ATOM     14  C34 ZIN A   1      17.864   4.407   9.963  0.00  0.00     0.069 C 
ENDROOT
BRANCH   9  15
ATOM     15  O16 ZIN A   1      19.232   2.604  15.978  0.00  0.00    -0.314 OA
BRANCH  15  16
ATOM     16  C17 ZIN A   1      18.787   1.732  16.897  0.00  0.00     0.292 C 
ATOM     17  O18 ZIN A   1      18.133   2.124  17.835  0.00  0.00    -0.263 OA
BRANCH  16  18
ATOM     18  C19 ZIN A   1      19.101   0.264  16.759  0.00  0.00     0.320 C 
BRANCH  18  19
ATOM     19  N21 ZIN A   1      19.173  -0.348  18.091  0.00  0.00     0.092 N 
ATOM     20  H45 ZIN A   1      18.783   0.263  18.793  0.00  0.00     0.313 HD
ATOM     21  H46 ZIN A   1      18.715  -1.247  18.101  0.00  0.00     0.313 HD
ENDBRANCH  18  19
BRANCH  18  22
ATOM     22  C22 ZIN A   1      18.003  -0.417  15.941  0.00  0.00     0.020 C 
ATOM     23  C23 ZIN A   1      18.640  -1.275  14.845  0.00  0.00     0.012 C 
ATOM     24  C24 ZIN A   1      17.162  -1.306  16.859  0.00  0.00     0.012 C 
ENDBRANCH  18  22
ENDBRANCH  16  18
ENDBRANCH  15  16
ENDBRANCH   9  15
BRANCH  10  25
ATOM     25  C27 ZIN A   1      17.694   5.082  16.101  0.00  0.00     0.012 C 
BRANCH  25  26
ATOM     26  C28 ZIN A   1      18.594   6.232  16.560  0.00  0.00    -0.022 C 
ATOM     27  C29 ZIN A   1      19.997   6.043  15.980  0.00  0.00     0.009 C 
ATOM     28  C30 ZIN A   1      18.015   7.559  16.070  0.00  0.00     0.009 C 
ENDBRANCH  25  26
ENDBRANCH  10  25
BRANCH   6  29
ATOM     29  O9  ZIN A   1      19.557  -0.974   9.950  0.00  0.00    -0.353 OA
ATOM     30  C10 ZIN A   1      19.931  -1.546  11.206  0.00  0.00     0.210 C 
ENDBRANCH   6  29
BRANCH   1  31
ATOM     31  O2  ZIN A   1      19.547   0.494   7.616  0.00  0.00    -0.353 OA
ATOM     32  C1  ZIN A   1      18.525   0.082   6.706  0.00  0.00     0.210 C 
ENDBRANCH   1  31
TORSDOF 9
ENDMDL
MODEL 4
REMARK VINA RESULT:      -7.9      2.589      7.959
REMARK  9 active torsions:
REMARK  status: ('A' for Active; 'I' for Inactive)
REMARK    1  A    between atoms: O2_2  and  C3_3 
REMARK    2  A    between atoms: C8_8  and  O9_9 
REMARK    3  A    between atoms: C14_13  and  O16_14 
REMARK    4  A    between atoms: O16_14  and  C17_15 
REMARK    5  A    between atoms: C17_15  and  C19_17 
REMARK    6  A    between atoms: C19_17  and  N21_18 
REMARK    7  A    between atoms: C19_17  and  C22_19 
REMARK    8  A    between atoms: C25_22  and  C27_23 
REMARK    9  A    between atoms: C27_23  and  C28_24 
ROOT
ATOM      1  C3  ZIN A   1      18.911   2.725  10.307  0.00  0.00     0.102 A 
ATOM      2  C4  ZIN A   1      18.720   2.764   8.937  0.00  0.00     0.047 A 
ATOM      3  C5  ZIN A   1      18.907   1.624   8.169  0.00  0.00    -0.045 A 
ATOM      4  C6  ZIN A   1      19.287   0.442   8.771  0.00  0.00    -0.016 A 
ATOM      5  C7  ZIN A   1      19.476   0.398  10.145  0.00  0.00     0.049 A 
ATOM      6  C8  ZIN A   1      19.297   1.534  10.914  0.00  0.00     0.102 A 
ATOM      7  C11 ZIN A   1      19.510  -0.816   7.976  0.00  0.00     0.259 C 
ATOM      8  C13 ZIN A   1      18.919  -2.014   8.722  0.00  0.00     0.073 C 
ATOM      9  C14 ZIN A   1      19.179  -3.287   7.912  0.00  0.00     0.140 C 
ATOM     10  C25 ZIN A   1      18.574  -3.131   6.514  0.00  0.00     0.044 C 
ATOM     11  C31 ZIN A   1      19.173  -1.895   5.836  0.00  0.00     0.280 C 
ATOM     12  N32 ZIN A   1      18.871  -0.717   6.662  0.00  0.00     0.098 N 
ATOM     13  C33 ZIN A   1      19.297   0.524   6.002  0.00  0.00     0.278 C 
ATOM     14  C34 ZIN A   1      18.682   1.717   6.682  0.00  0.00     0.069 C 
ENDROOT
BRANCH   9  15
ATOM     15  O16 ZIN A   1      18.568  -4.421   8.581  0.00  0.00    -0.314 OA
BRANCH  15  16
ATOM     16  C17 ZIN A   1      19.368  -5.178   9.349  0.00  0.00     0.292 C 
ATOM     17  O18 ZIN A   1      20.051  -6.039   8.846  0.00  0.00    -0.263 OA
BRANCH  16  18
ATOM     18  C19 ZIN A   1      19.415  -4.954  10.839  0.00  0.00     0.320 C 
BRANCH  18  19
ATOM     19  N21 ZIN A   1      20.467  -3.979  11.154  0.00  0.00     0.092 N 
ATOM     20  H45 ZIN A   1      20.073  -3.130  11.531  0.00  0.00     0.313 HD
ATOM     21  H46 ZIN A   1      21.148  -4.373  11.786  0.00  0.00     0.313 HD
ENDBRANCH  18  19
BRANCH  18  22
ATOM     22  C22 ZIN A   1      18.064  -4.420  11.318  0.00  0.00     0.020 C 
ATOM     23  C23 ZIN A   1      17.364  -5.486  12.164  0.00  0.00     0.012 C 
ATOM     24  C24 ZIN A   1      18.283  -3.162  12.160  0.00  0.00     0.012 C 
ENDBRANCH  18  22
ENDBRANCH  16  18
ENDBRANCH  15  16
ENDBRANCH   9  15
BRANCH  10  25
ATOM     25  C27 ZIN A   1      18.887  -4.375   5.680  0.00  0.00     0.012 C 
BRANCH  25  26
ATOM     26  C28 ZIN A   1      17.618  -4.839   4.963  0.00  0.00    -0.022 C 
ATOM     27  C29 ZIN A   1      17.672  -4.403   3.497  0.00  0.00     0.009 C 
ATOM     28  C30 ZIN A   1      17.519  -6.364   5.037  0.00  0.00     0.009 C 
ENDBRANCH  25  26
ENDBRANCH  10  25
BRANCH   6  29
ATOM     29  O9  ZIN A   1      19.485   1.483  12.260  0.00  0.00    -0.353 OA
ATOM     30  C10 ZIN A   1      20.311   0.430  12.762  0.00  0.00     0.210 C 
ENDBRANCH   6  29
BRANCH   1  31
ATOM     31  O2  ZIN A   1      18.728   3.846  11.054  0.00  0.00    -0.353 OA
ATOM     32  C1  ZIN A   1      17.380   4.276  11.259  0.00  0.00     0.210 C 
ENDBRANCH   1  31
TORSDOF 9
ENDMDL
MODEL 5
REMARK VINA RESULT:      -7.7      1.847      4.934
REMARK  9 active torsions:
REMARK  status: ('A' for Active; 'I' for Inactive)
REMARK    1  A    between atoms: O2_2  and  C3_3 
REMARK    2  A    between atoms: C8_8  and  O9_9 
REMARK    3  A    between atoms: C14_13  and  O16_14 
REMARK    4  A    between atoms: O16_14  and  C17_15 
REMARK    5  A    between atoms: C17_15  and  C19_17 
REMARK    6  A    between atoms: C19_17  and  N21_18 
REMARK    7  A    between atoms: C19_17  and  C22_19 
REMARK    8  A    between atoms: C25_22  and  C27_23 
REMARK    9  A    between atoms: C27_23  and  C28_24 
ROOT
ATOM      1  C3  ZIN A   1      19.042  -3.521   7.787  0.00  0.00     0.102 A 
ATOM      2  C4  ZIN A   1      19.214  -2.369   7.039  0.00  0.00     0.047 A 
ATOM      3  C5  ZIN A   1      19.024  -1.122   7.618  0.00  0.00    -0.045 A 
ATOM      4  C6  ZIN A   1      18.659  -1.026   8.944  0.00  0.00    -0.016 A 
ATOM      5  C7  ZIN A   1      18.489  -2.179   9.698  0.00  0.00     0.049 A 
ATOM      6  C8  ZIN A   1      18.672  -3.424   9.124  0.00  0.00     0.102 A 
ATOM      7  C11 ZIN A   1      18.432   0.305   9.609  0.00  0.00     0.259 C 
ATOM      8  C13 ZIN A   1      19.041   0.294  11.013  0.00  0.00     0.073 C 
ATOM      9  C14 ZIN A   1      18.778   1.646  11.683  0.00  0.00     0.140 C 
ATOM     10  C25 ZIN A   1      19.363   2.764  10.816  0.00  0.00     0.044 C 
ATOM     11  C31 ZIN A   1      18.747   2.697   9.416  0.00  0.00     0.280 C 
ATOM     12  N32 ZIN A   1      19.054   1.382   8.835  0.00  0.00     0.098 N 
ATOM     13  C33 ZIN A   1      18.611   1.298   7.437  0.00  0.00     0.278 C 
ATOM     14  C34 ZIN A   1      19.228   0.102   6.762  0.00  0.00     0.069 C 
ENDROOT
BRANCH   9  15
ATOM     15  O16 ZIN A   1      19.404   1.668  12.992  0.00  0.00    -0.314 OA
BRANCH  15  16
ATOM     16  C17 ZIN A   1      18.653   1.275  14.034  0.00  0.00     0.292 C 
ATOM     17  O18 ZIN A   1      17.467   1.507  14.046  0.00  0.00    -0.263 OA
BRANCH  16  18
ATOM     18  C19 ZIN A   1      19.289   0.542  15.187  0.00  0.00     0.320 C 
BRANCH  18  19
ATOM     19  N21 ZIN A   1      19.030   1.272  16.434  0.00  0.00     0.092 N 
ATOM     20  H45 ZIN A   1      19.637   0.954  17.174  0.00  0.00     0.313 HD
ATOM     21  H46 ZIN A   1      19.121   2.267  16.296  0.00  0.00     0.313 HD
ENDBRANCH  18  19
BRANCH  18  22
ATOM     22  C22 ZIN A   1      18.697  -0.865  15.286  0.00  0.00     0.020 C 
ATOM     23  C23 ZIN A   1      19.170  -1.704  14.097  0.00  0.00     0.012 C 
ATOM     24  C24 ZIN A   1      19.158  -1.521  16.589  0.00  0.00     0.012 C 
ENDBRANCH  18  22
ENDBRANCH  16  18
ENDBRANCH  15  16
ENDBRANCH   9  15
BRANCH  10  25
ATOM     25  C27 ZIN A   1      19.046   4.121  11.450  0.00  0.00     0.012 C 
BRANCH  25  26
ATOM     26  C28 ZIN A   1      17.533   4.255  11.636  0.00  0.00    -0.022 C 
ATOM     27  C29 ZIN A   1      17.237   4.751  13.053  0.00  0.00     0.009 C 
ATOM     28  C30 ZIN A   1      16.982   5.257  10.620  0.00  0.00     0.009 C 
ENDBRANCH  25  26
ENDBRANCH  10  25
BRANCH   6  29
ATOM     29  O9  ZIN A   1      18.502  -4.550   9.869  0.00  0.00    -0.353 OA
ATOM     30  C10 ZIN A   1      19.043  -4.541  11.192  0.00  0.00     0.210 C 
ENDBRANCH   6  29
BRANCH   1  31
ATOM     31  O2  ZIN A   1      19.229  -4.740   7.215  0.00  0.00    -0.353 OA
ATOM     32  C1  ZIN A   1      20.560  -5.259   7.212  0.00  0.00     0.210 C 
ENDBRANCH   1  31
TORSDOF 9
ENDMDL
MODEL 6
REMARK VINA RESULT:      -7.7      2.071      6.646
REMARK  9 active torsions:
REMARK  status: ('A' for Active; 'I' for Inactive)
REMARK    1  A    between atoms: O2_2  and  C3_3 
REMARK    2  A    between atoms: C8_8  and  O9_9 
REMARK    3  A    between atoms: C14_13  and  O16_14 
REMARK    4  A    between atoms: O16_14  and  C17_15 
REMARK    5  A    between atoms: C17_15  and  C19_17 
REMARK    6  A    between atoms: C19_17  and  N21_18 
REMARK    7  A    between atoms: C19_17  and  C22_19 
REMARK    8  A    between atoms: C25_22  and  C27_23 
REMARK    9  A    between atoms: C27_23  and  C28_24 
ROOT
ATOM      1  C3  ZIN A   1      17.730   3.896  13.440  0.00  0.00     0.102 A 
ATOM      2  C4  ZIN A   1      18.131   2.994  14.411  0.00  0.00     0.047 A 
ATOM      3  C5  ZIN A   1      18.256   1.647  14.107  0.00  0.00    -0.045 A 
ATOM      4  C6  ZIN A   1      17.978   1.198  12.833  0.00  0.00    -0.016 A 
ATOM      5  C7  ZIN A   1      17.580   2.100  11.856  0.00  0.00     0.049 A 
ATOM      6  C8  ZIN A   1      17.448   3.444  12.155  0.00  0.00     0.102 A 
ATOM      7  C11 ZIN A   1      18.091  -0.256  12.463  0.00  0.00     0.259 C 
ATOM      8  C13 ZIN A   1      18.738  -0.392  11.084  0.00  0.00     0.073 C 
ATOM      9  C14 ZIN A   1      18.821  -1.876  10.712  0.00  0.00     0.140 C 
ATOM     10  C25 ZIN A   1      19.610  -2.625  11.790  0.00  0.00     0.044 C 
ATOM     11  C31 ZIN A   1      18.937  -2.417  13.149  0.00  0.00     0.280 C 
ATOM     12  N32 ZIN A   1      18.910  -0.977  13.441  0.00  0.00     0.098 N 
ATOM     13  C33 ZIN A   1      18.402  -0.713  14.793  0.00  0.00     0.278 C 
ATOM     14  C34 ZIN A   1      18.700   0.706  15.198  0.00  0.00     0.069 C 
ENDROOT
BRANCH   9  15
ATOM     15  O16 ZIN A   1      19.489  -2.020   9.432  0.00  0.00    -0.314 OA
BRANCH  15  16
ATOM     16  C17 ZIN A   1      18.739  -1.854   8.331  0.00  0.00     0.292 C 
ATOM     17  O18 ZIN A   1      17.560  -2.117   8.358  0.00  0.00    -0.263 OA
BRANCH  16  18
ATOM     18  C19 ZIN A   1      19.367  -1.339   7.061  0.00  0.00     0.320 C 
BRANCH  18  19
ATOM     19  N21 ZIN A   1      19.286  -2.372   6.021  0.00  0.00     0.092 N 
ATOM     20  H45 ZIN A   1      18.375  -2.379   5.587  0.00  0.00     0.313 HD
ATOM     21  H46 ZIN A   1      20.013  -2.251   5.333  0.00  0.00     0.313 HD
ENDBRANCH  18  19
BRANCH  18  22
ATOM     22  C22 ZIN A   1      18.623  -0.087   6.596  0.00  0.00     0.020 C 
ATOM     23  C23 ZIN A   1      18.987   1.091   7.503  0.00  0.00     0.012 C 
ATOM     24  C24 ZIN A   1      19.022   0.238   5.155  0.00  0.00     0.012 C 
ENDBRANCH  18  22
ENDBRANCH  16  18
ENDBRANCH  15  16
ENDBRANCH   9  15
BRANCH  10  25
ATOM     25  C27 ZIN A   1      19.639  -4.118  11.456  0.00  0.00     0.012 C 
BRANCH  25  26
ATOM     26  C28 ZIN A   1      18.263  -4.554  10.948  0.00  0.00    -0.022 C 
ATOM     27  C29 ZIN A   1      18.431  -5.398   9.683  0.00  0.00     0.009 C 
ATOM     28  C30 ZIN A   1      17.561  -5.383  12.025  0.00  0.00     0.009 C 
ENDBRANCH  25  26
ENDBRANCH  10  25
BRANCH   6  29
ATOM     29  O9  ZIN A   1      17.056   4.322  11.193  0.00  0.00    -0.353 OA
ATOM     30  C10 ZIN A   1      17.846   4.377  10.003  0.00  0.00     0.210 C 
ENDBRANCH   6  29
BRANCH   1  31
ATOM     31  O2  ZIN A   1      17.609   5.216  13.743  0.00  0.00    -0.353 OA
ATOM     32  C1  ZIN A   1      16.452   5.608  14.484  0.00  0.00     0.210 C 
ENDBRANCH   1  31
TORSDOF 9
ENDMDL
MODEL 7
REMARK VINA RESULT:      -7.3      2.166      4.950
REMARK  9 active torsions:
REMARK  status: ('A' for Active; 'I' for Inactive)
REMARK    1  A    between atoms: O2_2  and  C3_3 
REMARK    2  A    between atoms: C8_8  and  O9_9 
REMARK    3  A    between atoms: C14_13  and  O16_14 
REMARK    4  A    between atoms: O16_14  and  C17_15 
REMARK    5  A    between atoms: C17_15  and  C19_17 
REMARK    6  A    between atoms: C19_17  and  N21_18 
REMARK    7  A    between atoms: C19_17  and  C22_19 
REMARK    8  A    between atoms: C25_22  and  C27_23 
REMARK    9  A    between atoms: C27_23  and  C28_24 
ROOT
ATOM      1  C3  ZIN A   1      19.219  -2.474   7.608  0.00  0.00     0.102 A 
ATOM      2  C4  ZIN A   1      19.322  -1.119   7.343  0.00  0.00     0.047 A 
ATOM      3  C5  ZIN A   1      19.069  -0.189   8.339  0.00  0.00    -0.045 A 
ATOM      4  C6  ZIN A   1      18.709  -0.611   9.602  0.00  0.00    -0.016 A 
ATOM      5  C7  ZIN A   1      18.607  -1.968   9.872  0.00  0.00     0.049 A 
ATOM      6  C8  ZIN A   1      18.854  -2.900   8.881  0.00  0.00     0.102 A 
ATOM      7  C11 ZIN A   1      18.415   0.364  10.710  0.00  0.00     0.259 C 
ATOM      8  C13 ZIN A   1      19.033  -0.134  12.018  0.00  0.00     0.073 C 
ATOM      9  C14 ZIN A   1      18.702   0.857  13.138  0.00  0.00     0.140 C 
ATOM     10  C25 ZIN A   1      19.219   2.246  12.756  0.00  0.00     0.044 C 
ATOM     11  C31 ZIN A   1      18.598   2.671  11.422  0.00  0.00     0.280 C 
ATOM     12  N32 ZIN A   1      18.972   1.683  10.399  0.00  0.00     0.098 N 
ATOM     13  C33 ZIN A   1      18.524   2.100   9.063  0.00  0.00     0.278 C 
ATOM     14  C34 ZIN A   1      19.200   1.275   8.002  0.00  0.00     0.069 C 
ENDROOT
BRANCH   9  15
ATOM     15  O16 ZIN A   1      19.336   0.425  14.370  0.00  0.00    -0.314 OA
BRANCH  15  16
ATOM     16  C17 ZIN A   1      18.535  -0.079  15.323  0.00  0.00     0.292 C 
ATOM     17  O18 ZIN A   1      18.319  -1.268  15.365  0.00  0.00    -0.263 OA
BRANCH  16  18
ATOM     18  C19 ZIN A   1      17.908   0.837  16.343  0.00  0.00     0.320 C 
BRANCH  18  19
ATOM     19  N21 ZIN A   1      16.828   0.126  17.039  0.00  0.00     0.092 N 
ATOM     20  H45 ZIN A   1      16.572  -0.717  16.546  0.00  0.00     0.313 HD
ATOM     21  H46 ZIN A   1      17.084  -0.077  17.993  0.00  0.00     0.313 HD
ENDBRANCH  18  19
BRANCH  18  22
ATOM     22  C22 ZIN A   1      18.966   1.275  17.355  0.00  0.00     0.020 C 
ATOM     23  C23 ZIN A   1      18.376   2.336  18.286  0.00  0.00     0.012 C 
ATOM     24  C24 ZIN A   1      19.415   0.067  18.179  0.00  0.00     0.012 C 
ENDBRANCH  18  22
ENDBRANCH  16  18
ENDBRANCH  15  16
ENDBRANCH   9  15
BRANCH  10  25
ATOM     25  C27 ZIN A   1      18.834   3.252  13.843  0.00  0.00     0.012 C 
BRANCH  25  26
ATOM     26  C28 ZIN A   1      18.862   4.667  13.261  0.00  0.00    -0.022 C 
ATOM     27  C29 ZIN A   1      17.567   5.394  13.626  0.00  0.00     0.009 C 
ATOM     28  C30 ZIN A   1      20.055   5.431  13.837  0.00  0.00     0.009 C 
ENDBRANCH  25  26
ENDBRANCH  10  25
BRANCH   6  29
ATOM     29  O9  ZIN A   1      18.751  -4.229   9.152  0.00  0.00    -0.353 OA
ATOM     30  C10 ZIN A   1      19.831  -4.831   9.871  0.00  0.00     0.210 C 
ENDBRANCH   6  29
BRANCH   1  31
ATOM     31  O2  ZIN A   1      19.467  -3.382   6.627  0.00  0.00    -0.353 OA
ATOM     32  C1  ZIN A   1      18.381  -3.716   5.760  0.00  0.00     0.210 C 
ENDBRANCH   1  31
TORSDOF 9
ENDMDL
MODEL 8
REMARK VINA RESULT:      -7.3      3.535      5.555
REMARK  9 active torsions:
REMARK  status: ('A' for Active; 'I' for Inactive)
REMARK    1  A    between atoms: O2_2  and  C3_3 
REMARK    2  A    between atoms: C8_8  and  O9_9 
REMARK    3  A    between atoms: C14_13  and  O16_14 
REMARK    4  A    between atoms: O16_14  and  C17_15 
REMARK    5  A    between atoms: C17_15  and  C19_17 
REMARK    6  A    between atoms: C19_17  and  N21_18 
REMARK    7  A    between atoms: C19_17  and  C22_19 
REMARK    8  A    between atoms: C25_22  and  C27_23 
REMARK    9  A    between atoms: C27_23  and  C28_24 
ROOT
ATOM      1  C3  ZIN A   1      19.145  -1.451  12.695  0.00  0.00     0.102 A 
ATOM      2  C4  ZIN A   1      18.842  -1.907  13.966  0.00  0.00     0.047 A 
ATOM      3  C5  ZIN A   1      18.867  -1.038  15.047  0.00  0.00    -0.045 A 
ATOM      4  C6  ZIN A   1      19.197   0.287  14.859  0.00  0.00    -0.016 A 
ATOM      5  C7  ZIN A   1      19.498   0.749  13.586  0.00  0.00     0.049 A 
ATOM      6  C8  ZIN A   1      19.480  -0.114  12.505  0.00  0.00     0.102 A 
ATOM      7  C11 ZIN A   1      19.246   1.262  16.005  0.00  0.00     0.259 C 
ATOM      8  C13 ZIN A   1      18.623   2.593  15.582  0.00  0.00     0.073 C 
ATOM      9  C14 ZIN A   1      18.706   3.580  16.751  0.00  0.00     0.140 C 
ATOM     10  C25 ZIN A   1      17.999   2.982  17.970  0.00  0.00     0.044 C 
ATOM     11  C31 ZIN A   1      18.639   1.635  18.318  0.00  0.00     0.280 C 
ATOM     12  N32 ZIN A   1      18.507   0.742  17.158  0.00  0.00     0.098 N 
ATOM     13  C33 ZIN A   1      18.978  -0.614  17.470  0.00  0.00     0.278 C 
ATOM     14  C34 ZIN A   1      18.524  -1.583  16.411  0.00  0.00     0.069 C 
ENDROOT
BRANCH   9  15
ATOM     15  O16 ZIN A   1      18.062   4.827  16.379  0.00  0.00    -0.314 OA
BRANCH  15  16
ATOM     16  C17 ZIN A   1      18.851   5.798  15.891  0.00  0.00     0.292 C 
ATOM     17  O18 ZIN A   1      19.477   6.504  16.646  0.00  0.00    -0.263 OA
BRANCH  16  18
ATOM     18  C19 ZIN A   1      18.956   6.007  14.402  0.00  0.00     0.320 C 
BRANCH  18  19
ATOM     19  N21 ZIN A   1      20.171   5.354  13.901  0.00  0.00     0.092 N 
ATOM     20  H45 ZIN A   1      19.963   4.751  13.119  0.00  0.00     0.313 HD
ATOM     21  H46 ZIN A   1      20.874   6.035  13.655  0.00  0.00     0.313 HD
ENDBRANCH  18  19
BRANCH  18  22
ATOM     22  C22 ZIN A   1      17.731   5.404  13.715  0.00  0.00     0.020 C 
ATOM     23  C23 ZIN A   1      16.651   6.478  13.558  0.00  0.00     0.012 C 
ATOM     24  C24 ZIN A   1      18.129   4.877  12.335  0.00  0.00     0.012 C 
ENDBRANCH  18  22
ENDBRANCH  16  18
ENDBRANCH  15  16
ENDBRANCH   9  15
BRANCH  10  25
ATOM     25  C27 ZIN A   1      18.135   3.936  19.158  0.00  0.00     0.012 C 
BRANCH  25  26
ATOM     26  C28 ZIN A   1      16.769   4.546  19.480  0.00  0.00    -0.022 C 
ATOM     27  C29 ZIN A   1      16.249   3.962  20.796  0.00  0.00     0.009 C 
ATOM     28  C30 ZIN A   1      16.907   6.063  19.615  0.00  0.00     0.009 C 
ENDBRANCH  25  26
ENDBRANCH  10  25
BRANCH   6  29
ATOM     29  O9  ZIN A   1      19.778   0.345  11.260  0.00  0.00    -0.353 OA
ATOM     30  C10 ZIN A   1      19.429   1.700  10.967  0.00  0.00     0.210 C 
ENDBRANCH   6  29
BRANCH   1  31
ATOM     31  O2  ZIN A   1      19.120  -2.307  11.639  0.00  0.00    -0.353 OA
ATOM     32  C1  ZIN A   1      17.846  -2.831  11.258  0.00  0.00     0.210 C 
ENDBRANCH   1  31
TORSDOF 9
ENDMDL
MODEL 9
REMARK VINA RESULT:      -7.3      1.733      2.310
REMARK  9 active torsions:
REMARK  status: ('A' for Active; 'I' for Inactive)
REMARK    1  A    between atoms: O2_2  and  C3_3 
REMARK    2  A    between atoms: C8_8  and  O9_9 
REMARK    3  A    between atoms: C14_13  and  O16_14 
REMARK    4  A    between atoms: O16_14  and  C17_15 
REMARK    5  A    between atoms: C17_15  and  C19_17 
REMARK    6  A    between atoms: C19_17  and  N21_18 
REMARK    7  A    between atoms: C19_17  and  C22_19 
REMARK    8  A    between atoms: C25_22  and  C27_23 
REMARK    9  A    between atoms: C27_23  and  C28_24 
ROOT
ATOM      1  C3  ZIN A   1      18.891  -2.396   7.538  0.00  0.00     0.102 A 
ATOM      2  C4  ZIN A   1      18.859  -3.248   8.629  0.00  0.00     0.047 A 
ATOM      3  C5  ZIN A   1      19.058  -2.754   9.910  0.00  0.00    -0.045 A 
ATOM      4  C6  ZIN A   1      19.292  -1.409  10.102  0.00  0.00    -0.016 A 
ATOM      5  C7  ZIN A   1      19.321  -0.551   9.012  0.00  0.00     0.049 A 
ATOM      6  C8  ZIN A   1      19.128  -1.039   7.732  0.00  0.00     0.102 A 
ATOM      7  C11 ZIN A   1      19.523  -0.833  11.473  0.00  0.00     0.259 C 
ATOM      8  C13 ZIN A   1      18.775   0.495  11.611  0.00  0.00     0.073 C 
ATOM      9  C14 ZIN A   1      19.043   1.079  13.002  0.00  0.00     0.140 C 
ATOM     10  C25 ZIN A   1      18.612   0.069  14.067  0.00  0.00     0.044 C 
ATOM     11  C31 ZIN A   1      19.361  -1.249  13.852  0.00  0.00     0.280 C 
ATOM     12  N32 ZIN A   1      19.043  -1.752  12.508  0.00  0.00     0.098 N 
ATOM     13  C33 ZIN A   1      19.620  -3.084  12.284  0.00  0.00     0.278 C 
ATOM     14  C34 ZIN A   1      19.009  -3.722  11.065  0.00  0.00     0.069 C 
ENDROOT
BRANCH   9  15
ATOM     15  O16 ZIN A   1      18.290   2.309  13.164  0.00  0.00    -0.314 OA
BRANCH  15  16
ATOM     16  C17 ZIN A   1      18.969   3.461  13.046  0.00  0.00     0.292 C 
ATOM     17  O18 ZIN A   1      19.794   3.589  12.171  0.00  0.00    -0.263 OA
BRANCH  16  18
ATOM     18  C19 ZIN A   1      18.704   4.595  14.002  0.00  0.00     0.320 C 
BRANCH  18  19
ATOM     19  N21 ZIN A   1      17.258   4.713  14.232  0.00  0.00     0.092 N 
ATOM     20  H45 ZIN A   1      16.885   3.867  14.636  0.00  0.00     0.313 HD
ATOM     21  H46 ZIN A   1      17.047   5.512  14.809  0.00  0.00     0.313 HD
ENDBRANCH  18  19
BRANCH  18  22
ATOM     22  C22 ZIN A   1      19.411   4.319  15.330  0.00  0.00     0.020 C 
ATOM     23  C23 ZIN A   1      20.271   5.526  15.711  0.00  0.00     0.012 C 
ATOM     24  C24 ZIN A   1      18.368   4.071  16.421  0.00  0.00     0.012 C 
ENDBRANCH  18  22
ENDBRANCH  16  18
ENDBRANCH  15  16
ENDBRANCH   9  15
BRANCH  10  25
ATOM     25  C27 ZIN A   1      18.937   0.621  15.457  0.00  0.00     0.012 C 
BRANCH  25  26
ATOM     26  C28 ZIN A   1      18.599  -0.431  16.515  0.00  0.00    -0.022 C 
ATOM     27  C29 ZIN A   1      19.232  -0.031  17.850  0.00  0.00     0.009 C 
ATOM     28  C30 ZIN A   1      17.081  -0.522  16.678  0.00  0.00     0.009 C 
ENDBRANCH  25  26
ENDBRANCH  10  25
BRANCH   6  29
ATOM     29  O9  ZIN A   1      19.159  -0.193   6.667  0.00  0.00    -0.353 OA
ATOM     30  C10 ZIN A   1      17.968   0.547   6.391  0.00  0.00     0.210 C 
ENDBRANCH   6  29
BRANCH   1  31
ATOM     31  O2  ZIN A   1      18.696  -2.885   6.285  0.00  0.00    -0.353 OA
ATOM     32  C1  ZIN A   1      19.159  -4.212   6.026  0.00  0.00     0.210 C 
ENDBRANCH   1  31
TORSDOF 9
ENDMDL
