MODEL 1
REMARK VINA RESULT:      -9.0      0.000      0.000
REMARK  5 active torsions:
REMARK  status: ('A' for Active; 'I' for Inactive)
REMARK    1  A    between atoms: C2_2  and  O4_4 
REMARK    2  A    between atoms: O4_4  and  C5_5 
REMARK    3  A    between atoms: C5_5  and  C6_6 
REMARK    4  A    between atoms: C6_6  and  C8_8 
REMARK    5  A    between atoms: C32_28  and  O34_29 
ROOT
ATOM      1  C8  ZIN A   1      18.675  -2.790   9.520  0.00  0.00     0.152 C 
ATOM      2  N9  ZIN A   1      17.327  -3.267   9.881  0.00  0.00    -0.248 NA
ATOM      3  C10 ZIN A   1      17.430  -4.154  10.803  0.00  0.00     0.132 C 
ATOM      4  C11 ZIN A   1      16.238  -4.844  11.414  0.00  0.00     0.099 C 
ATOM      5  O12 ZIN A   1      18.696  -4.414  11.179  0.00  0.00    -0.330 OA
ATOM      6  C13 ZIN A   1      19.530  -3.334  10.715  0.00  0.00     0.169 C 
ATOM      7  C15 ZIN A   1      19.548  -2.227  11.796  0.00  0.00     0.041 C 
ATOM      8  C16 ZIN A   1      18.623  -1.132  11.274  0.00  0.00     0.004 C 
ATOM      9  C18 ZIN A   1      18.989   0.292  11.646  0.00  0.00    -0.001 C 
ATOM     10  C20 ZIN A   1      18.974   0.454  13.167  0.00  0.00     0.010 C 
ATOM     11  C21 ZIN A   1      19.386   1.883  13.538  0.00  0.00     0.036 C 
ATOM     12  C22 ZIN A   1      18.469   2.844  12.804  0.00  0.00    -0.064 A 
ATOM     13  C23 ZIN A   1      17.849   3.792  13.491  0.00  0.00     0.058 A 
ATOM     14  C24 ZIN A   1      16.937   4.730  12.818  0.00  0.00     0.172 A 
ATOM     15  O25 ZIN A   1      16.396   5.625  13.439  0.00  0.00    -0.289 OA
ATOM     16  C26 ZIN A   1      16.696   4.562  11.375  0.00  0.00     0.052 A 
ATOM     17  C27 ZIN A   1      17.331   3.612  10.707  0.00  0.00    -0.009 A 
ATOM     18  C28 ZIN A   1      18.312   2.672  11.322  0.00  0.00     0.004 A 
ATOM     19  C29 ZIN A   1      19.674   2.926  10.675  0.00  0.00     0.025 C 
ATOM     20  C30 ZIN A   1      17.947   1.221  11.002  0.00  0.00     0.035 C 
ATOM     21  C32 ZIN A   1      17.889   1.035   9.488  0.00  0.00     0.124 C 
ATOM     22  C35 ZIN A   1      17.652  -0.435   9.106  0.00  0.00     0.044 C 
ATOM     23  C36 ZIN A   1      18.770  -1.273   9.697  0.00  0.00    -0.000 C 
ATOM     24  C37 ZIN A   1      20.130  -0.740   9.240  0.00  0.00     0.019 C 
ENDROOT
BRANCH   1  25
ATOM     25  C6  ZIN A   1      19.140  -3.269   8.169  0.00  0.00     0.184 C 
ATOM     26  O7  ZIN A   1      20.026  -4.086   8.091  0.00  0.00    -0.293 OA
BRANCH  25  27
ATOM     27  C5  ZIN A   1      18.499  -2.730   6.917  0.00  0.00     0.260 C 
BRANCH  27  28
ATOM     28  O4  ZIN A   1      19.527  -2.223   6.027  0.00  0.00    -0.314 OA
BRANCH  28  29
ATOM     29  C2  ZIN A   1      19.228  -1.126   5.312  0.00  0.00     0.255 C 
ATOM     30  C1  ZIN A   1      17.870  -0.487   5.446  0.00  0.00     0.126 C 
ATOM     31  O3  ZIN A   1      20.048  -0.653   4.561  0.00  0.00    -0.266 OA
ENDBRANCH  28  29
ENDBRANCH  27  28
ENDBRANCH  25  27
ENDBRANCH   1  25
BRANCH  21  32
ATOM     32  O34 ZIN A   1      19.124   1.470   8.918  0.00  0.00    -0.395 OA
ATOM     33  H58 ZIN A   1      19.760   0.758   8.767  0.00  0.00     0.210 HD
ENDBRANCH  21  32
TORSDOF 5
ENDMDL
MODEL 2
REMARK VINA RESULT:      -9.0      2.803      7.981
REMARK  5 active torsions:
REMARK  status: ('A' for Active; 'I' for Inactive)
REMARK    1  A    between atoms: C2_2  and  O4_4 
REMARK    2  A    between atoms: O4_4  and  C5_5 
REMARK    3  A    between atoms: C5_5  and  C6_6 
REMARK    4  A    between atoms: C6_6  and  C8_8 
REMARK    5  A    between atoms: C32_28  and  O34_29 
ROOT
ATOM      1  C8  ZIN A   1      18.571   2.805  13.065  0.00  0.00     0.152 C 
ATOM      2  N9  ZIN A   1      17.261   3.305  12.610  0.00  0.00    -0.248 NA
ATOM      3  C10 ZIN A   1      17.446   4.228  11.737  0.00  0.00     0.132 C 
ATOM      4  C11 ZIN A   1      16.313   4.951  11.055  0.00  0.00     0.099 C 
ATOM      5  O12 ZIN A   1      18.740   4.494  11.483  0.00  0.00    -0.330 OA
ATOM      6  C13 ZIN A   1      19.527   3.391  11.971  0.00  0.00     0.169 C 
ATOM      7  C15 ZIN A   1      19.635   2.328  10.852  0.00  0.00     0.041 C 
ATOM      8  C16 ZIN A   1      18.665   1.220  11.248  0.00  0.00     0.004 C 
ATOM      9  C18 ZIN A   1      19.056  -0.191  10.850  0.00  0.00    -0.001 C 
ATOM     10  C20 ZIN A   1      19.172  -0.291   9.328  0.00  0.00     0.010 C 
ATOM     11  C21 ZIN A   1      19.609  -1.707   8.936  0.00  0.00     0.036 C 
ATOM     12  C22 ZIN A   1      18.629  -2.690   9.549  0.00  0.00    -0.064 A 
ATOM     13  C23 ZIN A   1      18.067  -3.606   8.773  0.00  0.00     0.058 A 
ATOM     14  C24 ZIN A   1      17.097  -4.564   9.326  0.00  0.00     0.172 A 
ATOM     15  O25 ZIN A   1      16.609  -5.429   8.626  0.00  0.00    -0.289 OA
ATOM     16  C26 ZIN A   1      16.734  -4.452  10.749  0.00  0.00     0.052 A 
ATOM     17  C27 ZIN A   1      17.312  -3.534  11.508  0.00  0.00    -0.009 A 
ATOM     18  C28 ZIN A   1      18.345  -2.577  11.018  0.00  0.00     0.004 A 
ATOM     19  C29 ZIN A   1      19.646  -2.866  11.769  0.00  0.00     0.025 C 
ATOM     20  C30 ZIN A   1      17.959  -1.137  11.364  0.00  0.00     0.035 C 
ATOM     21  C32 ZIN A   1      17.771  -1.012  12.873  0.00  0.00     0.124 C 
ATOM     22  C35 ZIN A   1      17.508   0.442  13.294  0.00  0.00     0.044 C 
ATOM     23  C36 ZIN A   1      18.676   1.295  12.836  0.00  0.00    -0.000 C 
ATOM     24  C37 ZIN A   1      19.989   0.735  13.386  0.00  0.00     0.019 C 
ENDROOT
BRANCH   1  25
ATOM     25  C6  ZIN A   1      18.920   3.226  14.470  0.00  0.00     0.184 C 
ATOM     26  O7  ZIN A   1      19.630   4.186  14.653  0.00  0.00    -0.293 OA
BRANCH  25  27
ATOM     27  C5  ZIN A   1      18.382   2.451  15.644  0.00  0.00     0.260 C 
BRANCH  27  28
ATOM     28  O4  ZIN A   1      19.461   2.169  16.573  0.00  0.00    -0.314 OA
BRANCH  28  29
ATOM     29  C2  ZIN A   1      19.295   1.126  17.402  0.00  0.00     0.255 C 
ATOM     30  C1  ZIN A   1      18.543  -0.094  16.937  0.00  0.00     0.126 C 
ATOM     31  O3  ZIN A   1      19.747   1.167  18.522  0.00  0.00    -0.266 OA
ENDBRANCH  28  29
ENDBRANCH  27  28
ENDBRANCH  25  27
ENDBRANCH   1  25
BRANCH  21  32
ATOM     32  O34 ZIN A   1      18.951  -1.479  13.530  0.00  0.00    -0.395 OA
ATOM     33  H58 ZIN A   1      18.778  -2.019  14.313  0.00  0.00     0.210 HD
ENDBRANCH  21  32
TORSDOF 5
ENDMDL
MODEL 3
REMARK VINA RESULT:      -8.9      2.980      8.035
REMARK  5 active torsions:
REMARK  status: ('A' for Active; 'I' for Inactive)
REMARK    1  A    between atoms: C2_2  and  O4_4 
REMARK    2  A    between atoms: O4_4  and  C5_5 
REMARK    3  A    between atoms: C5_5  and  C6_6 
REMARK    4  A    between atoms: C6_6  and  C8_8 
REMARK    5  A    between atoms: C32_28  and  O34_29 
ROOT
ATOM      1  C8  ZIN A   1      19.041  -0.359  12.026  0.00  0.00     0.152 C 
ATOM      2  N9  ZIN A   1      17.945   0.557  11.657  0.00  0.00    -0.248 NA
ATOM      3  C10 ZIN A   1      18.437   1.566  11.032  0.00  0.00     0.132 C 
ATOM      4  C11 ZIN A   1      17.590   2.694  10.501  0.00  0.00     0.099 C 
ATOM      5  O12 ZIN A   1      19.775   1.528  10.891  0.00  0.00    -0.330 OA
ATOM      6  C13 ZIN A   1      20.211   0.177  11.133  0.00  0.00     0.169 C 
ATOM      7  C15 ZIN A   1      20.155  -0.605   9.800  0.00  0.00     0.041 C 
ATOM      8  C16 ZIN A   1      18.906  -1.476   9.890  0.00  0.00     0.004 C 
ATOM      9  C18 ZIN A   1      18.968  -2.818   9.185  0.00  0.00    -0.001 C 
ATOM     10  C20 ZIN A   1      19.198  -2.610   7.687  0.00  0.00     0.010 C 
ATOM     11  C21 ZIN A   1      19.302  -3.970   6.988  0.00  0.00     0.036 C 
ATOM     12  C22 ZIN A   1      18.055  -4.768   7.319  0.00  0.00    -0.064 A 
ATOM     13  C23 ZIN A   1      17.357  -5.309   6.330  0.00  0.00     0.058 A 
ATOM     14  C24 ZIN A   1      16.132  -6.073   6.610  0.00  0.00     0.172 A 
ATOM     15  O25 ZIN A   1      15.510  -6.604   5.709  0.00  0.00    -0.289 OA
ATOM     16  C26 ZIN A   1      15.675  -6.183   8.006  0.00  0.00     0.052 A 
ATOM     17  C27 ZIN A   1      16.391  -5.639   8.978  0.00  0.00    -0.009 A 
ATOM     18  C28 ZIN A   1      17.671  -4.907   8.762  0.00  0.00     0.004 A 
ATOM     19  C29 ZIN A   1      18.782  -5.687   9.468  0.00  0.00     0.025 C 
ATOM     20  C30 ZIN A   1      17.626  -3.528   9.425  0.00  0.00     0.035 C 
ATOM     21  C32 ZIN A   1      17.334  -3.690  10.914  0.00  0.00     0.124 C 
ATOM     22  C35 ZIN A   1      17.404  -2.346  11.655  0.00  0.00     0.044 C 
ATOM     23  C36 ZIN A   1      18.786  -1.754  11.451  0.00  0.00    -0.000 C 
ATOM     24  C37 ZIN A   1      19.860  -2.748  11.898  0.00  0.00     0.019 C 
ENDROOT
BRANCH   1  25
ATOM     25  C6  ZIN A   1      19.349  -0.363  13.500  0.00  0.00     0.184 C 
ATOM     26  O7  ZIN A   1      20.414   0.050  13.895  0.00  0.00    -0.293 OA
BRANCH  25  27
ATOM     27  C5  ZIN A   1      18.330  -0.879  14.482  0.00  0.00     0.260 C 
BRANCH  27  28
ATOM     28  O4  ZIN A   1      18.999  -1.277  15.708  0.00  0.00    -0.314 OA
BRANCH  28  29
ATOM     29  C2  ZIN A   1      18.549  -0.735  16.851  0.00  0.00     0.255 C 
ATOM     30  C1  ZIN A   1      17.114  -0.289  16.960  0.00  0.00     0.126 C 
ATOM     31  O3  ZIN A   1      19.295  -0.603  17.792  0.00  0.00    -0.266 OA
ENDBRANCH  28  29
ENDBRANCH  27  28
ENDBRANCH  25  27
ENDBRANCH   1  25
BRANCH  21  32
ATOM     32  O34 ZIN A   1      18.293  -4.585  11.482  0.00  0.00    -0.395 OA
ATOM     33  H58 ZIN A   1      18.311  -4.580  12.448  0.00  0.00     0.210 HD
ENDBRANCH  21  32
TORSDOF 5
ENDMDL
MODEL 4
REMARK VINA RESULT:      -8.8      2.139      2.981
REMARK  5 active torsions:
REMARK  status: ('A' for Active; 'I' for Inactive)
REMARK    1  A    between atoms: C2_2  and  O4_4 
REMARK    2  A    between atoms: O4_4  and  C5_5 
REMARK    3  A    between atoms: C5_5  and  C6_6 
REMARK    4  A    between atoms: C6_6  and  C8_8 
REMARK    5  A    between atoms: C32_28  and  O34_29 
ROOT
ATOM      1  C8  ZIN A   1      18.424  -4.822   9.227  0.00  0.00     0.152 C 
ATOM      2  N9  ZIN A   1      17.139  -4.814   8.504  0.00  0.00    -0.248 NA
ATOM      3  C10 ZIN A   1      16.292  -5.533   9.150  0.00  0.00     0.132 C 
ATOM      4  C11 ZIN A   1      14.870  -5.732   8.693  0.00  0.00     0.099 C 
ATOM      5  O12 ZIN A   1      16.785  -6.092  10.270  0.00  0.00    -0.330 OA
ATOM      6  C13 ZIN A   1      17.997  -5.395  10.621  0.00  0.00     0.169 C 
ATOM      7  C15 ZIN A   1      17.630  -4.186  11.512  0.00  0.00     0.041 C 
ATOM      8  C16 ZIN A   1      17.730  -2.965  10.604  0.00  0.00     0.004 C 
ATOM      9  C18 ZIN A   1      18.176  -1.672  11.260  0.00  0.00    -0.001 C 
ATOM     10  C20 ZIN A   1      17.182  -1.271  12.353  0.00  0.00     0.010 C 
ATOM     11  C21 ZIN A   1      17.660   0.012  13.040  0.00  0.00     0.036 C 
ATOM     12  C22 ZIN A   1      17.867   1.070  11.973  0.00  0.00    -0.064 A 
ATOM     13  C23 ZIN A   1      17.297   2.257  12.125  0.00  0.00     0.058 A 
ATOM     14  C24 ZIN A   1      17.459   3.302  11.103  0.00  0.00     0.172 A 
ATOM     15  O25 ZIN A   1      16.969   4.405  11.257  0.00  0.00    -0.289 OA
ATOM     16  C26 ZIN A   1      18.229   2.984   9.889  0.00  0.00     0.052 A 
ATOM     17  C27 ZIN A   1      18.796   1.794   9.760  0.00  0.00    -0.009 A 
ATOM     18  C28 ZIN A   1      18.718   0.718  10.789  0.00  0.00     0.004 A 
ATOM     19  C29 ZIN A   1      20.136   0.450  11.295  0.00  0.00     0.025 C 
ATOM     20  C30 ZIN A   1      18.229  -0.592  10.167  0.00  0.00     0.035 C 
ATOM     21  C32 ZIN A   1      19.161  -0.992   9.028  0.00  0.00     0.124 C 
ATOM     22  C35 ZIN A   1      18.792  -2.367   8.449  0.00  0.00     0.044 C 
ATOM     23  C36 ZIN A   1      18.855  -3.393   9.565  0.00  0.00    -0.000 C 
ATOM     24  C37 ZIN A   1      20.232  -3.367  10.233  0.00  0.00     0.019 C 
ENDROOT
BRANCH   1  25
ATOM     25  C6  ZIN A   1      19.496  -5.626   8.538  0.00  0.00     0.184 C 
ATOM     26  O7  ZIN A   1      20.161  -6.412   9.171  0.00  0.00    -0.293 OA
BRANCH  25  27
ATOM     27  C5  ZIN A   1      19.736  -5.453   7.061  0.00  0.00     0.260 C 
BRANCH  27  28
ATOM     28  O4  ZIN A   1      19.145  -6.566   6.341  0.00  0.00    -0.314 OA
BRANCH  28  29
ATOM     29  C2  ZIN A   1      18.283  -6.266   5.356  0.00  0.00     0.255 C 
ATOM     30  C1  ZIN A   1      17.915  -4.829   5.090  0.00  0.00     0.126 C 
ATOM     31  O3  ZIN A   1      17.803  -7.148   4.684  0.00  0.00    -0.266 OA
ENDBRANCH  28  29
ENDBRANCH  27  28
ENDBRANCH  25  27
ENDBRANCH   1  25
BRANCH  21  32
ATOM     32  O34 ZIN A   1      20.503  -1.039   9.518  0.00  0.00    -0.395 OA
ATOM     33  H58 ZIN A   1      20.586  -0.817  10.455  0.00  0.00     0.210 HD
ENDBRANCH  21  32
TORSDOF 5
ENDMDL
MODEL 5
REMARK VINA RESULT:      -8.3      2.821      7.489
REMARK  5 active torsions:
REMARK  status: ('A' for Active; 'I' for Inactive)
REMARK    1  A    between atoms: C2_2  and  O4_4 
REMARK    2  A    between atoms: O4_4  and  C5_5 
REMARK    3  A    between atoms: C5_5  and  C6_6 
REMARK    4  A    between atoms: C6_6  and  C8_8 
REMARK    5  A    between atoms: C32_28  and  O34_29 
ROOT
ATOM      1  C8  ZIN A   1      18.471   3.089  14.042  0.00  0.00     0.152 C 
ATOM      2  N9  ZIN A   1      17.082   3.580  13.983  0.00  0.00    -0.248 NA
ATOM      3  C10 ZIN A   1      17.096   4.858  13.860  0.00  0.00     0.132 C 
ATOM      4  C11 ZIN A   1      15.840   5.686  13.760  0.00  0.00     0.099 C 
ATOM      5  O12 ZIN A   1      18.329   5.396  13.828  0.00  0.00    -0.330 OA
ATOM      6  C13 ZIN A   1      19.268   4.341  13.541  0.00  0.00     0.169 C 
ATOM      7  C15 ZIN A   1      19.402   4.205  12.006  0.00  0.00     0.041 C 
ATOM      8  C16 ZIN A   1      18.593   2.967  11.634  0.00  0.00     0.004 C 
ATOM      9  C18 ZIN A   1      19.103   2.157  10.457  0.00  0.00    -0.001 C 
ATOM     10  C20 ZIN A   1      19.108   3.020   9.194  0.00  0.00     0.010 C 
ATOM     11  C21 ZIN A   1      19.664   2.210   8.018  0.00  0.00     0.036 C 
ATOM     12  C22 ZIN A   1      18.849   0.936   7.895  0.00  0.00    -0.064 A 
ATOM     13  C23 ZIN A   1      18.330   0.615   6.718  0.00  0.00     0.058 A 
ATOM     14  C24 ZIN A   1      17.518  -0.601   6.564  0.00  0.00     0.172 A 
ATOM     15  O25 ZIN A   1      17.073  -0.918   5.477  0.00  0.00    -0.289 OA
ATOM     16  C26 ZIN A   1      17.259  -1.428   7.754  0.00  0.00     0.052 A 
ATOM     17  C27 ZIN A   1      17.792  -1.093   8.919  0.00  0.00    -0.009 A 
ATOM     18  C28 ZIN A   1      18.672   0.092   9.123  0.00  0.00     0.004 A 
ATOM     19  C29 ZIN A   1      20.052  -0.415   9.545  0.00  0.00     0.025 C 
ATOM     20  C30 ZIN A   1      18.160   0.956  10.278  0.00  0.00     0.035 C 
ATOM     21  C32 ZIN A   1      18.080   0.111  11.546  0.00  0.00     0.124 C 
ATOM     22  C35 ZIN A   1      17.693   0.958  12.769  0.00  0.00     0.044 C 
ATOM     23  C36 ZIN A   1      18.721   2.061  12.936  0.00  0.00    -0.000 C 
ATOM     24  C37 ZIN A   1      20.127   1.466  13.032  0.00  0.00     0.019 C 
ENDROOT
BRANCH   1  25
ATOM     25  C6  ZIN A   1      18.882   2.611  15.411  0.00  0.00     0.184 C 
ATOM     26  O7  ZIN A   1      19.742   3.200  16.022  0.00  0.00    -0.293 OA
BRANCH  25  27
ATOM     27  C5  ZIN A   1      18.220   1.401  16.016  0.00  0.00     0.260 C 
BRANCH  27  28
ATOM     28  O4  ZIN A   1      19.206   0.351  16.199  0.00  0.00    -0.314 OA
BRANCH  28  29
ATOM     29  C2  ZIN A   1      18.883  -0.872  15.750  0.00  0.00     0.255 C 
ATOM     30  C1  ZIN A   1      17.786  -1.657  16.422  0.00  0.00     0.126 C 
ATOM     31  O3  ZIN A   1      19.474  -1.345  14.808  0.00  0.00    -0.266 OA
ENDBRANCH  28  29
ENDBRANCH  27  28
ENDBRANCH  25  27
ENDBRANCH   1  25
BRANCH  21  32
ATOM     32  O34 ZIN A   1      19.352  -0.494  11.784  0.00  0.00    -0.395 OA
ATOM     33  H58 ZIN A   1      19.552  -1.234  11.194  0.00  0.00     0.210 HD
ENDBRANCH  21  32
TORSDOF 5
ENDMDL
MODEL 6
REMARK VINA RESULT:      -8.3      2.695      8.017
REMARK  5 active torsions:
REMARK  status: ('A' for Active; 'I' for Inactive)
REMARK    1  A    between atoms: C2_2  and  O4_4 
REMARK    2  A    between atoms: O4_4  and  C5_5 
REMARK    3  A    between atoms: C5_5  and  C6_6 
REMARK    4  A    between atoms: C6_6  and  C8_8 
REMARK    5  A    between atoms: C32_28  and  O34_29 
ROOT
ATOM      1  C8  ZIN A   1      18.559   2.863  13.508  0.00  0.00     0.152 C 
ATOM      2  N9  ZIN A   1      17.262   3.383  13.038  0.00  0.00    -0.248 NA
ATOM      3  C10 ZIN A   1      17.472   4.366  12.239  0.00  0.00     0.132 C 
ATOM      4  C11 ZIN A   1      16.359   5.126  11.564  0.00  0.00     0.099 C 
ATOM      5  O12 ZIN A   1      18.772   4.660  12.055  0.00  0.00    -0.330 OA
ATOM      6  C13 ZIN A   1      19.551   3.532  12.497  0.00  0.00     0.169 C 
ATOM      7  C15 ZIN A   1      19.714   2.551  11.312  0.00  0.00     0.041 C 
ATOM      8  C16 ZIN A   1      18.742   1.410  11.589  0.00  0.00     0.004 C 
ATOM      9  C18 ZIN A   1      19.164   0.034  11.110  0.00  0.00    -0.001 C 
ATOM     10  C20 ZIN A   1      19.340   0.042   9.591  0.00  0.00     0.010 C 
ATOM     11  C21 ZIN A   1      19.807  -1.339   9.118  0.00  0.00     0.036 C 
ATOM     12  C22 ZIN A   1      18.815  -2.371   9.621  0.00  0.00    -0.064 A 
ATOM     13  C23 ZIN A   1      18.293  -3.234   8.761  0.00  0.00     0.058 A 
ATOM     14  C24 ZIN A   1      17.313  -4.237   9.208  0.00  0.00     0.172 A 
ATOM     15  O25 ZIN A   1      16.862  -5.055   8.429  0.00  0.00    -0.289 OA
ATOM     16  C26 ZIN A   1      16.894  -4.229  10.619  0.00  0.00     0.052 A 
ATOM     17  C27 ZIN A   1      17.432  -3.361  11.462  0.00  0.00    -0.009 A 
ATOM     18  C28 ZIN A   1      18.473  -2.364  11.082  0.00  0.00     0.004 A 
ATOM     19  C29 ZIN A   1      19.746  -2.695  11.862  0.00  0.00     0.025 C 
ATOM     20  C30 ZIN A   1      18.058  -0.955  11.513  0.00  0.00     0.035 C 
ATOM     21  C32 ZIN A   1      17.810  -0.938  13.018  0.00  0.00     0.124 C 
ATOM     22  C35 ZIN A   1      17.514   0.481  13.528  0.00  0.00     0.044 C 
ATOM     23  C36 ZIN A   1      18.690   1.374  13.178  0.00  0.00    -0.000 C 
ATOM     24  C37 ZIN A   1      19.986   0.787  13.740  0.00  0.00     0.019 C 
ENDROOT
BRANCH   1  25
ATOM     25  C6  ZIN A   1      18.848   3.186  14.951  0.00  0.00     0.184 C 
ATOM     26  O7  ZIN A   1      18.452   2.452  15.825  0.00  0.00    -0.293 OA
BRANCH  25  27
ATOM     27  C5  ZIN A   1      19.633   4.423  15.304  0.00  0.00     0.260 C 
BRANCH  27  28
ATOM     28  O4  ZIN A   1      18.719   5.474  15.715  0.00  0.00    -0.314 OA
BRANCH  28  29
ATOM     29  C2  ZIN A   1      18.750   6.618  15.012  0.00  0.00     0.255 C 
ATOM     30  C1  ZIN A   1      17.463   7.279  14.590  0.00  0.00     0.126 C 
ATOM     31  O3  ZIN A   1      19.811   7.117  14.718  0.00  0.00    -0.266 OA
ENDBRANCH  28  29
ENDBRANCH  27  28
ENDBRANCH  25  27
ENDBRANCH   1  25
BRANCH  21  32
ATOM     32  O34 ZIN A   1      18.968  -1.440  13.687  0.00  0.00    -0.395 OA
ATOM     33  H58 ZIN A   1      19.046  -1.153  14.607  0.00  0.00     0.210 HD
ENDBRANCH  21  32
TORSDOF 5
ENDMDL
MODEL 7
REMARK VINA RESULT:      -8.1      2.201      3.620
REMARK  5 active torsions:
REMARK  status: ('A' for Active; 'I' for Inactive)
REMARK    1  A    between atoms: C2_2  and  O4_4 
REMARK    2  A    between atoms: O4_4  and  C5_5 
REMARK    3  A    between atoms: C5_5  and  C6_6 
REMARK    4  A    between atoms: C6_6  and  C8_8 
REMARK    5  A    between atoms: C32_28  and  O34_29 
ROOT
ATOM      1  C8  ZIN A   1      19.073   0.518  10.895  0.00  0.00     0.152 C 
ATOM      2  N9  ZIN A   1      17.910  -0.354  11.143  0.00  0.00    -0.248 NA
ATOM      3  C10 ZIN A   1      18.313  -1.436  11.706  0.00  0.00     0.132 C 
ATOM      4  C11 ZIN A   1      17.377  -2.546  12.110  0.00  0.00     0.099 C 
ATOM      5  O12 ZIN A   1      19.642  -1.492  11.906  0.00  0.00    -0.330 OA
ATOM      6  C13 ZIN A   1      20.168  -0.155  11.790  0.00  0.00     0.169 C 
ATOM      7  C15 ZIN A   1      20.095   0.525  13.178  0.00  0.00     0.041 C 
ATOM      8  C16 ZIN A   1      18.904   1.475  13.104  0.00  0.00     0.004 C 
ATOM      9  C18 ZIN A   1      19.011   2.753  13.915  0.00  0.00    -0.001 C 
ATOM     10  C20 ZIN A   1      19.158   2.417  15.401  0.00  0.00     0.010 C 
ATOM     11  C21 ZIN A   1      19.309   3.710  16.209  0.00  0.00     0.036 C 
ATOM     12  C22 ZIN A   1      18.127   4.606  15.891  0.00  0.00    -0.064 A 
ATOM     13  C23 ZIN A   1      17.416   5.113  16.889  0.00  0.00     0.058 A 
ATOM     14  C24 ZIN A   1      16.252   5.970  16.619  0.00  0.00     0.172 A 
ATOM     15  O25 ZIN A   1      15.621   6.468  17.532  0.00  0.00    -0.289 OA
ATOM     16  C26 ZIN A   1      15.869   6.215  15.218  0.00  0.00     0.052 A 
ATOM     17  C27 ZIN A   1      16.596   5.704  14.237  0.00  0.00    -0.009 A 
ATOM     18  C28 ZIN A   1      17.820   4.880  14.448  0.00  0.00     0.004 A 
ATOM     19  C29 ZIN A   1      19.006   5.641  13.854  0.00  0.00     0.025 C 
ATOM     20  C30 ZIN A   1      17.726   3.561  13.677  0.00  0.00     0.035 C 
ATOM     21  C32 ZIN A   1      17.514   3.854  12.194  0.00  0.00     0.124 C 
ATOM     22  C35 ZIN A   1      17.540   2.569  11.352  0.00  0.00     0.044 C 
ATOM     23  C36 ZIN A   1      18.874   1.879  11.567  0.00  0.00    -0.000 C 
ATOM     24  C37 ZIN A   1      20.024   2.836  11.246  0.00  0.00     0.019 C 
ENDROOT
BRANCH   1  25
ATOM     25  C6  ZIN A   1      19.451   0.616   9.439  0.00  0.00     0.184 C 
ATOM     26  O7  ZIN A   1      20.442   0.058   9.034  0.00  0.00    -0.293 OA
BRANCH  25  27
ATOM     27  C5  ZIN A   1      18.591   1.408   8.490  0.00  0.00     0.260 C 
BRANCH  27  28
ATOM     28  O4  ZIN A   1      19.173   1.367   7.160  0.00  0.00    -0.314 OA
BRANCH  28  29
ATOM     29  C2  ZIN A   1      18.548   0.610   6.244  0.00  0.00     0.255 C 
ATOM     30  C1  ZIN A   1      19.253   0.240   4.965  0.00  0.00     0.126 C 
ATOM     31  O3  ZIN A   1      17.420   0.226   6.446  0.00  0.00    -0.266 OA
ENDBRANCH  28  29
ENDBRANCH  27  28
ENDBRANCH  25  27
ENDBRANCH   1  25
BRANCH  21  32
ATOM     32  O34 ZIN A   1      18.549   4.729  11.740  0.00  0.00    -0.395 OA
ATOM     33  H58 ZIN A   1      18.309   5.665  11.759  0.00  0.00     0.210 HD
ENDBRANCH  21  32
TORSDOF 5
ENDMDL
MODEL 8
REMARK VINA RESULT:      -8.1      2.528      3.639
REMARK  5 active torsions:
REMARK  status: ('A' for Active; 'I' for Inactive)
REMARK    1  A    between atoms: C2_2  and  O4_4 
REMARK    2  A    between atoms: O4_4  and  C5_5 
REMARK    3  A    between atoms: C5_5  and  C6_6 
REMARK    4  A    between atoms: C6_6  and  C8_8 
REMARK    5  A    between atoms: C32_28  and  O34_29 
ROOT
ATOM      1  C8  ZIN A   1      17.566  -5.483   7.615  0.00  0.00     0.152 C 
ATOM      2  N9  ZIN A   1      16.112  -5.343   7.415  0.00  0.00    -0.248 NA
ATOM      3  C10 ZIN A   1      15.508  -6.246   8.099  0.00  0.00     0.132 C 
ATOM      4  C11 ZIN A   1      14.007  -6.383   8.131  0.00  0.00     0.099 C 
ATOM      5  O12 ZIN A   1      16.330  -7.060   8.787  0.00  0.00    -0.330 OA
ATOM      6  C13 ZIN A   1      17.622  -6.426   8.864  0.00  0.00     0.169 C 
ATOM      7  C15 ZIN A   1      17.650  -5.515  10.115  0.00  0.00     0.041 C 
ATOM      8  C16 ZIN A   1      17.489  -4.094   9.587  0.00  0.00     0.004 C 
ATOM      9  C18 ZIN A   1      18.201  -3.002  10.365  0.00  0.00    -0.001 C 
ATOM     10  C20 ZIN A   1      17.670  -2.954  11.799  0.00  0.00     0.010 C 
ATOM     11  C21 ZIN A   1      18.422  -1.879  12.591  0.00  0.00     0.036 C 
ATOM     12  C22 ZIN A   1      18.299  -0.566  11.840  0.00  0.00    -0.064 A 
ATOM     13  C23 ZIN A   1      17.878   0.509  12.490  0.00  0.00     0.058 A 
ATOM     14  C24 ZIN A   1      17.726   1.795  11.792  0.00  0.00     0.172 A 
ATOM     15  O25 ZIN A   1      17.377   2.793  12.394  0.00  0.00    -0.289 OA
ATOM     16  C26 ZIN A   1      18.010   1.848  10.348  0.00  0.00     0.052 A 
ATOM     17  C27 ZIN A   1      18.435   0.763   9.719  0.00  0.00    -0.009 A 
ATOM     18  C28 ZIN A   1      18.666  -0.550  10.386  0.00  0.00     0.004 A 
ATOM     19  C29 ZIN A   1      20.156  -0.877  10.276  0.00  0.00     0.025 C 
ATOM     20  C30 ZIN A   1      17.925  -1.670   9.650  0.00  0.00     0.035 C 
ATOM     21  C32 ZIN A   1      18.381  -1.708   8.194  0.00  0.00     0.124 C 
ATOM     22  C35 ZIN A   1      17.765  -2.896   7.438  0.00  0.00     0.044 C 
ATOM     23  C36 ZIN A   1      18.160  -4.177   8.147  0.00  0.00    -0.000 C 
ATOM     24  C37 ZIN A   1      19.683  -4.265   8.275  0.00  0.00     0.019 C 
ENDROOT
BRANCH   1  25
ATOM     25  C6  ZIN A   1      18.290  -6.025   6.409  0.00  0.00     0.184 C 
ATOM     26  O7  ZIN A   1      19.389  -6.511   6.532  0.00  0.00    -0.293 OA
BRANCH  25  27
ATOM     27  C5  ZIN A   1      17.642  -5.961   5.050  0.00  0.00     0.260 C 
BRANCH  27  28
ATOM     28  O4  ZIN A   1      17.916  -4.671   4.444  0.00  0.00    -0.314 OA
BRANCH  28  29
ATOM     29  C2  ZIN A   1      16.856  -3.917   4.109  0.00  0.00     0.255 C 
ATOM     30  C1  ZIN A   1      17.004  -2.423   3.982  0.00  0.00     0.126 C 
ATOM     31  O3  ZIN A   1      15.783  -4.437   3.911  0.00  0.00    -0.266 OA
ENDBRANCH  28  29
ENDBRANCH  27  28
ENDBRANCH  25  27
ENDBRANCH   1  25
BRANCH  21  32
ATOM     32  O34 ZIN A   1      19.805  -1.821   8.155  0.00  0.00    -0.395 OA
ATOM     33  H58 ZIN A   1      20.191  -1.630   7.290  0.00  0.00     0.210 HD
ENDBRANCH  21  32
TORSDOF 5
ENDMDL
MODEL 9
REMARK VINA RESULT:      -7.9      1.163      2.097
REMARK  5 active torsions:
REMARK  status: ('A' for Active; 'I' for Inactive)
REMARK    1  A    between atoms: C2_2  and  O4_4 
REMARK    2  A    between atoms: O4_4  and  C5_5 
REMARK    3  A    between atoms: C5_5  and  C6_6 
REMARK    4  A    between atoms: C6_6  and  C8_8 
REMARK    5  A    between atoms: C32_28  and  O34_29 
ROOT
ATOM      1  C8  ZIN A   1      18.623  -2.315   9.168  0.00  0.00     0.152 C 
ATOM      2  N9  ZIN A   1      17.309  -2.858   9.559  0.00  0.00    -0.248 NA
ATOM      3  C10 ZIN A   1      17.488  -3.876  10.321  0.00  0.00     0.132 C 
ATOM      4  C11 ZIN A   1      16.349  -4.667  10.912  0.00  0.00     0.099 C 
ATOM      5  O12 ZIN A   1      18.780  -4.175  10.547  0.00  0.00    -0.330 OA
ATOM      6  C13 ZIN A   1      19.573  -3.026  10.190  0.00  0.00     0.169 C 
ATOM      7  C15 ZIN A   1      19.681  -2.100  11.424  0.00  0.00     0.041 C 
ATOM      8  C16 ZIN A   1      18.717  -0.949  11.156  0.00  0.00     0.004 C 
ATOM      9  C18 ZIN A   1      19.113   0.405  11.714  0.00  0.00    -0.001 C 
ATOM     10  C20 ZIN A   1      19.224   0.330  13.238  0.00  0.00     0.010 C 
ATOM     11  C21 ZIN A   1      19.665   1.689  13.791  0.00  0.00     0.036 C 
ATOM     12  C22 ZIN A   1      18.692   2.740  13.292  0.00  0.00    -0.064 A 
ATOM     13  C23 ZIN A   1      18.130   3.563  14.166  0.00  0.00     0.058 A 
ATOM     14  C24 ZIN A   1      17.167   4.583  13.723  0.00  0.00     0.172 A 
ATOM     15  O25 ZIN A   1      16.679   5.365  14.518  0.00  0.00    -0.289 OA
ATOM     16  C26 ZIN A   1      16.808   4.637  12.296  0.00  0.00     0.052 A 
ATOM     17  C27 ZIN A   1      17.385   3.810  11.439  0.00  0.00    -0.009 A 
ATOM     18  C28 ZIN A   1      18.412   2.798  11.819  0.00  0.00     0.004 A 
ATOM     19  C29 ZIN A   1      19.717   3.165  11.110  0.00  0.00     0.025 C 
ATOM     20  C30 ZIN A   1      18.022   1.409  11.309  0.00  0.00     0.035 C 
ATOM     21  C32 ZIN A   1      17.838   1.459   9.794  0.00  0.00     0.124 C 
ATOM     22  C35 ZIN A   1      17.570   0.064   9.209  0.00  0.00     0.044 C 
ATOM     23  C36 ZIN A   1      18.733  -0.842   9.569  0.00  0.00    -0.000 C 
ATOM     24  C37 ZIN A   1      20.051  -0.228   9.091  0.00  0.00     0.019 C 
ENDROOT
BRANCH   1  25
ATOM     25  C6  ZIN A   1      18.975  -2.573   7.726  0.00  0.00     0.184 C 
ATOM     26  O7  ZIN A   1      18.432  -1.941   6.850  0.00  0.00    -0.293 OA
BRANCH  25  27
ATOM     27  C5  ZIN A   1      20.003  -3.616   7.376  0.00  0.00     0.260 C 
BRANCH  27  28
ATOM     28  O4  ZIN A   1      19.364  -4.703   6.655  0.00  0.00    -0.314 OA
BRANCH  28  29
ATOM     29  C2  ZIN A   1      19.193  -5.857   7.319  0.00  0.00     0.255 C 
ATOM     30  C1  ZIN A   1      18.116  -6.820   6.892  0.00  0.00     0.126 C 
ATOM     31  O3  ZIN A   1      19.902  -6.123   8.261  0.00  0.00    -0.266 OA
ENDBRANCH  28  29
ENDBRANCH  27  28
ENDBRANCH  25  27
ENDBRANCH   1  25
BRANCH  21  32
ATOM     32  O34 ZIN A   1      19.023   1.993   9.199  0.00  0.00    -0.395 OA
ATOM     33  H58 ZIN A   1      19.316   1.515   8.411  0.00  0.00     0.210 HD
ENDBRANCH  21  32
TORSDOF 5
ENDMDL
