MODEL 1
REMARK VINA RESULT:      -7.4      0.000      0.000
REMARK  3 active torsions:
REMARK  status: ('A' for Active; 'I' for Inactive)
REMARK    1  A    between atoms: C2_2  and  C4_4 
REMARK    2  A    between atoms: C9_8  and  C10_9 
REMARK    3  A    between atoms: C10_9  and  C12_11 
ROOT
ATOM      1  C4  <0> d   1      18.739   3.258  10.472  0.00  0.00     0.138 C 
ATOM      2  C6  <0> d   1      19.556   3.529  11.755  0.00  0.00     0.042 C 
ATOM      3  C7  <0> d   1      19.945   2.101  12.191  0.00  0.00     0.130 C 
ATOM      4  N8  <0> d   1      18.904   1.220  11.635  0.00  0.00    -0.346 N 
ATOM      5  C9  <0> d   1      18.394  -0.057  11.783  0.00  0.00     0.086 A 
ATOM      6  C18 <0> d   1      17.370  -0.205  10.870  0.00  0.00     0.036 A 
ATOM      7  C19 <0> d   1      17.266   0.999  10.171  0.00  0.00     0.028 A 
ATOM      8  C20 <0> d   1      18.209   1.848  10.654  0.00  0.00     0.026 A 
ENDROOT
BRANCH   5   9
ATOM      9  C10 <0> d   1      18.857  -1.069  12.735  0.00  0.00     0.208 C 
ATOM     10  O11 <0> d   1      19.460  -2.049  12.336  0.00  0.00    -0.285 OA
BRANCH   9  11
ATOM     11  C12 <0> d   1      18.592  -0.901  14.180  0.00  0.00     0.016 A 
ATOM     12  C17 <0> d   1      19.324  -1.633  15.116  0.00  0.00     0.015 A 
ATOM     13  C16 <0> d   1      19.076  -1.467  16.463  0.00  0.00     0.001 A 
ATOM     14  C15 <0> d   1      18.096  -0.586  16.886  0.00  0.00     0.000 A 
ATOM     15  C14 <0> d   1      17.364   0.139  15.962  0.00  0.00     0.001 A 
ATOM     16  C13 <0> d   1      17.606  -0.013  14.612  0.00  0.00     0.015 A 
ENDBRANCH   9  11
ENDBRANCH   5   9
BRANCH   1  17
ATOM     17  C2  <0> d   1      17.600   4.237  10.355  0.00  0.00     0.183 C 
ATOM     18  O1  <0> d   1      17.623   5.099   9.492  0.00  0.00    -0.647 OA
ATOM     19  O3  <0> d   1      16.652   4.165  11.119  0.00  0.00    -0.647 OA
ENDBRANCH   1  17
TORSDOF 3
ENDMDL
MODEL 2
REMARK VINA RESULT:      -7.3      3.991      5.970
REMARK  3 active torsions:
REMARK  status: ('A' for Active; 'I' for Inactive)
REMARK    1  A    between atoms: C2_2  and  C4_4 
REMARK    2  A    between atoms: C9_8  and  C10_9 
REMARK    3  A    between atoms: C10_9  and  C12_11 
ROOT
ATOM      1  C4  <0> d   1      18.473  -1.434   6.237  0.00  0.00     0.138 C 
ATOM      2  C6  <0> d   1      18.862  -2.517   7.267  0.00  0.00     0.042 C 
ATOM      3  C7  <0> d   1      18.705  -1.756   8.601  0.00  0.00     0.130 C 
ATOM      4  N8  <0> d   1      18.904  -0.335   8.272  0.00  0.00    -0.346 N 
ATOM      5  C9  <0> d   1      19.182   0.875   8.881  0.00  0.00     0.086 A 
ATOM      6  C18 <0> d   1      19.216   1.840   7.895  0.00  0.00     0.036 A 
ATOM      7  C19 <0> d   1      18.958   1.198   6.683  0.00  0.00     0.028 A 
ATOM      8  C20 <0> d   1      18.771  -0.122   6.939  0.00  0.00     0.026 A 
ENDROOT
BRANCH   5   9
ATOM      9  C10 <0> d   1      19.400   1.092  10.312  0.00  0.00     0.208 C 
ATOM     10  O11 <0> d   1      19.911   0.219  10.990  0.00  0.00    -0.285 OA
BRANCH   9  11
ATOM     11  C12 <0> d   1      19.001   2.373  10.935  0.00  0.00     0.016 A 
ATOM     12  C17 <0> d   1      17.674   2.803  10.866  0.00  0.00     0.015 A 
ATOM     13  C16 <0> d   1      17.308   3.996  11.455  0.00  0.00     0.001 A 
ATOM     14  C15 <0> d   1      18.254   4.771  12.102  0.00  0.00     0.000 A 
ATOM     15  C14 <0> d   1      19.571   4.352  12.170  0.00  0.00     0.001 A 
ATOM     16  C13 <0> d   1      19.950   3.158  11.591  0.00  0.00     0.015 A 
ENDBRANCH   9  11
ENDBRANCH   5   9
BRANCH   1  17
ATOM     17  C2  <0> d   1      19.310  -1.566   4.991  0.00  0.00     0.183 C 
ATOM     18  O1  <0> d   1      19.986  -0.626   4.608  0.00  0.00    -0.647 OA
ATOM     19  O3  <0> d   1      19.315  -2.615   4.368  0.00  0.00    -0.647 OA
ENDBRANCH   1  17
TORSDOF 3
ENDMDL
MODEL 3
REMARK VINA RESULT:      -7.3      2.886      6.174
REMARK  3 active torsions:
REMARK  status: ('A' for Active; 'I' for Inactive)
REMARK    1  A    between atoms: C2_2  and  C4_4 
REMARK    2  A    between atoms: C9_8  and  C10_9 
REMARK    3  A    between atoms: C10_9  and  C12_11 
ROOT
ATOM      1  C4  <0> d   1      19.256   0.012  16.351  0.00  0.00     0.138 C 
ATOM      2  C6  <0> d   1      18.537  -1.318  16.034  0.00  0.00     0.042 C 
ATOM      3  C7  <0> d   1      18.344  -1.218  14.506  0.00  0.00     0.130 C 
ATOM      4  N8  <0> d   1      18.319   0.223  14.204  0.00  0.00    -0.346 N 
ATOM      5  C9  <0> d   1      17.940   1.099  13.203  0.00  0.00     0.086 A 
ATOM      6  C18 <0> d   1      18.236   2.377  13.633  0.00  0.00     0.036 A 
ATOM      7  C19 <0> d   1      18.797   2.262  14.907  0.00  0.00     0.028 A 
ATOM      8  C20 <0> d   1      18.837   0.944  15.230  0.00  0.00     0.026 A 
ENDROOT
BRANCH   5   9
ATOM      9  C10 <0> d   1      17.335   0.738  11.921  0.00  0.00     0.208 C 
ATOM     10  O11 <0> d   1      16.237   0.211  11.892  0.00  0.00    -0.285 OA
BRANCH   9  11
ATOM     11  C12 <0> d   1      18.056   1.011  10.659  0.00  0.00     0.016 A 
ATOM     12  C17 <0> d   1      18.027   2.289  10.098  0.00  0.00     0.015 A 
ATOM     13  C16 <0> d   1      18.707   2.538   8.923  0.00  0.00     0.001 A 
ATOM     14  C15 <0> d   1      19.405   1.522   8.295  0.00  0.00     0.000 A 
ATOM     15  C14 <0> d   1      19.433   0.252   8.843  0.00  0.00     0.001 A 
ATOM     16  C13 <0> d   1      18.762  -0.010  10.021  0.00  0.00     0.015 A 
ENDBRANCH   9  11
ENDBRANCH   5   9
BRANCH   1  17
ATOM     17  C2  <0> d   1      18.803   0.552  17.683  0.00  0.00     0.183 C 
ATOM     18  O1  <0> d   1      19.623   0.976  18.479  0.00  0.00    -0.647 OA
ATOM     19  O3  <0> d   1      17.616   0.570  17.962  0.00  0.00    -0.647 OA
ENDBRANCH   1  17
TORSDOF 3
ENDMDL
MODEL 4
REMARK VINA RESULT:      -7.2      2.955      5.930
REMARK  3 active torsions:
REMARK  status: ('A' for Active; 'I' for Inactive)
REMARK    1  A    between atoms: C2_2  and  C4_4 
REMARK    2  A    between atoms: C9_8  and  C10_9 
REMARK    3  A    between atoms: C10_9  and  C12_11 
ROOT
ATOM      1  C4  <0> d   1      18.361   1.160  16.808  0.00  0.00     0.138 C 
ATOM      2  C6  <0> d   1      18.893   2.532  16.337  0.00  0.00     0.042 C 
ATOM      3  C7  <0> d   1      19.025   2.315  14.815  0.00  0.00     0.130 C 
ATOM      4  N8  <0> d   1      19.215   0.866  14.636  0.00  0.00    -0.346 N 
ATOM      5  C9  <0> d   1      19.654  -0.046  13.693  0.00  0.00     0.086 A 
ATOM      6  C18 <0> d   1      19.540  -1.305  14.248  0.00  0.00     0.036 A 
ATOM      7  C19 <0> d   1      19.029  -1.142  15.536  0.00  0.00     0.028 A 
ATOM      8  C20 <0> d   1      18.840   0.186  15.748  0.00  0.00     0.026 A 
ENDROOT
BRANCH   5   9
ATOM      9  C10 <0> d   1      20.149   0.267  12.352  0.00  0.00     0.208 C 
ATOM     10  O11 <0> d   1      21.303   0.624  12.196  0.00  0.00    -0.285 OA
BRANCH   9  11
ATOM     11  C12 <0> d   1      19.248   0.149  11.185  0.00  0.00     0.016 A 
ATOM     12  C17 <0> d   1      17.869   0.293  11.346  0.00  0.00     0.015 A 
ATOM     13  C16 <0> d   1      17.035   0.188  10.252  0.00  0.00     0.001 A 
ATOM     14  C15 <0> d   1      17.562  -0.072   8.999  0.00  0.00     0.000 A 
ATOM     15  C14 <0> d   1      18.928  -0.221   8.834  0.00  0.00     0.001 A 
ATOM     16  C13 <0> d   1      19.774  -0.112   9.919  0.00  0.00     0.015 A 
ENDBRANCH   9  11
ENDBRANCH   5   9
BRANCH   1  17
ATOM     17  C2  <0> d   1      18.940   0.802  18.152  0.00  0.00     0.183 C 
ATOM     18  O1  <0> d   1      18.431  -0.083  18.819  0.00  0.00    -0.647 OA
ATOM     19  O3  <0> d   1      19.919   1.395  18.572  0.00  0.00    -0.647 OA
ENDBRANCH   1  17
TORSDOF 3
ENDMDL
MODEL 5
REMARK VINA RESULT:      -7.1      2.072      3.242
REMARK  3 active torsions:
REMARK  status: ('A' for Active; 'I' for Inactive)
REMARK    1  A    between atoms: C2_2  and  C4_4 
REMARK    2  A    between atoms: C9_8  and  C10_9 
REMARK    3  A    between atoms: C10_9  and  C12_11 
ROOT
ATOM      1  C4  <0> d   1      18.356   3.802  11.241  0.00  0.00     0.138 C 
ATOM      2  C6  <0> d   1      18.280   3.860  12.783  0.00  0.00     0.042 C 
ATOM      3  C7  <0> d   1      18.616   2.405  13.172  0.00  0.00     0.130 C 
ATOM      4  N8  <0> d   1      18.222   1.584  12.015  0.00  0.00    -0.346 N 
ATOM      5  C9  <0> d   1      17.952   0.270  11.679  0.00  0.00     0.086 A 
ATOM      6  C18 <0> d   1      17.636   0.241  10.336  0.00  0.00     0.036 A 
ATOM      7  C19 <0> d   1      17.716   1.553   9.865  0.00  0.00     0.028 A 
ATOM      8  C20 <0> d   1      18.075   2.350  10.905  0.00  0.00     0.026 A 
ENDROOT
BRANCH   5   9
ATOM      9  C10 <0> d   1      17.994  -0.880  12.583  0.00  0.00     0.208 C 
ATOM     10  O11 <0> d   1      17.686  -0.746  13.753  0.00  0.00    -0.285 OA
BRANCH   9  11
ATOM     11  C12 <0> d   1      18.410  -2.205  12.075  0.00  0.00     0.016 A 
ATOM     12  C17 <0> d   1      17.450  -3.136  11.674  0.00  0.00     0.015 A 
ATOM     13  C16 <0> d   1      17.846  -4.368  11.196  0.00  0.00     0.001 A 
ATOM     14  C15 <0> d   1      19.190  -4.687  11.126  0.00  0.00     0.000 A 
ATOM     15  C14 <0> d   1      20.147  -3.771  11.527  0.00  0.00     0.001 A 
ATOM     16  C13 <0> d   1      19.765  -2.532  12.001  0.00  0.00     0.015 A 
ENDBRANCH   9  11
ENDBRANCH   5   9
BRANCH   1  17
ATOM     17  C2  <0> d   1      17.312   4.697  10.627  0.00  0.00     0.183 C 
ATOM     18  O1  <0> d   1      16.173   4.693  11.063  0.00  0.00    -0.647 OA
ATOM     19  O3  <0> d   1      17.606   5.428   9.696  0.00  0.00    -0.647 OA
ENDBRANCH   1  17
TORSDOF 3
ENDMDL
MODEL 6
REMARK VINA RESULT:      -6.9      3.253      4.070
REMARK  3 active torsions:
REMARK  status: ('A' for Active; 'I' for Inactive)
REMARK    1  A    between atoms: C2_2  and  C4_4 
REMARK    2  A    between atoms: C9_8  and  C10_9 
REMARK    3  A    between atoms: C10_9  and  C12_11 
ROOT
ATOM      1  C4  <0> d   1      19.338  -0.457   7.384  0.00  0.00     0.138 C 
ATOM      2  C6  <0> d   1      18.795   0.983   7.519  0.00  0.00     0.042 C 
ATOM      3  C7  <0> d   1      18.498   1.070   9.031  0.00  0.00     0.130 C 
ATOM      4  N8  <0> d   1      18.252  -0.316   9.465  0.00  0.00    -0.346 N 
ATOM      5  C9  <0> d   1      17.693  -1.024  10.514  0.00  0.00     0.086 A 
ATOM      6  C18 <0> d   1      17.831  -2.367  10.230  0.00  0.00     0.036 A 
ATOM      7  C19 <0> d   1      18.479  -2.462   8.997  0.00  0.00     0.028 A 
ATOM      8  C20 <0> d   1      18.724  -1.202   8.554  0.00  0.00     0.026 A 
ENDROOT
BRANCH   5   9
ATOM      9  C10 <0> d   1      17.068  -0.452  11.708  0.00  0.00     0.208 C 
ATOM     10  O11 <0> d   1      15.969   0.069  11.630  0.00  0.00    -0.285 OA
BRANCH   9  11
ATOM     11  C12 <0> d   1      17.769  -0.507  13.008  0.00  0.00     0.016 A 
ATOM     12  C17 <0> d   1      18.811  -1.414  13.205  0.00  0.00     0.015 A 
ATOM     13  C16 <0> d   1      19.465  -1.456  14.420  0.00  0.00     0.001 A 
ATOM     14  C15 <0> d   1      19.081  -0.610  15.445  0.00  0.00     0.000 A 
ATOM     15  C14 <0> d   1      18.044   0.288  15.258  0.00  0.00     0.001 A 
ATOM     16  C13 <0> d   1      17.386   0.345  14.046  0.00  0.00     0.015 A 
ENDBRANCH   9  11
ENDBRANCH   5   9
BRANCH   1  17
ATOM     17  C2  <0> d   1      18.895  -1.068   6.079  0.00  0.00     0.183 C 
ATOM     18  O1  <0> d   1      19.707  -1.621   5.358  0.00  0.00    -0.647 OA
ATOM     19  O3  <0> d   1      17.723  -1.012   5.747  0.00  0.00    -0.647 OA
ENDBRANCH   1  17
TORSDOF 3
ENDMDL
MODEL 7
REMARK VINA RESULT:      -6.9      4.113      5.193
REMARK  3 active torsions:
REMARK  status: ('A' for Active; 'I' for Inactive)
REMARK    1  A    between atoms: C2_2  and  C4_4 
REMARK    2  A    between atoms: C9_8  and  C10_9 
REMARK    3  A    between atoms: C10_9  and  C12_11 
ROOT
ATOM      1  C4  <0> d   1      18.817  -0.734   6.470  0.00  0.00     0.138 C 
ATOM      2  C6  <0> d   1      17.537  -0.026   6.965  0.00  0.00     0.042 C 
ATOM      3  C7  <0> d   1      17.482  -0.468   8.443  0.00  0.00     0.130 C 
ATOM      4  N8  <0> d   1      18.201  -1.751   8.499  0.00  0.00    -0.346 N 
ATOM      5  C9  <0> d   1      18.356  -2.854   9.319  0.00  0.00     0.086 A 
ATOM      6  C18 <0> d   1      19.241  -3.713   8.699  0.00  0.00     0.036 A 
ATOM      7  C19 <0> d   1      19.616  -3.116   7.494  0.00  0.00     0.028 A 
ATOM      8  C20 <0> d   1      18.971  -1.925   7.396  0.00  0.00     0.026 A 
ENDROOT
BRANCH   5   9
ATOM      9  C10 <0> d   1      17.701  -3.072  10.610  0.00  0.00     0.208 C 
ATOM     10  O11 <0> d   1      16.946  -4.015  10.759  0.00  0.00    -0.285 OA
BRANCH   9  11
ATOM     11  C12 <0> d   1      17.957  -2.146  11.734  0.00  0.00     0.016 A 
ATOM     12  C17 <0> d   1      17.143  -1.028  11.922  0.00  0.00     0.015 A 
ATOM     13  C16 <0> d   1      17.384  -0.172  12.976  0.00  0.00     0.001 A 
ATOM     14  C15 <0> d   1      18.438  -0.413  13.840  0.00  0.00     0.000 A 
ATOM     15  C14 <0> d   1      19.252  -1.517  13.657  0.00  0.00     0.001 A 
ATOM     16  C13 <0> d   1      19.018  -2.385  12.610  0.00  0.00     0.015 A 
ENDBRANCH   9  11
ENDBRANCH   5   9
BRANCH   1  17
ATOM     17  C2  <0> d   1      18.649  -1.194   5.045  0.00  0.00     0.183 C 
ATOM     18  O1  <0> d   1      17.531  -1.337   4.579  0.00  0.00    -0.647 OA
ATOM     19  O3  <0> d   1      19.629  -1.420   4.356  0.00  0.00    -0.647 OA
ENDBRANCH   1  17
TORSDOF 3
ENDMDL
MODEL 8
REMARK VINA RESULT:      -6.9      3.527      4.905
REMARK  3 active torsions:
REMARK  status: ('A' for Active; 'I' for Inactive)
REMARK    1  A    between atoms: C2_2  and  C4_4 
REMARK    2  A    between atoms: C9_8  and  C10_9 
REMARK    3  A    between atoms: C10_9  and  C12_11 
ROOT
ATOM      1  C4  <0> d   1      17.940   1.056   9.689  0.00  0.00     0.138 C 
ATOM      2  C6  <0> d   1      19.204   0.750   8.855  0.00  0.00     0.042 C 
ATOM      3  C7  <0> d   1      19.339  -0.777   9.031  0.00  0.00     0.130 C 
ATOM      4  N8  <0> d   1      18.685  -1.086  10.314  0.00  0.00    -0.346 N 
ATOM      5  C9  <0> d   1      18.615  -2.089  11.264  0.00  0.00     0.086 A 
ATOM      6  C18 <0> d   1      17.749  -1.668  12.252  0.00  0.00     0.036 A 
ATOM      7  C19 <0> d   1      17.298  -0.398  11.888  0.00  0.00     0.028 A 
ATOM      8  C20 <0> d   1      17.880  -0.067  10.707  0.00  0.00     0.026 A 
ENDROOT
BRANCH   5   9
ATOM      9  C10 <0> d   1      19.331  -3.366  11.227  0.00  0.00     0.208 C 
ATOM     10  O11 <0> d   1      20.371  -3.499  11.846  0.00  0.00    -0.285 OA
BRANCH   9  11
ATOM     11  C12 <0> d   1      18.790  -4.495  10.440  0.00  0.00     0.016 A 
ATOM     12  C17 <0> d   1      19.516  -5.013   9.366  0.00  0.00     0.015 A 
ATOM     13  C16 <0> d   1      19.009  -6.070   8.640  0.00  0.00     0.001 A 
ATOM     14  C15 <0> d   1      17.777  -6.609   8.966  0.00  0.00     0.000 A 
ATOM     15  C14 <0> d   1      17.049  -6.097  10.026  0.00  0.00     0.001 A 
ATOM     16  C13 <0> d   1      17.548  -5.044  10.765  0.00  0.00     0.015 A 
ENDBRANCH   9  11
ENDBRANCH   5   9
BRANCH   1  17
ATOM     17  C2  <0> d   1      18.074   2.387  10.382  0.00  0.00     0.183 C 
ATOM     18  O1  <0> d   1      19.168   2.916  10.479  0.00  0.00    -0.647 OA
ATOM     19  O3  <0> d   1      17.087   2.938  10.841  0.00  0.00    -0.647 OA
ENDBRANCH   1  17
TORSDOF 3
ENDMDL
MODEL 9
REMARK VINA RESULT:      -6.8      2.708      5.945
REMARK  3 active torsions:
REMARK  status: ('A' for Active; 'I' for Inactive)
REMARK    1  A    between atoms: C2_2  and  C4_4 
REMARK    2  A    between atoms: C9_8  and  C10_9 
REMARK    3  A    between atoms: C10_9  and  C12_11 
ROOT
ATOM      1  C4  <0> d   1      18.380   0.887  16.903  0.00  0.00     0.138 C 
ATOM      2  C6  <0> d   1      18.685   2.324  16.423  0.00  0.00     0.042 C 
ATOM      3  C7  <0> d   1      18.672   2.154  14.889  0.00  0.00     0.130 C 
ATOM      4  N8  <0> d   1      19.018   0.744  14.643  0.00  0.00    -0.346 N 
ATOM      5  C9  <0> d   1      19.457  -0.088  13.630  0.00  0.00     0.086 A 
ATOM      6  C18 <0> d   1      19.560  -1.361  14.152  0.00  0.00     0.036 A 
ATOM      7  C19 <0> d   1      19.180  -1.288  15.493  0.00  0.00     0.028 A 
ATOM      8  C20 <0> d   1      18.855   0.001  15.767  0.00  0.00     0.026 A 
ENDROOT
BRANCH   5   9
ATOM      9  C10 <0> d   1      19.758   0.310  12.254  0.00  0.00     0.208 C 
ATOM     10  O11 <0> d   1      20.444  -0.408  11.548  0.00  0.00    -0.285 OA
BRANCH   9  11
ATOM     11  C12 <0> d   1      19.229   1.583  11.719  0.00  0.00     0.016 A 
ATOM     12  C17 <0> d   1      17.978   1.618  11.100  0.00  0.00     0.015 A 
ATOM     13  C16 <0> d   1      17.488   2.810  10.608  0.00  0.00     0.001 A 
ATOM     14  C15 <0> d   1      18.239   3.967  10.717  0.00  0.00     0.000 A 
ATOM     15  C14 <0> d   1      19.482   3.938  11.325  0.00  0.00     0.001 A 
ATOM     16  C13 <0> d   1      19.981   2.754  11.826  0.00  0.00     0.015 A 
ENDBRANCH   9  11
ENDBRANCH   5   9
BRANCH   1  17
ATOM     17  C2  <0> d   1      19.144   0.579  18.165  0.00  0.00     0.183 C 
ATOM     18  O1  <0> d   1      19.005  -0.501  18.713  0.00  0.00    -0.647 OA
ATOM     19  O3  <0> d   1      19.904   1.409  18.636  0.00  0.00    -0.647 OA
ENDBRANCH   1  17
TORSDOF 3
ENDMDL
