MODEL 1
REMARK VINA RESULT:      -8.7      0.000      0.000
REMARK  7 active torsions:
REMARK  status: ('A' for Active; 'I' for Inactive)
REMARK    1  A    between atoms: C8_8  and  O9_9 
REMARK    2  A    between atoms: O9_9  and  C10_10 
REMARK    3  A    between atoms: C10_10  and  C11_11 
REMARK    4  A    between atoms: C11_11  and  C12_12 
REMARK    5  A    between atoms: C12_12  and  C13_13 
REMARK    6  A    between atoms: C13_13  and  N14_14 
REMARK    7  A    between atoms: N18_18  and  C19_19 
ROOT
ATOM      1  C12 ZIN A   1      17.681  -0.254   8.674  0.00  0.00     0.030 C 
ENDROOT
BRANCH   1   2
ATOM      2  C11 ZIN A   1      18.973   0.363   8.137  0.00  0.00     0.028 C 
BRANCH   2   3
ATOM      3  C10 ZIN A   1      19.015   1.850   8.497  0.00  0.00     0.175 C 
BRANCH   3   4
ATOM      4  O9  ZIN A   1      19.620   2.011   9.782  0.00  0.00    -0.351 OA
BRANCH   4   5
ATOM      5  C8  ZIN A   1      19.073   2.940  10.609  0.00  0.00     0.070 A 
ATOM      6  C7  ZIN A   1      17.728   3.264  10.496  0.00  0.00     0.037 A 
ATOM      7  C6  ZIN A   1      17.169   4.209  11.335  0.00  0.00     0.012 A 
ATOM      8  C5  ZIN A   1      17.948   4.833  12.290  0.00  0.00    -0.031 A 
ATOM      9  C4  ZIN A   1      17.339   5.863  13.208  0.00  0.00     0.050 C 
ATOM     10  C30 ZIN A   1      19.294   4.513  12.408  0.00  0.00     0.043 A 
ATOM     11  C3  ZIN A   1      18.008   5.784  14.580  0.00  0.00     0.108 C 
ATOM     12  C2  ZIN A   1      19.506   5.772  14.419  0.00  0.00     0.222 C 
ATOM     13  O1  ZIN A   1      20.201   6.331  15.241  0.00  0.00    -0.273 OA
ATOM     14  N31 ZIN A   1      20.080   5.152  13.373  0.00  0.00    -0.327 N 
ATOM     15  H58 ZIN A   1      21.046   5.146  13.288  0.00  0.00     0.169 HD
ATOM     16  C29 ZIN A   1      19.857   3.565  11.566  0.00  0.00     0.066 A 
ENDBRANCH   4   5
ENDBRANCH   3   4
ENDBRANCH   2   3
ENDBRANCH   1   2
BRANCH   1  17
ATOM     17  C13 ZIN A   1      18.011  -1.210   9.823  0.00  0.00     0.235 C 
BRANCH  17  18
ATOM     18  N14 ZIN A   1      18.319  -0.435  11.032  0.00  0.00    -0.069 N 
ATOM     19  H15 ZIN A   1      18.727   0.450  10.770  0.00  0.00     0.280 HD
ATOM     20  C28 ZIN A   1      17.082  -0.196  11.788  0.00  0.00     0.249 C 
ATOM     21  C27 ZIN A   1      17.398   0.628  13.038  0.00  0.00     0.123 C 
ATOM     22  N18 ZIN A   1      18.368  -0.101  13.869  0.00  0.00    -0.279 NA
ATOM     23  C17 ZIN A   1      19.602  -0.369  13.118  0.00  0.00     0.123 C 
ATOM     24  C16 ZIN A   1      19.267  -1.185  11.866  0.00  0.00     0.249 C 
BRANCH  22  25
ATOM     25  C19 ZIN A   1      18.641   0.598  15.047  0.00  0.00     0.034 A 
ATOM     26  C25 ZIN A   1      18.530  -0.041  16.277  0.00  0.00     0.077 A 
ATOM     27  C23 ZIN A   1      18.807   0.651  17.442  0.00  0.00     0.057 A 
ATOM     28 Cl26 ZIN A   1      18.057  -1.710  16.351  0.00  0.00    -0.081 Cl
ATOM     29  C22 ZIN A   1      19.183   1.982  17.383  0.00  0.00     0.026 A 
ATOM     30 Cl24 ZIN A   1      18.676  -0.145  18.978  0.00  0.00    -0.082 Cl
ATOM     31  C21 ZIN A   1      19.289   2.621  16.161  0.00  0.00     0.004 A 
ATOM     32  C20 ZIN A   1      19.019   1.933  14.994  0.00  0.00     0.025 A 
ENDBRANCH  22  25
ENDBRANCH  17  18
ENDBRANCH   1  17
TORSDOF 7
ENDMDL
MODEL 2
REMARK VINA RESULT:      -8.2      3.600      6.216
REMARK  7 active torsions:
REMARK  status: ('A' for Active; 'I' for Inactive)
REMARK    1  A    between atoms: C8_8  and  O9_9 
REMARK    2  A    between atoms: O9_9  and  C10_10 
REMARK    3  A    between atoms: C10_10  and  C11_11 
REMARK    4  A    between atoms: C11_11  and  C12_12 
REMARK    5  A    between atoms: C12_12  and  C13_13 
REMARK    6  A    between atoms: C13_13  and  N14_14 
REMARK    7  A    between atoms: N18_18  and  C19_19 
ROOT
ATOM      1  C12 ZIN A   1      18.532   3.168   9.610  0.00  0.00     0.030 C 
ENDROOT
BRANCH   1   2
ATOM      2  C11 ZIN A   1      19.018   3.281  11.056  0.00  0.00     0.028 C 
BRANCH   2   3
ATOM      3  C10 ZIN A   1      17.824   3.161  12.005  0.00  0.00     0.175 C 
BRANCH   3   4
ATOM      4  O9  ZIN A   1      17.386   1.802  12.049  0.00  0.00    -0.351 OA
BRANCH   4   5
ATOM      5  C8  ZIN A   1      17.661   1.100  13.179  0.00  0.00     0.070 A 
ATOM      6  C7  ZIN A   1      17.600  -0.287  13.167  0.00  0.00     0.037 A 
ATOM      7  C6  ZIN A   1      17.878  -1.004  14.316  0.00  0.00     0.012 A 
ATOM      8  C5  ZIN A   1      18.218  -0.341  15.479  0.00  0.00    -0.031 A 
ATOM      9  C4  ZIN A   1      18.523  -1.121  16.733  0.00  0.00     0.050 C 
ATOM     10  C30 ZIN A   1      18.281   1.047  15.497  0.00  0.00     0.043 A 
ATOM     11  C3  ZIN A   1      19.603  -0.396  17.536  0.00  0.00     0.108 C 
ATOM     12  C2  ZIN A   1      19.246   1.060  17.675  0.00  0.00     0.222 C 
ATOM     13  O1  ZIN A   1      19.523   1.650  18.698  0.00  0.00    -0.273 OA
ATOM     14  N31 ZIN A   1      18.620   1.713  16.679  0.00  0.00    -0.327 N 
ATOM     15  H58 ZIN A   1      18.405   2.653  16.781  0.00  0.00     0.169 HD
ATOM     16  C29 ZIN A   1      18.002   1.767  14.345  0.00  0.00     0.066 A 
ENDBRANCH   4   5
ENDBRANCH   3   4
ENDBRANCH   2   3
ENDBRANCH   1   2
BRANCH   1  17
ATOM     17  C13 ZIN A   1      19.247   2.004   8.921  0.00  0.00     0.235 C 
BRANCH  17  18
ATOM     18  N14 ZIN A   1      18.818   0.737   9.526  0.00  0.00    -0.069 N 
ATOM     19  H15 ZIN A   1      18.411   0.917  10.432  0.00  0.00     0.280 HD
ATOM     20  C28 ZIN A   1      17.820   0.095   8.661  0.00  0.00     0.249 C 
ATOM     21  C27 ZIN A   1      17.358  -1.217   9.301  0.00  0.00     0.123 C 
ATOM     22  N18 ZIN A   1      18.516  -2.104   9.485  0.00  0.00    -0.279 NA
ATOM     23  C17 ZIN A   1      19.535  -1.464  10.329  0.00  0.00     0.123 C 
ATOM     24  C16 ZIN A   1      19.979  -0.150   9.680  0.00  0.00     0.249 C 
BRANCH  22  25
ATOM     25  C19 ZIN A   1      18.125  -3.334  10.018  0.00  0.00     0.034 A 
ATOM     26  C25 ZIN A   1      17.883  -4.413   9.176  0.00  0.00     0.077 A 
ATOM     27  C23 ZIN A   1      17.502  -5.632   9.708  0.00  0.00     0.057 A 
ATOM     28 Cl26 ZIN A   1      18.073  -4.236   7.459  0.00  0.00    -0.081 Cl
ATOM     29  C22 ZIN A   1      17.350  -5.772  11.077  0.00  0.00     0.026 A 
ATOM     30 Cl24 ZIN A   1      17.207  -6.982   8.660  0.00  0.00    -0.082 Cl
ATOM     31  C21 ZIN A   1      17.584  -4.698  11.916  0.00  0.00     0.004 A 
ATOM     32  C20 ZIN A   1      17.971  -3.480  11.391  0.00  0.00     0.025 A 
ENDBRANCH  22  25
ENDBRANCH  17  18
ENDBRANCH   1  17
TORSDOF 7
ENDMDL
MODEL 3
REMARK VINA RESULT:      -8.2      1.486      2.106
REMARK  7 active torsions:
REMARK  status: ('A' for Active; 'I' for Inactive)
REMARK    1  A    between atoms: C8_8  and  O9_9 
REMARK    2  A    between atoms: O9_9  and  C10_10 
REMARK    3  A    between atoms: C10_10  and  C11_11 
REMARK    4  A    between atoms: C11_11  and  C12_12 
REMARK    5  A    between atoms: C12_12  and  C13_13 
REMARK    6  A    between atoms: C13_13  and  N14_14 
REMARK    7  A    between atoms: N18_18  and  C19_19 
ROOT
ATOM      1  C12 ZIN A   1      18.236   0.501   9.447  0.00  0.00     0.030 C 
ENDROOT
BRANCH   1   2
ATOM      2  C11 ZIN A   1      18.665   1.757   8.688  0.00  0.00     0.028 C 
BRANCH   2   3
ATOM      3  C10 ZIN A   1      18.910   2.894   9.682  0.00  0.00     0.175 C 
BRANCH   3   4
ATOM      4  O9  ZIN A   1      17.804   2.987  10.582  0.00  0.00    -0.351 OA
BRANCH   4   5
ATOM      5  C8  ZIN A   1      17.890   3.913  11.573  0.00  0.00     0.070 A 
ATOM      6  C7  ZIN A   1      16.755   4.603  11.978  0.00  0.00     0.037 A 
ATOM      7  C6  ZIN A   1      16.840   5.546  12.985  0.00  0.00     0.012 A 
ATOM      8  C5  ZIN A   1      18.054   5.804  13.591  0.00  0.00    -0.031 A 
ATOM      9  C4  ZIN A   1      18.147   6.831  14.690  0.00  0.00     0.050 C 
ATOM     10  C30 ZIN A   1      19.192   5.117  13.190  0.00  0.00     0.043 A 
ATOM     11  C3  ZIN A   1      19.198   6.395  15.710  0.00  0.00     0.108 C 
ATOM     12  C2  ZIN A   1      20.465   5.996  15.000  0.00  0.00     0.222 C 
ATOM     13  O1  ZIN A   1      21.539   6.233  15.513  0.00  0.00    -0.273 OA
ATOM     14  N31 ZIN A   1      20.420   5.386  13.803  0.00  0.00    -0.327 N 
ATOM     15  H58 ZIN A   1      21.245   5.128  13.363  0.00  0.00     0.169 HD
ATOM     16  C29 ZIN A   1      19.110   4.170  12.180  0.00  0.00     0.066 A 
ENDBRANCH   4   5
ENDBRANCH   3   4
ENDBRANCH   2   3
ENDBRANCH   1   2
BRANCH   1  17
ATOM     17  C13 ZIN A   1      19.472  -0.334   9.790  0.00  0.00     0.235 C 
BRANCH  17  18
ATOM     18  N14 ZIN A   1      19.511  -0.581  11.237  0.00  0.00    -0.069 N 
ATOM     19  H15 ZIN A   1      19.898  -1.496  11.412  0.00  0.00     0.280 HD
ATOM     20  C28 ZIN A   1      20.350   0.436  11.884  0.00  0.00     0.249 C 
ATOM     21  C27 ZIN A   1      20.407   0.169  13.390  0.00  0.00     0.123 C 
ATOM     22  N18 ZIN A   1      19.045   0.207  13.943  0.00  0.00    -0.279 NA
ATOM     23  C17 ZIN A   1      18.187  -0.789  13.287  0.00  0.00     0.123 C 
ATOM     24  C16 ZIN A   1      18.148  -0.513  11.782  0.00  0.00     0.249 C 
BRANCH  22  25
ATOM     25  C19 ZIN A   1      19.062   0.020  15.327  0.00  0.00     0.034 A 
ATOM     26  C25 ZIN A   1      19.033   1.118  16.178  0.00  0.00     0.077 A 
ATOM     27  C23 ZIN A   1      19.043   0.930  17.549  0.00  0.00     0.057 A 
ATOM     28 Cl26 ZIN A   1      18.970   2.725  15.524  0.00  0.00    -0.081 Cl
ATOM     29  C22 ZIN A   1      19.094  -0.351  18.071  0.00  0.00     0.026 A 
ATOM     30 Cl24 ZIN A   1      19.000   2.299  18.614  0.00  0.00    -0.082 Cl
ATOM     31  C21 ZIN A   1      19.129  -1.445  17.225  0.00  0.00     0.004 A 
ATOM     32  C20 ZIN A   1      19.112  -1.263  15.855  0.00  0.00     0.025 A 
ENDBRANCH  22  25
ENDBRANCH  17  18
ENDBRANCH   1  17
TORSDOF 7
ENDMDL
MODEL 4
REMARK VINA RESULT:      -8.1      4.275      8.691
REMARK  7 active torsions:
REMARK  status: ('A' for Active; 'I' for Inactive)
REMARK    1  A    between atoms: C8_8  and  O9_9 
REMARK    2  A    between atoms: O9_9  and  C10_10 
REMARK    3  A    between atoms: C10_10  and  C11_11 
REMARK    4  A    between atoms: C11_11  and  C12_12 
REMARK    5  A    between atoms: C12_12  and  C13_13 
REMARK    6  A    between atoms: C13_13  and  N14_14 
REMARK    7  A    between atoms: N18_18  and  C19_19 
ROOT
ATOM      1  C12 ZIN A   1      18.811   1.069  14.674  0.00  0.00     0.030 C 
ENDROOT
BRANCH   1   2
ATOM      2  C11 ZIN A   1      18.028  -0.244  14.720  0.00  0.00     0.028 C 
BRANCH   2   3
ATOM      3  C10 ZIN A   1      19.002  -1.421  14.623  0.00  0.00     0.175 C 
BRANCH   3   4
ATOM      4  O9  ZIN A   1      19.539  -1.487  13.300  0.00  0.00    -0.351 OA
BRANCH   4   5
ATOM      5  C8  ZIN A   1      19.105  -2.503  12.508  0.00  0.00     0.070 A 
ATOM      6  C7  ZIN A   1      17.755  -2.822  12.466  0.00  0.00     0.037 A 
ATOM      7  C6  ZIN A   1      17.311  -3.855  11.662  0.00  0.00     0.012 A 
ATOM      8  C5  ZIN A   1      18.210  -4.571  10.897  0.00  0.00    -0.031 A 
ATOM      9  C4  ZIN A   1      17.728  -5.697  10.018  0.00  0.00     0.050 C 
ATOM     10  C30 ZIN A   1      19.563  -4.256  10.935  0.00  0.00     0.043 A 
ATOM     11  C3  ZIN A   1      18.582  -5.760   8.752  0.00  0.00     0.108 C 
ATOM     12  C2  ZIN A   1      20.042  -5.720   9.118  0.00  0.00     0.222 C 
ATOM     13  O1  ZIN A   1      20.841  -6.359   8.466  0.00  0.00    -0.273 OA
ATOM     14  N31 ZIN A   1      20.470  -4.988  10.163  0.00  0.00    -0.327 N 
ATOM     15  H58 ZIN A   1      21.415  -4.967  10.380  0.00  0.00     0.169 HD
ATOM     16  C29 ZIN A   1      20.010  -3.220  11.741  0.00  0.00     0.066 A 
ENDBRANCH   4   5
ENDBRANCH   3   4
ENDBRANCH   2   3
ENDBRANCH   1   2
BRANCH   1  17
ATOM     17  C13 ZIN A   1      18.461   1.827  13.390  0.00  0.00     0.235 C 
BRANCH  17  18
ATOM     18  N14 ZIN A   1      18.597   0.928  12.238  0.00  0.00    -0.069 N 
ATOM     19  H15 ZIN A   1      18.680  -0.025  12.561  0.00  0.00     0.280 HD
ATOM     20  C28 ZIN A   1      17.412   1.051  11.379  0.00  0.00     0.249 C 
ATOM     21  C27 ZIN A   1      17.544   0.100  10.187  0.00  0.00     0.123 C 
ATOM     22  N18 ZIN A   1      18.758   0.437   9.428  0.00  0.00    -0.279 NA
ATOM     23  C17 ZIN A   1      19.950   0.342  10.281  0.00  0.00     0.123 C 
ATOM     24  C16 ZIN A   1      19.798   1.291  11.473  0.00  0.00     0.249 C 
BRANCH  22  25
ATOM     25  C19 ZIN A   1      18.884  -0.377   8.299  0.00  0.00     0.034 A 
ATOM     26  C25 ZIN A   1      18.914   0.191   7.031  0.00  0.00     0.077 A 
ATOM     27  C23 ZIN A   1      19.045  -0.617   5.916  0.00  0.00     0.057 A 
ATOM     28 Cl26 ZIN A   1      18.800   1.914   6.846  0.00  0.00    -0.081 Cl
ATOM     29  C22 ZIN A   1      19.135  -1.990   6.063  0.00  0.00     0.026 A 
ATOM     30 Cl24 ZIN A   1      19.090   0.090   4.332  0.00  0.00    -0.082 Cl
ATOM     31  C21 ZIN A   1      19.099  -2.558   7.323  0.00  0.00     0.004 A 
ATOM     32  C20 ZIN A   1      18.975  -1.755   8.442  0.00  0.00     0.025 A 
ENDBRANCH  22  25
ENDBRANCH  17  18
ENDBRANCH   1  17
TORSDOF 7
ENDMDL
MODEL 5
REMARK VINA RESULT:      -8.0      4.092      8.776
REMARK  7 active torsions:
REMARK  status: ('A' for Active; 'I' for Inactive)
REMARK    1  A    between atoms: C8_8  and  O9_9 
REMARK    2  A    between atoms: O9_9  and  C10_10 
REMARK    3  A    between atoms: C10_10  and  C11_11 
REMARK    4  A    between atoms: C11_11  and  C12_12 
REMARK    5  A    between atoms: C12_12  and  C13_13 
REMARK    6  A    between atoms: C13_13  and  N14_14 
REMARK    7  A    between atoms: N18_18  and  C19_19 
ROOT
ATOM      1  C12 ZIN A   1      19.136   1.788  12.637  0.00  0.00     0.030 C 
ENDROOT
BRANCH   1   2
ATOM      2  C11 ZIN A   1      18.767   1.077  13.940  0.00  0.00     0.028 C 
BRANCH   2   3
ATOM      3  C10 ZIN A   1      19.385  -0.322  13.949  0.00  0.00     0.175 C 
BRANCH   3   4
ATOM      4  O9  ZIN A   1      19.725  -0.702  12.614  0.00  0.00    -0.351 OA
BRANCH   4   5
ATOM      5  C8  ZIN A   1      19.244  -1.893  12.169  0.00  0.00     0.070 A 
ATOM      6  C7  ZIN A   1      17.955  -2.288  12.500  0.00  0.00     0.037 A 
ATOM      7  C6  ZIN A   1      17.464  -3.498  12.050  0.00  0.00     0.012 A 
ATOM      8  C5  ZIN A   1      18.254  -4.319  11.269  0.00  0.00    -0.031 A 
ATOM      9  C4  ZIN A   1      17.719  -5.639  10.776  0.00  0.00     0.050 C 
ATOM     10  C30 ZIN A   1      19.545  -3.929  10.935  0.00  0.00     0.043 A 
ATOM     11  C3  ZIN A   1      18.295  -5.940   9.393  0.00  0.00     0.108 C 
ATOM     12  C2  ZIN A   1      19.787  -5.737   9.404  0.00  0.00     0.222 C 
ATOM     13  O1  ZIN A   1      20.495  -6.462   8.737  0.00  0.00    -0.273 OA
ATOM     14  N31 ZIN A   1      20.343  -4.765  10.149  0.00  0.00    -0.327 N 
ATOM     15  H58 ZIN A   1      21.306  -4.643  10.139  0.00  0.00     0.169 HD
ATOM     16  C29 ZIN A   1      20.040  -2.714  11.386  0.00  0.00     0.066 A 
ENDBRANCH   4   5
ENDBRANCH   3   4
ENDBRANCH   2   3
ENDBRANCH   1   2
BRANCH   1  17
ATOM     17  C13 ZIN A   1      17.860   2.261  11.935  0.00  0.00     0.235 C 
BRANCH  17  18
ATOM     18  N14 ZIN A   1      17.920   1.900  10.513  0.00  0.00    -0.069 N 
ATOM     19  H15 ZIN A   1      17.414   2.584   9.970  0.00  0.00     0.280 HD
ATOM     20  C28 ZIN A   1      19.322   1.870  10.075  0.00  0.00     0.249 C 
ATOM     21  C27 ZIN A   1      19.385   1.514   8.588  0.00  0.00     0.123 C 
ATOM     22  N18 ZIN A   1      18.759   0.200   8.376  0.00  0.00    -0.279 NA
ATOM     23  C17 ZIN A   1      17.362   0.207   8.833  0.00  0.00     0.123 C 
ATOM     24  C16 ZIN A   1      17.316   0.575  10.318  0.00  0.00     0.249 C 
BRANCH  22  25
ATOM     25  C19 ZIN A   1      18.845  -0.185   7.036  0.00  0.00     0.034 A 
ATOM     26  C25 ZIN A   1      18.760  -1.528   6.690  0.00  0.00     0.077 A 
ATOM     27  C23 ZIN A   1      18.839  -1.905   5.361  0.00  0.00     0.057 A 
ATOM     28 Cl26 ZIN A   1      18.540  -2.731   7.922  0.00  0.00    -0.081 Cl
ATOM     29  C22 ZIN A   1      19.015  -0.946   4.379  0.00  0.00     0.026 A 
ATOM     30 Cl24 ZIN A   1      18.726  -3.581   4.926  0.00  0.00    -0.082 Cl
ATOM     31  C21 ZIN A   1      19.107   0.391   4.722  0.00  0.00     0.004 A 
ATOM     32  C20 ZIN A   1      19.022   0.774   6.047  0.00  0.00     0.025 A 
ENDBRANCH  22  25
ENDBRANCH  17  18
ENDBRANCH   1  17
TORSDOF 7
ENDMDL
MODEL 6
REMARK VINA RESULT:      -7.9      2.758      6.202
REMARK  7 active torsions:
REMARK  status: ('A' for Active; 'I' for Inactive)
REMARK    1  A    between atoms: C8_8  and  O9_9 
REMARK    2  A    between atoms: O9_9  and  C10_10 
REMARK    3  A    between atoms: C10_10  and  C11_11 
REMARK    4  A    between atoms: C11_11  and  C12_12 
REMARK    5  A    between atoms: C12_12  and  C13_13 
REMARK    6  A    between atoms: C13_13  and  N14_14 
REMARK    7  A    between atoms: N18_18  and  C19_19 
ROOT
ATOM      1  C12 ZIN A   1      17.559  -0.511  16.628  0.00  0.00     0.030 C 
ENDROOT
BRANCH   1   2
ATOM      2  C11 ZIN A   1      17.953  -0.138  18.058  0.00  0.00     0.028 C 
BRANCH   2   3
ATOM      3  C10 ZIN A   1      19.441   0.214  18.101  0.00  0.00     0.175 C 
BRANCH   3   4
ATOM      4  O9  ZIN A   1      19.604   1.529  18.635  0.00  0.00    -0.351 OA
BRANCH   4   5
ATOM      5  C8  ZIN A   1      19.179   2.566  17.866  0.00  0.00     0.070 A 
ATOM      6  C7  ZIN A   1      18.408   3.575  18.426  0.00  0.00     0.037 A 
ATOM      7  C6  ZIN A   1      17.973   4.630  17.646  0.00  0.00     0.012 A 
ATOM      8  C5  ZIN A   1      18.306   4.683  16.306  0.00  0.00    -0.031 A 
ATOM      9  C4  ZIN A   1      17.834   5.833  15.454  0.00  0.00     0.050 C 
ATOM     10  C30 ZIN A   1      19.078   3.675  15.740  0.00  0.00     0.043 A 
ATOM     11  C3  ZIN A   1      18.892   6.156  14.399  0.00  0.00     0.108 C 
ATOM     12  C2  ZIN A   1      19.328   4.891  13.708  0.00  0.00     0.222 C 
ATOM     13  O1  ZIN A   1      19.606   4.920  12.527  0.00  0.00    -0.273 OA
ATOM     14  N31 ZIN A   1      19.407   3.730  14.383  0.00  0.00    -0.327 N 
ATOM     15  H58 ZIN A   1      19.698   2.927  13.924  0.00  0.00     0.169 HD
ATOM     16  C29 ZIN A   1      19.515   2.616  16.522  0.00  0.00     0.066 A 
ENDBRANCH   4   5
ENDBRANCH   3   4
ENDBRANCH   2   3
ENDBRANCH   1   2
BRANCH   1  17
ATOM     17  C13 ZIN A   1      18.750  -1.167  15.925  0.00  0.00     0.235 C 
BRANCH  17  18
ATOM     18  N14 ZIN A   1      18.988  -0.500  14.639  0.00  0.00    -0.069 N 
ATOM     19  H15 ZIN A   1      19.734   0.171  14.739  0.00  0.00     0.280 HD
ATOM     20  C28 ZIN A   1      19.364  -1.501  13.631  0.00  0.00     0.249 C 
ATOM     21  C27 ZIN A   1      19.630  -0.806  12.295  0.00  0.00     0.123 C 
ATOM     22  N18 ZIN A   1      18.419  -0.089  11.869  0.00  0.00    -0.279 NA
ATOM     23  C17 ZIN A   1      18.016   0.900  12.879  0.00  0.00     0.123 C 
ATOM     24  C16 ZIN A   1      17.763   0.189  14.212  0.00  0.00     0.249 C 
BRANCH  22  25
ATOM     25  C19 ZIN A   1      18.607   0.516  10.624  0.00  0.00     0.034 A 
ATOM     26  C25 ZIN A   1      18.411  -0.215   9.458  0.00  0.00     0.077 A 
ATOM     27  C23 ZIN A   1      18.591   0.388   8.226  0.00  0.00     0.057 A 
ATOM     28 Cl26 ZIN A   1      17.927  -1.881   9.547  0.00  0.00    -0.081 Cl
ATOM     29  C22 ZIN A   1      18.978   1.715   8.156  0.00  0.00     0.026 A 
ATOM     30 Cl24 ZIN A   1      18.341  -0.521   6.770  0.00  0.00    -0.082 Cl
ATOM     31  C21 ZIN A   1      19.179   2.442   9.315  0.00  0.00     0.004 A 
ATOM     32  C20 ZIN A   1      18.994   1.847  10.548  0.00  0.00     0.025 A 
ENDBRANCH  22  25
ENDBRANCH  17  18
ENDBRANCH   1  17
TORSDOF 7
ENDMDL
MODEL 7
REMARK VINA RESULT:      -7.7      3.266      6.677
REMARK  7 active torsions:
REMARK  status: ('A' for Active; 'I' for Inactive)
REMARK    1  A    between atoms: C8_8  and  O9_9 
REMARK    2  A    between atoms: O9_9  and  C10_10 
REMARK    3  A    between atoms: C10_10  and  C11_11 
REMARK    4  A    between atoms: C11_11  and  C12_12 
REMARK    5  A    between atoms: C12_12  and  C13_13 
REMARK    6  A    between atoms: C13_13  and  N14_14 
REMARK    7  A    between atoms: N18_18  and  C19_19 
ROOT
ATOM      1  C12 ZIN A   1      20.023  -3.620  11.492  0.00  0.00     0.030 C 
ENDROOT
BRANCH   1   2
ATOM      2  C11 ZIN A   1      19.871  -4.921  10.701  0.00  0.00     0.028 C 
BRANCH   2   3
ATOM      3  C10 ZIN A   1      18.723  -4.776   9.699  0.00  0.00     0.175 C 
BRANCH   3   4
ATOM      4  O9  ZIN A   1      19.216  -4.995   8.376  0.00  0.00    -0.351 OA
BRANCH   4   5
ATOM      5  C8  ZIN A   1      19.198  -3.934   7.527  0.00  0.00     0.070 A 
ATOM      6  C7  ZIN A   1      19.137  -4.143   6.156  0.00  0.00     0.037 A 
ATOM      7  C6  ZIN A   1      19.120  -3.066   5.290  0.00  0.00     0.012 A 
ATOM      8  C5  ZIN A   1      19.162  -1.778   5.787  0.00  0.00    -0.031 A 
ATOM      9  C4  ZIN A   1      19.143  -0.602   4.844  0.00  0.00     0.050 C 
ATOM     10  C30 ZIN A   1      19.224  -1.563   7.158  0.00  0.00     0.043 A 
ATOM     11  C3  ZIN A   1      18.385   0.558   5.490  0.00  0.00     0.108 C 
ATOM     12  C2  ZIN A   1      18.887   0.780   6.892  0.00  0.00     0.222 C 
ATOM     13  O1  ZIN A   1      18.947   1.907   7.335  0.00  0.00    -0.273 OA
ATOM     14  N31 ZIN A   1      19.273  -0.257   7.656  0.00  0.00    -0.327 N 
ATOM     15  H58 ZIN A   1      19.586  -0.098   8.561  0.00  0.00     0.169 HD
ATOM     16  C29 ZIN A   1      19.241  -2.643   8.029  0.00  0.00     0.066 A 
ENDBRANCH   4   5
ENDBRANCH   3   4
ENDBRANCH   2   3
ENDBRANCH   1   2
BRANCH   1  17
ATOM     17  C13 ZIN A   1      18.640  -3.114  11.911  0.00  0.00     0.235 C 
BRANCH  17  18
ATOM     18  N14 ZIN A   1      18.501  -1.701  11.537  0.00  0.00    -0.069 N 
ATOM     19  H15 ZIN A   1      18.624  -1.603  10.540  0.00  0.00     0.280 HD
ATOM     20  C28 ZIN A   1      17.164  -1.225  11.913  0.00  0.00     0.249 C 
ATOM     21  C27 ZIN A   1      17.011   0.243  11.505  0.00  0.00     0.123 C 
ATOM     22  N18 ZIN A   1      18.043   1.045  12.179  0.00  0.00    -0.279 NA
ATOM     23  C17 ZIN A   1      19.388   0.564  11.831  0.00  0.00     0.123 C 
ATOM     24  C16 ZIN A   1      19.520  -0.907  12.236  0.00  0.00     0.249 C 
BRANCH  22  25
ATOM     25  C19 ZIN A   1      17.902   2.400  11.873  0.00  0.00     0.034 A 
ATOM     26  C25 ZIN A   1      17.898   3.347  12.890  0.00  0.00     0.077 A 
ATOM     27  C23 ZIN A   1      17.765   4.690  12.584  0.00  0.00     0.057 A 
ATOM     28 Cl26 ZIN A   1      18.073   2.848  14.544  0.00  0.00    -0.081 Cl
ATOM     29  C22 ZIN A   1      17.624   5.087  11.265  0.00  0.00     0.026 A 
ATOM     30 Cl24 ZIN A   1      17.766   5.874  13.851  0.00  0.00    -0.082 Cl
ATOM     31  C21 ZIN A   1      17.622   4.146  10.252  0.00  0.00     0.004 A 
ATOM     32  C20 ZIN A   1      17.761   2.805  10.552  0.00  0.00     0.025 A 
ENDBRANCH  22  25
ENDBRANCH  17  18
ENDBRANCH   1  17
TORSDOF 7
ENDMDL
MODEL 8
REMARK VINA RESULT:      -7.7      3.116      6.228
REMARK  7 active torsions:
REMARK  status: ('A' for Active; 'I' for Inactive)
REMARK    1  A    between atoms: C8_8  and  O9_9 
REMARK    2  A    between atoms: O9_9  and  C10_10 
REMARK    3  A    between atoms: C10_10  and  C11_11 
REMARK    4  A    between atoms: C11_11  and  C12_12 
REMARK    5  A    between atoms: C12_12  and  C13_13 
REMARK    6  A    between atoms: C13_13  and  N14_14 
REMARK    7  A    between atoms: N18_18  and  C19_19 
ROOT
ATOM      1  C12 ZIN A   1      19.591   1.760   8.306  0.00  0.00     0.030 C 
ENDROOT
BRANCH   1   2
ATOM      2  C11 ZIN A   1      18.747   1.777   7.031  0.00  0.00     0.028 C 
BRANCH   2   3
ATOM      3  C10 ZIN A   1      18.649   0.359   6.465  0.00  0.00     0.175 C 
BRANCH   3   4
ATOM      4  O9  ZIN A   1      17.579  -0.337   7.108  0.00  0.00    -0.351 OA
BRANCH   4   5
ATOM      5  C8  ZIN A   1      17.917  -1.245   8.061  0.00  0.00     0.070 A 
ATOM      6  C7  ZIN A   1      17.510  -1.057   9.375  0.00  0.00     0.037 A 
ATOM      7  C6  ZIN A   1      17.853  -1.978  10.346  0.00  0.00     0.012 A 
ATOM      8  C5  ZIN A   1      18.602  -3.090  10.012  0.00  0.00    -0.031 A 
ATOM      9  C4  ZIN A   1      18.976  -4.096  11.070  0.00  0.00     0.050 C 
ATOM     10  C30 ZIN A   1      19.012  -3.283   8.699  0.00  0.00     0.043 A 
ATOM     11  C3  ZIN A   1      19.004  -5.496  10.457  0.00  0.00     0.108 C 
ATOM     12  C2  ZIN A   1      19.801  -5.478   9.179  0.00  0.00     0.222 C 
ATOM     13  O1  ZIN A   1      20.477  -6.441   8.882  0.00  0.00    -0.273 OA
ATOM     14  N31 ZIN A   1      19.775  -4.407   8.367  0.00  0.00    -0.327 N 
ATOM     15  H58 ZIN A   1      20.288  -4.415   7.543  0.00  0.00     0.169 HD
ATOM     16  C29 ZIN A   1      18.669  -2.360   7.723  0.00  0.00     0.066 A 
ENDBRANCH   4   5
ENDBRANCH   3   4
ENDBRANCH   2   3
ENDBRANCH   1   2
BRANCH   1  17
ATOM     17  C13 ZIN A   1      18.851   2.507   9.418  0.00  0.00     0.235 C 
BRANCH  17  18
ATOM     18  N14 ZIN A   1      18.807   1.670  10.624  0.00  0.00    -0.069 N 
ATOM     19  H15 ZIN A   1      18.778   0.697  10.359  0.00  0.00     0.280 HD
ATOM     20  C28 ZIN A   1      20.005   1.920  11.437  0.00  0.00     0.249 C 
ATOM     21  C27 ZIN A   1      19.969   1.034  12.685  0.00  0.00     0.123 C 
ATOM     22  N18 ZIN A   1      18.757   1.337  13.461  0.00  0.00    -0.279 NA
ATOM     23  C17 ZIN A   1      17.550   1.116  12.653  0.00  0.00     0.123 C 
ATOM     24  C16 ZIN A   1      17.607   2.001  11.405  0.00  0.00     0.249 C 
BRANCH  22  25
ATOM     25  C19 ZIN A   1      18.717   0.585  14.638  0.00  0.00     0.034 A 
ATOM     26  C25 ZIN A   1      18.974   1.192  15.861  0.00  0.00     0.077 A 
ATOM     27  C23 ZIN A   1      18.927   0.446  17.025  0.00  0.00     0.057 A 
ATOM     28 Cl26 ZIN A   1      19.342   2.887  15.931  0.00  0.00    -0.081 Cl
ATOM     29  C22 ZIN A   1      18.635  -0.906  16.969  0.00  0.00     0.026 A 
ATOM     30 Cl24 ZIN A   1      19.241   1.202  18.555  0.00  0.00    -0.082 Cl
ATOM     31  C21 ZIN A   1      18.384  -1.513  15.752  0.00  0.00     0.004 A 
ATOM     32  C20 ZIN A   1      18.424  -0.772  14.587  0.00  0.00     0.025 A 
ENDBRANCH  22  25
ENDBRANCH  17  18
ENDBRANCH   1  17
TORSDOF 7
ENDMDL
MODEL 9
REMARK VINA RESULT:      -7.5      3.387      6.843
REMARK  7 active torsions:
REMARK  status: ('A' for Active; 'I' for Inactive)
REMARK    1  A    between atoms: C8_8  and  O9_9 
REMARK    2  A    between atoms: O9_9  and  C10_10 
REMARK    3  A    between atoms: C10_10  and  C11_11 
REMARK    4  A    between atoms: C11_11  and  C12_12 
REMARK    5  A    between atoms: C12_12  and  C13_13 
REMARK    6  A    between atoms: C13_13  and  N14_14 
REMARK    7  A    between atoms: N18_18  and  C19_19 
ROOT
ATOM      1  C12 ZIN A   1      18.047   0.517   7.167  0.00  0.00     0.030 C 
ENDROOT
BRANCH   1   2
ATOM      2  C11 ZIN A   1      18.057   0.124   5.689  0.00  0.00     0.028 C 
BRANCH   2   3
ATOM      3  C10 ZIN A   1      19.497  -0.134   5.241  0.00  0.00     0.175 C 
BRANCH   3   4
ATOM      4  O9  ZIN A   1      19.583  -1.423   4.631  0.00  0.00    -0.351 OA
BRANCH   4   5
ATOM      5  C8  ZIN A   1      19.236  -2.492   5.395  0.00  0.00     0.070 A 
ATOM      6  C7  ZIN A   1      18.527  -3.545   4.833  0.00  0.00     0.037 A 
ATOM      7  C6  ZIN A   1      18.172  -4.633   5.608  0.00  0.00     0.012 A 
ATOM      8  C5  ZIN A   1      18.523  -4.676   6.943  0.00  0.00    -0.031 A 
ATOM      9  C4  ZIN A   1      18.138  -5.863   7.789  0.00  0.00     0.050 C 
ATOM     10  C30 ZIN A   1      19.232  -3.625   7.510  0.00  0.00     0.043 A 
ATOM     11  C3  ZIN A   1      19.227  -6.124   8.829  0.00  0.00     0.108 C 
ATOM     12  C2  ZIN A   1      19.586  -4.840   9.528  0.00  0.00     0.222 C 
ATOM     13  O1  ZIN A   1      19.879  -4.860  10.705  0.00  0.00    -0.273 OA
ATOM     14  N31 ZIN A   1      19.580  -3.670   8.864  0.00  0.00    -0.327 N 
ATOM     15  H58 ZIN A   1      19.823  -2.853   9.327  0.00  0.00     0.169 HD
ATOM     16  C29 ZIN A   1      19.590  -2.532   6.734  0.00  0.00     0.066 A 
ENDBRANCH   4   5
ENDBRANCH   3   4
ENDBRANCH   2   3
ENDBRANCH   1   2
BRANCH   1  17
ATOM     17  C13 ZIN A   1      19.390   1.153   7.535  0.00  0.00     0.235 C 
BRANCH  17  18
ATOM     18  N14 ZIN A   1      19.484   1.291   8.994  0.00  0.00    -0.069 N 
ATOM     19  H15 ZIN A   1      20.185   1.979   9.223  0.00  0.00     0.280 HD
ATOM     20  C28 ZIN A   1      18.185   1.721   9.529  0.00  0.00     0.249 C 
ATOM     21  C27 ZIN A   1      18.287   1.883  11.048  0.00  0.00     0.123 C 
ATOM     22  N18 ZIN A   1      18.684   0.601  11.649  0.00  0.00    -0.279 NA
ATOM     23  C17 ZIN A   1      19.971   0.145  11.104  0.00  0.00     0.123 C 
ATOM     24  C16 ZIN A   1      19.854  -0.002   9.585  0.00  0.00     0.249 C 
BRANCH  22  25
ATOM     25  C19 ZIN A   1      18.736   0.696  13.041  0.00  0.00     0.034 A 
ATOM     26  C25 ZIN A   1      18.499  -0.427  13.825  0.00  0.00     0.077 A 
ATOM     27  C23 ZIN A   1      18.557  -0.331  15.204  0.00  0.00     0.057 A 
ATOM     28 Cl26 ZIN A   1      18.144  -1.952  13.076  0.00  0.00    -0.081 Cl
ATOM     29  C22 ZIN A   1      18.839   0.885  15.802  0.00  0.00     0.026 A 
ATOM     30 Cl24 ZIN A   1      18.269  -1.733  16.185  0.00  0.00    -0.082 Cl
ATOM     31  C21 ZIN A   1      19.070   2.005  15.024  0.00  0.00     0.004 A 
ATOM     32  C20 ZIN A   1      19.019   1.914  13.646  0.00  0.00     0.025 A 
ENDBRANCH  22  25
ENDBRANCH  17  18
ENDBRANCH   1  17
TORSDOF 7
ENDMDL
