MODEL 1
REMARK VINA RESULT:      -7.5      0.000      0.000
REMARK  2 active torsions:
REMARK  status: ('A' for Active; 'I' for Inactive)
REMARK    1  A    between atoms: O2_2  and  C3_3 
REMARK    2  A    between atoms: C16_16  and  O18_17 
ROOT
ATOM      1  C3  ZIN A   1      18.512  -0.613  13.411  0.00  0.00     0.102 A 
ATOM      2  C4  ZIN A   1      19.210  -1.614  12.747  0.00  0.00     0.040 A 
ATOM      3  C5  ZIN A   1      19.729  -1.420  11.489  0.00  0.00     0.012 A 
ATOM      4  C6  ZIN A   1      19.563  -0.210  10.799  0.00  0.00    -0.022 A 
ATOM      5  C7  ZIN A   1      20.032  -0.201   9.374  0.00  0.00     0.273 C 
ATOM      6  N8  ZIN A   1      19.120   0.493   8.487  0.00  0.00    -0.071 N 
ATOM      7  H9  ZIN A   1      19.389   0.295   7.535  0.00  0.00     0.279 HD
ATOM      8  C10 ZIN A   1      17.767  -0.033   8.707  0.00  0.00     0.270 C 
ATOM      9  C11 ZIN A   1      19.085   1.917   8.662  0.00  0.00     0.236 C 
ATOM     10  C12 ZIN A   1      18.136   2.397   9.720  0.00  0.00     0.049 C 
ATOM     11  C13 ZIN A   1      18.702   2.249  11.118  0.00  0.00     0.036 C 
ATOM     12  C14 ZIN A   1      19.992   2.984  11.268  0.00  0.00    -0.011 C 
ATOM     13  C15 ZIN A   1      20.206   3.958  12.087  0.00  0.00     0.002 C 
ATOM     14  C16 ZIN A   1      19.174   4.493  13.028  0.00  0.00     0.143 C 
ATOM     15  C19 ZIN A   1      17.772   4.102  12.606  0.00  0.00     0.069 C 
ATOM     16  C20 ZIN A   1      17.650   2.676  12.147  0.00  0.00     0.148 C 
ATOM     17  O22 ZIN A   1      17.806   1.741  13.221  0.00  0.00    -0.341 OA
ATOM     18  C23 ZIN A   1      18.379   0.613  12.746  0.00  0.00     0.110 A 
ATOM     19  C24 ZIN A   1      18.917   0.788  11.465  0.00  0.00     0.001 A 
ENDROOT
BRANCH   1  20
ATOM     20  O2  ZIN A   1      17.979  -0.816  14.645  0.00  0.00    -0.353 OA
ATOM     21  C1  ZIN A   1      18.874  -1.229  15.680  0.00  0.00     0.210 C 
ENDBRANCH   1  20
BRANCH  14  22
ATOM     22  O18 ZIN A   1      19.426   3.978  14.337  0.00  0.00    -0.392 OA
ATOM     23  H41 ZIN A   1      19.289   4.621  15.046  0.00  0.00     0.210 HD
ENDBRANCH  14  22
TORSDOF 2
ENDMDL
MODEL 2
REMARK VINA RESULT:      -7.4      3.761      5.766
REMARK  2 active torsions:
REMARK  status: ('A' for Active; 'I' for Inactive)
REMARK    1  A    between atoms: O2_2  and  C3_3 
REMARK    2  A    between atoms: C16_16  and  O18_17 
ROOT
ATOM      1  C3  ZIN A   1      18.160  -3.563   9.761  0.00  0.00     0.102 A 
ATOM      2  C4  ZIN A   1      17.576  -3.255  10.983  0.00  0.00     0.040 A 
ATOM      3  C5  ZIN A   1      17.329  -1.955  11.358  0.00  0.00     0.012 A 
ATOM      4  C6  ZIN A   1      17.675  -0.870  10.539  0.00  0.00    -0.022 A 
ATOM      5  C7  ZIN A   1      17.505   0.490  11.149  0.00  0.00     0.273 C 
ATOM      6  N8  ZIN A   1      18.601   1.385  10.839  0.00  0.00    -0.071 N 
ATOM      7  H9  ZIN A   1      18.525   2.199  11.430  0.00  0.00     0.279 HD
ATOM      8  C10 ZIN A   1      19.863   0.701  11.154  0.00  0.00     0.270 C 
ATOM      9  C11 ZIN A   1      18.651   1.819   9.473  0.00  0.00     0.236 C 
ATOM     10  C12 ZIN A   1      19.383   0.893   8.546  0.00  0.00     0.049 C 
ATOM     11  C13 ZIN A   1      18.540  -0.296   8.128  0.00  0.00     0.036 C 
ATOM     12  C14 ZIN A   1      17.273   0.135   7.468  0.00  0.00    -0.011 C 
ATOM     13  C15 ZIN A   1      16.932  -0.141   6.254  0.00  0.00     0.002 C 
ATOM     14  C16 ZIN A   1      17.771  -0.956   5.321  0.00  0.00     0.143 C 
ATOM     15  C19 ZIN A   1      19.214  -1.024   5.777  0.00  0.00     0.069 C 
ATOM     16  C20 ZIN A   1      19.376  -1.238   7.257  0.00  0.00     0.148 C 
ATOM     17  O22 ZIN A   1      18.973  -2.550   7.666  0.00  0.00    -0.341 OA
ATOM     18  C23 ZIN A   1      18.468  -2.488   8.918  0.00  0.00     0.110 A 
ATOM     19  C24 ZIN A   1      18.208  -1.172   9.321  0.00  0.00     0.001 A 
ENDROOT
BRANCH   1  20
ATOM     20  O2  ZIN A   1      18.425  -4.848   9.402  0.00  0.00    -0.353 OA
ATOM     21  C1  ZIN A   1      19.762  -5.313   9.594  0.00  0.00     0.210 C 
ENDBRANCH   1  20
BRANCH  14  22
ATOM     22  O18 ZIN A   1      17.241  -2.282   5.257  0.00  0.00    -0.392 OA
ATOM     23  H41 ZIN A   1      17.265  -2.672   4.373  0.00  0.00     0.210 HD
ENDBRANCH  14  22
TORSDOF 2
ENDMDL
MODEL 3
REMARK VINA RESULT:      -7.4      3.073      5.997
REMARK  2 active torsions:
REMARK  status: ('A' for Active; 'I' for Inactive)
REMARK    1  A    between atoms: O2_2  and  C3_3 
REMARK    2  A    between atoms: C16_16  and  O18_17 
ROOT
ATOM      1  C3  ZIN A   1      17.797  -0.113   9.055  0.00  0.00     0.102 A 
ATOM      2  C4  ZIN A   1      18.531   1.061   9.160  0.00  0.00     0.040 A 
ATOM      3  C5  ZIN A   1      19.323   1.323  10.253  0.00  0.00     0.012 A 
ATOM      4  C6  ZIN A   1      19.413   0.431  11.332  0.00  0.00    -0.022 A 
ATOM      5  C7  ZIN A   1      20.175   0.925  12.526  0.00  0.00     0.273 C 
ATOM      6  N8  ZIN A   1      19.537   0.581  13.780  0.00  0.00    -0.071 N 
ATOM      7  H9  ZIN A   1      19.985   1.102  14.519  0.00  0.00     0.279 HD
ATOM      8  C10 ZIN A   1      18.128   0.988  13.713  0.00  0.00     0.270 C 
ATOM      9  C11 ZIN A   1      19.589  -0.814  14.113  0.00  0.00     0.236 C 
ATOM     10  C12 ZIN A   1      18.480  -1.640  13.531  0.00  0.00     0.049 C 
ATOM     11  C13 ZIN A   1      18.719  -1.989  12.075  0.00  0.00     0.036 C 
ATOM     12  C14 ZIN A   1      20.006  -2.722  11.890  0.00  0.00    -0.011 C 
ATOM     13  C15 ZIN A   1      20.123  -3.920  11.426  0.00  0.00     0.002 C 
ATOM     14  C16 ZIN A   1      18.963  -4.757  10.988  0.00  0.00     0.143 C 
ATOM     15  C19 ZIN A   1      17.656  -4.251  11.562  0.00  0.00     0.069 C 
ATOM     16  C20 ZIN A   1      17.512  -2.755  11.524  0.00  0.00     0.148 C 
ATOM     17  O22 ZIN A   1      17.354  -2.255  10.191  0.00  0.00    -0.341 OA
ATOM     18  C23 ZIN A   1      17.915  -1.030  10.109  0.00  0.00     0.110 A 
ATOM     19  C24 ZIN A   1      18.728  -0.741  11.212  0.00  0.00     0.001 A 
ENDROOT
BRANCH   1  20
ATOM     20  O2  ZIN A   1      16.997  -0.360   7.984  0.00  0.00    -0.353 OA
ATOM     21  C1  ZIN A   1      17.535  -0.072   6.691  0.00  0.00     0.210 C 
ENDBRANCH   1  20
BRANCH  14  22
ATOM     22  O18 ZIN A   1      18.884  -4.732   9.561  0.00  0.00    -0.392 OA
ATOM     23  H41 ZIN A   1      17.982  -4.772   9.216  0.00  0.00     0.210 HD
ENDBRANCH  14  22
TORSDOF 2
ENDMDL
MODEL 4
REMARK VINA RESULT:      -7.3      2.586      4.724
REMARK  2 active torsions:
REMARK  status: ('A' for Active; 'I' for Inactive)
REMARK    1  A    between atoms: O2_2  and  C3_3 
REMARK    2  A    between atoms: C16_16  and  O18_17 
ROOT
ATOM      1  C3  ZIN A   1      19.353  -2.048  11.971  0.00  0.00     0.102 A 
ATOM      2  C4  ZIN A   1      18.777  -1.528  13.122  0.00  0.00     0.040 A 
ATOM      3  C5  ZIN A   1      18.198  -0.281  13.141  0.00  0.00     0.012 A 
ATOM      4  C6  ZIN A   1      18.178   0.542  12.005  0.00  0.00    -0.022 A 
ATOM      5  C7  ZIN A   1      17.669   1.937  12.218  0.00  0.00     0.273 C 
ATOM      6  N8  ZIN A   1      18.452   2.934  11.516  0.00  0.00    -0.071 N 
ATOM      7  H9  ZIN A   1      18.184   3.846  11.853  0.00  0.00     0.279 HD
ATOM      8  C10 ZIN A   1      19.870   2.720  11.832  0.00  0.00     0.270 C 
ATOM      9  C11 ZIN A   1      18.300   2.915  10.089  0.00  0.00     0.236 C 
ATOM     10  C12 ZIN A   1      19.208   1.959   9.373  0.00  0.00     0.049 C 
ATOM     11  C13 ZIN A   1      18.709   0.529   9.435  0.00  0.00     0.036 C 
ATOM     12  C14 ZIN A   1      17.336   0.401   8.863  0.00  0.00    -0.011 C 
ATOM     13  C15 ZIN A   1      17.018  -0.317   7.839  0.00  0.00     0.002 C 
ATOM     14  C16 ZIN A   1      17.997  -1.147   7.071  0.00  0.00     0.143 C 
ATOM     15  C19 ZIN A   1      19.425  -0.708   7.320  0.00  0.00     0.069 C 
ATOM     16  C20 ZIN A   1      19.724  -0.399   8.761  0.00  0.00     0.148 C 
ATOM     17  O22 ZIN A   1      19.729  -1.574   9.581  0.00  0.00    -0.341 OA
ATOM     18  C23 ZIN A   1      19.299  -1.250  10.820  0.00  0.00     0.110 A 
ATOM     19  C24 ZIN A   1      18.704   0.017  10.863  0.00  0.00     0.001 A 
ENDROOT
BRANCH   1  20
ATOM     20  O2  ZIN A   1      19.946  -3.272  11.961  0.00  0.00    -0.353 OA
ATOM     21  C1  ZIN A   1      19.144  -4.379  11.542  0.00  0.00     0.210 C 
ENDBRANCH   1  20
BRANCH  14  22
ATOM     22  O18 ZIN A   1      17.856  -2.514   7.464  0.00  0.00    -0.392 OA
ATOM     23  H41 ZIN A   1      18.465  -2.787   8.164  0.00  0.00     0.210 HD
ENDBRANCH  14  22
TORSDOF 2
ENDMDL
MODEL 5
REMARK VINA RESULT:      -7.2      3.585      5.107
REMARK  2 active torsions:
REMARK  status: ('A' for Active; 'I' for Inactive)
REMARK    1  A    between atoms: O2_2  and  C3_3 
REMARK    2  A    between atoms: C16_16  and  O18_17 
ROOT
ATOM      1  C3  ZIN A   1      18.899  -3.820   8.551  0.00  0.00     0.102 A 
ATOM      2  C4  ZIN A   1      19.575  -4.406   7.489  0.00  0.00     0.040 A 
ATOM      3  C5  ZIN A   1      19.770  -3.741   6.301  0.00  0.00     0.012 A 
ATOM      4  C6  ZIN A   1      19.277  -2.445   6.090  0.00  0.00    -0.022 A 
ATOM      5  C7  ZIN A   1      19.414  -1.913   4.694  0.00  0.00     0.273 C 
ATOM      6  N8  ZIN A   1      18.236  -1.198   4.247  0.00  0.00    -0.071 N 
ATOM      7  H9  ZIN A   1      18.315  -1.043   3.253  0.00  0.00     0.279 HD
ATOM      8  C10 ZIN A   1      17.059  -2.041   4.492  0.00  0.00     0.270 C 
ATOM      9  C11 ZIN A   1      18.027   0.068   4.889  0.00  0.00     0.236 C 
ATOM     10  C12 ZIN A   1      17.273  -0.001   6.184  0.00  0.00     0.049 C 
ATOM     11  C13 ZIN A   1      18.148  -0.434   7.344  0.00  0.00     0.036 C 
ATOM     12  C14 ZIN A   1      19.315   0.479   7.521  0.00  0.00    -0.011 C 
ATOM     13  C15 ZIN A   1      19.555   1.188   8.572  0.00  0.00     0.002 C 
ATOM     14  C16 ZIN A   1      18.687   1.187   9.790  0.00  0.00     0.143 C 
ATOM     15  C19 ZIN A   1      17.302   0.651   9.493  0.00  0.00     0.069 C 
ATOM     16  C20 ZIN A   1      17.297  -0.567   8.610  0.00  0.00     0.148 C 
ATOM     17  O22 ZIN A   1      17.824  -1.723   9.272  0.00  0.00    -0.341 OA
ATOM     18  C23 ZIN A   1      18.441  -2.510   8.363  0.00  0.00     0.110 A 
ATOM     19  C24 ZIN A   1      18.651  -1.852   7.145  0.00  0.00     0.001 A 
ENDROOT
BRANCH   1  20
ATOM     20  O2  ZIN A   1      18.687  -4.489   9.716  0.00  0.00    -0.353 OA
ATOM     21  C1  ZIN A   1      19.731  -4.443  10.690  0.00  0.00     0.210 C 
ENDBRANCH   1  20
BRANCH  14  22
ATOM     22  O18 ZIN A   1      19.295   0.373  10.794  0.00  0.00    -0.392 OA
ATOM     23  H41 ZIN A   1      18.973  -0.539  10.810  0.00  0.00     0.210 HD
ENDBRANCH  14  22
TORSDOF 2
ENDMDL
MODEL 6
REMARK VINA RESULT:      -7.2      1.610      2.163
REMARK  2 active torsions:
REMARK  status: ('A' for Active; 'I' for Inactive)
REMARK    1  A    between atoms: O2_2  and  C3_3 
REMARK    2  A    between atoms: C16_16  and  O18_17 
ROOT
ATOM      1  C3  ZIN A   1      18.753   0.609  15.666  0.00  0.00     0.102 A 
ATOM      2  C4  ZIN A   1      19.269  -0.677  15.562  0.00  0.00     0.040 A 
ATOM      3  C5  ZIN A   1      19.536  -1.252  14.342  0.00  0.00     0.012 A 
ATOM      4  C6  ZIN A   1      19.280  -0.582  13.137  0.00  0.00    -0.022 A 
ATOM      5  C7  ZIN A   1      19.458  -1.394  11.888  0.00  0.00     0.273 C 
ATOM      6  N8  ZIN A   1      18.414  -1.158  10.911  0.00  0.00    -0.071 N 
ATOM      7  H9  ZIN A   1      18.482  -1.865  10.195  0.00  0.00     0.279 HD
ATOM      8  C10 ZIN A   1      17.113  -1.296  11.578  0.00  0.00     0.270 C 
ATOM      9  C11 ZIN A   1      18.465   0.131  10.283  0.00  0.00     0.236 C 
ATOM     10  C12 ZIN A   1      17.761   1.224  11.032  0.00  0.00     0.049 C 
ATOM     11  C13 ZIN A   1      18.587   1.763  12.184  0.00  0.00     0.036 C 
ATOM     12  C14 ZIN A   1      19.908   2.280  11.717  0.00  0.00    -0.011 C 
ATOM     13  C15 ZIN A   1      20.314   3.500  11.829  0.00  0.00     0.002 C 
ATOM     14  C16 ZIN A   1      19.507   4.588  12.464  0.00  0.00     0.143 C 
ATOM     15  C19 ZIN A   1      18.037   4.230  12.535  0.00  0.00     0.069 C 
ATOM     16  C20 ZIN A   1      17.776   2.810  12.953  0.00  0.00     0.148 C 
ATOM     17  O22 ZIN A   1      18.108   2.575  14.327  0.00  0.00    -0.341 OA
ATOM     18  C23 ZIN A   1      18.535   1.301  14.467  0.00  0.00     0.110 A 
ATOM     19  C24 ZIN A   1      18.814   0.695  13.236  0.00  0.00     0.001 A 
ENDROOT
BRANCH   1  20
ATOM     20  O2  ZIN A   1      18.467   1.166  16.873  0.00  0.00    -0.353 OA
ATOM     21  C1  ZIN A   1      19.247   0.732  17.989  0.00  0.00     0.210 C 
ENDBRANCH   1  20
BRANCH  14  22
ATOM     22  O18 ZIN A   1      19.995   4.816  13.788  0.00  0.00    -0.392 OA
ATOM     23  H41 ZIN A   1      20.170   5.746  13.988  0.00  0.00     0.210 HD
ENDBRANCH  14  22
TORSDOF 2
ENDMDL
MODEL 7
REMARK VINA RESULT:      -7.2      2.358      5.141
REMARK  2 active torsions:
REMARK  status: ('A' for Active; 'I' for Inactive)
REMARK    1  A    between atoms: O2_2  and  C3_3 
REMARK    2  A    between atoms: C16_16  and  O18_17 
ROOT
ATOM      1  C3  ZIN A   1      18.152   4.011  14.235  0.00  0.00     0.102 A 
ATOM      2  C4  ZIN A   1      17.698   3.923  12.925  0.00  0.00     0.040 A 
ATOM      3  C5  ZIN A   1      17.595   2.715  12.276  0.00  0.00     0.012 A 
ATOM      4  C6  ZIN A   1      17.964   1.510  12.892  0.00  0.00    -0.022 A 
ATOM      5  C7  ZIN A   1      17.961   0.297  12.010  0.00  0.00     0.273 C 
ATOM      6  N8  ZIN A   1      19.101  -0.567  12.239  0.00  0.00    -0.071 N 
ATOM      7  H9  ZIN A   1      19.143  -1.245  11.493  0.00  0.00     0.279 HD
ATOM      8  C10 ZIN A   1      20.321   0.250  12.192  0.00  0.00     0.270 C 
ATOM      9  C11 ZIN A   1      19.076  -1.269  13.490  0.00  0.00     0.236 C 
ATOM     10  C12 ZIN A   1      19.648  -0.508  14.650  0.00  0.00     0.049 C 
ATOM     11  C13 ZIN A   1      18.676   0.510  15.212  0.00  0.00     0.036 C 
ATOM     12  C14 ZIN A   1      17.400  -0.132  15.647  0.00  0.00    -0.011 C 
ATOM     13  C15 ZIN A   1      16.940  -0.136  16.852  0.00  0.00     0.002 C 
ATOM     14  C16 ZIN A   1      17.627   0.524  18.006  0.00  0.00     0.143 C 
ATOM     15  C19 ZIN A   1      19.091   0.781  17.716  0.00  0.00     0.069 C 
ATOM     16  C20 ZIN A   1      19.354   1.306  16.331  0.00  0.00     0.148 C 
ATOM     17  O22 ZIN A   1      18.875   2.644  16.155  0.00  0.00    -0.341 OA
ATOM     18  C23 ZIN A   1      18.481   2.808  14.873  0.00  0.00     0.110 A 
ATOM     19  C24 ZIN A   1      18.368   1.589  14.191  0.00  0.00     0.001 A 
ENDROOT
BRANCH   1  20
ATOM     20  O2  ZIN A   1      18.275   5.209  14.866  0.00  0.00    -0.353 OA
ATOM     21  C1  ZIN A   1      19.472   5.951  14.624  0.00  0.00     0.210 C 
ENDBRANCH   1  20
BRANCH  14  22
ATOM     22  O18 ZIN A   1      16.981   1.769  18.281  0.00  0.00    -0.392 OA
ATOM     23  H41 ZIN A   1      17.550   2.541  18.163  0.00  0.00     0.210 HD
ENDBRANCH  14  22
TORSDOF 2
ENDMDL
MODEL 8
REMARK VINA RESULT:      -7.0      3.328      4.960
REMARK  2 active torsions:
REMARK  status: ('A' for Active; 'I' for Inactive)
REMARK    1  A    between atoms: O2_2  and  C3_3 
REMARK    2  A    between atoms: C16_16  and  O18_17 
ROOT
ATOM      1  C3  ZIN A   1      18.084  -4.250   8.418  0.00  0.00     0.102 A 
ATOM      2  C4  ZIN A   1      18.494  -4.361   7.096  0.00  0.00     0.040 A 
ATOM      3  C5  ZIN A   1      18.916  -3.267   6.376  0.00  0.00     0.012 A 
ATOM      4  C6  ZIN A   1      18.932  -1.979   6.930  0.00  0.00    -0.022 A 
ATOM      5  C7  ZIN A   1      19.249  -0.862   5.980  0.00  0.00     0.273 C 
ATOM      6  N8  ZIN A   1      18.415   0.304   6.185  0.00  0.00    -0.071 N 
ATOM      7  H9  ZIN A   1      18.541   0.928   5.402  0.00  0.00     0.279 HD
ATOM      8  C10 ZIN A   1      17.011  -0.127   6.212  0.00  0.00     0.270 C 
ATOM      9  C11 ZIN A   1      18.688   1.029   7.393  0.00  0.00     0.236 C 
ATOM     10  C12 ZIN A   1      17.966   0.522   8.607  0.00  0.00     0.049 C 
ATOM     11  C13 ZIN A   1      18.626  -0.704   9.205  0.00  0.00     0.036 C 
ATOM     12  C14 ZIN A   1      20.047  -0.438   9.573  0.00  0.00    -0.011 C 
ATOM     13  C15 ZIN A   1      20.535  -0.509  10.766  0.00  0.00     0.002 C 
ATOM     14  C16 ZIN A   1      19.731  -0.885  11.970  0.00  0.00     0.143 C 
ATOM     15  C19 ZIN A   1      18.245  -0.722  11.728  0.00  0.00     0.069 C 
ATOM     16  C20 ZIN A   1      17.790  -1.215  10.382  0.00  0.00     0.148 C 
ATOM     17  O22 ZIN A   1      17.858  -2.642  10.272  0.00  0.00    -0.341 OA
ATOM     18  C23 ZIN A   1      18.139  -2.974   8.993  0.00  0.00     0.110 A 
ATOM     19  C24 ZIN A   1      18.572  -1.874   8.241  0.00  0.00     0.001 A 
ENDROOT
BRANCH   1  20
ATOM     20  O2  ZIN A   1      17.646  -5.330   9.120  0.00  0.00    -0.353 OA
ATOM     21  C1  ZIN A   1      16.237  -5.567   9.134  0.00  0.00     0.210 C 
ENDBRANCH   1  20
BRANCH  14  22
ATOM     22  O18 ZIN A   1      20.002  -2.248  12.302  0.00  0.00    -0.392 OA
ATOM     23  H41 ZIN A   1      19.769  -2.877  11.605  0.00  0.00     0.210 HD
ENDBRANCH  14  22
TORSDOF 2
ENDMDL
MODEL 9
REMARK VINA RESULT:      -7.0      4.345      7.285
REMARK  2 active torsions:
REMARK  status: ('A' for Active; 'I' for Inactive)
REMARK    1  A    between atoms: O2_2  and  C3_3 
REMARK    2  A    between atoms: C16_16  and  O18_17 
ROOT
ATOM      1  C3  ZIN A   1      18.568  -1.293   7.292  0.00  0.00     0.102 A 
ATOM      2  C4  ZIN A   1      19.239  -0.204   7.833  0.00  0.00     0.040 A 
ATOM      3  C5  ZIN A   1      19.609  -0.167   9.157  0.00  0.00     0.012 A 
ATOM      4  C6  ZIN A   1      19.309  -1.216  10.038  0.00  0.00    -0.022 A 
ATOM      5  C7  ZIN A   1      19.620  -0.965  11.484  0.00  0.00     0.273 C 
ATOM      6  N8  ZIN A   1      18.584  -1.450  12.373  0.00  0.00    -0.071 N 
ATOM      7  H9  ZIN A   1      18.757  -1.080  13.296  0.00  0.00     0.279 HD
ATOM      8  C10 ZIN A   1      17.290  -0.937  11.904  0.00  0.00     0.270 C 
ATOM      9  C11 ZIN A   1      18.498  -2.879  12.466  0.00  0.00     0.236 C 
ATOM     10  C12 ZIN A   1      17.645  -3.526  11.415  0.00  0.00     0.049 C 
ATOM     11  C13 ZIN A   1      18.366  -3.666  10.088  0.00  0.00     0.036 C 
ATOM     12  C14 ZIN A   1      19.628  -4.451  10.229  0.00  0.00    -0.011 C 
ATOM     13  C15 ZIN A   1      19.880  -5.570   9.638  0.00  0.00     0.002 C 
ATOM     14  C16 ZIN A   1      18.930  -6.247   8.701  0.00  0.00     0.143 C 
ATOM     15  C19 ZIN A   1      17.512  -5.743   8.877  0.00  0.00     0.069 C 
ATOM     16  C20 ZIN A   1      17.412  -4.252   9.043  0.00  0.00     0.148 C 
ATOM     17  O22 ZIN A   1      17.730  -3.546   7.838  0.00  0.00    -0.341 OA
ATOM     18  C23 ZIN A   1      18.303  -2.365   8.155  0.00  0.00     0.110 A 
ATOM     19  C24 ZIN A   1      18.690  -2.305   9.500  0.00  0.00     0.001 A 
ENDROOT
BRANCH   1  20
ATOM     20  O2  ZIN A   1      18.183  -1.316   5.989  0.00  0.00    -0.353 OA
ATOM     21  C1  ZIN A   1      19.192  -1.602   5.018  0.00  0.00     0.210 C 
ENDBRANCH   1  20
BRANCH  14  22
ATOM     22  O18 ZIN A   1      19.348  -6.001   7.357  0.00  0.00    -0.392 OA
ATOM     23  H41 ZIN A   1      20.212  -6.376   7.139  0.00  0.00     0.210 HD
ENDBRANCH  14  22
TORSDOF 2
ENDMDL
