MODEL 1
REMARK VINA RESULT:      -6.6      0.000      0.000
REMARK  7 active torsions:
REMARK  status: ('A' for Active; 'I' for Inactive)
REMARK    1  A    between atoms: O2_2  and  C3_3 
REMARK    2  A    between atoms: C6_6  and  C7_7 
REMARK    3  A    between atoms: C7_7  and  N8_8 
REMARK    4  A    between atoms: N8_8  and  C9_9 
REMARK    5  A    between atoms: N8_8  and  C14_14 
REMARK    6  A    between atoms: C9_9  and  C10_10 
REMARK    7  A    between atoms: C10_10  and  N11_11 
ROOT
ATOM      1  N8  ZIN A   1      18.206  -0.219  11.728  0.00  0.00    -0.208 N 
ENDROOT
BRANCH   1   2
ATOM      2  C7  ZIN A   1      17.228   0.477  10.888  0.00  0.00     0.180 C 
BRANCH   2   3
ATOM      3  C6  ZIN A   1      17.777   0.623   9.493  0.00  0.00    -0.040 A 
ATOM      4  C5  ZIN A   1      18.742   1.578   9.228  0.00  0.00     0.011 A 
ATOM      5  C4  ZIN A   1      19.248   1.713   7.949  0.00  0.00     0.037 A 
ATOM      6  C3  ZIN A   1      18.789   0.891   6.932  0.00  0.00     0.068 A 
ATOM      7  C21 ZIN A   1      17.817  -0.062   7.199  0.00  0.00     0.037 A 
ATOM      8  C20 ZIN A   1      17.317  -0.197   8.480  0.00  0.00     0.011 A 
BRANCH   6   9
ATOM      9  O2  ZIN A   1      19.285   1.022   5.673  0.00  0.00    -0.356 OA
ATOM     10  C1  ZIN A   1      19.300  -0.151   4.857  0.00  0.00     0.210 C 
ENDBRANCH   6   9
ENDBRANCH   2   3
ENDBRANCH   1   2
BRANCH   1  11
ATOM     11  C9  ZIN A   1      19.052   0.542  12.650  0.00  0.00     0.172 C 
BRANCH  11  12
ATOM     12  C10 ZIN A   1      18.274   0.830  13.936  0.00  0.00     0.291 C 
BRANCH  12  13
ATOM     13  N11 ZIN A   1      19.057   0.380  15.094  0.00  0.00     0.081 N 
ATOM     14  C12 ZIN A   1      18.699   1.139  16.300  0.00  0.00     0.309 C 
ATOM     15  C13 ZIN A   1      18.891  -1.064  15.313  0.00  0.00     0.309 C 
ENDBRANCH  12  13
ENDBRANCH  11  12
ENDBRANCH   1  11
BRANCH   1  16
ATOM     16  C14 ZIN A   1      18.332  -1.595  11.649  0.00  0.00     0.724 A 
ATOM     17  N19 ZIN A   1      19.537  -2.140  11.729  0.00  0.00    -0.075 NA
ATOM     18  C18 ZIN A   1      19.691  -3.453  11.660  0.00  0.00     0.138 A 
ATOM     19  C17 ZIN A   1      18.575  -4.256  11.493  0.00  0.00     0.040 A 
ATOM     20  C16 ZIN A   1      17.330  -3.653  11.407  0.00  0.00     0.138 A 
ATOM     21  N15 ZIN A   1      17.245  -2.335  11.488  0.00  0.00    -0.075 NA
ENDBRANCH   1  16
TORSDOF 7
ENDMDL
MODEL 2
REMARK VINA RESULT:      -6.5      0.384      1.318
REMARK  7 active torsions:
REMARK  status: ('A' for Active; 'I' for Inactive)
REMARK    1  A    between atoms: O2_2  and  C3_3 
REMARK    2  A    between atoms: C6_6  and  C7_7 
REMARK    3  A    between atoms: C7_7  and  N8_8 
REMARK    4  A    between atoms: N8_8  and  C9_9 
REMARK    5  A    between atoms: N8_8  and  C14_14 
REMARK    6  A    between atoms: C9_9  and  C10_10 
REMARK    7  A    between atoms: C10_10  and  N11_11 
ROOT
ATOM      1  N8  ZIN A   1      18.043  -0.289  11.765  0.00  0.00    -0.208 N 
ENDROOT
BRANCH   1   2
ATOM      2  C7  ZIN A   1      17.077   0.366  10.878  0.00  0.00     0.180 C 
BRANCH   2   3
ATOM      3  C6  ZIN A   1      17.694   0.555   9.517  0.00  0.00    -0.040 A 
ATOM      4  C5  ZIN A   1      18.643   1.542   9.319  0.00  0.00     0.011 A 
ATOM      5  C4  ZIN A   1      19.210   1.716   8.072  0.00  0.00     0.037 A 
ATOM      6  C3  ZIN A   1      18.827   0.901   7.017  0.00  0.00     0.068 A 
ATOM      7  C21 ZIN A   1      17.871  -0.084   7.216  0.00  0.00     0.037 A 
ATOM      8  C20 ZIN A   1      17.311  -0.258   8.467  0.00  0.00     0.011 A 
BRANCH   6   9
ATOM      9  O2  ZIN A   1      19.384   1.071   5.788  0.00  0.00    -0.356 OA
ATOM     10  C1  ZIN A   1      19.266  -0.016   4.868  0.00  0.00     0.210 C 
ENDBRANCH   6   9
ENDBRANCH   2   3
ENDBRANCH   1   2
BRANCH   1  11
ATOM     11  C9  ZIN A   1      18.761   0.495  12.772  0.00  0.00     0.172 C 
BRANCH  11  12
ATOM     12  C10 ZIN A   1      17.762   1.075  13.775  0.00  0.00     0.291 C 
BRANCH  12  13
ATOM     13  N11 ZIN A   1      18.222   0.796  15.142  0.00  0.00     0.081 N 
ATOM     14  C12 ZIN A   1      18.988  -0.456  15.196  0.00  0.00     0.309 C 
ATOM     15  C13 ZIN A   1      19.010   1.918  15.671  0.00  0.00     0.309 C 
ENDBRANCH  12  13
ENDBRANCH  11  12
ENDBRANCH   1  11
BRANCH   1  16
ATOM     16  C14 ZIN A   1      18.277  -1.648  11.649  0.00  0.00     0.724 A 
ATOM     17  N19 ZIN A   1      17.248  -2.474  11.534  0.00  0.00    -0.075 NA
ATOM     18  C18 ZIN A   1      17.437  -3.779  11.417  0.00  0.00     0.138 A 
ATOM     19  C17 ZIN A   1      18.730  -4.277  11.427  0.00  0.00     0.040 A 
ATOM     20  C16 ZIN A   1      19.784  -3.386  11.556  0.00  0.00     0.138 A 
ATOM     21  N15 ZIN A   1      19.526  -2.093  11.663  0.00  0.00    -0.075 NA
ENDBRANCH   1  16
TORSDOF 7
ENDMDL
MODEL 3
REMARK VINA RESULT:      -6.2      3.054      5.435
REMARK  7 active torsions:
REMARK  status: ('A' for Active; 'I' for Inactive)
REMARK    1  A    between atoms: O2_2  and  C3_3 
REMARK    2  A    between atoms: C6_6  and  C7_7 
REMARK    3  A    between atoms: C7_7  and  N8_8 
REMARK    4  A    between atoms: N8_8  and  C9_9 
REMARK    5  A    between atoms: N8_8  and  C14_14 
REMARK    6  A    between atoms: C9_9  and  C10_10 
REMARK    7  A    between atoms: C10_10  and  N11_11 
ROOT
ATOM      1  N8  ZIN A   1      18.890  -1.515   8.336  0.00  0.00    -0.208 N 
ENDROOT
BRANCH   1   2
ATOM      2  C7  ZIN A   1      19.813  -0.657   9.085  0.00  0.00     0.180 C 
BRANCH   2   3
ATOM      3  C6  ZIN A   1      19.060   0.519   9.649  0.00  0.00    -0.040 A 
ATOM      4  C5  ZIN A   1      19.212   1.772   9.084  0.00  0.00     0.011 A 
ATOM      5  C4  ZIN A   1      18.522   2.852   9.599  0.00  0.00     0.037 A 
ATOM      6  C3  ZIN A   1      17.675   2.679  10.683  0.00  0.00     0.068 A 
ATOM      7  C21 ZIN A   1      17.528   1.423  11.252  0.00  0.00     0.037 A 
ATOM      8  C20 ZIN A   1      18.217   0.345  10.730  0.00  0.00     0.011 A 
BRANCH   6   9
ATOM      9  O2  ZIN A   1      16.995   3.740  11.192  0.00  0.00    -0.356 OA
ATOM     10  C1  ZIN A   1      17.179   5.000  10.542  0.00  0.00     0.210 C 
ENDBRANCH   6   9
ENDBRANCH   2   3
ENDBRANCH   1   2
BRANCH   1  11
ATOM     11  C9  ZIN A   1      18.193  -2.609   9.015  0.00  0.00     0.172 C 
BRANCH  11  12
ATOM     12  C10 ZIN A   1      19.173  -3.755   9.275  0.00  0.00     0.291 C 
BRANCH  12  13
ATOM     13  N11 ZIN A   1      19.046  -4.202  10.668  0.00  0.00     0.081 N 
ATOM     14  C12 ZIN A   1      20.058  -3.565  11.521  0.00  0.00     0.309 C 
ATOM     15  C13 ZIN A   1      17.692  -3.949  11.180  0.00  0.00     0.309 C 
ENDBRANCH  12  13
ENDBRANCH  11  12
ENDBRANCH   1  11
BRANCH   1  16
ATOM     16  C14 ZIN A   1      18.678  -1.290   6.987  0.00  0.00     0.724 A 
ATOM     17  N19 ZIN A   1      17.667  -0.521   6.610  0.00  0.00    -0.075 NA
ATOM     18  C18 ZIN A   1      17.438  -0.283   5.329  0.00  0.00     0.138 A 
ATOM     19  C17 ZIN A   1      18.265  -0.857   4.377  0.00  0.00     0.040 A 
ATOM     20  C16 ZIN A   1      19.310  -1.662   4.805  0.00  0.00     0.138 A 
ATOM     21  N15 ZIN A   1      19.486  -1.855   6.102  0.00  0.00    -0.075 NA
ENDBRANCH   1  16
TORSDOF 7
ENDMDL
MODEL 4
REMARK VINA RESULT:      -6.2      3.387      7.290
REMARK  7 active torsions:
REMARK  status: ('A' for Active; 'I' for Inactive)
REMARK    1  A    between atoms: O2_2  and  C3_3 
REMARK    2  A    between atoms: C6_6  and  C7_7 
REMARK    3  A    between atoms: C7_7  and  N8_8 
REMARK    4  A    between atoms: N8_8  and  C9_9 
REMARK    5  A    between atoms: N8_8  and  C14_14 
REMARK    6  A    between atoms: C9_9  and  C10_10 
REMARK    7  A    between atoms: C10_10  and  N11_11 
ROOT
ATOM      1  N8  ZIN A   1      18.400   0.863  11.052  0.00  0.00    -0.208 N 
ENDROOT
BRANCH   1   2
ATOM      2  C7  ZIN A   1      17.471  -0.062  11.706  0.00  0.00     0.180 C 
BRANCH   2   3
ATOM      3  C6  ZIN A   1      17.953  -0.353  13.103  0.00  0.00    -0.040 A 
ATOM      4  C5  ZIN A   1      18.968  -1.270  13.306  0.00  0.00     0.011 A 
ATOM      5  C4  ZIN A   1      19.412  -1.537  14.587  0.00  0.00     0.037 A 
ATOM      6  C3  ZIN A   1      18.840  -0.886  15.669  0.00  0.00     0.068 A 
ATOM      7  C21 ZIN A   1      17.818   0.029  15.463  0.00  0.00     0.037 A 
ATOM      8  C20 ZIN A   1      17.380   0.297  14.181  0.00  0.00     0.011 A 
BRANCH   6   9
ATOM      9  O2  ZIN A   1      19.275  -1.148  16.929  0.00  0.00    -0.356 OA
ATOM     10  C1  ZIN A   1      19.127  -0.106  17.896  0.00  0.00     0.210 C 
ENDBRANCH   6   9
ENDBRANCH   2   3
ENDBRANCH   1   2
BRANCH   1  11
ATOM     11  C9  ZIN A   1      19.306   0.376  10.009  0.00  0.00     0.172 C 
BRANCH  11  12
ATOM     12  C10 ZIN A   1      19.086   1.178   8.725  0.00  0.00     0.291 C 
BRANCH  12  13
ATOM     13  N11 ZIN A   1      18.699   0.269   7.639  0.00  0.00     0.081 N 
ATOM     14  C12 ZIN A   1      17.321  -0.208   7.817  0.00  0.00     0.309 C 
ATOM     15  C13 ZIN A   1      18.868   0.913   6.329  0.00  0.00     0.309 C 
ENDBRANCH  12  13
ENDBRANCH  11  12
ENDBRANCH   1  11
BRANCH   1  16
ATOM     16  C14 ZIN A   1      18.423   2.197  11.419  0.00  0.00     0.724 A 
ATOM     17  N19 ZIN A   1      17.306   2.907  11.345  0.00  0.00    -0.075 NA
ATOM     18  C18 ZIN A   1      17.293   4.184  11.693  0.00  0.00     0.138 A 
ATOM     19  C17 ZIN A   1      18.466   4.778  12.129  0.00  0.00     0.040 A 
ATOM     20  C16 ZIN A   1      19.617   4.008  12.189  0.00  0.00     0.138 A 
ATOM     21  N15 ZIN A   1      19.561   2.735  11.831  0.00  0.00    -0.075 NA
ENDBRANCH   1  16
TORSDOF 7
ENDMDL
MODEL 5
REMARK VINA RESULT:      -6.2      2.057      4.352
REMARK  7 active torsions:
REMARK  status: ('A' for Active; 'I' for Inactive)
REMARK    1  A    between atoms: O2_2  and  C3_3 
REMARK    2  A    between atoms: C6_6  and  C7_7 
REMARK    3  A    between atoms: C7_7  and  N8_8 
REMARK    4  A    between atoms: N8_8  and  C9_9 
REMARK    5  A    between atoms: N8_8  and  C14_14 
REMARK    6  A    between atoms: C9_9  and  C10_10 
REMARK    7  A    between atoms: C10_10  and  N11_11 
ROOT
ATOM      1  N8  ZIN A   1      18.213   1.226  11.540  0.00  0.00    -0.208 N 
ENDROOT
BRANCH   1   2
ATOM      2  C7  ZIN A   1      17.191   0.762  10.597  0.00  0.00     0.180 C 
BRANCH   2   3
ATOM      3  C6  ZIN A   1      17.772   0.720   9.208  0.00  0.00    -0.040 A 
ATOM      4  C5  ZIN A   1      17.390  -0.278   8.329  0.00  0.00     0.011 A 
ATOM      5  C4  ZIN A   1      17.921  -0.317   7.055  0.00  0.00     0.037 A 
ATOM      6  C3  ZIN A   1      18.838   0.643   6.656  0.00  0.00     0.068 A 
ATOM      7  C21 ZIN A   1      19.224   1.639   7.541  0.00  0.00     0.037 A 
ATOM      8  C20 ZIN A   1      18.686   1.678   8.813  0.00  0.00     0.011 A 
BRANCH   6   9
ATOM      9  O2  ZIN A   1      19.362   0.605   5.403  0.00  0.00    -0.356 OA
ATOM     10  C1  ZIN A   1      18.738  -0.274   4.465  0.00  0.00     0.210 C 
ENDBRANCH   6   9
ENDBRANCH   2   3
ENDBRANCH   1   2
BRANCH   1  11
ATOM     11  C9  ZIN A   1      19.296   0.329  11.946  0.00  0.00     0.172 C 
BRANCH  11  12
ATOM     12  C10 ZIN A   1      18.724  -0.813  12.789  0.00  0.00     0.291 C 
BRANCH  12  13
ATOM     13  N11 ZIN A   1      18.931  -2.089  12.092  0.00  0.00     0.081 N 
ATOM     14  C12 ZIN A   1      17.651  -2.670  11.665  0.00  0.00     0.309 C 
ATOM     15  C13 ZIN A   1      19.840  -1.923  10.949  0.00  0.00     0.309 C 
ENDBRANCH  12  13
ENDBRANCH  11  12
ENDBRANCH   1  11
BRANCH   1  16
ATOM     16  C14 ZIN A   1      18.153   2.513  12.047  0.00  0.00     0.724 A 
ATOM     17  N19 ZIN A   1      19.075   2.911  12.911  0.00  0.00    -0.075 NA
ATOM     18  C18 ZIN A   1      19.049   4.136  13.412  0.00  0.00     0.138 A 
ATOM     19  C17 ZIN A   1      18.037   5.001  13.029  0.00  0.00     0.040 A 
ATOM     20  C16 ZIN A   1      17.085   4.550  12.127  0.00  0.00     0.138 A 
ATOM     21  N15 ZIN A   1      17.171   3.315  11.661  0.00  0.00    -0.075 NA
ENDBRANCH   1  16
TORSDOF 7
ENDMDL
MODEL 6
REMARK VINA RESULT:      -6.2      2.578      4.507
REMARK  7 active torsions:
REMARK  status: ('A' for Active; 'I' for Inactive)
REMARK    1  A    between atoms: O2_2  and  C3_3 
REMARK    2  A    between atoms: C6_6  and  C7_7 
REMARK    3  A    between atoms: C7_7  and  N8_8 
REMARK    4  A    between atoms: N8_8  and  C9_9 
REMARK    5  A    between atoms: N8_8  and  C14_14 
REMARK    6  A    between atoms: C9_9  and  C10_10 
REMARK    7  A    between atoms: C10_10  and  N11_11 
ROOT
ATOM      1  N8  ZIN A   1      18.065   1.787  11.586  0.00  0.00    -0.208 N 
ENDROOT
BRANCH   1   2
ATOM      2  C7  ZIN A   1      19.405   1.569  11.036  0.00  0.00     0.180 C 
BRANCH   2   3
ATOM      3  C6  ZIN A   1      19.291   0.937   9.673  0.00  0.00    -0.040 A 
ATOM      4  C5  ZIN A   1      18.861   1.691   8.596  0.00  0.00     0.011 A 
ATOM      5  C4  ZIN A   1      18.757   1.114   7.346  0.00  0.00     0.037 A 
ATOM      6  C3  ZIN A   1      19.083  -0.222   7.170  0.00  0.00     0.068 A 
ATOM      7  C21 ZIN A   1      19.509  -0.978   8.253  0.00  0.00     0.037 A 
ATOM      8  C20 ZIN A   1      19.617  -0.395   9.500  0.00  0.00     0.011 A 
BRANCH   6   9
ATOM      9  O2  ZIN A   1      18.981  -0.792   5.940  0.00  0.00    -0.356 OA
ATOM     10  C1  ZIN A   1      19.283   0.035   4.815  0.00  0.00     0.210 C 
ENDBRANCH   6   9
ENDBRANCH   2   3
ENDBRANCH   1   2
BRANCH   1  11
ATOM     11  C9  ZIN A   1      17.189   0.646  11.856  0.00  0.00     0.172 C 
BRANCH  11  12
ATOM     12  C10 ZIN A   1      17.460   0.115  13.265  0.00  0.00     0.291 C 
BRANCH  12  13
ATOM     13  N11 ZIN A   1      17.970  -1.259  13.183  0.00  0.00     0.081 N 
ATOM     14  C12 ZIN A   1      17.568  -1.896  11.921  0.00  0.00     0.309 C 
ATOM     15  C13 ZIN A   1      19.430  -1.290  13.346  0.00  0.00     0.309 C 
ENDBRANCH  12  13
ENDBRANCH  11  12
ENDBRANCH   1  11
BRANCH   1  16
ATOM     16  C14 ZIN A   1      17.626   3.074  11.851  0.00  0.00     0.724 A 
ATOM     17  N19 ZIN A   1      17.803   3.581  13.062  0.00  0.00    -0.075 NA
ATOM     18  C18 ZIN A   1      17.399   4.808  13.347  0.00  0.00     0.138 A 
ATOM     19  C17 ZIN A   1      16.777   5.560  12.363  0.00  0.00     0.040 A 
ATOM     20  C16 ZIN A   1      16.603   4.996  11.108  0.00  0.00     0.138 A 
ATOM     21  N15 ZIN A   1      17.034   3.765  10.889  0.00  0.00    -0.075 NA
ENDBRANCH   1  16
TORSDOF 7
ENDMDL
MODEL 7
REMARK VINA RESULT:      -6.2      2.268      3.117
REMARK  7 active torsions:
REMARK  status: ('A' for Active; 'I' for Inactive)
REMARK    1  A    between atoms: O2_2  and  C3_3 
REMARK    2  A    between atoms: C6_6  and  C7_7 
REMARK    3  A    between atoms: C7_7  and  N8_8 
REMARK    4  A    between atoms: N8_8  and  C9_9 
REMARK    5  A    between atoms: N8_8  and  C14_14 
REMARK    6  A    between atoms: C9_9  and  C10_10 
REMARK    7  A    between atoms: C10_10  and  N11_11 
ROOT
ATOM      1  N8  ZIN A   1      18.665   1.913  11.852  0.00  0.00    -0.208 N 
ENDROOT
BRANCH   1   2
ATOM      2  C7  ZIN A   1      17.590   2.080  10.870  0.00  0.00     0.180 C 
BRANCH   2   3
ATOM      3  C6  ZIN A   1      17.953   1.355   9.600  0.00  0.00    -0.040 A 
ATOM      4  C5  ZIN A   1      18.870   1.910   8.726  0.00  0.00     0.011 A 
ATOM      5  C4  ZIN A   1      19.204   1.246   7.562  0.00  0.00     0.037 A 
ATOM      6  C3  ZIN A   1      18.620   0.023   7.270  0.00  0.00     0.068 A 
ATOM      7  C21 ZIN A   1      17.696  -0.529   8.145  0.00  0.00     0.037 A 
ATOM      8  C20 ZIN A   1      17.369   0.136   9.311  0.00  0.00     0.011 A 
BRANCH   6   9
ATOM      9  O2  ZIN A   1      18.947  -0.632   6.124  0.00  0.00    -0.356 OA
ATOM     10  C1  ZIN A   1      19.329   0.171   5.005  0.00  0.00     0.210 C 
ENDBRANCH   6   9
ENDBRANCH   2   3
ENDBRANCH   1   2
BRANCH   1  11
ATOM     11  C9  ZIN A   1      19.783   2.857  11.882  0.00  0.00     0.172 C 
BRANCH  11  12
ATOM     12  C10 ZIN A   1      19.245   4.282  12.022  0.00  0.00     0.291 C 
BRANCH  12  13
ATOM     13  N11 ZIN A   1      18.870   4.530  13.420  0.00  0.00     0.081 N 
ATOM     14  C12 ZIN A   1      19.787   5.490  14.050  0.00  0.00     0.309 C 
ATOM     15  C13 ZIN A   1      17.478   4.990  13.519  0.00  0.00     0.309 C 
ENDBRANCH  12  13
ENDBRANCH  11  12
ENDBRANCH   1  11
BRANCH   1  16
ATOM     16  C14 ZIN A   1      18.623   0.860  12.750  0.00  0.00     0.724 A 
ATOM     17  N19 ZIN A   1      19.315  -0.239  12.491  0.00  0.00    -0.075 NA
ATOM     18  C18 ZIN A   1      19.300  -1.262  13.331  0.00  0.00     0.138 A 
ATOM     19  C17 ZIN A   1      18.541  -1.176  14.487  0.00  0.00     0.040 A 
ATOM     20  C16 ZIN A   1      17.824  -0.013  14.724  0.00  0.00     0.138 A 
ATOM     21  N15 ZIN A   1      17.887   0.975  13.846  0.00  0.00    -0.075 NA
ENDBRANCH   1  16
TORSDOF 7
ENDMDL
MODEL 8
REMARK VINA RESULT:      -6.2      3.353      6.151
REMARK  7 active torsions:
REMARK  status: ('A' for Active; 'I' for Inactive)
REMARK    1  A    between atoms: O2_2  and  C3_3 
REMARK    2  A    between atoms: C6_6  and  C7_7 
REMARK    3  A    between atoms: C7_7  and  N8_8 
REMARK    4  A    between atoms: N8_8  and  C9_9 
REMARK    5  A    between atoms: N8_8  and  C14_14 
REMARK    6  A    between atoms: C9_9  and  C10_10 
REMARK    7  A    between atoms: C10_10  and  N11_11 
ROOT
ATOM      1  N8  ZIN A   1      18.161  -0.266  11.807  0.00  0.00    -0.208 N 
ENDROOT
BRANCH   1   2
ATOM      2  C7  ZIN A   1      17.156   0.267  12.731  0.00  0.00     0.180 C 
BRANCH   2   3
ATOM      3  C6  ZIN A   1      17.801   0.554  14.062  0.00  0.00    -0.040 A 
ATOM      4  C5  ZIN A   1      18.050  -0.480  14.946  0.00  0.00     0.011 A 
ATOM      5  C4  ZIN A   1      18.642  -0.218  16.166  0.00  0.00     0.037 A 
ATOM      6  C3  ZIN A   1      18.988   1.081  16.505  0.00  0.00     0.068 A 
ATOM      7  C21 ZIN A   1      18.733   2.117  15.618  0.00  0.00     0.037 A 
ATOM      8  C20 ZIN A   1      18.145   1.851  14.397  0.00  0.00     0.011 A 
BRANCH   6   9
ATOM      9  O2  ZIN A   1      19.571   1.340  17.705  0.00  0.00    -0.356 OA
ATOM     10  C1  ZIN A   1      19.096   2.482  18.423  0.00  0.00     0.210 C 
ENDBRANCH   6   9
ENDBRANCH   2   3
ENDBRANCH   1   2
BRANCH   1  11
ATOM     11  C9  ZIN A   1      18.981   0.647  11.010  0.00  0.00     0.172 C 
BRANCH  11  12
ATOM     12  C10 ZIN A   1      18.074   1.573  10.197  0.00  0.00     0.291 C 
BRANCH  12  13
ATOM     13  N11 ZIN A   1      18.483   2.968  10.404  0.00  0.00     0.081 N 
ATOM     14  C12 ZIN A   1      17.394   3.754  10.999  0.00  0.00     0.309 C 
ATOM     15  C13 ZIN A   1      19.698   3.043  11.228  0.00  0.00     0.309 C 
ENDBRANCH  12  13
ENDBRANCH  11  12
ENDBRANCH   1  11
BRANCH   1  16
ATOM     16  C14 ZIN A   1      18.332  -1.635  11.687  0.00  0.00     0.724 A 
ATOM     17  N19 ZIN A   1      19.557  -2.139  11.730  0.00  0.00    -0.075 NA
ATOM     18  C18 ZIN A   1      19.755  -3.443  11.622  0.00  0.00     0.138 A 
ATOM     19  C17 ZIN A   1      18.665  -4.281  11.452  0.00  0.00     0.040 A 
ATOM     20  C16 ZIN A   1      17.398  -3.719  11.405  0.00  0.00     0.138 A 
ATOM     21  N15 ZIN A   1      17.269  -2.408  11.524  0.00  0.00    -0.075 NA
ENDBRANCH   1  16
TORSDOF 7
ENDMDL
MODEL 9
REMARK VINA RESULT:      -6.1      3.599      5.839
REMARK  7 active torsions:
REMARK  status: ('A' for Active; 'I' for Inactive)
REMARK    1  A    between atoms: O2_2  and  C3_3 
REMARK    2  A    between atoms: C6_6  and  C7_7 
REMARK    3  A    between atoms: C7_7  and  N8_8 
REMARK    4  A    between atoms: N8_8  and  C9_9 
REMARK    5  A    between atoms: N8_8  and  C14_14 
REMARK    6  A    between atoms: C9_9  and  C10_10 
REMARK    7  A    between atoms: C10_10  and  N11_11 
ROOT
ATOM      1  N8  ZIN A   1      18.534   1.521  10.156  0.00  0.00    -0.208 N 
ENDROOT
BRANCH   1   2
ATOM      2  C7  ZIN A   1      19.322   2.721  10.447  0.00  0.00     0.180 C 
BRANCH   2   3
ATOM      3  C6  ZIN A   1      18.492   3.682  11.257  0.00  0.00    -0.040 A 
ATOM      4  C5  ZIN A   1      18.860   3.988  12.555  0.00  0.00     0.011 A 
ATOM      5  C4  ZIN A   1      18.101   4.869  13.300  0.00  0.00     0.037 A 
ATOM      6  C3  ZIN A   1      16.970   5.448  12.746  0.00  0.00     0.068 A 
ATOM      7  C21 ZIN A   1      16.599   5.135  11.447  0.00  0.00     0.037 A 
ATOM      8  C20 ZIN A   1      17.364   4.257  10.704  0.00  0.00     0.011 A 
BRANCH   6   9
ATOM      9  O2  ZIN A   1      16.221   6.316  13.477  0.00  0.00    -0.356 OA
ATOM     10  C1  ZIN A   1      15.847   5.900  14.793  0.00  0.00     0.210 C 
ENDBRANCH   6   9
ENDBRANCH   2   3
ENDBRANCH   1   2
BRANCH   1  11
ATOM     11  C9  ZIN A   1      17.929   0.758  11.250  0.00  0.00     0.172 C 
BRANCH  11  12
ATOM     12  C10 ZIN A   1      19.029   0.074  12.064  0.00  0.00     0.291 C 
BRANCH  12  13
ATOM     13  N11 ZIN A   1      18.883  -1.383  11.958  0.00  0.00     0.081 N 
ATOM     14  C12 ZIN A   1      17.483  -1.757  11.719  0.00  0.00     0.309 C 
ATOM     15  C13 ZIN A   1      19.759  -1.925  10.910  0.00  0.00     0.309 C 
ENDBRANCH  12  13
ENDBRANCH  11  12
ENDBRANCH   1  11
BRANCH   1  16
ATOM     16  C14 ZIN A   1      18.361   1.107   8.846  0.00  0.00     0.724 A 
ATOM     17  N19 ZIN A   1      19.104   1.650   7.893  0.00  0.00    -0.075 NA
ATOM     18  C18 ZIN A   1      18.967   1.274   6.631  0.00  0.00     0.138 A 
ATOM     19  C17 ZIN A   1      18.025   0.309   6.313  0.00  0.00     0.040 A 
ATOM     20  C16 ZIN A   1      17.260  -0.234   7.334  0.00  0.00     0.138 A 
ATOM     21  N15 ZIN A   1      17.451   0.182   8.575  0.00  0.00    -0.075 NA
ENDBRANCH   1  16
TORSDOF 7
ENDMDL
