MODEL 1
REMARK VINA RESULT:      -9.0      0.000      0.000
REMARK  12 active torsions:
REMARK  status: ('A' for Active; 'I' for Inactive)
REMARK    1  A    between atoms: C2_2  and  O3_3 
REMARK    2  A    between atoms: O3_3  and  C4_4 
REMARK    3  A    between atoms: C4_4  and  C6_6 
REMARK    4  A    between atoms: C6_6  and  C8_7 
REMARK    5  A    between atoms: C6_6  and  N16_15 
REMARK    6  A    between atoms: C8_7  and  C9_8 
REMARK    7  A    between atoms: C9_8  and  C10_9 
REMARK    8  A    between atoms: N16_15  and  C17_16 
REMARK    9  A    between atoms: C17_16  and  C20_18 
REMARK       I    between atoms: C20_18  and  N22_20 
REMARK   10  A    between atoms: C26_24  and  O27_25 
REMARK   11  A    between atoms: C29_27  and  O30_28 
REMARK   12  A    between atoms: C35_33  and  C37_34 
ROOT
ATOM      1  C20 <0> d   1      18.905  -2.455   6.678  0.00  0.00     0.254 C 
ATOM      2  O21 <0> d   1      19.562  -2.514   5.661  0.00  0.00    -0.271 OA
ATOM      3  N22 <0> d   1      18.247  -1.321   6.992  0.00  0.00    -0.331 N 
ATOM      4  C23 <0> d   1      17.547  -1.176   8.272  0.00  0.00     0.166 C 
ATOM      5  C24 <0> d   1      17.847   0.178   8.865  0.00  0.00    -0.031 A 
ATOM      6  C25 <0> d   1      17.471   0.403  10.184  0.00  0.00     0.049 A 
ATOM      7  C26 <0> d   1      17.708   1.627  10.782  0.00  0.00     0.102 A 
ATOM      8  C29 <0> d   1      18.329   2.638  10.055  0.00  0.00     0.102 A 
ATOM      9  C32 <0> d   1      18.705   2.408   8.745  0.00  0.00     0.047 A 
ATOM     10  C33 <0> d   1      18.470   1.175   8.148  0.00  0.00    -0.045 A 
ATOM     11  C34 <0> d   1      18.933   0.990   6.726  0.00  0.00     0.075 C 
ATOM     12  C35 <0> d   1      18.209  -0.176   6.067  0.00  0.00     0.192 C 
ENDROOT
BRANCH   1  13
ATOM     13  C17 <0> d   1      18.823  -3.652   7.591  0.00  0.00     0.308 C 
ATOM     14  C19 <0> d   1      20.064  -4.526   7.398  0.00  0.00     0.053 C 
BRANCH  13  15
ATOM     15  N16 <0> d   1      17.620  -4.431   7.271  0.00  0.00     0.111 N 
ATOM     16  H54 <0> d   1      17.499  -4.516   6.273  0.00  0.00     0.318 HD
BRANCH  15  17
ATOM     17  C6  <0> d   1      17.663  -5.752   7.911  0.00  0.00     0.320 C 
BRANCH  17  18
ATOM     18  C4  <0> d   1      17.301  -6.811   6.903  0.00  0.00     0.292 C 
ATOM     19  O5  <0> d   1      18.173  -7.399   6.306  0.00  0.00    -0.263 OA
BRANCH  18  20
ATOM     20  O3  <0> d   1      16.013  -7.104   6.669  0.00  0.00    -0.320 OA
BRANCH  20  21
ATOM     21  C2  <0> d   1      15.359  -6.388   5.588  0.00  0.00     0.174 C 
ATOM     22  C1  <0> d   1      13.842  -6.452   5.778  0.00  0.00     0.034 C 
ENDBRANCH  20  21
ENDBRANCH  18  20
ENDBRANCH  17  18
BRANCH  17  23
ATOM     23  C8  <0> d   1      16.666  -5.790   9.071  0.00  0.00     0.051 C 
BRANCH  23  24
ATOM     24  C9  <0> d   1      17.400  -6.147  10.365  0.00  0.00     0.041 C 
BRANCH  24  25
ATOM     25  C10 <0> d   1      18.036  -4.908  10.941  0.00  0.00    -0.058 A 
ATOM     26  C15 <0> d   1      19.410  -4.835  11.074  0.00  0.00     0.007 A 
ATOM     27  C14 <0> d   1      19.993  -3.697  11.598  0.00  0.00     0.001 A 
ATOM     28  C13 <0> d   1      19.202  -2.636  11.998  0.00  0.00     0.000 A 
ATOM     29  C12 <0> d   1      17.828  -2.711  11.868  0.00  0.00     0.001 A 
ATOM     30  C11 <0> d   1      17.245  -3.847  11.340  0.00  0.00     0.007 A 
ENDBRANCH  24  25
ENDBRANCH  23  24
ENDBRANCH  17  23
ENDBRANCH  15  17
ENDBRANCH  13  15
ENDBRANCH   1  13
BRANCH  12  31
ATOM     31  C37 <0> d   1      18.898  -0.540   4.777  0.00  0.00     0.197 C 
ATOM     32  O38 <0> d   1      18.252  -0.997   3.849  0.00  0.00    -0.646 OA
ATOM     33  O39 <0> d   1      20.101  -0.379   4.661  0.00  0.00    -0.646 OA
ENDBRANCH  12  31
BRANCH   7  34
ATOM     34  O27 <0> d   1      17.339   1.840  12.073  0.00  0.00    -0.353 OA
ATOM     35  C28 <0> d   1      17.555   0.770  12.996  0.00  0.00     0.210 C 
ENDBRANCH   7  34
BRANCH   8  36
ATOM     36  O30 <0> d   1      18.564   3.848  10.630  0.00  0.00    -0.353 OA
ATOM     37  C31 <0> d   1      17.621   4.888  10.363  0.00  0.00     0.210 C 
ENDBRANCH   8  36
TORSDOF 12
ENDMDL
MODEL 2
REMARK VINA RESULT:      -8.4      4.768     10.812
REMARK  12 active torsions:
REMARK  status: ('A' for Active; 'I' for Inactive)
REMARK    1  A    between atoms: C2_2  and  O3_3 
REMARK    2  A    between atoms: O3_3  and  C4_4 
REMARK    3  A    between atoms: C4_4  and  C6_6 
REMARK    4  A    between atoms: C6_6  and  C8_7 
REMARK    5  A    between atoms: C6_6  and  N16_15 
REMARK    6  A    between atoms: C8_7  and  C9_8 
REMARK    7  A    between atoms: C9_8  and  C10_9 
REMARK    8  A    between atoms: N16_15  and  C17_16 
REMARK    9  A    between atoms: C17_16  and  C20_18 
REMARK       I    between atoms: C20_18  and  N22_20 
REMARK   10  A    between atoms: C26_24  and  O27_25 
REMARK   11  A    between atoms: C29_27  and  O30_28 
REMARK   12  A    between atoms: C35_33  and  C37_34 
ROOT
ATOM      1  C20 <0> d   1      18.854   2.589  16.485  0.00  0.00     0.254 C 
ATOM      2  O21 <0> d   1      19.477   2.541  17.524  0.00  0.00    -0.271 OA
ATOM      3  N22 <0> d   1      18.235   1.487  16.017  0.00  0.00    -0.331 N 
ATOM      4  C23 <0> d   1      17.580   1.480  14.706  0.00  0.00     0.166 C 
ATOM      5  C24 <0> d   1      17.932   0.212  13.969  0.00  0.00    -0.031 A 
ATOM      6  C25 <0> d   1      17.605   0.136  12.621  0.00  0.00     0.049 A 
ATOM      7  C26 <0> d   1      17.891  -1.004  11.892  0.00  0.00     0.102 A 
ATOM      8  C29 <0> d   1      18.512  -2.081  12.517  0.00  0.00     0.102 A 
ATOM      9  C32 <0> d   1      18.841  -1.999  13.857  0.00  0.00     0.047 A 
ATOM     10  C33 <0> d   1      18.556  -0.850  14.585  0.00  0.00    -0.045 A 
ATOM     11  C34 <0> d   1      18.968  -0.825  16.034  0.00  0.00     0.075 C 
ATOM     12  C35 <0> d   1      18.195   0.241  16.801  0.00  0.00     0.192 C 
ENDROOT
BRANCH   1  13
ATOM     13  C17 <0> d   1      18.773   3.883  15.716  0.00  0.00     0.308 C 
ATOM     14  C19 <0> d   1      20.003   4.738  16.026  0.00  0.00     0.053 C 
BRANCH  13  15
ATOM     15  N16 <0> d   1      17.559   4.611  16.110  0.00  0.00     0.111 N 
ATOM     16  H54 <0> d   1      17.660   5.011  17.030  0.00  0.00     0.318 HD
BRANCH  15  17
ATOM     17  C6  <0> d   1      17.221   5.644  15.121  0.00  0.00     0.320 C 
BRANCH  17  18
ATOM     18  C4  <0> d   1      16.241   6.616  15.724  0.00  0.00     0.292 C 
ATOM     19  O5  <0> d   1      16.403   7.804  15.579  0.00  0.00    -0.263 OA
BRANCH  18  20
ATOM     20  O3  <0> d   1      15.188   6.162  16.421  0.00  0.00    -0.320 OA
BRANCH  20  21
ATOM     21  C2  <0> d   1      13.911   6.814  16.189  0.00  0.00     0.174 C 
ATOM     22  C1  <0> d   1      13.270   6.244  14.922  0.00  0.00     0.034 C 
ENDBRANCH  20  21
ENDBRANCH  18  20
ENDBRANCH  17  18
BRANCH  17  23
ATOM     23  C8  <0> d   1      16.595   4.986  13.890  0.00  0.00     0.051 C 
BRANCH  23  24
ATOM     24  C9  <0> d   1      17.184   5.607  12.623  0.00  0.00     0.041 C 
BRANCH  24  25
ATOM     25  C10 <0> d   1      17.963   4.562  11.865  0.00  0.00    -0.058 A 
ATOM     26  C15 <0> d   1      17.397   3.940  10.768  0.00  0.00     0.007 A 
ATOM     27  C14 <0> d   1      18.112   2.985  10.072  0.00  0.00     0.001 A 
ATOM     28  C13 <0> d   1      19.390   2.645  10.476  0.00  0.00     0.000 A 
ATOM     29  C12 <0> d   1      19.954   3.265  11.576  0.00  0.00     0.001 A 
ATOM     30  C11 <0> d   1      19.240   4.223  12.271  0.00  0.00     0.007 A 
ENDBRANCH  24  25
ENDBRANCH  23  24
ENDBRANCH  17  23
ENDBRANCH  15  17
ENDBRANCH  13  15
ENDBRANCH   1  13
BRANCH  12  31
ATOM     31  C37 <0> d   1      18.833   0.464  18.147  0.00  0.00     0.197 C 
ATOM     32  O38 <0> d   1      20.035   0.308  18.286  0.00  0.00    -0.646 OA
ATOM     33  O39 <0> d   1      18.149   0.799  19.098  0.00  0.00    -0.646 OA
ENDBRANCH  12  31
BRANCH   7  34
ATOM     34  O27 <0> d   1      17.569  -1.071  10.572  0.00  0.00    -0.353 OA
ATOM     35  C28 <0> d   1      18.590  -0.716   9.636  0.00  0.00     0.210 C 
ENDBRANCH   7  34
BRANCH   8  36
ATOM     36  O30 <0> d   1      18.795  -3.210  11.812  0.00  0.00    -0.353 OA
ATOM     37  C31 <0> d   1      20.176  -3.516  11.605  0.00  0.00     0.210 C 
ENDBRANCH   8  36
TORSDOF 12
ENDMDL
MODEL 3
REMARK VINA RESULT:      -7.8      1.742      7.406
REMARK  12 active torsions:
REMARK  status: ('A' for Active; 'I' for Inactive)
REMARK    1  A    between atoms: C2_2  and  O3_3 
REMARK    2  A    between atoms: O3_3  and  C4_4 
REMARK    3  A    between atoms: C4_4  and  C6_6 
REMARK    4  A    between atoms: C6_6  and  C8_7 
REMARK    5  A    between atoms: C6_6  and  N16_15 
REMARK    6  A    between atoms: C8_7  and  C9_8 
REMARK    7  A    between atoms: C9_8  and  C10_9 
REMARK    8  A    between atoms: N16_15  and  C17_16 
REMARK    9  A    between atoms: C17_16  and  C20_18 
REMARK       I    between atoms: C20_18  and  N22_20 
REMARK   10  A    between atoms: C26_24  and  O27_25 
REMARK   11  A    between atoms: C29_27  and  O30_28 
REMARK   12  A    between atoms: C35_33  and  C37_34 
ROOT
ATOM      1  C20 <0> d   1      18.640  -1.012   7.203  0.00  0.00     0.254 C 
ATOM      2  O21 <0> d   1      18.329   0.001   6.613  0.00  0.00    -0.271 OA
ATOM      3  N22 <0> d   1      19.047  -2.096   6.513  0.00  0.00    -0.331 N 
ATOM      4  C23 <0> d   1      19.310  -3.372   7.185  0.00  0.00     0.166 C 
ATOM      5  C24 <0> d   1      18.702  -4.500   6.390  0.00  0.00    -0.031 A 
ATOM      6  C25 <0> d   1      18.637  -5.752   6.990  0.00  0.00     0.049 A 
ATOM      7  C26 <0> d   1      18.101  -6.830   6.310  0.00  0.00     0.102 A 
ATOM      8  C29 <0> d   1      17.623  -6.656   5.015  0.00  0.00     0.102 A 
ATOM      9  C32 <0> d   1      17.684  -5.408   4.424  0.00  0.00     0.047 A 
ATOM     10  C33 <0> d   1      18.220  -4.326   5.112  0.00  0.00    -0.045 A 
ATOM     11  C34 <0> d   1      18.228  -2.991   4.412  0.00  0.00     0.075 C 
ATOM     12  C35 <0> d   1      19.238  -2.048   5.053  0.00  0.00     0.192 C 
ENDROOT
BRANCH   1  13
ATOM     13  C17 <0> d   1      18.572  -1.058   8.708  0.00  0.00     0.308 C 
ATOM     14  C19 <0> d   1      17.229  -0.492   9.175  0.00  0.00     0.053 C 
BRANCH  13  15
ATOM     15  N16 <0> d   1      19.664  -0.255   9.272  0.00  0.00     0.111 N 
ATOM     16  H54 <0> d   1      19.933   0.485   8.641  0.00  0.00     0.318 HD
BRANCH  15  17
ATOM     17  C6  <0> d   1      19.295   0.285  10.588  0.00  0.00     0.320 C 
BRANCH  17  18
ATOM     18  C4  <0> d   1      19.521   1.775  10.601  0.00  0.00     0.292 C 
ATOM     19  O5  <0> d   1      19.237   2.437   9.631  0.00  0.00    -0.263 OA
BRANCH  18  20
ATOM     20  O3  <0> d   1      20.036   2.366  11.690  0.00  0.00    -0.320 OA
BRANCH  20  21
ATOM     21  C2  <0> d   1      19.137   3.181  12.487  0.00  0.00     0.174 C 
ATOM     22  C1  <0> d   1      19.651   4.621  12.525  0.00  0.00     0.034 C 
ENDBRANCH  20  21
ENDBRANCH  18  20
ENDBRANCH  17  18
BRANCH  17  23
ATOM     23  C8  <0> d   1      20.156  -0.371  11.668  0.00  0.00     0.051 C 
BRANCH  23  24
ATOM     24  C9  <0> d   1      19.265  -1.195  12.600  0.00  0.00     0.041 C 
BRANCH  24  25
ATOM     25  C10 <0> d   1      18.977  -2.533  11.968  0.00  0.00    -0.058 A 
ATOM     26  C15 <0> d   1      20.016  -3.312  11.496  0.00  0.00     0.007 A 
ATOM     27  C14 <0> d   1      19.752  -4.540  10.919  0.00  0.00     0.001 A 
ATOM     28  C13 <0> d   1      18.448  -4.985  10.807  0.00  0.00     0.000 A 
ATOM     29  C12 <0> d   1      17.408  -4.203  11.276  0.00  0.00     0.001 A 
ATOM     30  C11 <0> d   1      17.672  -2.977  11.855  0.00  0.00     0.007 A 
ENDBRANCH  24  25
ENDBRANCH  23  24
ENDBRANCH  17  23
ENDBRANCH  15  17
ENDBRANCH  13  15
ENDBRANCH   1  13
BRANCH  12  31
ATOM     31  C37 <0> d   1      19.012  -0.644   4.555  0.00  0.00     0.197 C 
ATOM     32  O38 <0> d   1      19.894   0.190   4.663  0.00  0.00    -0.646 OA
ATOM     33  O39 <0> d   1      17.947  -0.342   4.045  0.00  0.00    -0.646 OA
ENDBRANCH  12  31
BRANCH   7  34
ATOM     34  O27 <0> d   1      18.040  -8.052   6.904  0.00  0.00    -0.353 OA
ATOM     35  C28 <0> d   1      16.858  -8.352   7.651  0.00  0.00     0.210 C 
ENDBRANCH   7  34
BRANCH   8  36
ATOM     36  O30 <0> d   1      17.097  -7.709   4.334  0.00  0.00    -0.353 OA
ATOM     37  C31 <0> d   1      15.834  -7.505   3.697  0.00  0.00     0.210 C 
ENDBRANCH   8  36
TORSDOF 12
ENDMDL
MODEL 4
REMARK VINA RESULT:      -7.7      4.808      9.101
REMARK  12 active torsions:
REMARK  status: ('A' for Active; 'I' for Inactive)
REMARK    1  A    between atoms: C2_2  and  O3_3 
REMARK    2  A    between atoms: O3_3  and  C4_4 
REMARK    3  A    between atoms: C4_4  and  C6_6 
REMARK    4  A    between atoms: C6_6  and  C8_7 
REMARK    5  A    between atoms: C6_6  and  N16_15 
REMARK    6  A    between atoms: C8_7  and  C9_8 
REMARK    7  A    between atoms: C9_8  and  C10_9 
REMARK    8  A    between atoms: N16_15  and  C17_16 
REMARK    9  A    between atoms: C17_16  and  C20_18 
REMARK       I    between atoms: C20_18  and  N22_20 
REMARK   10  A    between atoms: C26_24  and  O27_25 
REMARK   11  A    between atoms: C29_27  and  O30_28 
REMARK   12  A    between atoms: C35_33  and  C37_34 
ROOT
ATOM      1  C20 <0> d   1      18.248   0.432  14.589  0.00  0.00     0.254 C 
ATOM      2  O21 <0> d   1      17.836  -0.698  14.741  0.00  0.00    -0.271 OA
ATOM      3  N22 <0> d   1      18.739   1.117  15.640  0.00  0.00    -0.331 N 
ATOM      4  C23 <0> d   1      19.129   2.525  15.517  0.00  0.00     0.166 C 
ATOM      5  C24 <0> d   1      18.612   3.302  16.702  0.00  0.00    -0.031 A 
ATOM      6  C25 <0> d   1      18.672   4.689  16.642  0.00  0.00     0.049 A 
ATOM      7  C26 <0> d   1      18.224   5.458  17.701  0.00  0.00     0.102 A 
ATOM      8  C29 <0> d   1      17.710   4.833  18.833  0.00  0.00     0.102 A 
ATOM      9  C32 <0> d   1      17.648   3.454  18.886  0.00  0.00     0.047 A 
ATOM     10  C33 <0> d   1      18.094   2.684  17.819  0.00  0.00    -0.045 A 
ATOM     11  C34 <0> d   1      17.970   1.187  17.940  0.00  0.00     0.075 C 
ATOM     12  C35 <0> d   1      18.900   0.484  16.960  0.00  0.00     0.192 C 
ENDROOT
BRANCH   1  13
ATOM     13  C17 <0> d   1      18.210   1.070  13.224  0.00  0.00     0.308 C 
ATOM     14  C19 <0> d   1      16.996   0.550  12.452  0.00  0.00     0.053 C 
BRANCH  13  15
ATOM     15  N16 <0> d   1      19.437   0.733  12.492  0.00  0.00     0.111 N 
ATOM     16  H54 <0> d   1      19.761  -0.192  12.734  0.00  0.00     0.318 HD
BRANCH  15  17
ATOM     17  C6  <0> d   1      19.236   0.857  11.042  0.00  0.00     0.320 C 
BRANCH  17  18
ATOM     18  C4  <0> d   1      19.973  -0.250  10.335  0.00  0.00     0.292 C 
ATOM     19  O5  <0> d   1      21.053  -0.610  10.740  0.00  0.00    -0.263 OA
BRANCH  18  20
ATOM     20  O3  <0> d   1      19.430  -0.838   9.258  0.00  0.00    -0.320 OA
BRANCH  20  21
ATOM     21  C2  <0> d   1      17.983  -0.799   9.143  0.00  0.00     0.174 C 
ATOM     22  C1  <0> d   1      17.591  -0.020   7.887  0.00  0.00     0.034 C 
ENDBRANCH  20  21
ENDBRANCH  18  20
ENDBRANCH  17  18
BRANCH  17  23
ATOM     23  C8  <0> d   1      19.770   2.209  10.567  0.00  0.00     0.051 C 
BRANCH  23  24
ATOM     24  C9  <0> d   1      18.612   3.063  10.047  0.00  0.00     0.041 C 
BRANCH  24  25
ATOM     25  C10 <0> d   1      18.141   3.991  11.137  0.00  0.00    -0.058 A 
ATOM     26  C15 <0> d   1      16.833   4.436  11.149  0.00  0.00     0.007 A 
ATOM     27  C14 <0> d   1      16.401   5.284  12.151  0.00  0.00     0.001 A 
ATOM     28  C13 <0> d   1      17.279   5.693  13.137  0.00  0.00     0.000 A 
ATOM     29  C12 <0> d   1      18.589   5.251  13.122  0.00  0.00     0.001 A 
ATOM     30  C11 <0> d   1      19.020   4.401  12.122  0.00  0.00     0.007 A 
ENDBRANCH  24  25
ENDBRANCH  23  24
ENDBRANCH  17  23
ENDBRANCH  15  17
ENDBRANCH  13  15
ENDBRANCH   1  13
BRANCH  12  31
ATOM     31  C37 <0> d   1      18.539  -0.976  16.873  0.00  0.00     0.197 C 
ATOM     32  O38 <0> d   1      19.399  -1.802  16.618  0.00  0.00    -0.646 OA
ATOM     33  O39 <0> d   1      17.387  -1.332  17.055  0.00  0.00    -0.646 OA
ENDBRANCH  12  31
BRANCH   7  34
ATOM     34  O27 <0> d   1      18.285   6.814  17.635  0.00  0.00    -0.353 OA
ATOM     35  C28 <0> d   1      17.642   7.439  16.521  0.00  0.00     0.210 C 
ENDBRANCH   7  34
BRANCH   8  36
ATOM     36  O30 <0> d   1      17.270   5.578  19.883  0.00  0.00    -0.353 OA
ATOM     37  C31 <0> d   1      15.857   5.743  20.015  0.00  0.00     0.210 C 
ENDBRANCH   8  36
TORSDOF 12
ENDMDL
MODEL 5
REMARK VINA RESULT:      -7.7      3.081      7.483
REMARK  12 active torsions:
REMARK  status: ('A' for Active; 'I' for Inactive)
REMARK    1  A    between atoms: C2_2  and  O3_3 
REMARK    2  A    between atoms: O3_3  and  C4_4 
REMARK    3  A    between atoms: C4_4  and  C6_6 
REMARK    4  A    between atoms: C6_6  and  C8_7 
REMARK    5  A    between atoms: C6_6  and  N16_15 
REMARK    6  A    between atoms: C8_7  and  C9_8 
REMARK    7  A    between atoms: C9_8  and  C10_9 
REMARK    8  A    between atoms: N16_15  and  C17_16 
REMARK    9  A    between atoms: C17_16  and  C20_18 
REMARK       I    between atoms: C20_18  and  N22_20 
REMARK   10  A    between atoms: C26_24  and  O27_25 
REMARK   11  A    between atoms: C29_27  and  O30_28 
REMARK   12  A    between atoms: C35_33  and  C37_34 
ROOT
ATOM      1  C20 <0> d   1      18.878  -3.842  11.043  0.00  0.00     0.254 C 
ATOM      2  O21 <0> d   1      18.609  -4.837  11.681  0.00  0.00    -0.271 OA
ATOM      3  N22 <0> d   1      18.196  -3.558   9.915  0.00  0.00    -0.331 N 
ATOM      4  C23 <0> d   1      18.577  -2.433   9.056  0.00  0.00     0.166 C 
ATOM      5  C24 <0> d   1      18.553  -2.865   7.612  0.00  0.00    -0.031 A 
ATOM      6  C25 <0> d   1      19.116  -2.011   6.672  0.00  0.00     0.049 A 
ATOM      7  C26 <0> d   1      19.116  -2.344   5.330  0.00  0.00     0.102 A 
ATOM      8  C29 <0> d   1      18.545  -3.546   4.921  0.00  0.00     0.102 A 
ATOM      9  C32 <0> d   1      17.991  -4.395   5.860  0.00  0.00     0.047 A 
ATOM     10  C33 <0> d   1      17.997  -4.059   7.209  0.00  0.00    -0.045 A 
ATOM     11  C34 <0> d   1      17.397  -5.048   8.175  0.00  0.00     0.075 C 
ATOM     12  C35 <0> d   1      17.043  -4.372   9.493  0.00  0.00     0.192 C 
ENDROOT
BRANCH   1  13
ATOM     13  C17 <0> d   1      19.974  -2.920  11.512  0.00  0.00     0.308 C 
ATOM     14  C19 <0> d   1      21.236  -3.735  11.804  0.00  0.00     0.053 C 
BRANCH  13  15
ATOM     15  N16 <0> d   1      19.544  -2.230  12.735  0.00  0.00     0.111 N 
ATOM     16  H54 <0> d   1      20.326  -2.063  13.351  0.00  0.00     0.318 HD
BRANCH  15  17
ATOM     17  C6  <0> d   1      18.849  -0.976  12.415  0.00  0.00     0.320 C 
BRANCH  17  18
ATOM     18  C4  <0> d   1      19.857   0.067  12.004  0.00  0.00     0.292 C 
ATOM     19  O5  <0> d   1      20.657   0.483  12.808  0.00  0.00    -0.263 OA
BRANCH  18  20
ATOM     20  O3  <0> d   1      19.866   0.532  10.745  0.00  0.00    -0.320 OA
BRANCH  20  21
ATOM     21  C2  <0> d   1      19.237   1.819  10.512  0.00  0.00     0.174 C 
ATOM     22  C1  <0> d   1      17.821   1.605   9.974  0.00  0.00     0.034 C 
ENDBRANCH  20  21
ENDBRANCH  18  20
ENDBRANCH  17  18
BRANCH  17  23
ATOM     23  C8  <0> d   1      18.085  -0.487  13.647  0.00  0.00     0.051 C 
BRANCH  23  24
ATOM     24  C9  <0> d   1      18.499  -1.313  14.866  0.00  0.00     0.041 C 
BRANCH  24  25
ATOM     25  C10 <0> d   1      18.756  -0.395  16.033  0.00  0.00    -0.058 A 
ATOM     26  C15 <0> d   1      18.749   0.975  15.848  0.00  0.00     0.007 A 
ATOM     27  C14 <0> d   1      18.981   1.817  16.919  0.00  0.00     0.001 A 
ATOM     28  C13 <0> d   1      19.228   1.290  18.173  0.00  0.00     0.000 A 
ATOM     29  C12 <0> d   1      19.239  -0.080  18.356  0.00  0.00     0.001 A 
ATOM     30  C11 <0> d   1      19.004  -0.923  17.286  0.00  0.00     0.007 A 
ENDBRANCH  24  25
ENDBRANCH  23  24
ENDBRANCH  17  23
ENDBRANCH  15  17
ENDBRANCH  13  15
ENDBRANCH   1  13
BRANCH  12  31
ATOM     31  C37 <0> d   1      16.746  -5.416  10.538  0.00  0.00     0.197 C 
ATOM     32  O38 <0> d   1      17.158  -6.555  10.395  0.00  0.00    -0.646 OA
ATOM     33  O39 <0> d   1      16.094  -5.123  11.525  0.00  0.00    -0.646 OA
ENDBRANCH  12  31
BRANCH   7  34
ATOM     34  O27 <0> d   1      19.670  -1.504   4.416  0.00  0.00    -0.353 OA
ATOM     35  C28 <0> d   1      19.411  -0.107   4.577  0.00  0.00     0.210 C 
ENDBRANCH   7  34
BRANCH   8  36
ATOM     36  O30 <0> d   1      18.535  -3.884   3.603  0.00  0.00    -0.353 OA
ATOM     37  C31 <0> d   1      17.268  -4.203   3.026  0.00  0.00     0.210 C 
ENDBRANCH   8  36
TORSDOF 12
ENDMDL
MODEL 6
REMARK VINA RESULT:      -7.6      5.284      9.359
REMARK  12 active torsions:
REMARK  status: ('A' for Active; 'I' for Inactive)
REMARK    1  A    between atoms: C2_2  and  O3_3 
REMARK    2  A    between atoms: O3_3  and  C4_4 
REMARK    3  A    between atoms: C4_4  and  C6_6 
REMARK    4  A    between atoms: C6_6  and  C8_7 
REMARK    5  A    between atoms: C6_6  and  N16_15 
REMARK    6  A    between atoms: C8_7  and  C9_8 
REMARK    7  A    between atoms: C9_8  and  C10_9 
REMARK    8  A    between atoms: N16_15  and  C17_16 
REMARK    9  A    between atoms: C17_16  and  C20_18 
REMARK       I    between atoms: C20_18  and  N22_20 
REMARK   10  A    between atoms: C26_24  and  O27_25 
REMARK   11  A    between atoms: C29_27  and  O30_28 
REMARK   12  A    between atoms: C35_33  and  C37_34 
ROOT
ATOM      1  C20 <0> d   1      18.761   1.136  15.807  0.00  0.00     0.254 C 
ATOM      2  O21 <0> d   1      18.417   0.111  16.353  0.00  0.00    -0.271 OA
ATOM      3  N22 <0> d   1      19.120   2.206  16.545  0.00  0.00    -0.331 N 
ATOM      4  C23 <0> d   1      19.422   3.497  15.919  0.00  0.00     0.166 C 
ATOM      5  C24 <0> d   1      18.760   4.606  16.698  0.00  0.00    -0.031 A 
ATOM      6  C25 <0> d   1      18.730   5.871  16.123  0.00  0.00     0.049 A 
ATOM      7  C26 <0> d   1      18.148   6.933  16.792  0.00  0.00     0.102 A 
ATOM      8  C29 <0> d   1      17.590   6.729  18.050  0.00  0.00     0.102 A 
ATOM      9  C32 <0> d   1      17.617   5.468  18.615  0.00  0.00     0.047 A 
ATOM     10  C33 <0> d   1      18.199   4.402  17.939  0.00  0.00    -0.045 A 
ATOM     11  C34 <0> d   1      18.167   3.053  18.608  0.00  0.00     0.075 C 
ATOM     12  C35 <0> d   1      19.218   2.126  18.012  0.00  0.00     0.192 C 
ENDROOT
BRANCH   1  13
ATOM     13  C17 <0> d   1      18.788   1.216  14.302  0.00  0.00     0.308 C 
ATOM     14  C19 <0> d   1      17.375   1.006  13.755  0.00  0.00     0.053 C 
BRANCH  13  15
ATOM     15  N16 <0> d   1      19.678   0.174  13.772  0.00  0.00     0.111 N 
ATOM     16  H54 <0> d   1      19.717  -0.619  14.395  0.00  0.00     0.318 HD
BRANCH  15  17
ATOM     17  C6  <0> d   1      19.264  -0.235  12.423  0.00  0.00     0.320 C 
BRANCH  17  18
ATOM     18  C4  <0> d   1      19.188  -1.738  12.356  0.00  0.00     0.292 C 
ATOM     19  O5  <0> d   1      18.551  -2.348  13.181  0.00  0.00    -0.263 OA
BRANCH  18  20
ATOM     20  O3  <0> d   1      19.827  -2.400  11.378  0.00  0.00    -0.320 OA
BRANCH  20  21
ATOM     21  C2  <0> d   1      20.058  -3.819  11.583  0.00  0.00     0.174 C 
ATOM     22  C1  <0> d   1      19.658  -4.588  10.323  0.00  0.00     0.034 C 
ENDBRANCH  20  21
ENDBRANCH  18  20
ENDBRANCH  17  18
BRANCH  17  23
ATOM     23  C8  <0> d   1      20.284   0.270  11.402  0.00  0.00     0.051 C 
BRANCH  23  24
ATOM     24  C9  <0> d   1      19.557   1.008  10.276  0.00  0.00     0.041 C 
BRANCH  24  25
ATOM     25  C10 <0> d   1      19.068   2.341  10.782  0.00  0.00    -0.058 A 
ATOM     26  C15 <0> d   1      17.788   2.767  10.481  0.00  0.00     0.007 A 
ATOM     27  C14 <0> d   1      17.339   3.988  10.948  0.00  0.00     0.001 A 
ATOM     28  C13 <0> d   1      18.172   4.786  11.709  0.00  0.00     0.000 A 
ATOM     29  C12 <0> d   1      19.454   4.362  12.006  0.00  0.00     0.001 A 
ATOM     30  C11 <0> d   1      19.902   3.140  11.542  0.00  0.00     0.007 A 
ENDBRANCH  24  25
ENDBRANCH  23  24
ENDBRANCH  17  23
ENDBRANCH  15  17
ENDBRANCH  13  15
ENDBRANCH   1  13
BRANCH  12  31
ATOM     31  C37 <0> d   1      18.966   0.711  18.463  0.00  0.00     0.197 C 
ATOM     32  O38 <0> d   1      17.869   0.395  18.894  0.00  0.00    -0.646 OA
ATOM     33  O39 <0> d   1      19.857  -0.118  18.399  0.00  0.00    -0.646 OA
ENDBRANCH  12  31
BRANCH   7  34
ATOM     34  O27 <0> d   1      18.121   8.167  16.222  0.00  0.00    -0.353 OA
ATOM     35  C28 <0> d   1      17.775   8.236  14.837  0.00  0.00     0.210 C 
ENDBRANCH   7  34
BRANCH   8  36
ATOM     36  O30 <0> d   1      17.018   7.766  18.719  0.00  0.00    -0.353 OA
ATOM     37  C31 <0> d   1      16.138   7.437  19.796  0.00  0.00     0.210 C 
ENDBRANCH   8  36
TORSDOF 12
ENDMDL
MODEL 7
REMARK VINA RESULT:      -7.4      2.770      7.451
REMARK  12 active torsions:
REMARK  status: ('A' for Active; 'I' for Inactive)
REMARK    1  A    between atoms: C2_2  and  O3_3 
REMARK    2  A    between atoms: O3_3  and  C4_4 
REMARK    3  A    between atoms: C4_4  and  C6_6 
REMARK    4  A    between atoms: C6_6  and  C8_7 
REMARK    5  A    between atoms: C6_6  and  N16_15 
REMARK    6  A    between atoms: C8_7  and  C9_8 
REMARK    7  A    between atoms: C9_8  and  C10_9 
REMARK    8  A    between atoms: N16_15  and  C17_16 
REMARK    9  A    between atoms: C17_16  and  C20_18 
REMARK       I    between atoms: C20_18  and  N22_20 
REMARK   10  A    between atoms: C26_24  and  O27_25 
REMARK   11  A    between atoms: C29_27  and  O30_28 
REMARK   12  A    between atoms: C35_33  and  C37_34 
ROOT
ATOM      1  C20 <0> d   1      17.908  -0.892   9.254  0.00  0.00     0.254 C 
ATOM      2  O21 <0> d   1      17.603   0.226   8.900  0.00  0.00    -0.271 OA
ATOM      3  N22 <0> d   1      18.594  -1.700   8.420  0.00  0.00    -0.331 N 
ATOM      4  C23 <0> d   1      18.870  -3.097   8.769  0.00  0.00     0.166 C 
ATOM      5  C24 <0> d   1      18.602  -3.981   7.577  0.00  0.00    -0.031 A 
ATOM      6  C25 <0> d   1      18.573  -5.355   7.784  0.00  0.00     0.049 A 
ATOM      7  C26 <0> d   1      18.343  -6.220   6.730  0.00  0.00     0.102 A 
ATOM      8  C29 <0> d   1      18.140  -5.706   5.453  0.00  0.00     0.102 A 
ATOM      9  C32 <0> d   1      18.164  -4.339   5.252  0.00  0.00     0.047 A 
ATOM     10  C33 <0> d   1      18.391  -3.472   6.315  0.00  0.00    -0.045 A 
ATOM     11  C34 <0> d   1      18.376  -1.994   6.022  0.00  0.00     0.075 C 
ATOM     12  C35 <0> d   1      19.089  -1.217   7.120  0.00  0.00     0.192 C 
ENDROOT
BRANCH   1  13
ATOM     13  C17 <0> d   1      17.521  -1.379  10.627  0.00  0.00     0.308 C 
ATOM     14  C19 <0> d   1      16.774  -0.270  11.369  0.00  0.00     0.053 C 
BRANCH  13  15
ATOM     15  N16 <0> d   1      18.731  -1.741  11.377  0.00  0.00     0.111 N 
ATOM     16  H54 <0> d   1      19.482  -1.992  10.752  0.00  0.00     0.318 HD
BRANCH  15  17
ATOM     17  C6  <0> d   1      19.136  -0.653  12.277  0.00  0.00     0.320 C 
BRANCH  17  18
ATOM     18  C4  <0> d   1      20.328   0.062  11.696  0.00  0.00     0.292 C 
ATOM     19  O5  <0> d   1      21.041  -0.501  10.899  0.00  0.00    -0.263 OA
BRANCH  18  20
ATOM     20  O3  <0> d   1      20.598   1.325  12.063  0.00  0.00    -0.320 OA
BRANCH  20  21
ATOM     21  C2  <0> d   1      19.488   2.260  12.075  0.00  0.00     0.174 C 
ATOM     22  C1  <0> d   1      19.266   2.809  10.664  0.00  0.00     0.034 C 
ENDBRANCH  20  21
ENDBRANCH  18  20
ENDBRANCH  17  18
BRANCH  17  23
ATOM     23  C8  <0> d   1      19.506  -1.233  13.643  0.00  0.00     0.051 C 
BRANCH  23  24
ATOM     24  C9  <0> d   1      18.296  -1.154  14.577  0.00  0.00     0.041 C 
BRANCH  24  25
ATOM     25  C10 <0> d   1      18.664  -0.373  15.812  0.00  0.00    -0.058 A 
ATOM     26  C15 <0> d   1      18.922  -1.036  16.997  0.00  0.00     0.007 A 
ATOM     27  C14 <0> d   1      19.263  -0.320  18.129  0.00  0.00     0.001 A 
ATOM     28  C13 <0> d   1      19.338   1.060  18.078  0.00  0.00     0.000 A 
ATOM     29  C12 <0> d   1      19.075   1.723  16.894  0.00  0.00     0.001 A 
ATOM     30  C11 <0> d   1      18.738   1.007  15.761  0.00  0.00     0.007 A 
ENDBRANCH  24  25
ENDBRANCH  23  24
ENDBRANCH  17  23
ENDBRANCH  15  17
ENDBRANCH  13  15
ENDBRANCH   1  13
BRANCH  12  31
ATOM     31  C37 <0> d   1      18.795   0.254   6.977  0.00  0.00     0.197 C 
ATOM     32  O38 <0> d   1      17.844   0.623   6.308  0.00  0.00    -0.646 OA
ATOM     33  O39 <0> d   1      19.507   1.075   7.529  0.00  0.00    -0.646 OA
ENDBRANCH  12  31
BRANCH   7  34
ATOM     34  O27 <0> d   1      18.315  -7.562   6.940  0.00  0.00    -0.353 OA
ATOM     35  C28 <0> d   1      17.147  -8.097   7.567  0.00  0.00     0.210 C 
ENDBRANCH   7  34
BRANCH   8  36
ATOM     36  O30 <0> d   1      17.917  -6.547   4.406  0.00  0.00    -0.353 OA
ATOM     37  C31 <0> d   1      17.093  -6.059   3.346  0.00  0.00     0.210 C 
ENDBRANCH   8  36
TORSDOF 12
ENDMDL
MODEL 8
REMARK VINA RESULT:      -7.4      3.165      7.144
REMARK  12 active torsions:
REMARK  status: ('A' for Active; 'I' for Inactive)
REMARK    1  A    between atoms: C2_2  and  O3_3 
REMARK    2  A    between atoms: O3_3  and  C4_4 
REMARK    3  A    between atoms: C4_4  and  C6_6 
REMARK    4  A    between atoms: C6_6  and  C8_7 
REMARK    5  A    between atoms: C6_6  and  N16_15 
REMARK    6  A    between atoms: C8_7  and  C9_8 
REMARK    7  A    between atoms: C9_8  and  C10_9 
REMARK    8  A    between atoms: N16_15  and  C17_16 
REMARK    9  A    between atoms: C17_16  and  C20_18 
REMARK       I    between atoms: C20_18  and  N22_20 
REMARK   10  A    between atoms: C26_24  and  O27_25 
REMARK   11  A    between atoms: C29_27  and  O30_28 
REMARK   12  A    between atoms: C35_33  and  C37_34 
ROOT
ATOM      1  C20 <0> d   1      18.363  -1.224  10.957  0.00  0.00     0.254 C 
ATOM      2  O21 <0> d   1      17.996  -2.310  10.564  0.00  0.00    -0.271 OA
ATOM      3  N22 <0> d   1      19.113  -1.129  12.074  0.00  0.00    -0.331 N 
ATOM      4  C23 <0> d   1      19.469   0.173  12.645  0.00  0.00     0.166 C 
ATOM      5  C24 <0> d   1      19.278   0.143  14.140  0.00  0.00    -0.031 A 
ATOM      6  C25 <0> d   1      19.331   1.351  14.823  0.00  0.00     0.049 A 
ATOM      7  C26 <0> d   1      19.174   1.389  16.197  0.00  0.00     0.102 A 
ATOM      8  C29 <0> d   1      18.962   0.205  16.897  0.00  0.00     0.102 A 
ATOM      9  C32 <0> d   1      18.905  -0.994  16.212  0.00  0.00     0.047 A 
ATOM     10  C33 <0> d   1      19.058  -1.028  14.831  0.00  0.00    -0.045 A 
ATOM     11  C34 <0> d   1      18.957  -2.369  14.153  0.00  0.00     0.075 C 
ATOM     12  C35 <0> d   1      19.601  -2.330  12.773  0.00  0.00     0.192 C 
ENDROOT
BRANCH   1  13
ATOM     13  C17 <0> d   1      17.983   0.021  10.197  0.00  0.00     0.308 C 
ATOM     14  C19 <0> d   1      16.634   0.535  10.705  0.00  0.00     0.053 C 
BRANCH  13  15
ATOM     15  N16 <0> d   1      17.880  -0.292   8.766  0.00  0.00     0.111 N 
ATOM     16  H54 <0> d   1      17.004  -0.746   8.556  0.00  0.00     0.318 HD
BRANCH  15  17
ATOM     17  C6  <0> d   1      18.055   0.917   7.950  0.00  0.00     0.320 C 
BRANCH  17  18
ATOM     18  C4  <0> d   1      18.549   0.532   6.580  0.00  0.00     0.292 C 
ATOM     19  O5  <0> d   1      19.396   1.199   6.034  0.00  0.00    -0.263 OA
BRANCH  18  20
ATOM     20  O3  <0> d   1      18.050  -0.553   5.966  0.00  0.00    -0.320 OA
BRANCH  20  21
ATOM     21  C2  <0> d   1      19.004  -1.475   5.376  0.00  0.00     0.174 C 
ATOM     22  C1  <0> d   1      19.401  -2.530   6.409  0.00  0.00     0.034 C 
ENDBRANCH  20  21
ENDBRANCH  18  20
ENDBRANCH  17  18
BRANCH  17  23
ATOM     23  C8  <0> d   1      19.074   1.841   8.618  0.00  0.00     0.051 C 
BRANCH  23  24
ATOM     24  C9  <0> d   1      18.525   3.269   8.650  0.00  0.00     0.041 C 
BRANCH  24  25
ATOM     25  C10 <0> d   1      18.350   3.709  10.081  0.00  0.00    -0.058 A 
ATOM     26  C15 <0> d   1      17.200   4.374  10.464  0.00  0.00     0.007 A 
ATOM     27  C14 <0> d   1      17.039   4.774  11.777  0.00  0.00     0.001 A 
ATOM     28  C13 <0> d   1      18.029   4.516  12.705  0.00  0.00     0.000 A 
ATOM     29  C12 <0> d   1      19.181   3.854  12.321  0.00  0.00     0.001 A 
ATOM     30  C11 <0> d   1      19.342   3.451  11.009  0.00  0.00     0.007 A 
ENDBRANCH  24  25
ENDBRANCH  23  24
ENDBRANCH  17  23
ENDBRANCH  15  17
ENDBRANCH  13  15
ENDBRANCH   1  13
BRANCH  12  31
ATOM     31  C37 <0> d   1      19.218  -3.563  11.996  0.00  0.00     0.197 C 
ATOM     32  O38 <0> d   1      19.967  -4.000  11.138  0.00  0.00    -0.646 OA
ATOM     33  O39 <0> d   1      18.160  -4.124  12.225  0.00  0.00    -0.646 OA
ENDBRANCH  12  31
BRANCH   7  34
ATOM     34  O27 <0> d   1      19.226   2.576  16.859  0.00  0.00    -0.353 OA
ATOM     35  C28 <0> d   1      19.505   3.742  16.080  0.00  0.00     0.210 C 
ENDBRANCH   7  34
BRANCH   8  36
ATOM     36  O30 <0> d   1      18.811   0.229  18.249  0.00  0.00    -0.353 OA
ATOM     37  C31 <0> d   1      17.597   0.785  18.756  0.00  0.00     0.210 C 
ENDBRANCH   8  36
TORSDOF 12
ENDMDL
MODEL 9
REMARK VINA RESULT:      -7.4      3.507      7.045
REMARK  12 active torsions:
REMARK  status: ('A' for Active; 'I' for Inactive)
REMARK    1  A    between atoms: C2_2  and  O3_3 
REMARK    2  A    between atoms: O3_3  and  C4_4 
REMARK    3  A    between atoms: C4_4  and  C6_6 
REMARK    4  A    between atoms: C6_6  and  C8_7 
REMARK    5  A    between atoms: C6_6  and  N16_15 
REMARK    6  A    between atoms: C8_7  and  C9_8 
REMARK    7  A    between atoms: C9_8  and  C10_9 
REMARK    8  A    between atoms: N16_15  and  C17_16 
REMARK    9  A    between atoms: C17_16  and  C20_18 
REMARK       I    between atoms: C20_18  and  N22_20 
REMARK   10  A    between atoms: C26_24  and  O27_25 
REMARK   11  A    between atoms: C29_27  and  O30_28 
REMARK   12  A    between atoms: C35_33  and  C37_34 
ROOT
ATOM      1  C20 <0> d   1      18.972   1.685  11.682  0.00  0.00     0.254 C 
ATOM      2  O21 <0> d   1      19.128   2.512  10.809  0.00  0.00    -0.271 OA
ATOM      3  N22 <0> d   1      18.259   1.994  12.783  0.00  0.00    -0.331 N 
ATOM      4  C23 <0> d   1      18.157   1.062  13.911  0.00  0.00     0.166 C 
ATOM      5  C24 <0> d   1      18.346   1.809  15.207  0.00  0.00    -0.031 A 
ATOM      6  C25 <0> d   1      18.524   1.060  16.364  0.00  0.00     0.049 A 
ATOM      7  C26 <0> d   1      18.691   1.685  17.586  0.00  0.00     0.102 A 
ATOM      8  C29 <0> d   1      18.681   3.075  17.653  0.00  0.00     0.102 A 
ATOM      9  C32 <0> d   1      18.509   3.816  16.499  0.00  0.00     0.047 A 
ATOM     10  C33 <0> d   1      18.346   3.184  15.272  0.00  0.00    -0.045 A 
ATOM     11  C34 <0> d   1      18.190   4.059  14.055  0.00  0.00     0.075 C 
ATOM     12  C35 <0> d   1      17.559   3.283  12.906  0.00  0.00     0.192 C 
ENDROOT
BRANCH   1  13
ATOM     13  C17 <0> d   1      19.576   0.312  11.535  0.00  0.00     0.308 C 
ATOM     14  C19 <0> d   1      21.068   0.373  11.867  0.00  0.00     0.053 C 
BRANCH  13  15
ATOM     15  N16 <0> d   1      19.401  -0.154  10.153  0.00  0.00     0.111 N 
ATOM     16  H54 <0> d   1      20.163  -0.754   9.874  0.00  0.00     0.318 HD
BRANCH  15  17
ATOM     17  C6  <0> d   1      18.109  -0.833   9.986  0.00  0.00     0.320 C 
BRANCH  17  18
ATOM     18  C4  <0> d   1      18.336  -2.216   9.433  0.00  0.00     0.292 C 
ATOM     19  O5  <0> d   1      19.246  -2.417   8.664  0.00  0.00    -0.263 OA
BRANCH  18  20
ATOM     20  O3  <0> d   1      17.528  -3.225   9.795  0.00  0.00    -0.320 OA
BRANCH  20  21
ATOM     21  C2  <0> d   1      17.393  -3.484  11.217  0.00  0.00     0.174 C 
ATOM     22  C1  <0> d   1      18.396  -4.559  11.638  0.00  0.00     0.034 C 
ENDBRANCH  20  21
ENDBRANCH  18  20
ENDBRANCH  17  18
BRANCH  17  23
ATOM     23  C8  <0> d   1      17.234  -0.034   9.019  0.00  0.00     0.051 C 
BRANCH  23  24
ATOM     24  C9  <0> d   1      18.117   0.884   8.171  0.00  0.00     0.041 C 
BRANCH  24  25
ATOM     25  C10 <0> d   1      18.203   0.342   6.766  0.00  0.00    -0.058 A 
ATOM     26  C15 <0> d   1      19.272   0.682   5.960  0.00  0.00     0.007 A 
ATOM     27  C14 <0> d   1      19.353   0.182   4.674  0.00  0.00     0.001 A 
ATOM     28  C13 <0> d   1      18.360  -0.650   4.191  0.00  0.00     0.000 A 
ATOM     29  C12 <0> d   1      17.288  -0.986   4.997  0.00  0.00     0.001 A 
ATOM     30  C11 <0> d   1      17.209  -0.489   6.284  0.00  0.00     0.007 A 
ENDBRANCH  24  25
ENDBRANCH  23  24
ENDBRANCH  17  23
ENDBRANCH  15  17
ENDBRANCH  13  15
ENDBRANCH   1  13
BRANCH  12  31
ATOM     31  C37 <0> d   1      17.700   4.064  11.625  0.00  0.00     0.197 C 
ATOM     32  O38 <0> d   1      16.897   3.902  10.721  0.00  0.00    -0.646 OA
ATOM     33  O39 <0> d   1      18.615   4.857  11.492  0.00  0.00    -0.646 OA
ENDBRANCH  12  31
BRANCH   7  34
ATOM     34  O27 <0> d   1      18.866   0.947  18.714  0.00  0.00    -0.353 OA
ATOM     35  C28 <0> d   1      19.002  -0.467  18.550  0.00  0.00     0.210 C 
ENDBRANCH   7  34
BRANCH   8  36
ATOM     36  O30 <0> d   1      18.841   3.702  18.850  0.00  0.00    -0.353 OA
ATOM     37  C31 <0> d   1      17.671   4.263  19.450  0.00  0.00     0.210 C 
ENDBRANCH   8  36
TORSDOF 12
ENDMDL
