MODEL 1
REMARK VINA RESULT:      -8.8      0.000      0.000
REMARK  2 active torsions:
REMARK  status: ('A' for Active; 'I' for Inactive)
REMARK    1  A    between atoms: C11_11  and  C12_12 
REMARK    2  A    between atoms: C16_15  and  C18_16 
ROOT
ATOM      1  O1  ZIN A   1      18.495   3.869  15.517  0.00  0.00    -0.284 OA
ATOM      2  C2  ZIN A   1      18.750   2.743  15.139  0.00  0.00     0.220 C 
ATOM      3  C3  ZIN A   1      18.874   1.635  16.112  0.00  0.00     0.031 A 
ATOM      4  C4  ZIN A   1      18.980   1.884  17.475  0.00  0.00     0.016 A 
ATOM      5  C5  ZIN A   1      19.095   0.821  18.359  0.00  0.00     0.001 A 
ATOM      6  C6  ZIN A   1      19.105  -0.478  17.894  0.00  0.00     0.001 A 
ATOM      7  C7  ZIN A   1      19.000  -0.742  16.535  0.00  0.00     0.016 A 
ATOM      8  C8  ZIN A   1      18.885   0.310  15.638  0.00  0.00     0.029 A 
ATOM      9  C9  ZIN A   1      18.772   0.066  14.182  0.00  0.00     0.192 C 
ATOM     10  O10 ZIN A   1      18.533  -1.050  13.764  0.00  0.00    -0.287 OA
ATOM     11  C11 ZIN A   1      18.949   1.184  13.248  0.00  0.00     0.037 C 
ATOM     12  C27 ZIN A   1      18.935   2.458  13.695  0.00  0.00     0.168 C 
ATOM     13  O28 ZIN A   1      19.098   3.481  12.823  0.00  0.00    -0.187 OA
ENDROOT
BRANCH  11  14
ATOM     14  C12 ZIN A   1      19.144   0.909  11.780  0.00  0.00     0.026 C 
ATOM     15  C26 ZIN A   1      17.848   0.350  11.189  0.00  0.00     0.010 C 
ATOM     16  C25 ZIN A   1      18.046   0.071   9.697  0.00  0.00     0.010 C 
ATOM     17  C16 ZIN A   1      19.172  -0.950   9.516  0.00  0.00     0.018 C 
ATOM     18  C15 ZIN A   1      20.467  -0.391  10.106  0.00  0.00     0.010 C 
ATOM     19  C14 ZIN A   1      20.269  -0.112  11.597  0.00  0.00     0.010 C 
BRANCH  17  20
ATOM     20  C18 ZIN A   1      18.808  -2.230  10.222  0.00  0.00    -0.054 A 
ATOM     21  C24 ZIN A   1      17.510  -2.703  10.170  0.00  0.00     0.009 A 
ATOM     22  C23 ZIN A   1      17.176  -3.881  10.813  0.00  0.00     0.024 A 
ATOM     23  C21 ZIN A   1      18.139  -4.580  11.519  0.00  0.00     0.034 A 
ATOM     24  C20 ZIN A   1      19.436  -4.102  11.577  0.00  0.00     0.024 A 
ATOM     25 Cl22 ZIN A   1      17.719  -6.054  12.334  0.00  0.00    -0.084 Cl
ATOM     26  C19 ZIN A   1      19.770  -2.929  10.928  0.00  0.00     0.009 A 
ENDBRANCH  17  20
ENDBRANCH  11  14
TORSDOF 2
ENDMDL
MODEL 2
REMARK VINA RESULT:      -8.8      2.329      3.386
REMARK  2 active torsions:
REMARK  status: ('A' for Active; 'I' for Inactive)
REMARK    1  A    between atoms: C11_11  and  C12_12 
REMARK    2  A    between atoms: C16_15  and  C18_16 
ROOT
ATOM      1  O1  ZIN A   1      18.092   2.884  13.912  0.00  0.00    -0.284 OA
ATOM      2  C2  ZIN A   1      18.366   1.798  14.385  0.00  0.00     0.220 C 
ATOM      3  C3  ZIN A   1      18.632   1.657  15.833  0.00  0.00     0.031 A 
ATOM      4  C4  ZIN A   1      18.848   2.770  16.637  0.00  0.00     0.016 A 
ATOM      5  C5  ZIN A   1      19.095   2.600  17.991  0.00  0.00     0.001 A 
ATOM      6  C6  ZIN A   1      19.126   1.335  18.544  0.00  0.00     0.001 A 
ATOM      7  C7  ZIN A   1      18.912   0.215  17.753  0.00  0.00     0.016 A 
ATOM      8  C8  ZIN A   1      18.664   0.368  16.397  0.00  0.00     0.029 A 
ATOM      9  C9  ZIN A   1      18.432  -0.806  15.523  0.00  0.00     0.192 C 
ATOM     10  O10 ZIN A   1      18.211  -1.898  16.010  0.00  0.00    -0.287 OA
ATOM     11  C11 ZIN A   1      18.469  -0.637  14.066  0.00  0.00     0.037 C 
ATOM     12  C27 ZIN A   1      18.434   0.596  13.518  0.00  0.00     0.168 C 
ATOM     13  O28 ZIN A   1      18.467   0.737  12.173  0.00  0.00    -0.187 OA
ENDROOT
BRANCH  11  14
ATOM     14  C12 ZIN A   1      18.544  -1.850  13.175  0.00  0.00     0.026 C 
ATOM     15  C26 ZIN A   1      19.842  -1.810  12.367  0.00  0.00     0.010 C 
ATOM     16  C25 ZIN A   1      19.920  -3.041  11.462  0.00  0.00     0.010 C 
ATOM     17  C16 ZIN A   1      18.724  -3.046  10.506  0.00  0.00     0.018 C 
ATOM     18  C15 ZIN A   1      17.426  -3.087  11.314  0.00  0.00     0.010 C 
ATOM     19  C14 ZIN A   1      17.350  -1.855  12.219  0.00  0.00     0.010 C 
BRANCH  17  20
ATOM     20  C18 ZIN A   1      18.752  -1.800   9.661  0.00  0.00    -0.054 A 
ATOM     21  C24 ZIN A   1      17.646  -1.450   8.909  0.00  0.00     0.009 A 
ATOM     22  C23 ZIN A   1      17.668  -0.303   8.137  0.00  0.00     0.024 A 
ATOM     23  C21 ZIN A   1      18.802   0.490   8.110  0.00  0.00     0.034 A 
ATOM     24  C20 ZIN A   1      19.910   0.136   8.858  0.00  0.00     0.024 A 
ATOM     25 Cl22 ZIN A   1      18.834   1.925   7.135  0.00  0.00    -0.084 Cl
ATOM     26  C19 ZIN A   1      19.885  -1.007   9.634  0.00  0.00     0.009 A 
ENDBRANCH  17  20
ENDBRANCH  11  14
TORSDOF 2
ENDMDL
MODEL 3
REMARK VINA RESULT:      -8.7      1.891      2.722
REMARK  2 active torsions:
REMARK  status: ('A' for Active; 'I' for Inactive)
REMARK    1  A    between atoms: C11_11  and  C12_12 
REMARK    2  A    between atoms: C16_15  and  C18_16 
ROOT
ATOM      1  O1  ZIN A   1      18.778   3.601  17.637  0.00  0.00    -0.284 OA
ATOM      2  C2  ZIN A   1      18.880   2.871  16.671  0.00  0.00     0.220 C 
ATOM      3  C3  ZIN A   1      18.980   1.406  16.846  0.00  0.00     0.031 A 
ATOM      4  C4  ZIN A   1      19.237   0.846  18.092  0.00  0.00     0.016 A 
ATOM      5  C5  ZIN A   1      19.324  -0.532  18.219  0.00  0.00     0.001 A 
ATOM      6  C6  ZIN A   1      19.158  -1.349  17.118  0.00  0.00     0.001 A 
ATOM      7  C7  ZIN A   1      18.902  -0.804  15.868  0.00  0.00     0.016 A 
ATOM      8  C8  ZIN A   1      18.811   0.573  15.724  0.00  0.00     0.029 A 
ATOM      9  C9  ZIN A   1      18.539   1.189  14.405  0.00  0.00     0.192 C 
ATOM     10  O10 ZIN A   1      18.149   0.506  13.478  0.00  0.00    -0.287 OA
ATOM     11  C11 ZIN A   1      18.742   2.631  14.229  0.00  0.00     0.037 C 
ATOM     12  C27 ZIN A   1      18.900   3.437  15.300  0.00  0.00     0.168 C 
ATOM     13  O28 ZIN A   1      19.085   4.766  15.123  0.00  0.00    -0.187 OA
ENDROOT
BRANCH  11  14
ATOM     14  C12 ZIN A   1      18.771   3.218  12.841  0.00  0.00     0.026 C 
ATOM     15  C26 ZIN A   1      17.464   2.885  12.119  0.00  0.00     0.010 C 
ATOM     16  C25 ZIN A   1      17.492   3.481  10.710  0.00  0.00     0.010 C 
ATOM     17  C16 ZIN A   1      18.670   2.890   9.931  0.00  0.00     0.018 C 
ATOM     18  C15 ZIN A   1      19.977   3.224  10.652  0.00  0.00     0.010 C 
ATOM     19  C14 ZIN A   1      19.948   2.628  12.062  0.00  0.00     0.010 C 
BRANCH  17  20
ATOM     20  C18 ZIN A   1      18.513   1.395   9.841  0.00  0.00    -0.054 A 
ATOM     21  C24 ZIN A   1      17.297   0.809  10.139  0.00  0.00     0.009 A 
ATOM     22  C23 ZIN A   1      17.150  -0.563  10.052  0.00  0.00     0.024 A 
ATOM     23  C21 ZIN A   1      18.223  -1.351   9.675  0.00  0.00     0.034 A 
ATOM     24  C20 ZIN A   1      19.441  -0.764   9.382  0.00  0.00     0.024 A 
ATOM     25 Cl22 ZIN A   1      18.042  -3.074   9.571  0.00  0.00    -0.084 Cl
ATOM     26  C19 ZIN A   1      19.586   0.607   9.464  0.00  0.00     0.009 A 
ENDBRANCH  17  20
ENDBRANCH  11  14
TORSDOF 2
ENDMDL
MODEL 4
REMARK VINA RESULT:      -8.7      3.060      7.463
REMARK  2 active torsions:
REMARK  status: ('A' for Active; 'I' for Inactive)
REMARK    1  A    between atoms: C11_11  and  C12_12 
REMARK    2  A    between atoms: C16_15  and  C18_16 
ROOT
ATOM      1  O1  ZIN A   1      17.715  -2.654   9.053  0.00  0.00    -0.284 OA
ATOM      2  C2  ZIN A   1      18.172  -1.630   8.586  0.00  0.00     0.220 C 
ATOM      3  C3  ZIN A   1      18.570  -1.569   7.162  0.00  0.00     0.031 A 
ATOM      4  C4  ZIN A   1      18.696  -2.724   6.399  0.00  0.00     0.016 A 
ATOM      5  C5  ZIN A   1      19.071  -2.628   5.068  0.00  0.00     0.001 A 
ATOM      6  C6  ZIN A   1      19.320  -1.397   4.497  0.00  0.00     0.001 A 
ATOM      7  C7  ZIN A   1      19.199  -0.235   5.246  0.00  0.00     0.016 A 
ATOM      8  C8  ZIN A   1      18.825  -0.313   6.580  0.00  0.00     0.029 A 
ATOM      9  C9  ZIN A   1      18.686   0.906   7.409  0.00  0.00     0.192 C 
ATOM     10  O10 ZIN A   1      18.657   2.003   6.887  0.00  0.00    -0.287 OA
ATOM     11  C11 ZIN A   1      18.582   0.777   8.867  0.00  0.00     0.037 C 
ATOM     12  C27 ZIN A   1      18.334  -0.423   9.433  0.00  0.00     0.168 C 
ATOM     13  O28 ZIN A   1      18.240  -0.529  10.779  0.00  0.00    -0.187 OA
ENDROOT
BRANCH  11  14
ATOM     14  C12 ZIN A   1      18.751   1.994   9.740  0.00  0.00     0.026 C 
ATOM     15  C26 ZIN A   1      20.003   1.833  10.604  0.00  0.00     0.010 C 
ATOM     16  C25 ZIN A   1      20.176   3.068  11.490  0.00  0.00     0.010 C 
ATOM     17  C16 ZIN A   1      18.949   3.223  12.392  0.00  0.00     0.018 C 
ATOM     18  C15 ZIN A   1      17.697   3.385  11.528  0.00  0.00     0.010 C 
ATOM     19  C14 ZIN A   1      17.526   2.149  10.642  0.00  0.00     0.010 C 
BRANCH  17  20
ATOM     20  C18 ZIN A   1      18.806   1.999  13.259  0.00  0.00    -0.054 A 
ATOM     21  C24 ZIN A   1      19.848   1.096  13.355  0.00  0.00     0.009 A 
ATOM     22  C23 ZIN A   1      19.721  -0.025  14.155  0.00  0.00     0.024 A 
ATOM     23  C21 ZIN A   1      18.546  -0.247  14.852  0.00  0.00     0.034 A 
ATOM     24  C20 ZIN A   1      17.502   0.655  14.751  0.00  0.00     0.024 A 
ATOM     25 Cl22 ZIN A   1      18.382  -1.657  15.851  0.00  0.00    -0.084 Cl
ATOM     26  C19 ZIN A   1      17.632   1.777  13.956  0.00  0.00     0.009 A 
ENDBRANCH  17  20
ENDBRANCH  11  14
TORSDOF 2
ENDMDL
MODEL 5
REMARK VINA RESULT:      -8.6      2.727      4.849
REMARK  2 active torsions:
REMARK  status: ('A' for Active; 'I' for Inactive)
REMARK    1  A    between atoms: C11_11  and  C12_12 
REMARK    2  A    between atoms: C16_15  and  C18_16 
ROOT
ATOM      1  O1  ZIN A   1      18.956   1.702  14.399  0.00  0.00    -0.284 OA
ATOM      2  C2  ZIN A   1      18.785   1.114  13.349  0.00  0.00     0.220 C 
ATOM      3  C3  ZIN A   1      18.664   1.864  12.080  0.00  0.00     0.031 A 
ATOM      4  C4  ZIN A   1      18.464   3.239  12.074  0.00  0.00     0.016 A 
ATOM      5  C5  ZIN A   1      18.354   3.910  10.865  0.00  0.00     0.001 A 
ATOM      6  C6  ZIN A   1      18.442   3.222   9.672  0.00  0.00     0.001 A 
ATOM      7  C7  ZIN A   1      18.640   1.849   9.663  0.00  0.00     0.016 A 
ATOM      8  C8  ZIN A   1      18.752   1.162  10.863  0.00  0.00     0.029 A 
ATOM      9  C9  ZIN A   1      18.964  -0.303  10.891  0.00  0.00     0.192 C 
ATOM     10  O10 ZIN A   1      19.287  -0.895   9.880  0.00  0.00    -0.287 OA
ATOM     11  C11 ZIN A   1      18.782  -1.033  12.151  0.00  0.00     0.037 C 
ATOM     12  C27 ZIN A   1      18.701  -0.368  13.323  0.00  0.00     0.168 C 
ATOM     13  O28 ZIN A   1      18.535  -1.053  14.478  0.00  0.00    -0.187 OA
ENDROOT
BRANCH  11  14
ATOM     14  C12 ZIN A   1      18.689  -2.537  12.138  0.00  0.00     0.026 C 
ATOM     15  C26 ZIN A   1      19.958  -3.121  11.514  0.00  0.00     0.010 C 
ATOM     16  C25 ZIN A   1      19.865  -4.648  11.500  0.00  0.00     0.010 C 
ATOM     17  C16 ZIN A   1      18.647  -5.076  10.676  0.00  0.00     0.018 C 
ATOM     18  C15 ZIN A   1      17.379  -4.493  11.301  0.00  0.00     0.010 C 
ATOM     19  C14 ZIN A   1      17.473  -2.966  11.314  0.00  0.00     0.010 C 
BRANCH  17  20
ATOM     20  C18 ZIN A   1      18.793  -4.569   9.265  0.00  0.00    -0.054 A 
ATOM     21  C24 ZIN A   1      17.859  -3.692   8.747  0.00  0.00     0.009 A 
ATOM     22  C23 ZIN A   1      17.994  -3.222   7.454  0.00  0.00     0.024 A 
ATOM     23  C21 ZIN A   1      19.059  -3.637   6.675  0.00  0.00     0.034 A 
ATOM     24  C20 ZIN A   1      19.991  -4.520   7.192  0.00  0.00     0.024 A 
ATOM     25 Cl22 ZIN A   1      19.226  -3.053   5.049  0.00  0.00    -0.084 Cl
ATOM     26  C19 ZIN A   1      19.858  -4.985   8.487  0.00  0.00     0.009 A 
ENDBRANCH  17  20
ENDBRANCH  11  14
TORSDOF 2
ENDMDL
MODEL 6
REMARK VINA RESULT:      -8.6      2.902      4.595
REMARK  2 active torsions:
REMARK  status: ('A' for Active; 'I' for Inactive)
REMARK    1  A    between atoms: C11_11  and  C12_12 
REMARK    2  A    between atoms: C16_15  and  C18_16 
ROOT
ATOM      1  O1  ZIN A   1      19.246  -0.468  18.529  0.00  0.00    -0.284 OA
ATOM      2  C2  ZIN A   1      19.015   0.099  17.480  0.00  0.00     0.220 C 
ATOM      3  C3  ZIN A   1      18.830   1.566  17.444  0.00  0.00     0.031 A 
ATOM      4  C4  ZIN A   1      18.640   2.295  18.612  0.00  0.00     0.016 A 
ATOM      5  C5  ZIN A   1      18.469   3.669  18.542  0.00  0.00     0.001 A 
ATOM      6  C6  ZIN A   1      18.487   4.316  17.322  0.00  0.00     0.001 A 
ATOM      7  C7  ZIN A   1      18.675   3.601  16.148  0.00  0.00     0.016 A 
ATOM      8  C8  ZIN A   1      18.848   2.225  16.201  0.00  0.00     0.029 A 
ATOM      9  C9  ZIN A   1      19.051   1.430  14.968  0.00  0.00     0.192 C 
ATOM     10  O10 ZIN A   1      19.315   1.984  13.919  0.00  0.00    -0.287 OA
ATOM     11  C11 ZIN A   1      18.933  -0.031  15.026  0.00  0.00     0.037 C 
ATOM     12  C27 ZIN A   1      18.920  -0.671  16.214  0.00  0.00     0.168 C 
ATOM     13  O28 ZIN A   1      18.812  -2.019  16.254  0.00  0.00    -0.187 OA
ENDROOT
BRANCH  11  14
ATOM     14  C12 ZIN A   1      18.829  -0.824  13.749  0.00  0.00     0.026 C 
ATOM     15  C26 ZIN A   1      19.965  -0.423  12.806  0.00  0.00     0.010 C 
ATOM     16  C25 ZIN A   1      19.860  -1.228  11.509  0.00  0.00     0.010 C 
ATOM     17  C16 ZIN A   1      18.514  -0.941  10.838  0.00  0.00     0.018 C 
ATOM     18  C15 ZIN A   1      17.379  -1.343  11.781  0.00  0.00     0.010 C 
ATOM     19  C14 ZIN A   1      17.485  -0.538  13.078  0.00  0.00     0.010 C 
BRANCH  17  20
ATOM     20  C18 ZIN A   1      18.412   0.529  10.526  0.00  0.00    -0.054 A 
ATOM     21  C24 ZIN A   1      17.460   1.305  11.161  0.00  0.00     0.009 A 
ATOM     22  C23 ZIN A   1      17.369   2.656  10.880  0.00  0.00     0.024 A 
ATOM     23  C21 ZIN A   1      18.224   3.229   9.955  0.00  0.00     0.034 A 
ATOM     24  C20 ZIN A   1      19.172   2.450   9.316  0.00  0.00     0.024 A 
ATOM     25 Cl22 ZIN A   1      18.105   4.923   9.595  0.00  0.00    -0.084 Cl
ATOM     26  C19 ZIN A   1      19.267   1.102   9.602  0.00  0.00     0.009 A 
ENDBRANCH  17  20
ENDBRANCH  11  14
TORSDOF 2
ENDMDL
MODEL 7
REMARK VINA RESULT:      -8.6      3.375      5.238
REMARK  2 active torsions:
REMARK  status: ('A' for Active; 'I' for Inactive)
REMARK    1  A    between atoms: C11_11  and  C12_12 
REMARK    2  A    between atoms: C16_15  and  C18_16 
ROOT
ATOM      1  O1  ZIN A   1      18.331   0.956   7.954  0.00  0.00    -0.284 OA
ATOM      2  C2  ZIN A   1      18.345   0.810   9.160  0.00  0.00     0.220 C 
ATOM      3  C3  ZIN A   1      18.138   1.967  10.058  0.00  0.00     0.031 A 
ATOM      4  C4  ZIN A   1      18.198   3.270   9.578  0.00  0.00     0.016 A 
ATOM      5  C5  ZIN A   1      17.999   4.331  10.448  0.00  0.00     0.001 A 
ATOM      6  C6  ZIN A   1      17.742   4.101  11.785  0.00  0.00     0.001 A 
ATOM      7  C7  ZIN A   1      17.680   2.806  12.279  0.00  0.00     0.016 A 
ATOM      8  C8  ZIN A   1      17.877   1.734  11.421  0.00  0.00     0.029 A 
ATOM      9  C9  ZIN A   1      17.818   0.338  11.913  0.00  0.00     0.192 C 
ATOM     10  O10 ZIN A   1      17.358   0.095  13.012  0.00  0.00    -0.287 OA
ATOM     11  C11 ZIN A   1      18.316  -0.748  11.061  0.00  0.00     0.037 C 
ATOM     12  C27 ZIN A   1      18.565  -0.533   9.753  0.00  0.00     0.168 C 
ATOM     13  O28 ZIN A   1      19.024  -1.543   8.977  0.00  0.00    -0.187 OA
ENDROOT
BRANCH  11  14
ATOM     14  C12 ZIN A   1      18.550  -2.114  11.652  0.00  0.00     0.026 C 
ATOM     15  C26 ZIN A   1      19.823  -2.717  11.055  0.00  0.00     0.010 C 
ATOM     16  C25 ZIN A   1      20.061  -4.105  11.655  0.00  0.00     0.010 C 
ATOM     17  C16 ZIN A   1      18.869  -5.009  11.334  0.00  0.00     0.018 C 
ATOM     18  C15 ZIN A   1      17.596  -4.407  11.931  0.00  0.00     0.010 C 
ATOM     19  C14 ZIN A   1      17.359  -3.020  11.331  0.00  0.00     0.010 C 
BRANCH  17  20
ATOM     20  C18 ZIN A   1      18.716  -5.128   9.840  0.00  0.00    -0.054 A 
ATOM     21  C24 ZIN A   1      17.456  -5.141   9.273  0.00  0.00     0.009 A 
ATOM     22  C23 ZIN A   1      17.314  -5.243   7.902  0.00  0.00     0.024 A 
ATOM     23  C21 ZIN A   1      18.435  -5.344   7.097  0.00  0.00     0.034 A 
ATOM     24  C20 ZIN A   1      19.696  -5.337   7.665  0.00  0.00     0.024 A 
ATOM     25 Cl22 ZIN A   1      18.258  -5.481   5.376  0.00  0.00    -0.084 Cl
ATOM     26  C19 ZIN A   1      19.837  -5.228   9.035  0.00  0.00     0.009 A 
ENDBRANCH  17  20
ENDBRANCH  11  14
TORSDOF 2
ENDMDL
MODEL 8
REMARK VINA RESULT:      -8.5      2.251      3.515
REMARK  2 active torsions:
REMARK  status: ('A' for Active; 'I' for Inactive)
REMARK    1  A    between atoms: C11_11  and  C12_12 
REMARK    2  A    between atoms: C16_15  and  C18_16 
ROOT
ATOM      1  O1  ZIN A   1      19.625  -1.615  14.822  0.00  0.00    -0.284 OA
ATOM      2  C2  ZIN A   1      19.259  -0.462  14.939  0.00  0.00     0.220 C 
ATOM      3  C3  ZIN A   1      18.948   0.093  16.274  0.00  0.00     0.031 A 
ATOM      4  C4  ZIN A   1      18.794  -0.735  17.380  0.00  0.00     0.016 A 
ATOM      5  C5  ZIN A   1      18.502  -0.180  18.617  0.00  0.00     0.001 A 
ATOM      6  C6  ZIN A   1      18.363   1.186  18.756  0.00  0.00     0.001 A 
ATOM      7  C7  ZIN A   1      18.513   2.025  17.661  0.00  0.00     0.016 A 
ATOM      8  C8  ZIN A   1      18.805   1.486  16.417  0.00  0.00     0.029 A 
ATOM      9  C9  ZIN A   1      18.972   2.351  15.227  0.00  0.00     0.192 C 
ATOM     10  O10 ZIN A   1      19.099   3.554  15.356  0.00  0.00    -0.287 OA
ATOM     11  C11 ZIN A   1      18.984   1.744  13.891  0.00  0.00     0.037 C 
ATOM     12  C27 ZIN A   1      19.125   0.410  13.746  0.00  0.00     0.168 C 
ATOM     13  O28 ZIN A   1      19.136  -0.137  12.509  0.00  0.00    -0.187 OA
ENDROOT
BRANCH  11  14
ATOM     14  C12 ZIN A   1      18.842   2.618  12.671  0.00  0.00     0.026 C 
ATOM     15  C26 ZIN A   1      17.518   2.305  11.972  0.00  0.00     0.010 C 
ATOM     16  C25 ZIN A   1      17.373   3.192  10.733  0.00  0.00     0.010 C 
ATOM     17  C16 ZIN A   1      18.534   2.921   9.773  0.00  0.00     0.018 C 
ATOM     18  C15 ZIN A   1      19.857   3.234  10.473  0.00  0.00     0.010 C 
ATOM     19  C14 ZIN A   1      20.002   2.347  11.711  0.00  0.00     0.010 C 
BRANCH  17  20
ATOM     20  C18 ZIN A   1      18.514   1.473   9.359  0.00  0.00    -0.054 A 
ATOM     21  C24 ZIN A   1      19.627   0.910   8.762  0.00  0.00     0.009 A 
ATOM     22  C23 ZIN A   1      19.613  -0.421   8.386  0.00  0.00     0.024 A 
ATOM     23  C21 ZIN A   1      18.480  -1.186   8.598  0.00  0.00     0.034 A 
ATOM     24  C20 ZIN A   1      17.365  -0.621   9.190  0.00  0.00     0.024 A 
ATOM     25 Cl22 ZIN A   1      18.458  -2.855   8.119  0.00  0.00    -0.084 Cl
ATOM     26  C19 ZIN A   1      17.382   0.707   9.570  0.00  0.00     0.009 A 
ENDBRANCH  17  20
ENDBRANCH  11  14
TORSDOF 2
ENDMDL
MODEL 9
REMARK VINA RESULT:      -8.5      3.728      6.129
REMARK  2 active torsions:
REMARK  status: ('A' for Active; 'I' for Inactive)
REMARK    1  A    between atoms: C11_11  and  C12_12 
REMARK    2  A    between atoms: C16_15  and  C18_16 
ROOT
ATOM      1  O1  ZIN A   1      19.814   1.904  11.151  0.00  0.00    -0.284 OA
ATOM      2  C2  ZIN A   1      19.439   0.911  10.559  0.00  0.00     0.220 C 
ATOM      3  C3  ZIN A   1      19.194   0.956   9.101  0.00  0.00     0.031 A 
ATOM      4  C4  ZIN A   1      19.112   2.166   8.422  0.00  0.00     0.016 A 
ATOM      5  C5  ZIN A   1      18.880   2.171   7.055  0.00  0.00     0.001 A 
ATOM      6  C6  ZIN A   1      18.731   0.984   6.366  0.00  0.00     0.001 A 
ATOM      7  C7  ZIN A   1      18.809  -0.231   7.030  0.00  0.00     0.016 A 
ATOM      8  C8  ZIN A   1      19.040  -0.253   8.398  0.00  0.00     0.029 A 
ATOM      9  C9  ZIN A   1      19.130  -1.532   9.139  0.00  0.00     0.192 C 
ATOM     10  O10 ZIN A   1      19.248  -2.582   8.538  0.00  0.00    -0.287 OA
ATOM     11  C11 ZIN A   1      19.078  -1.520  10.606  0.00  0.00     0.037 C 
ATOM     12  C27 ZIN A   1      19.228  -0.365  11.287  0.00  0.00     0.168 C 
ATOM     13  O28 ZIN A   1      19.179  -0.366  12.639  0.00  0.00    -0.187 OA
ENDROOT
BRANCH  11  14
ATOM     14  C12 ZIN A   1      18.858  -2.807  11.357  0.00  0.00     0.026 C 
ATOM     15  C26 ZIN A   1      19.693  -3.919  10.720  0.00  0.00     0.010 C 
ATOM     16  C25 ZIN A   1      19.470  -5.227  11.483  0.00  0.00     0.010 C 
ATOM     17  C16 ZIN A   1      17.988  -5.604  11.424  0.00  0.00     0.018 C 
ATOM     18  C15 ZIN A   1      17.153  -4.493  12.062  0.00  0.00     0.010 C 
ATOM     19  C14 ZIN A   1      17.376  -3.186  11.299  0.00  0.00     0.010 C 
BRANCH  17  20
ATOM     20  C18 ZIN A   1      17.573  -5.784   9.987  0.00  0.00    -0.054 A 
ATOM     21  C24 ZIN A   1      16.252  -5.603   9.622  0.00  0.00     0.009 A 
ATOM     22  C23 ZIN A   1      15.870  -5.762   8.303  0.00  0.00     0.024 A 
ATOM     23  C21 ZIN A   1      16.809  -6.114   7.349  0.00  0.00     0.034 A 
ATOM     24  C20 ZIN A   1      18.130  -6.301   7.716  0.00  0.00     0.024 A 
ATOM     25 Cl22 ZIN A   1      16.330  -6.321   5.694  0.00  0.00    -0.084 Cl
ATOM     26  C19 ZIN A   1      18.511  -6.135   9.034  0.00  0.00     0.009 A 
ENDBRANCH  17  20
ENDBRANCH  11  14
TORSDOF 2
ENDMDL
