MODEL 1
REMARK VINA RESULT:      -8.3      0.000      0.000
REMARK  5 active torsions:
REMARK  status: ('A' for Active; 'I' for Inactive)
REMARK    1  A    between atoms: C7_6  and  N9_7 
REMARK       I    between atoms: N9_7  and  C10_8 
REMARK    2  A    between atoms: C10_8  and  C12_10 
REMARK    3  A    between atoms: C12_10  and  O13_11 
REMARK    4  A    between atoms: O13_11  and  C14_12 
REMARK    5  A    between atoms: C23_21  and  C25_22 
ROOT
ATOM      1  C1  ZIN A   1      17.050  -0.332  16.826  0.00  0.00     0.029 C 
ATOM      2  C2  ZIN A   1      18.221  -0.005  15.896  0.00  0.00     0.029 C 
ATOM      3  C3  ZIN A   1      18.944  -1.277  15.451  0.00  0.00     0.029 C 
ATOM      4  S4  ZIN A   1      17.668   0.995  14.450  0.00  0.00    -0.135 SA
ATOM      5  C5  ZIN A   1      17.764   2.600  15.330  0.00  0.00     0.160 C 
ATOM      6  C7  ZIN A   1      18.746   3.591  14.716  0.00  0.00     0.199 C 
ATOM      7  C20 ZIN A   1      19.477   3.356  16.012  0.00  0.00     0.227 C 
ATOM      8  O21 ZIN A   1      20.458   3.879  16.493  0.00  0.00    -0.277 OA
ATOM      9  N22 ZIN A   1      18.659   2.360  16.470  0.00  0.00    -0.219 NA
ATOM     10  C23 ZIN A   1      19.203   1.001  16.554  0.00  0.00     0.186 C 
ENDROOT
BRANCH   6  11
ATOM     11  N9  ZIN A   1      19.444   3.096  13.528  0.00  0.00    -0.344 N 
ATOM     12  C10 ZIN A   1      19.068   3.512  12.303  0.00  0.00     0.242 C 
ATOM     13  O11 ZIN A   1      18.150   4.297  12.184  0.00  0.00    -0.271 OA
ATOM     14  H34 ZIN A   1      20.178   2.468  13.623  0.00  0.00     0.163 HD
BRANCH  12  15
ATOM     15  C12 ZIN A   1      19.786   3.003  11.080  0.00  0.00     0.278 C 
BRANCH  15  16
ATOM     16  O13 ZIN A   1      18.945   3.157   9.935  0.00  0.00    -0.342 OA
BRANCH  16  17
ATOM     17  C14 ZIN A   1      18.619   2.026   9.253  0.00  0.00     0.069 A 
ATOM     18  C19 ZIN A   1      17.741   1.108   9.809  0.00  0.00     0.037 A 
ATOM     19  C18 ZIN A   1      17.408  -0.037   9.112  0.00  0.00     0.003 A 
ATOM     20  C17 ZIN A   1      17.959  -0.274   7.867  0.00  0.00     0.000 A 
ATOM     21  C16 ZIN A   1      18.839   0.637   7.312  0.00  0.00     0.003 A 
ATOM     22  C15 ZIN A   1      19.171   1.787   8.003  0.00  0.00     0.037 A 
ENDBRANCH  16  17
ENDBRANCH  15  16
ENDBRANCH  12  15
ENDBRANCH   6  11
BRANCH  10  23
ATOM     23  C25 ZIN A   1      19.416   0.636  18.002  0.00  0.00     0.193 C 
ATOM     24  O26 ZIN A   1      19.500  -0.535  18.328  0.00  0.00    -0.647 OA
ATOM     25  O27 ZIN A   1      19.503   1.511  18.845  0.00  0.00    -0.647 OA
ENDBRANCH  10  23
TORSDOF 5
ENDMDL
MODEL 2
REMARK VINA RESULT:      -8.1      4.624      9.242
REMARK  5 active torsions:
REMARK  status: ('A' for Active; 'I' for Inactive)
REMARK    1  A    between atoms: C7_6  and  N9_7 
REMARK       I    between atoms: N9_7  and  C10_8 
REMARK    2  A    between atoms: C10_8  and  C12_10 
REMARK    3  A    between atoms: C12_10  and  O13_11 
REMARK    4  A    between atoms: O13_11  and  C14_12 
REMARK    5  A    between atoms: C23_21  and  C25_22 
ROOT
ATOM      1  C1  ZIN A   1      17.056  -0.134   6.236  0.00  0.00     0.029 C 
ATOM      2  C2  ZIN A   1      18.272  -0.374   7.134  0.00  0.00     0.029 C 
ATOM      3  C3  ZIN A   1      19.078   0.911   7.327  0.00  0.00     0.029 C 
ATOM      4  S4  ZIN A   1      17.775  -1.105   8.751  0.00  0.00    -0.135 SA
ATOM      5  C5  ZIN A   1      17.742  -2.830   8.133  0.00  0.00     0.160 C 
ATOM      6  C7  ZIN A   1      18.719  -3.765   8.837  0.00  0.00     0.199 C 
ATOM      7  C20 ZIN A   1      19.369  -3.774   7.479  0.00  0.00     0.227 C 
ATOM      8  O21 ZIN A   1      20.292  -4.419   7.030  0.00  0.00    -0.277 OA
ATOM      9  N22 ZIN A   1      18.566  -2.820   6.918  0.00  0.00    -0.219 NA
ATOM     10  C23 ZIN A   1      19.162  -1.522   6.587  0.00  0.00     0.186 C 
ENDROOT
BRANCH   6  11
ATOM     11  N9  ZIN A   1      19.517  -3.129   9.888  0.00  0.00    -0.344 N 
ATOM     12  C10 ZIN A   1      19.162  -3.267  11.180  0.00  0.00     0.242 C 
ATOM     13  O11 ZIN A   1      18.182  -3.919  11.474  0.00  0.00    -0.271 OA
ATOM     14  H34 ZIN A   1      20.300  -2.608   9.652  0.00  0.00     0.163 HD
BRANCH  12  15
ATOM     15  C12 ZIN A   1      19.983  -2.613  12.261  0.00  0.00     0.278 C 
BRANCH  15  16
ATOM     16  O13 ZIN A   1      19.564  -1.256  12.422  0.00  0.00    -0.342 OA
BRANCH  16  17
ATOM     17  C14 ZIN A   1      18.990  -0.924  13.609  0.00  0.00     0.069 A 
ATOM     18  C19 ZIN A   1      19.369  -1.581  14.771  0.00  0.00     0.037 A 
ATOM     19  C18 ZIN A   1      18.789  -1.239  15.977  0.00  0.00     0.003 A 
ATOM     20  C17 ZIN A   1      17.822  -0.251  16.024  0.00  0.00     0.000 A 
ATOM     21  C16 ZIN A   1      17.439   0.401  14.867  0.00  0.00     0.003 A 
ATOM     22  C15 ZIN A   1      18.021   0.067  13.659  0.00  0.00     0.037 A 
ENDBRANCH  16  17
ENDBRANCH  15  16
ENDBRANCH  12  15
ENDBRANCH   6  11
BRANCH  10  23
ATOM     23  C25 ZIN A   1      19.292  -1.399   5.089  0.00  0.00     0.193 C 
ATOM     24  O26 ZIN A   1      18.654  -2.138   4.360  0.00  0.00    -0.647 OA
ATOM     25  O27 ZIN A   1      20.036  -0.562   4.609  0.00  0.00    -0.647 OA
ENDBRANCH  10  23
TORSDOF 5
ENDMDL
MODEL 3
REMARK VINA RESULT:      -8.0      5.448      7.793
REMARK  5 active torsions:
REMARK  status: ('A' for Active; 'I' for Inactive)
REMARK    1  A    between atoms: C7_6  and  N9_7 
REMARK       I    between atoms: N9_7  and  C10_8 
REMARK    2  A    between atoms: C10_8  and  C12_10 
REMARK    3  A    between atoms: C12_10  and  O13_11 
REMARK    4  A    between atoms: O13_11  and  C14_12 
REMARK    5  A    between atoms: C23_21  and  C25_22 
ROOT
ATOM      1  C1  ZIN A   1      17.851  -6.969   7.996  0.00  0.00     0.029 C 
ATOM      2  C2  ZIN A   1      17.935  -5.448   8.134  0.00  0.00     0.029 C 
ATOM      3  C3  ZIN A   1      17.823  -4.762   6.772  0.00  0.00     0.029 C 
ATOM      4  S4  ZIN A   1      16.669  -4.812   9.313  0.00  0.00    -0.135 SA
ATOM      5  C5  ZIN A   1      17.684  -5.124  10.807  0.00  0.00     0.160 C 
ATOM      6  C7  ZIN A   1      18.009  -3.873  11.615  0.00  0.00     0.199 C 
ATOM      7  C20 ZIN A   1      19.408  -4.189  11.156  0.00  0.00     0.227 C 
ATOM      8  O21 ZIN A   1      20.480  -3.700  11.439  0.00  0.00    -0.277 OA
ATOM      9  N22 ZIN A   1      19.067  -5.217  10.321  0.00  0.00    -0.219 NA
ATOM     10  C23 ZIN A   1      19.229  -5.019   8.878  0.00  0.00     0.186 C 
ENDROOT
BRANCH   6  11
ATOM     11  N9  ZIN A   1      17.455  -2.634  11.063  0.00  0.00    -0.344 N 
ATOM     12  C10 ZIN A   1      17.511  -1.493  11.778  0.00  0.00     0.242 C 
ATOM     13  O11 ZIN A   1      18.021  -1.492  12.878  0.00  0.00    -0.271 OA
ATOM     14  H34 ZIN A   1      17.047  -2.636  10.182  0.00  0.00     0.163 HD
BRANCH  12  15
ATOM     15  C12 ZIN A   1      16.941  -0.220  11.210  0.00  0.00     0.278 C 
BRANCH  15  16
ATOM     16  O13 ZIN A   1      18.000   0.579  10.677  0.00  0.00    -0.342 OA
BRANCH  16  17
ATOM     17  C14 ZIN A   1      18.109   0.634   9.322  0.00  0.00     0.069 A 
ATOM     18  C19 ZIN A   1      17.329  -0.194   8.528  0.00  0.00     0.037 A 
ATOM     19  C18 ZIN A   1      17.438  -0.133   7.153  0.00  0.00     0.003 A 
ATOM     20  C17 ZIN A   1      18.333   0.744   6.568  0.00  0.00     0.000 A 
ATOM     21  C16 ZIN A   1      19.115   1.566   7.357  0.00  0.00     0.003 A 
ATOM     22  C15 ZIN A   1      19.006   1.513   8.733  0.00  0.00     0.037 A 
ENDBRANCH  16  17
ENDBRANCH  15  16
ENDBRANCH  12  15
ENDBRANCH   6  11
BRANCH  10  23
ATOM     23  C25 ZIN A   1      20.396  -5.838   8.388  0.00  0.00     0.193 C 
ATOM     24  O26 ZIN A   1      20.910  -5.583   7.313  0.00  0.00    -0.647 OA
ATOM     25  O27 ZIN A   1      20.825  -6.755   9.066  0.00  0.00    -0.647 OA
ENDBRANCH  10  23
TORSDOF 5
ENDMDL
MODEL 4
REMARK VINA RESULT:      -7.8      6.805      9.432
REMARK  5 active torsions:
REMARK  status: ('A' for Active; 'I' for Inactive)
REMARK    1  A    between atoms: C7_6  and  N9_7 
REMARK       I    between atoms: N9_7  and  C10_8 
REMARK    2  A    between atoms: C10_8  and  C12_10 
REMARK    3  A    between atoms: C12_10  and  O13_11 
REMARK    4  A    between atoms: O13_11  and  C14_12 
REMARK    5  A    between atoms: C23_21  and  C25_22 
ROOT
ATOM      1  C1  ZIN A   1      19.625  -5.714   9.250  0.00  0.00     0.029 C 
ATOM      2  C2  ZIN A   1      18.604  -4.705   8.720  0.00  0.00     0.029 C 
ATOM      3  C3  ZIN A   1      17.729  -4.159   9.849  0.00  0.00     0.029 C 
ATOM      4  S4  ZIN A   1      19.429  -3.343   7.791  0.00  0.00    -0.135 SA
ATOM      5  C5  ZIN A   1      19.513  -4.269   6.211  0.00  0.00     0.160 C 
ATOM      6  C7  ZIN A   1      18.757  -3.614   5.061  0.00  0.00     0.199 C 
ATOM      7  C20 ZIN A   1      17.891  -4.837   5.204  0.00  0.00     0.227 C 
ATOM      8  O21 ZIN A   1      16.967  -5.255   4.541  0.00  0.00    -0.277 OA
ATOM      9  N22 ZIN A   1      18.499  -5.325   6.328  0.00  0.00    -0.219 NA
ATOM     10  C23 ZIN A   1      17.742  -5.317   7.583  0.00  0.00     0.186 C 
ENDROOT
BRANCH   6  11
ATOM     11  N9  ZIN A   1      18.092  -2.356   5.412  0.00  0.00    -0.344 N 
ATOM     12  C10 ZIN A   1      18.681  -1.179   5.123  0.00  0.00     0.242 C 
ATOM     13  O11 ZIN A   1      19.762  -1.161   4.572  0.00  0.00    -0.271 OA
ATOM     14  H34 ZIN A   1      17.228  -2.371   5.853  0.00  0.00     0.163 HD
BRANCH  12  15
ATOM     15  C12 ZIN A   1      17.998   0.114   5.483  0.00  0.00     0.278 C 
BRANCH  15  16
ATOM     16  O13 ZIN A   1      18.874   0.909   6.285  0.00  0.00    -0.342 OA
BRANCH  16  17
ATOM     17  C14 ZIN A   1      18.579   1.008   7.609  0.00  0.00     0.069 A 
ATOM     18  C19 ZIN A   1      19.149   2.015   8.374  0.00  0.00     0.037 A 
ATOM     19  C18 ZIN A   1      18.844   2.117   9.717  0.00  0.00     0.003 A 
ATOM     20  C17 ZIN A   1      17.982   1.208  10.302  0.00  0.00     0.000 A 
ATOM     21  C16 ZIN A   1      17.418   0.199   9.543  0.00  0.00     0.003 A 
ATOM     22  C15 ZIN A   1      17.715   0.097   8.198  0.00  0.00     0.037 A 
ENDBRANCH  16  17
ENDBRANCH  15  16
ENDBRANCH  12  15
ENDBRANCH   6  11
BRANCH  10  23
ATOM     23  C25 ZIN A   1      17.352  -6.729   7.941  0.00  0.00     0.193 C 
ATOM     24  O26 ZIN A   1      17.956  -7.669   7.456  0.00  0.00    -0.647 OA
ATOM     25  O27 ZIN A   1      16.431  -6.930   8.714  0.00  0.00    -0.647 OA
ENDBRANCH  10  23
TORSDOF 5
ENDMDL
MODEL 5
REMARK VINA RESULT:      -7.7      4.847      7.029
REMARK  5 active torsions:
REMARK  status: ('A' for Active; 'I' for Inactive)
REMARK    1  A    between atoms: C7_6  and  N9_7 
REMARK       I    between atoms: N9_7  and  C10_8 
REMARK    2  A    between atoms: C10_8  and  C12_10 
REMARK    3  A    between atoms: C12_10  and  O13_11 
REMARK    4  A    between atoms: O13_11  and  C14_12 
REMARK    5  A    between atoms: C23_21  and  C25_22 
ROOT
ATOM      1  C1  ZIN A   1      19.293   1.098  11.660  0.00  0.00     0.029 C 
ATOM      2  C2  ZIN A   1      18.852   0.188  10.512  0.00  0.00     0.029 C 
ATOM      3  C3  ZIN A   1      18.275   1.003   9.353  0.00  0.00     0.029 C 
ATOM      4  S4  ZIN A   1      20.231  -0.897   9.950  0.00  0.00    -0.135 SA
ATOM      5  C5  ZIN A   1      19.947  -2.177  11.231  0.00  0.00     0.160 C 
ATOM      6  C7  ZIN A   1      19.605  -3.554  10.674  0.00  0.00     0.199 C 
ATOM      7  C20 ZIN A   1      18.278  -3.261  11.324  0.00  0.00     0.227 C 
ATOM      8  O21 ZIN A   1      17.289  -3.943  11.484  0.00  0.00    -0.277 OA
ATOM      9  N22 ZIN A   1      18.564  -1.972  11.681  0.00  0.00    -0.219 NA
ATOM     10  C23 ZIN A   1      17.847  -0.890  10.999  0.00  0.00     0.186 C 
ENDROOT
BRANCH   6  11
ATOM     11  N9  ZIN A   1      19.562  -3.623   9.212  0.00  0.00    -0.344 N 
ATOM     12  C10 ZIN A   1      19.675  -4.813   8.590  0.00  0.00     0.242 C 
ATOM     13  O11 ZIN A   1      19.812  -5.827   9.241  0.00  0.00    -0.271 OA
ATOM     14  H34 ZIN A   1      19.453  -2.812   8.691  0.00  0.00     0.163 HD
BRANCH  12  15
ATOM     15  C12 ZIN A   1      19.631  -4.884   7.086  0.00  0.00     0.278 C 
BRANCH  15  16
ATOM     16  O13 ZIN A   1      20.124  -3.660   6.536  0.00  0.00    -0.342 OA
BRANCH  16  17
ATOM     17  C14 ZIN A   1      19.251  -2.916   5.806  0.00  0.00     0.069 A 
ATOM     18  C19 ZIN A   1      18.393  -3.534   4.909  0.00  0.00     0.037 A 
ATOM     19  C18 ZIN A   1      17.503  -2.777   4.172  0.00  0.00     0.003 A 
ATOM     20  C17 ZIN A   1      17.477  -1.402   4.319  0.00  0.00     0.000 A 
ATOM     21  C16 ZIN A   1      18.336  -0.783   5.208  0.00  0.00     0.003 A 
ATOM     22  C15 ZIN A   1      19.223  -1.537   5.952  0.00  0.00     0.037 A 
ENDBRANCH  16  17
ENDBRANCH  15  16
ENDBRANCH  12  15
ENDBRANCH   6  11
BRANCH  10  23
ATOM     23  C25 ZIN A   1      16.853  -0.272  11.950  0.00  0.00     0.193 C 
ATOM     24  O26 ZIN A   1      17.122  -0.178  13.135  0.00  0.00    -0.647 OA
ATOM     25  O27 ZIN A   1      15.782   0.133  11.534  0.00  0.00    -0.647 OA
ENDBRANCH  10  23
TORSDOF 5
ENDMDL
MODEL 6
REMARK VINA RESULT:      -7.7      3.950      7.458
REMARK  5 active torsions:
REMARK  status: ('A' for Active; 'I' for Inactive)
REMARK    1  A    between atoms: C7_6  and  N9_7 
REMARK       I    between atoms: N9_7  and  C10_8 
REMARK    2  A    between atoms: C10_8  and  C12_10 
REMARK    3  A    between atoms: C12_10  and  O13_11 
REMARK    4  A    between atoms: O13_11  and  C14_12 
REMARK    5  A    between atoms: C23_21  and  C25_22 
ROOT
ATOM      1  C1  ZIN A   1      19.647  -4.721  10.296  0.00  0.00     0.029 C 
ATOM      2  C2  ZIN A   1      18.632  -3.700  10.814  0.00  0.00     0.029 C 
ATOM      3  C3  ZIN A   1      17.723  -4.316  11.879  0.00  0.00     0.029 C 
ATOM      4  S4  ZIN A   1      19.468  -2.182  11.441  0.00  0.00    -0.135 SA
ATOM      5  C5  ZIN A   1      19.602  -1.392   9.793  0.00  0.00     0.160 C 
ATOM      6  C7  ZIN A   1      18.870  -0.060   9.677  0.00  0.00     0.199 C 
ATOM      7  C20 ZIN A   1      18.011  -0.848   8.724  0.00  0.00     0.227 C 
ATOM      8  O21 ZIN A   1      17.109  -0.517   7.986  0.00  0.00    -0.277 OA
ATOM      9  N22 ZIN A   1      18.594  -2.063   8.961  0.00  0.00    -0.219 NA
ATOM     10  C23 ZIN A   1      17.805  -3.086   9.653  0.00  0.00     0.186 C 
ENDROOT
BRANCH   6  11
ATOM     11  N9  ZIN A   1      18.186   0.364  10.901  0.00  0.00    -0.344 N 
ATOM     12  C10 ZIN A   1      18.592   1.472  11.551  0.00  0.00     0.242 C 
ATOM     13  O11 ZIN A   1      19.524   2.119  11.122  0.00  0.00    -0.271 OA
ATOM     14  H34 ZIN A   1      17.440  -0.154  11.243  0.00  0.00     0.163 HD
BRANCH  12  15
ATOM     15  C12 ZIN A   1      17.888   1.908  12.809  0.00  0.00     0.278 C 
BRANCH  15  16
ATOM     16  O13 ZIN A   1      18.768   1.753  13.925  0.00  0.00    -0.342 OA
BRANCH  16  17
ATOM     17  C14 ZIN A   1      18.572   0.665  14.718  0.00  0.00     0.069 A 
ATOM     18  C19 ZIN A   1      19.444  -0.411  14.649  0.00  0.00     0.037 A 
ATOM     19  C18 ZIN A   1      19.247  -1.512  15.459  0.00  0.00     0.003 A 
ATOM     20  C17 ZIN A   1      18.173  -1.547  16.329  0.00  0.00     0.000 A 
ATOM     21  C16 ZIN A   1      17.299  -0.478  16.396  0.00  0.00     0.003 A 
ATOM     22  C15 ZIN A   1      17.496   0.628  15.593  0.00  0.00     0.037 A 
ENDBRANCH  16  17
ENDBRANCH  15  16
ENDBRANCH  12  15
ENDBRANCH   6  11
BRANCH  10  23
ATOM     23  C25 ZIN A   1      17.417  -4.166   8.674  0.00  0.00     0.193 C 
ATOM     24  O26 ZIN A   1      16.496  -4.920   8.933  0.00  0.00    -0.647 OA
ATOM     25  O27 ZIN A   1      18.026  -4.284   7.625  0.00  0.00    -0.647 OA
ENDBRANCH  10  23
TORSDOF 5
ENDMDL
MODEL 7
REMARK VINA RESULT:      -7.6      2.838      4.871
REMARK  5 active torsions:
REMARK  status: ('A' for Active; 'I' for Inactive)
REMARK    1  A    between atoms: C7_6  and  N9_7 
REMARK       I    between atoms: N9_7  and  C10_8 
REMARK    2  A    between atoms: C10_8  and  C12_10 
REMARK    3  A    between atoms: C12_10  and  O13_11 
REMARK    4  A    between atoms: O13_11  and  C14_12 
REMARK    5  A    between atoms: C23_21  and  C25_22 
ROOT
ATOM      1  C1  ZIN A   1      19.788   4.775  12.525  0.00  0.00     0.029 C 
ATOM      2  C2  ZIN A   1      18.743   3.811  11.960  0.00  0.00     0.029 C 
ATOM      3  C3  ZIN A   1      17.768   4.536  11.031  0.00  0.00     0.029 C 
ATOM      4  S4  ZIN A   1      19.540   2.381  11.113  0.00  0.00    -0.135 SA
ATOM      5  C5  ZIN A   1      19.779   1.410  12.649  0.00  0.00     0.160 C 
ATOM      6  C7  ZIN A   1      19.057   0.068  12.659  0.00  0.00     0.199 C 
ATOM      7  C20 ZIN A   1      18.260   0.736  13.747  0.00  0.00     0.227 C 
ATOM      8  O21 ZIN A   1      17.406   0.315  14.498  0.00  0.00    -0.277 OA
ATOM      9  N22 ZIN A   1      18.825   1.974  13.613  0.00  0.00    -0.219 NA
ATOM     10  C23 ZIN A   1      17.992   3.062  13.093  0.00  0.00     0.186 C 
ENDROOT
BRANCH   6  11
ATOM     11  N9  ZIN A   1      18.297  -0.221  11.440  0.00  0.00    -0.344 N 
ATOM     12  C10 ZIN A   1      18.761  -1.125  10.555  0.00  0.00     0.242 C 
ATOM     13  O11 ZIN A   1      19.807  -1.701  10.768  0.00  0.00    -0.271 OA
ATOM     14  H34 ZIN A   1      17.461   0.240  11.270  0.00  0.00     0.163 HD
BRANCH  12  15
ATOM     15  C12 ZIN A   1      17.979  -1.422   9.302  0.00  0.00     0.278 C 
BRANCH  15  16
ATOM     16  O13 ZIN A   1      18.856  -1.960   8.310  0.00  0.00    -0.342 OA
BRANCH  16  17
ATOM     17  C14 ZIN A   1      18.952  -1.279   7.137  0.00  0.00     0.069 A 
ATOM     18  C19 ZIN A   1      19.166  -1.966   5.950  0.00  0.00     0.037 A 
ATOM     19  C18 ZIN A   1      19.258  -1.273   4.759  0.00  0.00     0.003 A 
ATOM     20  C17 ZIN A   1      19.149   0.106   4.751  0.00  0.00     0.000 A 
ATOM     21  C16 ZIN A   1      18.942   0.793   5.932  0.00  0.00     0.003 A 
ATOM     22  C15 ZIN A   1      18.843   0.104   7.125  0.00  0.00     0.037 A 
ENDBRANCH  16  17
ENDBRANCH  15  16
ENDBRANCH  12  15
ENDBRANCH   6  11
BRANCH  10  23
ATOM     23  C25 ZIN A   1      17.666   4.020  14.211  0.00  0.00     0.193 C 
ATOM     24  O26 ZIN A   1      18.263   3.946  15.271  0.00  0.00    -0.647 OA
ATOM     25  O27 ZIN A   1      16.805   4.869  14.055  0.00  0.00    -0.647 OA
ENDBRANCH  10  23
TORSDOF 5
ENDMDL
MODEL 8
REMARK VINA RESULT:      -7.6      3.057      5.775
REMARK  5 active torsions:
REMARK  status: ('A' for Active; 'I' for Inactive)
REMARK    1  A    between atoms: C7_6  and  N9_7 
REMARK       I    between atoms: N9_7  and  C10_8 
REMARK    2  A    between atoms: C10_8  and  C12_10 
REMARK    3  A    between atoms: C12_10  and  O13_11 
REMARK    4  A    between atoms: O13_11  and  C14_12 
REMARK    5  A    between atoms: C23_21  and  C25_22 
ROOT
ATOM      1  C1  ZIN A   1      18.227   7.017  15.700  0.00  0.00     0.029 C 
ATOM      2  C2  ZIN A   1      18.414   5.509  15.520  0.00  0.00     0.029 C 
ATOM      3  C3  ZIN A   1      18.567   4.807  16.871  0.00  0.00     0.029 C 
ATOM      4  S4  ZIN A   1      17.039   4.777  14.535  0.00  0.00    -0.135 SA
ATOM      5  C5  ZIN A   1      17.786   5.184  12.910  0.00  0.00     0.160 C 
ATOM      6  C7  ZIN A   1      18.085   3.969  12.039  0.00  0.00     0.199 C 
ATOM      7  C20 ZIN A   1      19.507   4.398  12.287  0.00  0.00     0.227 C 
ATOM      8  O21 ZIN A   1      20.560   4.004  11.836  0.00  0.00    -0.277 OA
ATOM      9  N22 ZIN A   1      19.214   5.389  13.184  0.00  0.00    -0.219 NA
ATOM     10  C23 ZIN A   1      19.610   5.195  14.582  0.00  0.00     0.186 C 
ENDROOT
BRANCH   6  11
ATOM     11  N9  ZIN A   1      17.725   2.685  12.644  0.00  0.00    -0.344 N 
ATOM     12  C10 ZIN A   1      17.432   1.629  11.860  0.00  0.00     0.242 C 
ATOM     13  O11 ZIN A   1      17.468   1.742  10.653  0.00  0.00    -0.271 OA
ATOM     14  H34 ZIN A   1      17.697   2.596  13.610  0.00  0.00     0.163 HD
BRANCH  12  15
ATOM     15  C12 ZIN A   1      17.062   0.308  12.483  0.00  0.00     0.278 C 
BRANCH  15  16
ATOM     16  O13 ZIN A   1      18.224  -0.285  13.066  0.00  0.00    -0.342 OA
BRANCH  16  17
ATOM     17  C14 ZIN A   1      18.211  -0.470  14.414  0.00  0.00     0.069 A 
ATOM     18  C19 ZIN A   1      17.329   0.251  15.206  0.00  0.00     0.037 A 
ATOM     19  C18 ZIN A   1      17.314   0.058  16.573  0.00  0.00     0.003 A 
ATOM     20  C17 ZIN A   1      18.186  -0.844  17.154  0.00  0.00     0.000 A 
ATOM     21  C16 ZIN A   1      19.070  -1.560  16.368  0.00  0.00     0.003 A 
ATOM     22  C15 ZIN A   1      19.084  -1.376  14.999  0.00  0.00     0.037 A 
ENDBRANCH  16  17
ENDBRANCH  15  16
ENDBRANCH  12  15
ENDBRANCH   6  11
BRANCH  10  23
ATOM     23  C25 ZIN A   1      20.767   6.106  14.905  0.00  0.00     0.193 C 
ATOM     24  O26 ZIN A   1      20.908   7.151  14.295  0.00  0.00    -0.647 OA
ATOM     25  O27 ZIN A   1      21.562   5.796  15.776  0.00  0.00    -0.647 OA
ENDBRANCH  10  23
TORSDOF 5
ENDMDL
MODEL 9
REMARK VINA RESULT:      -7.6      6.453      8.349
REMARK  5 active torsions:
REMARK  status: ('A' for Active; 'I' for Inactive)
REMARK    1  A    between atoms: C7_6  and  N9_7 
REMARK       I    between atoms: N9_7  and  C10_8 
REMARK    2  A    between atoms: C10_8  and  C12_10 
REMARK    3  A    between atoms: C12_10  and  O13_11 
REMARK    4  A    between atoms: O13_11  and  C14_12 
REMARK    5  A    between atoms: C23_21  and  C25_22 
ROOT
ATOM      1  C1  ZIN A   1      19.388  -4.240  11.286  0.00  0.00     0.029 C 
ATOM      2  C2  ZIN A   1      18.457  -3.479  10.339  0.00  0.00     0.029 C 
ATOM      3  C3  ZIN A   1      17.766  -2.319  11.057  0.00  0.00     0.029 C 
ATOM      4  S4  ZIN A   1      19.356  -2.901   8.838  0.00  0.00    -0.135 SA
ATOM      5  C5  ZIN A   1      19.177  -4.486   7.935  0.00  0.00     0.160 C 
ATOM      6  C7  ZIN A   1      18.405  -4.374   6.625  0.00  0.00     0.199 C 
ATOM      7  C20 ZIN A   1      17.409  -5.216   7.378  0.00  0.00     0.227 C 
ATOM      8  O21 ZIN A   1      16.383  -5.759   7.030  0.00  0.00    -0.277 OA
ATOM      9  N22 ZIN A   1      18.053  -5.173   8.584  0.00  0.00    -0.219 NA
ATOM     10  C23 ZIN A   1      17.423  -4.430   9.679  0.00  0.00     0.186 C 
ENDROOT
BRANCH   6  11
ATOM     11  N9  ZIN A   1      17.939  -3.022   6.309  0.00  0.00    -0.344 N 
ATOM     12  C10 ZIN A   1      18.520  -2.325   5.313  0.00  0.00     0.242 C 
ATOM     13  O11 ZIN A   1      19.428  -2.817   4.677  0.00  0.00    -0.271 OA
ATOM     14  H34 ZIN A   1      17.212  -2.629   6.817  0.00  0.00     0.163 HD
BRANCH  12  15
ATOM     15  C12 ZIN A   1      18.040  -0.934   4.987  0.00  0.00     0.278 C 
BRANCH  15  16
ATOM     16  O13 ZIN A   1      17.180  -0.471   6.030  0.00  0.00    -0.342 OA
BRANCH  16  17
ATOM     17  C14 ZIN A   1      17.756   0.245   7.033  0.00  0.00     0.069 A 
ATOM     18  C19 ZIN A   1      18.819   1.094   6.758  0.00  0.00     0.037 A 
ATOM     19  C18 ZIN A   1      19.399   1.824   7.777  0.00  0.00     0.003 A 
ATOM     20  C17 ZIN A   1      18.930   1.700   9.072  0.00  0.00     0.000 A 
ATOM     21  C16 ZIN A   1      17.875   0.851   9.349  0.00  0.00     0.003 A 
ATOM     22  C15 ZIN A   1      17.286   0.123   8.332  0.00  0.00     0.037 A 
ENDBRANCH  16  17
ENDBRANCH  15  16
ENDBRANCH  12  15
ENDBRANCH   6  11
BRANCH  10  23
ATOM     23  C25 ZIN A   1      16.893  -5.402  10.703  0.00  0.00     0.193 C 
ATOM     24  O26 ZIN A   1      17.224  -6.573  10.659  0.00  0.00    -0.647 OA
ATOM     25  O27 ZIN A   1      16.133  -5.015  11.574  0.00  0.00    -0.647 OA
ENDBRANCH  10  23
TORSDOF 5
ENDMDL
