MODEL 1
REMARK VINA RESULT:      -8.3      0.000      0.000
REMARK  7 active torsions:
REMARK  status: ('A' for Active; 'I' for Inactive)
REMARK    1  A    between atoms: C4_4  and  C6_5 
REMARK    2  A    between atoms: C10_9  and  C12_10 
REMARK    3  A    between atoms: C12_10  and  O14_12 
REMARK    4  A    between atoms: O14_12  and  C15_13 
REMARK    5  A    between atoms: C15_13  and  C16_14 
REMARK    6  A    between atoms: C20_18  and  O21_19 
REMARK    7  A    between atoms: O21_19  and  C22_20 
ROOT
ATOM      1  C16 <0> d   1      17.957   3.607  12.506  0.00  0.00    -0.031 A 
ATOM      2  C17 <0> d   1      17.180   4.604  11.947  0.00  0.00     0.009 A 
ATOM      3  C18 <0> d   1      17.176   4.796  10.578  0.00  0.00     0.003 A 
ATOM      4  C19 <0> d   1      17.949   3.990   9.765  0.00  0.00     0.037 A 
ATOM      5  C20 <0> d   1      18.730   2.989  10.324  0.00  0.00     0.076 A 
ATOM      6  C28 <0> d   1      18.737   2.802  11.698  0.00  0.00     0.046 A 
ENDROOT
BRANCH   1   7
ATOM      7  C15 <0> d   1      17.960   3.402  13.999  0.00  0.00     0.217 C 
BRANCH   7   8
ATOM      8  O14 <0> d   1      19.046   2.509  14.363  0.00  0.00    -0.317 OA
BRANCH   8   9
ATOM      9  C12 <0> d   1      18.900   1.800  15.494  0.00  0.00     0.264 C 
ATOM     10  O13 <0> d   1      18.356   2.297  16.452  0.00  0.00    -0.265 OA
BRANCH   9  11
ATOM     11  C10 <0> d   1      19.413   0.385  15.567  0.00  0.00     0.102 A 
ATOM     12  C2  <0> d   1      18.506  -0.663  16.215  0.00  0.00    -0.027 A 
ATOM     13  C1  <0> d   1      17.146  -0.194  16.737  0.00  0.00     0.016 C 
ATOM     14  C3  <0> d   1      19.175  -1.775  17.023  0.00  0.00     0.016 C 
ATOM     15  C4  <0> d   1      18.717  -0.665  14.699  0.00  0.00     0.034 A 
BRANCH  15  16
ATOM     16  C6  <0> d   1      17.572  -0.206  13.836  0.00  0.00     0.016 C 
ATOM     17  C7  <0> d   1      17.550  -0.509  12.558  0.00  0.00     0.100 C 
ATOM     18 Cl8  <0> d   1      18.841  -1.439  11.864  0.00  0.00    -0.071 Cl
ATOM     19 Cl9  <0> d   1      16.229   0.020  11.562  0.00  0.00    -0.071 Cl
ENDBRANCH  15  16
ENDBRANCH   9  11
ENDBRANCH   8   9
ENDBRANCH   7   8
ENDBRANCH   1   7
BRANCH   5  20
ATOM     20  O21 <0> d   1      19.492   2.195   9.525  0.00  0.00    -0.311 OA
BRANCH  20  21
ATOM     21  C22 <0> d   1      18.864   1.460   8.570  0.00  0.00     0.076 A 
ATOM     22  C27 <0> d   1      19.182   1.641   7.232  0.00  0.00     0.037 A 
ATOM     23  C26 <0> d   1      18.547   0.887   6.264  0.00  0.00     0.003 A 
ATOM     24  C25 <0> d   1      17.584  -0.037   6.627  0.00  0.00     0.000 A 
ATOM     25  C24 <0> d   1      17.260  -0.215   7.960  0.00  0.00     0.003 A 
ATOM     26  C23 <0> d   1      17.898   0.531   8.932  0.00  0.00     0.037 A 
ENDBRANCH  20  21
ENDBRANCH   5  20
TORSDOF 7
ENDMDL
MODEL 2
REMARK VINA RESULT:      -8.2      3.242      7.094
REMARK  7 active torsions:
REMARK  status: ('A' for Active; 'I' for Inactive)
REMARK    1  A    between atoms: C4_4  and  C6_5 
REMARK    2  A    between atoms: C10_9  and  C12_10 
REMARK    3  A    between atoms: C12_10  and  O14_12 
REMARK    4  A    between atoms: O14_12  and  C15_13 
REMARK    5  A    between atoms: C15_13  and  C16_14 
REMARK    6  A    between atoms: C20_18  and  O21_19 
REMARK    7  A    between atoms: O21_19  and  C22_20 
ROOT
ATOM      1  C16 <0> d   1      18.484   0.557   8.173  0.00  0.00    -0.031 A 
ATOM      2  C17 <0> d   1      19.071   1.806   8.263  0.00  0.00     0.009 A 
ATOM      3  C18 <0> d   1      18.853   2.597   9.376  0.00  0.00     0.003 A 
ATOM      4  C19 <0> d   1      18.048   2.141  10.401  0.00  0.00     0.037 A 
ATOM      5  C20 <0> d   1      17.458   0.888  10.314  0.00  0.00     0.076 A 
ATOM      6  C28 <0> d   1      17.674   0.099   9.194  0.00  0.00     0.046 A 
ENDROOT
BRANCH   1   7
ATOM      7  C15 <0> d   1      18.723  -0.302   6.959  0.00  0.00     0.217 C 
BRANCH   7   8
ATOM      8  O14 <0> d   1      19.571  -1.424   7.319  0.00  0.00    -0.317 OA
BRANCH   8   9
ATOM      9  C12 <0> d   1      19.306  -2.602   6.731  0.00  0.00     0.264 C 
ATOM     10  O13 <0> d   1      20.077  -3.060   5.922  0.00  0.00    -0.265 OA
BRANCH   9  11
ATOM     11  C10 <0> d   1      18.046  -3.352   7.081  0.00  0.00     0.102 A 
ATOM     12  C2  <0> d   1      18.169  -4.854   7.345  0.00  0.00    -0.027 A 
ATOM     13  C1  <0> d   1      19.561  -5.480   7.233  0.00  0.00     0.016 C 
ATOM     14  C3  <0> d   1      17.008  -5.746   6.903  0.00  0.00     0.016 C 
ATOM     15  C4  <0> d   1      17.918  -3.892   8.507  0.00  0.00     0.034 A 
BRANCH  15  16
ATOM     16  C6  <0> d   1      19.061  -3.632   9.454  0.00  0.00     0.016 C 
ATOM     17  C7  <0> d   1      19.116  -4.262  10.606  0.00  0.00     0.100 C 
ATOM     18 Cl8  <0> d   1      17.872  -5.394  11.036  0.00  0.00    -0.071 Cl
ATOM     19 Cl9  <0> d   1      20.433  -3.963  11.697  0.00  0.00    -0.071 Cl
ENDBRANCH  15  16
ENDBRANCH   9  11
ENDBRANCH   8   9
ENDBRANCH   7   8
ENDBRANCH   1   7
BRANCH   5  20
ATOM     20  O21 <0> d   1      16.665   0.438  11.322  0.00  0.00    -0.311 OA
BRANCH  20  21
ATOM     21  C22 <0> d   1      17.268  -0.033  12.446  0.00  0.00     0.076 A 
ATOM     22  C27 <0> d   1      17.856  -1.289  12.445  0.00  0.00     0.037 A 
ATOM     23  C26 <0> d   1      18.474  -1.762  13.586  0.00  0.00     0.003 A 
ATOM     24  C25 <0> d   1      18.495  -0.989  14.733  0.00  0.00     0.000 A 
ATOM     25  C24 <0> d   1      17.903   0.261  14.739  0.00  0.00     0.003 A 
ATOM     26  C23 <0> d   1      17.291   0.741  13.597  0.00  0.00     0.037 A 
ENDBRANCH  20  21
ENDBRANCH   5  20
TORSDOF 7
ENDMDL
MODEL 3
REMARK VINA RESULT:      -7.9      2.776      5.859
REMARK  7 active torsions:
REMARK  status: ('A' for Active; 'I' for Inactive)
REMARK    1  A    between atoms: C4_4  and  C6_5 
REMARK    2  A    between atoms: C10_9  and  C12_10 
REMARK    3  A    between atoms: C12_10  and  O14_12 
REMARK    4  A    between atoms: O14_12  and  C15_13 
REMARK    5  A    between atoms: C15_13  and  C16_14 
REMARK    6  A    between atoms: C20_18  and  O21_19 
REMARK    7  A    between atoms: O21_19  and  C22_20 
ROOT
ATOM      1  C16 <0> d   1      18.188   0.347   8.737  0.00  0.00    -0.031 A 
ATOM      2  C17 <0> d   1      19.053   1.227   8.113  0.00  0.00     0.009 A 
ATOM      3  C18 <0> d   1      19.219   2.507   8.609  0.00  0.00     0.003 A 
ATOM      4  C19 <0> d   1      18.520   2.910   9.729  0.00  0.00     0.037 A 
ATOM      5  C20 <0> d   1      17.650   2.029  10.357  0.00  0.00     0.076 A 
ATOM      6  C28 <0> d   1      17.481   0.747   9.855  0.00  0.00     0.046 A 
ENDROOT
BRANCH   1   7
ATOM      7  C15 <0> d   1      18.009  -1.047   8.193  0.00  0.00     0.217 C 
BRANCH   7   8
ATOM      8  O14 <0> d   1      19.066  -1.903   8.700  0.00  0.00    -0.317 OA
BRANCH   8   9
ATOM      9  C12 <0> d   1      18.731  -3.165   9.013  0.00  0.00     0.264 C 
ATOM     10  O13 <0> d   1      19.166  -4.085   8.362  0.00  0.00    -0.265 OA
BRANCH   9  11
ATOM     11  C10 <0> d   1      17.814  -3.433  10.178  0.00  0.00     0.102 A 
ATOM     12  C2  <0> d   1      18.382  -4.227  11.357  0.00  0.00    -0.027 A 
ATOM     13  C1  <0> d   1      19.839  -4.687  11.262  0.00  0.00     0.016 C 
ATOM     14  C3  <0> d   1      17.435  -5.180  12.089  0.00  0.00     0.016 C 
ATOM     15  C4  <0> d   1      18.123  -2.726  11.500  0.00  0.00     0.034 A 
BRANCH  15  16
ATOM     16  C6  <0> d   1      19.321  -1.813  11.536  0.00  0.00     0.016 C 
ATOM     17  C7  <0> d   1      19.319  -0.758  12.318  0.00  0.00     0.100 C 
ATOM     18 Cl8  <0> d   1      17.937  -0.415  13.309  0.00  0.00    -0.071 Cl
ATOM     19 Cl9  <0> d   1      20.701   0.294  12.361  0.00  0.00    -0.071 Cl
ENDBRANCH  15  16
ENDBRANCH   9  11
ENDBRANCH   8   9
ENDBRANCH   7   8
ENDBRANCH   1   7
BRANCH   5  20
ATOM     20  O21 <0> d   1      16.961   2.425  11.460  0.00  0.00    -0.311 OA
BRANCH  20  21
ATOM     21  C22 <0> d   1      17.490   3.419  12.221  0.00  0.00     0.076 A 
ATOM     22  C27 <0> d   1      16.919   4.683  12.208  0.00  0.00     0.037 A 
ATOM     23  C26 <0> d   1      17.454   5.690  12.988  0.00  0.00     0.003 A 
ATOM     24  C25 <0> d   1      18.568   5.442  13.770  0.00  0.00     0.000 A 
ATOM     25  C24 <0> d   1      19.144   4.184  13.779  0.00  0.00     0.003 A 
ATOM     26  C23 <0> d   1      18.607   3.172  13.007  0.00  0.00     0.037 A 
ENDBRANCH  20  21
ENDBRANCH   5  20
TORSDOF 7
ENDMDL
MODEL 4
REMARK VINA RESULT:      -7.9      3.679      5.765
REMARK  7 active torsions:
REMARK  status: ('A' for Active; 'I' for Inactive)
REMARK    1  A    between atoms: C4_4  and  C6_5 
REMARK    2  A    between atoms: C10_9  and  C12_10 
REMARK    3  A    between atoms: C12_10  and  O14_12 
REMARK    4  A    between atoms: O14_12  and  C15_13 
REMARK    5  A    between atoms: C15_13  and  C16_14 
REMARK    6  A    between atoms: C20_18  and  O21_19 
REMARK    7  A    between atoms: O21_19  and  C22_20 
ROOT
ATOM      1  C16 <0> d   1      17.988  -0.349   7.497  0.00  0.00    -0.031 A 
ATOM      2  C17 <0> d   1      17.891   0.325   6.294  0.00  0.00     0.009 A 
ATOM      3  C18 <0> d   1      18.520  -0.170   5.167  0.00  0.00     0.003 A 
ATOM      4  C19 <0> d   1      19.248  -1.342   5.241  0.00  0.00     0.037 A 
ATOM      5  C20 <0> d   1      19.348  -2.020   6.447  0.00  0.00     0.076 A 
ATOM      6  C28 <0> d   1      18.721  -1.518   7.578  0.00  0.00     0.046 A 
ENDROOT
BRANCH   1   7
ATOM      7  C15 <0> d   1      17.302   0.194   8.723  0.00  0.00     0.217 C 
BRANCH   7   8
ATOM      8  O14 <0> d   1      18.011  -0.247   9.911  0.00  0.00    -0.317 OA
BRANCH   8   9
ATOM      9  C12 <0> d   1      17.266  -0.666  10.946  0.00  0.00     0.264 C 
ATOM     10  O13 <0> d   1      16.303  -0.025  11.295  0.00  0.00    -0.265 OA
BRANCH   9  11
ATOM     11  C10 <0> d   1      17.630  -1.935  11.671  0.00  0.00     0.102 A 
ATOM     12  C2  <0> d   1      19.114  -2.303  11.750  0.00  0.00    -0.027 A 
ATOM     13  C1  <0> d   1      20.113  -1.351  11.088  0.00  0.00     0.016 C 
ATOM     14  C3  <0> d   1      19.479  -3.787  11.694  0.00  0.00     0.016 C 
ATOM     15  C4  <0> d   1      18.382  -1.801  12.997  0.00  0.00     0.034 A 
BRANCH  15  16
ATOM     16  C6  <0> d   1      18.701  -0.410  13.479  0.00  0.00     0.016 C 
ATOM     17  C7  <0> d   1      18.892  -0.186  14.759  0.00  0.00     0.100 C 
ATOM     18 Cl8  <0> d   1      18.779  -1.493  15.895  0.00  0.00    -0.071 Cl
ATOM     19 Cl9  <0> d   1      19.260   1.418  15.314  0.00  0.00    -0.071 Cl
ENDBRANCH  15  16
ENDBRANCH   9  11
ENDBRANCH   8   9
ENDBRANCH   7   8
ENDBRANCH   1   7
BRANCH   5  20
ATOM     20  O21 <0> d   1      20.065  -3.172   6.522  0.00  0.00    -0.311 OA
BRANCH  20  21
ATOM     21  C22 <0> d   1      19.425  -4.296   6.940  0.00  0.00     0.076 A 
ATOM     22  C27 <0> d   1      18.355  -4.798   6.212  0.00  0.00     0.037 A 
ATOM     23  C26 <0> d   1      17.711  -5.944   6.635  0.00  0.00     0.003 A 
ATOM     24  C25 <0> d   1      18.122  -6.584   7.790  0.00  0.00     0.000 A 
ATOM     25  C24 <0> d   1      19.184  -6.082   8.521  0.00  0.00     0.003 A 
ATOM     26  C23 <0> d   1      19.837  -4.941   8.097  0.00  0.00     0.037 A 
ENDBRANCH  20  21
ENDBRANCH   5  20
TORSDOF 7
ENDMDL
MODEL 5
REMARK VINA RESULT:      -7.8      2.651      4.875
REMARK  7 active torsions:
REMARK  status: ('A' for Active; 'I' for Inactive)
REMARK    1  A    between atoms: C4_4  and  C6_5 
REMARK    2  A    between atoms: C10_9  and  C12_10 
REMARK    3  A    between atoms: C12_10  and  O14_12 
REMARK    4  A    between atoms: O14_12  and  C15_13 
REMARK    5  A    between atoms: C15_13  and  C16_14 
REMARK    6  A    between atoms: C20_18  and  O21_19 
REMARK    7  A    between atoms: O21_19  and  C22_20 
ROOT
ATOM      1  C16 <0> d   1      18.307   2.186   9.546  0.00  0.00    -0.031 A 
ATOM      2  C17 <0> d   1      19.062   1.899   8.424  0.00  0.00     0.009 A 
ATOM      3  C18 <0> d   1      19.249   0.588   8.028  0.00  0.00     0.003 A 
ATOM      4  C19 <0> d   1      18.681  -0.440   8.755  0.00  0.00     0.037 A 
ATOM      5  C20 <0> d   1      17.924  -0.156   9.883  0.00  0.00     0.076 A 
ATOM      6  C28 <0> d   1      17.742   1.160  10.280  0.00  0.00     0.046 A 
ENDROOT
BRANCH   1   7
ATOM      7  C15 <0> d   1      18.106   3.616   9.974  0.00  0.00     0.217 C 
BRANCH   7   8
ATOM      8  O14 <0> d   1      17.035   3.683  10.953  0.00  0.00    -0.317 OA
BRANCH   8   9
ATOM      9  C12 <0> d   1      17.186   4.555  11.962  0.00  0.00     0.264 C 
ATOM     10  O13 <0> d   1      16.232   5.172  12.374  0.00  0.00    -0.265 OA
BRANCH   9  11
ATOM     11  C10 <0> d   1      18.544   4.764  12.581  0.00  0.00     0.102 A 
ATOM     12  C2  <0> d   1      18.598   5.073  14.079  0.00  0.00    -0.027 A 
ATOM     13  C1  <0> d   1      17.269   5.146  14.834  0.00  0.00     0.016 C 
ATOM     14  C3  <0> d   1      19.685   6.034  14.563  0.00  0.00     0.016 C 
ATOM     15  C4  <0> d   1      19.044   3.703  13.564  0.00  0.00     0.034 A 
BRANCH  15  16
ATOM     16  C6  <0> d   1      18.141   2.529  13.838  0.00  0.00     0.016 C 
ATOM     17  C7  <0> d   1      18.551   1.309  13.572  0.00  0.00     0.100 C 
ATOM     18 Cl8  <0> d   1      20.132   1.051  12.905  0.00  0.00    -0.071 Cl
ATOM     19 Cl9  <0> d   1      17.510  -0.045  13.889  0.00  0.00    -0.071 Cl
ENDBRANCH  15  16
ENDBRANCH   9  11
ENDBRANCH   8   9
ENDBRANCH   7   8
ENDBRANCH   1   7
BRANCH   5  20
ATOM     20  O21 <0> d   1      17.365  -1.167  10.599  0.00  0.00    -0.311 OA
BRANCH  20  21
ATOM     21  C22 <0> d   1      18.106  -2.288  10.805  0.00  0.00     0.076 A 
ATOM     22  C27 <0> d   1      17.715  -3.493  10.239  0.00  0.00     0.037 A 
ATOM     23  C26 <0> d   1      18.474  -4.629  10.444  0.00  0.00     0.003 A 
ATOM     24  C25 <0> d   1      19.614  -4.569  11.224  0.00  0.00     0.000 A 
ATOM     25  C24 <0> d   1      20.002  -3.371  11.795  0.00  0.00     0.003 A 
ATOM     26  C23 <0> d   1      19.251  -2.230  11.587  0.00  0.00     0.037 A 
ENDBRANCH  20  21
ENDBRANCH   5  20
TORSDOF 7
ENDMDL
MODEL 6
REMARK VINA RESULT:      -7.7      2.973      6.191
REMARK  7 active torsions:
REMARK  status: ('A' for Active; 'I' for Inactive)
REMARK    1  A    between atoms: C4_4  and  C6_5 
REMARK    2  A    between atoms: C10_9  and  C12_10 
REMARK    3  A    between atoms: C12_10  and  O14_12 
REMARK    4  A    between atoms: O14_12  and  C15_13 
REMARK    5  A    between atoms: C15_13  and  C16_14 
REMARK    6  A    between atoms: C20_18  and  O21_19 
REMARK    7  A    between atoms: O21_19  and  C22_20 
ROOT
ATOM      1  C16 <0> d   1      18.084   1.457  10.439  0.00  0.00    -0.031 A 
ATOM      2  C17 <0> d   1      19.119   2.346  10.215  0.00  0.00     0.009 A 
ATOM      3  C18 <0> d   1      19.670   3.051  11.269  0.00  0.00     0.003 A 
ATOM      4  C19 <0> d   1      19.186   2.868  12.550  0.00  0.00     0.037 A 
ATOM      5  C20 <0> d   1      18.147   1.977  12.778  0.00  0.00     0.076 A 
ATOM      6  C28 <0> d   1      17.593   1.275  11.717  0.00  0.00     0.046 A 
ENDROOT
BRANCH   1   7
ATOM      7  C15 <0> d   1      17.486   0.690   9.287  0.00  0.00     0.217 C 
BRANCH   7   8
ATOM      8  O14 <0> d   1      17.507  -0.730   9.589  0.00  0.00    -0.317 OA
BRANCH   8   9
ATOM      9  C12 <0> d   1      18.300  -1.503   8.829  0.00  0.00     0.264 C 
ATOM     10  O13 <0> d   1      18.289  -1.382   7.628  0.00  0.00    -0.265 OA
BRANCH   9  11
ATOM     11  C10 <0> d   1      19.203  -2.520   9.478  0.00  0.00     0.102 A 
ATOM     12  C2  <0> d   1      18.766  -3.095  10.827  0.00  0.00    -0.027 A 
ATOM     13  C1  <0> d   1      17.445  -2.594  11.414  0.00  0.00     0.016 C 
ATOM     14  C3  <0> d   1      19.861  -3.418  11.846  0.00  0.00     0.016 C 
ATOM     15  C4  <0> d   1      18.696  -3.961   9.567  0.00  0.00     0.034 A 
BRANCH  15  16
ATOM     16  C6  <0> d   1      17.332  -4.255   9.000  0.00  0.00     0.016 C 
ATOM     17  C7  <0> d   1      16.654  -5.296   9.425  0.00  0.00     0.100 C 
ATOM     18 Cl8  <0> d   1      17.329  -6.334  10.641  0.00  0.00    -0.071 Cl
ATOM     19 Cl9  <0> d   1      15.081  -5.635   8.772  0.00  0.00    -0.071 Cl
ENDBRANCH  15  16
ENDBRANCH   9  11
ENDBRANCH   8   9
ENDBRANCH   7   8
ENDBRANCH   1   7
BRANCH   5  20
ATOM     20  O21 <0> d   1      17.670   1.797  14.037  0.00  0.00    -0.311 OA
BRANCH  20  21
ATOM     21  C22 <0> d   1      18.006   0.652  14.689  0.00  0.00     0.076 A 
ATOM     22  C27 <0> d   1      19.045  -0.137  14.217  0.00  0.00     0.037 A 
ATOM     23  C26 <0> d   1      19.389  -1.296  14.886  0.00  0.00     0.003 A 
ATOM     24  C25 <0> d   1      18.690  -1.677  16.017  0.00  0.00     0.000 A 
ATOM     25  C24 <0> d   1      17.650  -0.895  16.485  0.00  0.00     0.003 A 
ATOM     26  C23 <0> d   1      17.307   0.269  15.825  0.00  0.00     0.037 A 
ENDBRANCH  20  21
ENDBRANCH   5  20
TORSDOF 7
ENDMDL
MODEL 7
REMARK VINA RESULT:      -7.6      3.628      5.811
REMARK  7 active torsions:
REMARK  status: ('A' for Active; 'I' for Inactive)
REMARK    1  A    between atoms: C4_4  and  C6_5 
REMARK    2  A    between atoms: C10_9  and  C12_10 
REMARK    3  A    between atoms: C12_10  and  O14_12 
REMARK    4  A    between atoms: O14_12  and  C15_13 
REMARK    5  A    between atoms: C15_13  and  C16_14 
REMARK    6  A    between atoms: C20_18  and  O21_19 
REMARK    7  A    between atoms: O21_19  and  C22_20 
ROOT
ATOM      1  C16 <0> d   1      18.438  -0.233   7.027  0.00  0.00    -0.031 A 
ATOM      2  C17 <0> d   1      17.994   0.155   5.777  0.00  0.00     0.009 A 
ATOM      3  C18 <0> d   1      18.220  -0.652   4.678  0.00  0.00     0.003 A 
ATOM      4  C19 <0> d   1      18.892  -1.849   4.827  0.00  0.00     0.037 A 
ATOM      5  C20 <0> d   1      19.340  -2.241   6.080  0.00  0.00     0.076 A 
ATOM      6  C28 <0> d   1      19.116  -1.427   7.181  0.00  0.00     0.046 A 
ENDROOT
BRANCH   1   7
ATOM      7  C15 <0> d   1      18.190   0.650   8.223  0.00  0.00     0.217 C 
BRANCH   7   8
ATOM      8  O14 <0> d   1      17.340  -0.048   9.171  0.00  0.00    -0.317 OA
BRANCH   8   9
ATOM      9  C12 <0> d   1      17.529   0.222  10.473  0.00  0.00     0.264 C 
ATOM     10  O13 <0> d   1      16.623   0.668  11.136  0.00  0.00    -0.265 OA
BRANCH   9  11
ATOM     11  C10 <0> d   1      18.872  -0.034  11.107  0.00  0.00     0.102 A 
ATOM     12  C2  <0> d   1      18.905  -0.289  12.616  0.00  0.00    -0.027 A 
ATOM     13  C1  <0> d   1      17.570  -0.266  13.365  0.00  0.00     0.016 C 
ATOM     14  C3  <0> d   1      20.109   0.239  13.397  0.00  0.00     0.016 C 
ATOM     15  C4  <0> d   1      19.146  -1.443  11.640  0.00  0.00     0.034 A 
BRANCH  15  16
ATOM     16  C6  <0> d   1      18.053  -2.468  11.489  0.00  0.00     0.016 C 
ATOM     17  C7  <0> d   1      18.351  -3.747  11.456  0.00  0.00     0.100 C 
ATOM     18 Cl8  <0> d   1      20.005  -4.255  11.586  0.00  0.00    -0.071 Cl
ATOM     19 Cl9  <0> d   1      17.091  -4.929  11.283  0.00  0.00    -0.071 Cl
ENDBRANCH  15  16
ENDBRANCH   9  11
ENDBRANCH   8   9
ENDBRANCH   7   8
ENDBRANCH   1   7
BRANCH   5  20
ATOM     20  O21 <0> d   1      20.002  -3.419   6.228  0.00  0.00    -0.311 OA
BRANCH  20  21
ATOM     21  C22 <0> d   1      19.368  -4.430   6.880  0.00  0.00     0.076 A 
ATOM     22  C27 <0> d   1      19.969  -5.037   7.973  0.00  0.00     0.037 A 
ATOM     23  C26 <0> d   1      19.319  -6.059   8.637  0.00  0.00     0.003 A 
ATOM     24  C25 <0> d   1      18.076  -6.486   8.206  0.00  0.00     0.000 A 
ATOM     25  C24 <0> d   1      17.478  -5.886   7.112  0.00  0.00     0.003 A 
ATOM     26  C23 <0> d   1      18.120  -4.859   6.449  0.00  0.00     0.037 A 
ENDBRANCH  20  21
ENDBRANCH   5  20
TORSDOF 7
ENDMDL
MODEL 8
REMARK VINA RESULT:      -7.6      4.032      7.545
REMARK  7 active torsions:
REMARK  status: ('A' for Active; 'I' for Inactive)
REMARK    1  A    between atoms: C4_4  and  C6_5 
REMARK    2  A    between atoms: C10_9  and  C12_10 
REMARK    3  A    between atoms: C12_10  and  O14_12 
REMARK    4  A    between atoms: O14_12  and  C15_13 
REMARK    5  A    between atoms: C15_13  and  C16_14 
REMARK    6  A    between atoms: C20_18  and  O21_19 
REMARK    7  A    between atoms: O21_19  and  C22_20 
ROOT
ATOM      1  C16 <0> d   1      18.467   0.462   7.837  0.00  0.00    -0.031 A 
ATOM      2  C17 <0> d   1      19.090   1.692   7.931  0.00  0.00     0.009 A 
ATOM      3  C18 <0> d   1      18.922   2.471   9.061  0.00  0.00     0.003 A 
ATOM      4  C19 <0> d   1      18.129   2.020  10.099  0.00  0.00     0.037 A 
ATOM      5  C20 <0> d   1      17.501   0.786  10.006  0.00  0.00     0.076 A 
ATOM      6  C28 <0> d   1      17.668   0.009   8.869  0.00  0.00     0.046 A 
ENDROOT
BRANCH   1   7
ATOM      7  C15 <0> d   1      18.652  -0.384   6.603  0.00  0.00     0.217 C 
BRANCH   7   8
ATOM      8  O14 <0> d   1      18.696  -1.786   6.979  0.00  0.00    -0.317 OA
BRANCH   8   9
ATOM      9  C12 <0> d   1      19.414  -2.605   6.195  0.00  0.00     0.264 C 
ATOM     10  O13 <0> d   1      19.660  -2.288   5.056  0.00  0.00    -0.265 OA
BRANCH   9  11
ATOM     11  C10 <0> d   1      19.914  -3.920   6.738  0.00  0.00     0.102 A 
ATOM     12  C2  <0> d   1      19.144  -4.540   7.906  0.00  0.00    -0.027 A 
ATOM     13  C1  <0> d   1      17.925  -3.778   8.433  0.00  0.00     0.016 C 
ATOM     14  C3  <0> d   1      19.951  -5.303   8.958  0.00  0.00     0.016 C 
ATOM     15  C4  <0> d   1      19.042  -5.156   6.509  0.00  0.00     0.034 A 
BRANCH  15  16
ATOM     16  C6  <0> d   1      17.750  -4.967   5.758  0.00  0.00     0.016 C 
ATOM     17  C7  <0> d   1      16.825  -5.899   5.796  0.00  0.00     0.100 C 
ATOM     18 Cl8  <0> d   1      17.092  -7.349   6.712  0.00  0.00    -0.071 Cl
ATOM     19 Cl9  <0> d   1      15.335  -5.681   4.931  0.00  0.00    -0.071 Cl
ENDBRANCH  15  16
ENDBRANCH   9  11
ENDBRANCH   8   9
ENDBRANCH   7   8
ENDBRANCH   1   7
BRANCH   5  20
ATOM     20  O21 <0> d   1      16.720   0.342  11.026  0.00  0.00    -0.311 OA
BRANCH  20  21
ATOM     21  C22 <0> d   1      17.333  -0.234  12.095  0.00  0.00     0.076 A 
ATOM     22  C27 <0> d   1      17.350   0.417  13.319  0.00  0.00     0.037 A 
ATOM     23  C26 <0> d   1      17.966  -0.173  14.406  0.00  0.00     0.003 A 
ATOM     24  C25 <0> d   1      18.579  -1.405  14.269  0.00  0.00     0.000 A 
ATOM     25  C24 <0> d   1      18.570  -2.053  13.047  0.00  0.00     0.003 A 
ATOM     26  C23 <0> d   1      17.948  -1.470  11.960  0.00  0.00     0.037 A 
ENDBRANCH  20  21
ENDBRANCH   5  20
TORSDOF 7
ENDMDL
MODEL 9
REMARK VINA RESULT:      -7.5      2.548      6.219
REMARK  7 active torsions:
REMARK  status: ('A' for Active; 'I' for Inactive)
REMARK    1  A    between atoms: C4_4  and  C6_5 
REMARK    2  A    between atoms: C10_9  and  C12_10 
REMARK    3  A    between atoms: C12_10  and  O14_12 
REMARK    4  A    between atoms: O14_12  and  C15_13 
REMARK    5  A    between atoms: C15_13  and  C16_14 
REMARK    6  A    between atoms: C20_18  and  O21_19 
REMARK    7  A    between atoms: O21_19  and  C22_20 
ROOT
ATOM      1  C16 <0> d   1      18.754  -0.703  13.786  0.00  0.00    -0.031 A 
ATOM      2  C17 <0> d   1      18.047  -0.908  14.956  0.00  0.00     0.009 A 
ATOM      3  C18 <0> d   1      17.711   0.165  15.761  0.00  0.00     0.003 A 
ATOM      4  C19 <0> d   1      18.081   1.445  15.396  0.00  0.00     0.037 A 
ATOM      5  C20 <0> d   1      18.791   1.653  14.223  0.00  0.00     0.076 A 
ATOM      6  C28 <0> d   1      19.132   0.574  13.420  0.00  0.00     0.046 A 
ENDROOT
BRANCH   1   7
ATOM      7  C15 <0> d   1      19.120  -1.875  12.912  0.00  0.00     0.217 C 
BRANCH   7   8
ATOM      8  O14 <0> d   1      19.138  -1.455  11.522  0.00  0.00    -0.317 OA
BRANCH   8   9
ATOM      9  C12 <0> d   1      17.980  -1.532  10.847  0.00  0.00     0.264 C 
ATOM     10  O13 <0> d   1      17.179  -2.395  11.119  0.00  0.00    -0.265 OA
BRANCH   9  11
ATOM     11  C10 <0> d   1      17.681  -0.542   9.751  0.00  0.00     0.102 A 
ATOM     12  C2  <0> d   1      18.870   0.131   9.063  0.00  0.00    -0.027 A 
ATOM     13  C1  <0> d   1      20.273  -0.253   9.540  0.00  0.00     0.016 C 
ATOM     14  C3  <0> d   1      18.700   1.585   8.619  0.00  0.00     0.016 C 
ATOM     15  C4  <0> d   1      18.060  -0.934   8.321  0.00  0.00     0.034 A 
BRANCH  15  16
ATOM     16  C6  <0> d   1      18.704  -2.281   8.116  0.00  0.00     0.016 C 
ATOM     17  C7  <0> d   1      19.301  -2.557   6.980  0.00  0.00     0.100 C 
ATOM     18 Cl8  <0> d   1      19.349  -1.371   5.714  0.00  0.00    -0.071 Cl
ATOM     19 Cl9  <0> d   1      20.044  -4.109   6.744  0.00  0.00    -0.071 Cl
ENDBRANCH  15  16
ENDBRANCH   9  11
ENDBRANCH   8   9
ENDBRANCH   7   8
ENDBRANCH   1   7
BRANCH   5  20
ATOM     20  O21 <0> d   1      19.156   2.912  13.863  0.00  0.00    -0.311 OA
BRANCH  20  21
ATOM     21  C22 <0> d   1      18.297   3.630  13.093  0.00  0.00     0.076 A 
ATOM     22  C27 <0> d   1      18.242   3.413  11.724  0.00  0.00     0.037 A 
ATOM     23  C26 <0> d   1      17.362   4.139  10.945  0.00  0.00     0.003 A 
ATOM     24  C25 <0> d   1      16.546   5.092  11.527  0.00  0.00     0.000 A 
ATOM     25  C24 <0> d   1      16.603   5.315  12.891  0.00  0.00     0.003 A 
ATOM     26  C23 <0> d   1      17.476   4.586  13.675  0.00  0.00     0.037 A 
ENDBRANCH  20  21
ENDBRANCH   5  20
TORSDOF 7
ENDMDL
