MODEL 1
REMARK VINA RESULT:      -6.7      0.000      0.000
REMARK  6 active torsions:
REMARK  status: ('A' for Active; 'I' for Inactive)
REMARK    1  A    between atoms: N2_2  and  C4_4 
REMARK    2  A    between atoms: C4_4  and  C5_5 
REMARK    3  A    between atoms: C5_5  and  O6_6 
REMARK    4  A    between atoms: O6_6  and  C7_7 
REMARK    5  A    between atoms: C7_7  and  C9_8 
REMARK    6  A    between atoms: C7_7  and  C16_15 
ROOT
ATOM      1  C7  ZIN A   1      17.598   0.792  10.566  0.00  0.00     0.206 C 
ENDROOT
BRANCH   1   2
ATOM      2  O6  ZIN A   1      18.338  -0.185  11.301  0.00  0.00    -0.373 OA
BRANCH   2   3
ATOM      3  C5  ZIN A   1      17.523  -1.125  12.003  0.00  0.00     0.199 C 
BRANCH   3   4
ATOM      4  C4  ZIN A   1      17.586  -2.481  11.299  0.00  0.00     0.297 C 
BRANCH   4   5
ATOM      5  N2  ZIN A   1      18.930  -2.682  10.742  0.00  0.00     0.082 N 
ATOM      6  C1  ZIN A   1      19.774  -3.450  11.666  0.00  0.00     0.309 C 
ATOM      7  C3  ZIN A   1      18.863  -3.332   9.426  0.00  0.00     0.309 C 
ENDBRANCH   4   5
ENDBRANCH   3   4
ENDBRANCH   2   3
ENDBRANCH   1   2
BRANCH   1   8
ATOM      8  C9  ZIN A   1      17.927   0.674   9.100  0.00  0.00    -0.024 A 
ATOM      9  C15 ZIN A   1      18.921   1.460   8.548  0.00  0.00     0.012 A 
ATOM     10  C14 ZIN A   1      19.227   1.347   7.205  0.00  0.00     0.024 A 
ATOM     11  C12 ZIN A   1      18.530   0.455   6.410  0.00  0.00     0.034 A 
ATOM     12  C11 ZIN A   1      17.531  -0.328   6.961  0.00  0.00     0.024 A 
ATOM     13 Cl13 ZIN A   1      18.907   0.317   4.721  0.00  0.00    -0.084 Cl
ATOM     14  C10 ZIN A   1      17.229  -0.218   8.306  0.00  0.00     0.012 A 
ENDBRANCH   1   8
BRANCH   1  15
ATOM     15  C16 ZIN A   1      17.965   2.170  11.053  0.00  0.00     0.067 A 
ATOM     16  N21 ZIN A   1      17.111   3.163  10.903  0.00  0.00    -0.263 NA
ATOM     17  C20 ZIN A   1      17.386   4.385  11.317  0.00  0.00     0.117 A 
ATOM     18  C19 ZIN A   1      18.598   4.671  11.919  0.00  0.00     0.019 A 
ATOM     19  C18 ZIN A   1      19.524   3.653  12.089  0.00  0.00     0.003 A 
ATOM     20  C17 ZIN A   1      19.196   2.381  11.645  0.00  0.00     0.030 A 
ENDBRANCH   1  15
TORSDOF 6
ENDMDL
MODEL 2
REMARK VINA RESULT:      -6.7      1.732      4.853
REMARK  6 active torsions:
REMARK  status: ('A' for Active; 'I' for Inactive)
REMARK    1  A    between atoms: N2_2  and  C4_4 
REMARK    2  A    between atoms: C4_4  and  C5_5 
REMARK    3  A    between atoms: C5_5  and  O6_6 
REMARK    4  A    between atoms: O6_6  and  C7_7 
REMARK    5  A    between atoms: C7_7  and  C9_8 
REMARK    6  A    between atoms: C7_7  and  C16_15 
ROOT
ATOM      1  C7  ZIN A   1      18.350   1.788  10.583  0.00  0.00     0.206 C 
ENDROOT
BRANCH   1   2
ATOM      2  O6  ZIN A   1      17.170   2.535  10.881  0.00  0.00    -0.373 OA
BRANCH   2   3
ATOM      3  C5  ZIN A   1      17.345   3.952  10.812  0.00  0.00     0.199 C 
BRANCH   3   4
ATOM      4  C4  ZIN A   1      18.459   4.375  11.771  0.00  0.00     0.297 C 
BRANCH   4   5
ATOM      5  N2  ZIN A   1      17.869   4.974  12.974  0.00  0.00     0.082 N 
ATOM      6  C1  ZIN A   1      16.551   5.553  12.682  0.00  0.00     0.309 C 
ATOM      7  C3  ZIN A   1      17.781   3.991  14.063  0.00  0.00     0.309 C 
ENDBRANCH   4   5
ENDBRANCH   3   4
ENDBRANCH   2   3
ENDBRANCH   1   2
BRANCH   1   8
ATOM      8  C9  ZIN A   1      18.268   1.258   9.174  0.00  0.00    -0.024 A 
ATOM      9  C15 ZIN A   1      17.364   0.260   8.862  0.00  0.00     0.012 A 
ATOM     10  C14 ZIN A   1      17.284  -0.221   7.569  0.00  0.00     0.024 A 
ATOM     11  C12 ZIN A   1      18.117   0.288   6.589  0.00  0.00     0.034 A 
ATOM     12  C11 ZIN A   1      19.026   1.284   6.903  0.00  0.00     0.024 A 
ATOM     13 Cl13 ZIN A   1      18.024  -0.320   4.966  0.00  0.00    -0.084 Cl
ATOM     14  C10 ZIN A   1      19.102   1.768   8.195  0.00  0.00     0.012 A 
ENDBRANCH   1   8
BRANCH   1  15
ATOM     15  C16 ZIN A   1      18.471   0.635  11.546  0.00  0.00     0.067 A 
ATOM     16  N21 ZIN A   1      19.443  -0.243  11.393  0.00  0.00    -0.263 NA
ATOM     17  C20 ZIN A   1      19.591  -1.265  12.214  0.00  0.00     0.117 A 
ATOM     18  C19 ZIN A   1      18.716  -1.458  13.266  0.00  0.00     0.019 A 
ATOM     19  C18 ZIN A   1      17.678  -0.558  13.456  0.00  0.00     0.003 A 
ATOM     20  C17 ZIN A   1      17.558   0.506  12.575  0.00  0.00     0.030 A 
ENDBRANCH   1  15
TORSDOF 6
ENDMDL
MODEL 3
REMARK VINA RESULT:      -6.7      1.588      2.404
REMARK  6 active torsions:
REMARK  status: ('A' for Active; 'I' for Inactive)
REMARK    1  A    between atoms: N2_2  and  C4_4 
REMARK    2  A    between atoms: C4_4  and  C5_5 
REMARK    3  A    between atoms: C5_5  and  O6_6 
REMARK    4  A    between atoms: O6_6  and  C7_7 
REMARK    5  A    between atoms: C7_7  and  C9_8 
REMARK    6  A    between atoms: C7_7  and  C16_15 
ROOT
ATOM      1  C7  ZIN A   1      18.256   0.981  11.024  0.00  0.00     0.206 C 
ENDROOT
BRANCH   1   2
ATOM      2  O6  ZIN A   1      19.445   0.420  11.582  0.00  0.00    -0.373 OA
BRANCH   2   3
ATOM      3  C5  ZIN A   1      19.245  -0.836  12.235  0.00  0.00     0.199 C 
BRANCH   3   4
ATOM      4  C4  ZIN A   1      17.854  -0.864  12.870  0.00  0.00     0.297 C 
BRANCH   4   5
ATOM      5  N2  ZIN A   1      17.976  -0.707  14.324  0.00  0.00     0.082 N 
ATOM      6  C1  ZIN A   1      19.279  -1.192  14.799  0.00  0.00     0.309 C 
ATOM      7  C3  ZIN A   1      17.756   0.689  14.724  0.00  0.00     0.309 C 
ENDBRANCH   4   5
ENDBRANCH   3   4
ENDBRANCH   2   3
ENDBRANCH   1   2
BRANCH   1   8
ATOM      8  C9  ZIN A   1      18.264   0.793   9.528  0.00  0.00    -0.024 A 
ATOM      9  C15 ZIN A   1      17.369  -0.078   8.937  0.00  0.00     0.012 A 
ATOM     10  C14 ZIN A   1      17.372  -0.247   7.565  0.00  0.00     0.024 A 
ATOM     11  C12 ZIN A   1      18.279   0.448   6.785  0.00  0.00     0.034 A 
ATOM     12  C11 ZIN A   1      19.179   1.316   7.378  0.00  0.00     0.024 A 
ATOM     13 Cl13 ZIN A   1      18.290   0.231   5.063  0.00  0.00    -0.084 Cl
ATOM     14  C10 ZIN A   1      19.172   1.487   8.750  0.00  0.00     0.012 A 
ENDBRANCH   1   8
BRANCH   1  15
ATOM     15  C16 ZIN A   1      18.196   2.452  11.344  0.00  0.00     0.067 A 
ATOM     16  N21 ZIN A   1      17.115   3.142  11.041  0.00  0.00    -0.263 NA
ATOM     17  C20 ZIN A   1      17.016   4.431  11.306  0.00  0.00     0.117 A 
ATOM     18  C19 ZIN A   1      18.059   5.110  11.907  0.00  0.00     0.019 A 
ATOM     19  C18 ZIN A   1      19.215   4.419  12.236  0.00  0.00     0.003 A 
ATOM     20  C17 ZIN A   1      19.280   3.064  11.946  0.00  0.00     0.030 A 
ENDBRANCH   1  15
TORSDOF 6
ENDMDL
MODEL 4
REMARK VINA RESULT:      -6.7      1.726      4.740
REMARK  6 active torsions:
REMARK  status: ('A' for Active; 'I' for Inactive)
REMARK    1  A    between atoms: N2_2  and  C4_4 
REMARK    2  A    between atoms: C4_4  and  C5_5 
REMARK    3  A    between atoms: C5_5  and  O6_6 
REMARK    4  A    between atoms: O6_6  and  C7_7 
REMARK    5  A    between atoms: C7_7  and  C9_8 
REMARK    6  A    between atoms: C7_7  and  C16_15 
ROOT
ATOM      1  C7  ZIN A   1      18.356   1.781  10.630  0.00  0.00     0.206 C 
ENDROOT
BRANCH   1   2
ATOM      2  O6  ZIN A   1      17.160   2.506  10.924  0.00  0.00    -0.373 OA
BRANCH   2   3
ATOM      3  C5  ZIN A   1      17.307   3.925  10.849  0.00  0.00     0.199 C 
BRANCH   3   4
ATOM      4  C4  ZIN A   1      18.458   4.368  11.753  0.00  0.00     0.297 C 
BRANCH   4   5
ATOM      5  N2  ZIN A   1      17.916   4.967  12.979  0.00  0.00     0.082 N 
ATOM      6  C1  ZIN A   1      16.579   5.529  12.745  0.00  0.00     0.309 C 
ATOM      7  C3  ZIN A   1      17.891   3.990  14.076  0.00  0.00     0.309 C 
ENDBRANCH   4   5
ENDBRANCH   3   4
ENDBRANCH   2   3
ENDBRANCH   1   2
BRANCH   1   8
ATOM      8  C9  ZIN A   1      18.294   1.263   9.216  0.00  0.00    -0.024 A 
ATOM      9  C15 ZIN A   1      19.126   1.795   8.248  0.00  0.00     0.012 A 
ATOM     10  C14 ZIN A   1      19.074   1.317   6.953  0.00  0.00     0.024 A 
ATOM     11  C12 ZIN A   1      18.183   0.313   6.622  0.00  0.00     0.034 A 
ATOM     12  C11 ZIN A   1      17.347  -0.217   7.589  0.00  0.00     0.024 A 
ATOM     13 Cl13 ZIN A   1      18.111  -0.285   4.993  0.00  0.00    -0.084 Cl
ATOM     14  C10 ZIN A   1      17.402   0.259   8.885  0.00  0.00     0.012 A 
ENDBRANCH   1   8
BRANCH   1  15
ATOM     15  C16 ZIN A   1      18.488   0.622  11.584  0.00  0.00     0.067 A 
ATOM     16  N21 ZIN A   1      19.457  -0.256  11.413  0.00  0.00    -0.263 NA
ATOM     17  C20 ZIN A   1      19.614  -1.283  12.224  0.00  0.00     0.117 A 
ATOM     18  C19 ZIN A   1      18.753  -1.483  13.287  0.00  0.00     0.019 A 
ATOM     19  C18 ZIN A   1      17.718  -0.584  13.496  0.00  0.00     0.003 A 
ATOM     20  C17 ZIN A   1      17.588   0.487  12.623  0.00  0.00     0.030 A 
ENDBRANCH   1  15
TORSDOF 6
ENDMDL
MODEL 5
REMARK VINA RESULT:      -6.7      3.253      5.290
REMARK  6 active torsions:
REMARK  status: ('A' for Active; 'I' for Inactive)
REMARK    1  A    between atoms: N2_2  and  C4_4 
REMARK    2  A    between atoms: C4_4  and  C5_5 
REMARK    3  A    between atoms: C5_5  and  O6_6 
REMARK    4  A    between atoms: O6_6  and  C7_7 
REMARK    5  A    between atoms: C7_7  and  C9_8 
REMARK    6  A    between atoms: C7_7  and  C16_15 
ROOT
ATOM      1  C7  ZIN A   1      19.411  -0.837  12.741  0.00  0.00     0.206 C 
ENDROOT
BRANCH   1   2
ATOM      2  O6  ZIN A   1      18.935   0.245  11.938  0.00  0.00    -0.373 OA
BRANCH   2   3
ATOM      3  C5  ZIN A   1      19.767   0.544  10.814  0.00  0.00     0.199 C 
BRANCH   3   4
ATOM      4  C4  ZIN A   1      18.890   0.834   9.594  0.00  0.00     0.297 C 
BRANCH   4   5
ATOM      5  N2  ZIN A   1      19.440   0.143   8.421  0.00  0.00     0.082 N 
ATOM      6  C1  ZIN A   1      19.217  -1.307   8.511  0.00  0.00     0.309 C 
ATOM      7  C3  ZIN A   1      18.875   0.685   7.178  0.00  0.00     0.309 C 
ENDBRANCH   4   5
ENDBRANCH   3   4
ENDBRANCH   2   3
ENDBRANCH   1   2
BRANCH   1   8
ATOM      8  C9  ZIN A   1      18.975  -2.145  12.130  0.00  0.00    -0.024 A 
ATOM      9  C15 ZIN A   1      17.642  -2.361  11.838  0.00  0.00     0.012 A 
ATOM     10  C14 ZIN A   1      17.244  -3.558  11.272  0.00  0.00     0.024 A 
ATOM     11  C12 ZIN A   1      18.177  -4.544  11.010  0.00  0.00     0.034 A 
ATOM     12  C11 ZIN A   1      19.511  -4.329  11.308  0.00  0.00     0.024 A 
ATOM     13 Cl13 ZIN A   1      17.677  -6.050  10.307  0.00  0.00    -0.084 Cl
ATOM     14  C10 ZIN A   1      19.910  -3.130  11.869  0.00  0.00     0.012 A 
ENDBRANCH   1   8
BRANCH   1  15
ATOM     15  C16 ZIN A   1      18.843  -0.718  14.131  0.00  0.00     0.067 A 
ATOM     16  N21 ZIN A   1      17.934   0.202  14.387  0.00  0.00    -0.263 NA
ATOM     17  C20 ZIN A   1      17.406   0.340  15.588  0.00  0.00     0.117 A 
ATOM     18  C19 ZIN A   1      17.799  -0.476  16.632  0.00  0.00     0.019 A 
ATOM     19  C18 ZIN A   1      18.757  -1.452  16.402  0.00  0.00     0.003 A 
ATOM     20  C17 ZIN A   1      19.286  -1.570  15.125  0.00  0.00     0.030 A 
ENDBRANCH   1  15
TORSDOF 6
ENDMDL
MODEL 6
REMARK VINA RESULT:      -6.6      3.767      6.889
REMARK  6 active torsions:
REMARK  status: ('A' for Active; 'I' for Inactive)
REMARK    1  A    between atoms: N2_2  and  C4_4 
REMARK    2  A    between atoms: C4_4  and  C5_5 
REMARK    3  A    between atoms: C5_5  and  O6_6 
REMARK    4  A    between atoms: O6_6  and  C7_7 
REMARK    5  A    between atoms: C7_7  and  C9_8 
REMARK    6  A    between atoms: C7_7  and  C16_15 
ROOT
ATOM      1  C7  ZIN A   1      18.630  -1.012  11.941  0.00  0.00     0.206 C 
ENDROOT
BRANCH   1   2
ATOM      2  O6  ZIN A   1      19.943  -0.626  11.530  0.00  0.00    -0.373 OA
BRANCH   2   3
ATOM      3  C5  ZIN A   1      19.962   0.370  10.505  0.00  0.00     0.199 C 
BRANCH   3   4
ATOM      4  C4  ZIN A   1      19.873  -0.306   9.136  0.00  0.00     0.297 C 
BRANCH   4   5
ATOM      5  N2  ZIN A   1      18.976   0.465   8.265  0.00  0.00     0.082 N 
ATOM      6  C1  ZIN A   1      17.577   0.061   8.459  0.00  0.00     0.309 C 
ATOM      7  C3  ZIN A   1      19.142   1.909   8.485  0.00  0.00     0.309 C 
ENDBRANCH   4   5
ENDBRANCH   3   4
ENDBRANCH   2   3
ENDBRANCH   1   2
BRANCH   1   8
ATOM      8  C9  ZIN A   1      18.469  -0.752  13.417  0.00  0.00    -0.024 A 
ATOM      9  C15 ZIN A   1      19.173  -1.511  14.333  0.00  0.00     0.012 A 
ATOM     10  C14 ZIN A   1      19.031  -1.269  15.686  0.00  0.00     0.024 A 
ATOM     11  C12 ZIN A   1      18.175  -0.275  16.125  0.00  0.00     0.034 A 
ATOM     12  C11 ZIN A   1      17.466   0.481  15.208  0.00  0.00     0.024 A 
ATOM     13 Cl13 ZIN A   1      17.989   0.025  17.825  0.00  0.00    -0.084 Cl
ATOM     14  C10 ZIN A   1      17.613   0.242  13.855  0.00  0.00     0.012 A 
ENDBRANCH   1   8
BRANCH   1  15
ATOM     15  C16 ZIN A   1      18.428  -2.479  11.664  0.00  0.00     0.067 A 
ATOM     16  N21 ZIN A   1      17.205  -2.962  11.571  0.00  0.00    -0.263 NA
ATOM     17  C20 ZIN A   1      16.979  -4.238  11.326  0.00  0.00     0.117 A 
ATOM     18  C19 ZIN A   1      18.029  -5.124  11.168  0.00  0.00     0.019 A 
ATOM     19  C18 ZIN A   1      19.330  -4.653  11.265  0.00  0.00     0.003 A 
ATOM     20  C17 ZIN A   1      19.526  -3.304  11.519  0.00  0.00     0.030 A 
ENDBRANCH   1  15
TORSDOF 6
ENDMDL
MODEL 7
REMARK VINA RESULT:      -6.4      2.694      4.975
REMARK  6 active torsions:
REMARK  status: ('A' for Active; 'I' for Inactive)
REMARK    1  A    between atoms: N2_2  and  C4_4 
REMARK    2  A    between atoms: C4_4  and  C5_5 
REMARK    3  A    between atoms: C5_5  and  O6_6 
REMARK    4  A    between atoms: O6_6  and  C7_7 
REMARK    5  A    between atoms: C7_7  and  C9_8 
REMARK    6  A    between atoms: C7_7  and  C16_15 
ROOT
ATOM      1  C7  ZIN A   1      18.676  -1.045   8.579  0.00  0.00     0.206 C 
ENDROOT
BRANCH   1   2
ATOM      2  O6  ZIN A   1      17.700  -1.912   9.159  0.00  0.00    -0.373 OA
BRANCH   2   3
ATOM      3  C5  ZIN A   1      18.235  -3.142   9.653  0.00  0.00     0.199 C 
BRANCH   3   4
ATOM      4  C4  ZIN A   1      17.671  -3.419  11.047  0.00  0.00     0.297 C 
BRANCH   4   5
ATOM      5  N2  ZIN A   1      18.758  -3.373  12.034  0.00  0.00     0.082 N 
ATOM      6  C1  ZIN A   1      20.032  -3.793  11.434  0.00  0.00     0.309 C 
ATOM      7  C3  ZIN A   1      18.872  -2.035  12.630  0.00  0.00     0.309 C 
ENDBRANCH   4   5
ENDBRANCH   3   4
ENDBRANCH   2   3
ENDBRANCH   1   2
BRANCH   1   8
ATOM      8  C9  ZIN A   1      18.513   0.344   9.144  0.00  0.00    -0.024 A 
ATOM      9  C15 ZIN A   1      19.232   1.396   8.609  0.00  0.00     0.012 A 
ATOM     10  C14 ZIN A   1      19.078   2.670   9.122  0.00  0.00     0.024 A 
ATOM     11  C12 ZIN A   1      18.213   2.890  10.179  0.00  0.00     0.034 A 
ATOM     12  C11 ZIN A   1      17.498   1.835  10.718  0.00  0.00     0.024 A 
ATOM     13 Cl13 ZIN A   1      18.025   4.488  10.830  0.00  0.00    -0.084 Cl
ATOM     14  C10 ZIN A   1      17.649   0.562  10.201  0.00  0.00     0.012 A 
ENDBRANCH   1   8
BRANCH   1  15
ATOM     15  C16 ZIN A   1      18.488  -1.004   7.085  0.00  0.00     0.067 A 
ATOM     16  N21 ZIN A   1      19.417  -1.509   6.297  0.00  0.00    -0.263 NA
ATOM     17  C20 ZIN A   1      19.294  -1.500   4.984  0.00  0.00     0.117 A 
ATOM     18  C19 ZIN A   1      18.180  -0.944   4.382  0.00  0.00     0.019 A 
ATOM     19  C18 ZIN A   1      17.185  -0.398   5.178  0.00  0.00     0.003 A 
ATOM     20  C17 ZIN A   1      17.348  -0.431   6.555  0.00  0.00     0.030 A 
ENDBRANCH   1  15
TORSDOF 6
ENDMDL
MODEL 8
REMARK VINA RESULT:      -6.4      3.777      7.291
REMARK  6 active torsions:
REMARK  status: ('A' for Active; 'I' for Inactive)
REMARK    1  A    between atoms: N2_2  and  C4_4 
REMARK    2  A    between atoms: C4_4  and  C5_5 
REMARK    3  A    between atoms: C5_5  and  O6_6 
REMARK    4  A    between atoms: O6_6  and  C7_7 
REMARK    5  A    between atoms: C7_7  and  C9_8 
REMARK    6  A    between atoms: C7_7  and  C16_15 
ROOT
ATOM      1  C7  ZIN A   1      18.615  -0.761  12.082  0.00  0.00     0.206 C 
ENDROOT
BRANCH   1   2
ATOM      2  O6  ZIN A   1      19.815  -0.129  11.632  0.00  0.00    -0.373 OA
BRANCH   2   3
ATOM      3  C5  ZIN A   1      19.596   1.075  10.894  0.00  0.00     0.199 C 
BRANCH   3   4
ATOM      4  C4  ZIN A   1      19.902   2.281  11.784  0.00  0.00     0.297 C 
BRANCH   4   5
ATOM      5  N2  ZIN A   1      19.044   3.407  11.394  0.00  0.00     0.082 N 
ATOM      6  C1  ZIN A   1      17.629   3.011  11.376  0.00  0.00     0.309 C 
ATOM      7  C3  ZIN A   1      19.256   4.562  12.278  0.00  0.00     0.309 C 
ENDBRANCH   4   5
ENDBRANCH   3   4
ENDBRANCH   2   3
ENDBRANCH   1   2
BRANCH   1   8
ATOM      8  C9  ZIN A   1      18.502  -0.618  13.579  0.00  0.00    -0.024 A 
ATOM      9  C15 ZIN A   1      17.629   0.305  14.121  0.00  0.00     0.012 A 
ATOM     10  C14 ZIN A   1      17.521   0.432  15.493  0.00  0.00     0.024 A 
ATOM     11  C12 ZIN A   1      18.296  -0.357  16.324  0.00  0.00     0.034 A 
ATOM     12  C11 ZIN A   1      19.174  -1.278  15.780  0.00  0.00     0.024 A 
ATOM     13 Cl13 ZIN A   1      18.168  -0.194  18.047  0.00  0.00    -0.084 Cl
ATOM     14  C10 ZIN A   1      19.278  -1.408  14.408  0.00  0.00     0.012 A 
ENDBRANCH   1   8
BRANCH   1  15
ATOM     15  C16 ZIN A   1      18.649  -2.222  11.718  0.00  0.00     0.067 A 
ATOM     16  N21 ZIN A   1      19.802  -2.797  11.439  0.00  0.00    -0.263 NA
ATOM     17  C20 ZIN A   1      19.882  -4.075  11.120  0.00  0.00     0.117 A 
ATOM     18  C19 ZIN A   1      18.745  -4.859  11.055  0.00  0.00     0.019 A 
ATOM     19  C18 ZIN A   1      17.513  -4.287  11.337  0.00  0.00     0.003 A 
ATOM     20  C17 ZIN A   1      17.471  -2.943  11.673  0.00  0.00     0.030 A 
ENDBRANCH   1  15
TORSDOF 6
ENDMDL
MODEL 9
REMARK VINA RESULT:      -6.4      3.804      5.495
REMARK  6 active torsions:
REMARK  status: ('A' for Active; 'I' for Inactive)
REMARK    1  A    between atoms: N2_2  and  C4_4 
REMARK    2  A    between atoms: C4_4  and  C5_5 
REMARK    3  A    between atoms: C5_5  and  O6_6 
REMARK    4  A    between atoms: O6_6  and  C7_7 
REMARK    5  A    between atoms: C7_7  and  C9_8 
REMARK    6  A    between atoms: C7_7  and  C16_15 
ROOT
ATOM      1  C7  ZIN A   1      18.416  -0.526  12.334  0.00  0.00     0.206 C 
ENDROOT
BRANCH   1   2
ATOM      2  O6  ZIN A   1      17.216  -1.151  11.873  0.00  0.00    -0.373 OA
BRANCH   2   3
ATOM      3  C5  ZIN A   1      17.404  -2.479  11.381  0.00  0.00     0.199 C 
BRANCH   3   4
ATOM      4  C4  ZIN A   1      18.857  -2.657  10.936  0.00  0.00     0.297 C 
BRANCH   4   5
ATOM      5  N2  ZIN A   1      18.904  -2.839   9.480  0.00  0.00     0.082 N 
ATOM      6  C1  ZIN A   1      17.725  -3.574   9.001  0.00  0.00     0.309 C 
ATOM      7  C3  ZIN A   1      19.034  -1.548   8.791  0.00  0.00     0.309 C 
ENDBRANCH   4   5
ENDBRANCH   3   4
ENDBRANCH   2   3
ENDBRANCH   1   2
BRANCH   1   8
ATOM      8  C9  ZIN A   1      18.398  -0.454  13.840  0.00  0.00    -0.024 A 
ATOM      9  C15 ZIN A   1      19.189  -1.310  14.582  0.00  0.00     0.012 A 
ATOM     10  C14 ZIN A   1      19.178  -1.239  15.963  0.00  0.00     0.024 A 
ATOM     11  C12 ZIN A   1      18.366  -0.319  16.601  0.00  0.00     0.034 A 
ATOM     12  C11 ZIN A   1      17.570   0.534  15.858  0.00  0.00     0.024 A 
ATOM     13 Cl13 ZIN A   1      18.344  -0.234  18.335  0.00  0.00    -0.084 Cl
ATOM     14  C10 ZIN A   1      17.586   0.466  14.477  0.00  0.00     0.012 A 
ENDBRANCH   1   8
BRANCH   1  15
ATOM     15  C16 ZIN A   1      18.508   0.866  11.765  0.00  0.00     0.067 A 
ATOM     16  N21 ZIN A   1      17.460   1.396  11.166  0.00  0.00    -0.263 NA
ATOM     17  C20 ZIN A   1      17.493   2.612  10.657  0.00  0.00     0.117 A 
ATOM     18  C19 ZIN A   1      18.643   3.376  10.725  0.00  0.00     0.019 A 
ATOM     19  C18 ZIN A   1      19.768   2.850  11.344  0.00  0.00     0.003 A 
ATOM     20  C17 ZIN A   1      19.692   1.569  11.871  0.00  0.00     0.030 A 
ENDBRANCH   1  15
TORSDOF 6
ENDMDL
