MODEL 1
REMARK VINA RESULT:      -8.0      0.000      0.000
REMARK  6 active torsions:
REMARK  status: ('A' for Active; 'I' for Inactive)
REMARK    1  A    between atoms: C2_2  and  C4_4 
REMARK    2  A    between atoms: C7_7  and  C8_8 
REMARK       I    between atoms: C8_8  and  N10_10 
REMARK    3  A    between atoms: N10_10  and  C11_11 
REMARK    4  A    between atoms: C11_11  and  C13_12 
REMARK    5  A    between atoms: C11_11  and  C20_19 
REMARK    6  A    between atoms: C13_12  and  C14_13 
ROOT
ATOM      1  C8  <0> d   1      18.876  -4.035   7.258  0.00  0.00     0.222 C 
ATOM      2  O9  <0> d   1      20.075  -3.855   7.252  0.00  0.00    -0.273 OA
ATOM      3  N10 <0> d   1      18.050  -3.080   6.785  0.00  0.00    -0.346 N 
ATOM      4  H38 <0> d   1      17.090  -3.224   6.790  0.00  0.00     0.163 HD
ENDROOT
BRANCH   3   5
ATOM      5  C11 <0> d   1      18.600  -1.826   6.265  0.00  0.00     0.189 C 
BRANCH   5   6
ATOM      6  C13 <0> d   1      17.565  -0.711   6.421  0.00  0.00     0.074 C 
BRANCH   6   7
ATOM      7  C14 <0> d   1      17.953   0.176   7.576  0.00  0.00    -0.056 A 
ATOM      8  C19 <0> d   1      18.880   1.186   7.392  0.00  0.00     0.007 A 
ATOM      9  C18 <0> d   1      19.233   2.001   8.450  0.00  0.00     0.001 A 
ATOM     10  C17 <0> d   1      18.665   1.803   9.695  0.00  0.00     0.000 A 
ATOM     11  C16 <0> d   1      17.742   0.791   9.880  0.00  0.00     0.001 A 
ATOM     12  C15 <0> d   1      17.386  -0.023   8.821  0.00  0.00     0.007 A 
ENDBRANCH   6   7
ENDBRANCH   5   6
BRANCH   5  13
ATOM     13  C20 <0> d   1      18.942  -1.994   4.807  0.00  0.00     0.197 C 
ATOM     14  O21 <0> d   1      18.334  -2.804   4.127  0.00  0.00    -0.646 OA
ATOM     15  O22 <0> d   1      19.826  -1.321   4.306  0.00  0.00    -0.646 OA
ENDBRANCH   5  13
ENDBRANCH   3   5
BRANCH   1  16
ATOM     16  C7  <0> d   1      18.310  -5.325   7.792  0.00  0.00     0.078 C 
ATOM     17  C6  <0> d   1      16.993  -5.041   8.519  0.00  0.00     0.014 C 
ATOM     18  C5  <0> d   1      17.250  -4.077   9.679  0.00  0.00     0.006 C 
ATOM     19  C4  <0> d   1      18.247  -4.706  10.655  0.00  0.00    -0.011 C 
ATOM     20  C24 <0> d   1      19.561  -4.990   9.928  0.00  0.00     0.006 C 
ATOM     21  C23 <0> d   1      19.306  -5.954   8.768  0.00  0.00     0.014 C 
BRANCH  19  22
ATOM     22  C2  <0> d   1      18.502  -3.742  11.816  0.00  0.00    -0.019 C 
ATOM     23  C1  <0> d   1      19.965  -3.297  11.796  0.00  0.00     0.010 C 
ATOM     24  C3  <0> d   1      17.593  -2.519  11.671  0.00  0.00     0.010 C 
ENDBRANCH  19  22
ENDBRANCH   1  16
TORSDOF 6
ENDMDL
MODEL 2
REMARK VINA RESULT:      -7.9      3.966      5.885
REMARK  6 active torsions:
REMARK  status: ('A' for Active; 'I' for Inactive)
REMARK    1  A    between atoms: C2_2  and  C4_4 
REMARK    2  A    between atoms: C7_7  and  C8_8 
REMARK       I    between atoms: C8_8  and  N10_10 
REMARK    3  A    between atoms: N10_10  and  C11_11 
REMARK    4  A    between atoms: C11_11  and  C13_12 
REMARK    5  A    between atoms: C11_11  and  C20_19 
REMARK    6  A    between atoms: C13_12  and  C14_13 
ROOT
ATOM      1  C8  <0> d   1      17.828   1.357  12.387  0.00  0.00     0.222 C 
ATOM      2  O9  <0> d   1      16.758   0.905  12.038  0.00  0.00    -0.273 OA
ATOM      3  N10 <0> d   1      18.450   2.278  11.625  0.00  0.00    -0.346 N 
ATOM      4  H38 <0> d   1      19.306   2.641  11.904  0.00  0.00     0.163 HD
ENDROOT
BRANCH   3   5
ATOM      5  C11 <0> d   1      17.834   2.734  10.376  0.00  0.00     0.189 C 
BRANCH   5   6
ATOM      6  C13 <0> d   1      18.869   2.687   9.250  0.00  0.00     0.074 C 
BRANCH   6   7
ATOM      7  C14 <0> d   1      18.544   1.549   8.316  0.00  0.00    -0.056 A 
ATOM      8  C19 <0> d   1      19.070   1.532   7.038  0.00  0.00     0.007 A 
ATOM      9  C18 <0> d   1      18.776   0.488   6.183  0.00  0.00     0.001 A 
ATOM     10  C17 <0> d   1      17.947  -0.537   6.602  0.00  0.00     0.000 A 
ATOM     11  C16 <0> d   1      17.417  -0.517   7.879  0.00  0.00     0.001 A 
ATOM     12  C15 <0> d   1      17.715   0.525   8.735  0.00  0.00     0.007 A 
ENDBRANCH   6   7
ENDBRANCH   5   6
BRANCH   5  13
ATOM     13  C20 <0> d   1      17.340   4.147  10.545  0.00  0.00     0.197 C 
ATOM     14  O21 <0> d   1      17.677   5.010   9.752  0.00  0.00    -0.646 OA
ATOM     15  O22 <0> d   1      16.603   4.429  11.474  0.00  0.00    -0.646 OA
ENDBRANCH   5  13
ENDBRANCH   3   5
BRANCH   1  16
ATOM     16  C7  <0> d   1      18.461   0.890  13.672  0.00  0.00     0.078 C 
ATOM     17  C6  <0> d   1      19.938   0.574  13.427  0.00  0.00     0.014 C 
ATOM     18  C5  <0> d   1      20.055  -0.527  12.371  0.00  0.00     0.006 C 
ATOM     19  C4  <0> d   1      19.339  -1.786  12.865  0.00  0.00    -0.011 C 
ATOM     20  C24 <0> d   1      17.863  -1.469  13.109  0.00  0.00     0.006 C 
ATOM     21  C23 <0> d   1      17.745  -0.369  14.165  0.00  0.00     0.014 C 
BRANCH  19  22
ATOM     22  C2  <0> d   1      19.457  -2.887  11.809  0.00  0.00    -0.019 C 
ATOM     23  C1  <0> d   1      18.263  -3.836  11.925  0.00  0.00     0.010 C 
ATOM     24  C3  <0> d   1      19.473  -2.256  10.414  0.00  0.00     0.010 C 
ENDBRANCH  19  22
ENDBRANCH   1  16
TORSDOF 6
ENDMDL
MODEL 3
REMARK VINA RESULT:      -7.7      1.716      2.608
REMARK  6 active torsions:
REMARK  status: ('A' for Active; 'I' for Inactive)
REMARK    1  A    between atoms: C2_2  and  C4_4 
REMARK    2  A    between atoms: C7_7  and  C8_8 
REMARK       I    between atoms: C8_8  and  N10_10 
REMARK    3  A    between atoms: N10_10  and  C11_11 
REMARK    4  A    between atoms: C11_11  and  C13_12 
REMARK    5  A    between atoms: C11_11  and  C20_19 
REMARK    6  A    between atoms: C13_12  and  C14_13 
ROOT
ATOM      1  C8  <0> d   1      19.055  -2.776   9.429  0.00  0.00     0.222 C 
ATOM      2  O9  <0> d   1      19.928  -1.978   9.696  0.00  0.00    -0.273 OA
ATOM      3  N10 <0> d   1      18.379  -2.671   8.267  0.00  0.00    -0.346 N 
ATOM      4  H38 <0> d   1      17.681  -3.310   8.053  0.00  0.00     0.163 HD
ENDROOT
BRANCH   3   5
ATOM      5  C11 <0> d   1      18.700  -1.594   7.327  0.00  0.00     0.189 C 
BRANCH   5   6
ATOM      6  C13 <0> d   1      17.599  -0.534   7.371  0.00  0.00     0.074 C 
BRANCH   6   7
ATOM      7  C14 <0> d   1      17.950   0.513   8.398  0.00  0.00    -0.056 A 
ATOM      8  C19 <0> d   1      17.317   0.515   9.627  0.00  0.00     0.007 A 
ATOM      9  C18 <0> d   1      17.641   1.472  10.569  0.00  0.00     0.001 A 
ATOM     10  C17 <0> d   1      18.592   2.433  10.280  0.00  0.00     0.000 A 
ATOM     11  C16 <0> d   1      19.222   2.433   9.049  0.00  0.00     0.001 A 
ATOM     12  C15 <0> d   1      18.900   1.474   8.108  0.00  0.00     0.007 A 
ENDBRANCH   6   7
ENDBRANCH   5   6
BRANCH   5  13
ATOM     13  C20 <0> d   1      18.799  -2.157   5.933  0.00  0.00     0.197 C 
ATOM     14  O21 <0> d   1      19.760  -2.839   5.618  0.00  0.00    -0.646 OA
ATOM     15  O22 <0> d   1      17.920  -1.930   5.119  0.00  0.00    -0.646 OA
ENDBRANCH   5  13
ENDBRANCH   3   5
BRANCH   1  16
ATOM     16  C7  <0> d   1      18.725  -3.884  10.395  0.00  0.00     0.078 C 
ATOM     17  C6  <0> d   1      17.353  -3.625  11.020  0.00  0.00     0.014 C 
ATOM     18  C5  <0> d   1      17.378  -2.288  11.766  0.00  0.00     0.006 C 
ATOM     19  C4  <0> d   1      18.439  -2.338  12.867  0.00  0.00    -0.011 C 
ATOM     20  C24 <0> d   1      19.810  -2.598  12.241  0.00  0.00     0.006 C 
ATOM     21  C23 <0> d   1      19.786  -3.934  11.496  0.00  0.00     0.014 C 
BRANCH  19  22
ATOM     22  C2  <0> d   1      18.463  -1.002  13.613  0.00  0.00    -0.019 C 
ATOM     23  C1  <0> d   1      18.546  -1.260  15.119  0.00  0.00     0.010 C 
ATOM     24  C3  <0> d   1      19.681  -0.191  13.166  0.00  0.00     0.010 C 
ENDBRANCH  19  22
ENDBRANCH   1  16
TORSDOF 6
ENDMDL
MODEL 4
REMARK VINA RESULT:      -7.7      3.074      4.558
REMARK  6 active torsions:
REMARK  status: ('A' for Active; 'I' for Inactive)
REMARK    1  A    between atoms: C2_2  and  C4_4 
REMARK    2  A    between atoms: C7_7  and  C8_8 
REMARK       I    between atoms: C8_8  and  N10_10 
REMARK    3  A    between atoms: N10_10  and  C11_11 
REMARK    4  A    between atoms: C11_11  and  C13_12 
REMARK    5  A    between atoms: C11_11  and  C20_19 
REMARK    6  A    between atoms: C13_12  and  C14_13 
ROOT
ATOM      1  C8  <0> d   1      18.298  -0.569  10.367  0.00  0.00     0.222 C 
ATOM      2  O9  <0> d   1      19.438  -0.952  10.521  0.00  0.00    -0.273 OA
ATOM      3  N10 <0> d   1      18.037   0.443   9.517  0.00  0.00    -0.346 N 
ATOM      4  H38 <0> d   1      17.124   0.750   9.393  0.00  0.00     0.163 HD
ENDROOT
BRANCH   3   5
ATOM      5  C11 <0> d   1      19.130   1.081   8.779  0.00  0.00     0.189 C 
BRANCH   5   6
ATOM      6  C13 <0> d   1      18.924   2.597   8.770  0.00  0.00     0.074 C 
BRANCH   6   7
ATOM      7  C14 <0> d   1      18.716   3.083  10.181  0.00  0.00    -0.056 A 
ATOM      8  C19 <0> d   1      19.727   2.949  11.116  0.00  0.00     0.007 A 
ATOM      9  C18 <0> d   1      19.537   3.399  12.408  0.00  0.00     0.001 A 
ATOM     10  C17 <0> d   1      18.334   3.975  12.771  0.00  0.00     0.000 A 
ATOM     11  C16 <0> d   1      17.322   4.104  11.838  0.00  0.00     0.001 A 
ATOM     12  C15 <0> d   1      17.512   3.659  10.544  0.00  0.00     0.007 A 
ENDBRANCH   6   7
ENDBRANCH   5   6
BRANCH   5  13
ATOM     13  C20 <0> d   1      19.146   0.569   7.362  0.00  0.00     0.197 C 
ATOM     14  O21 <0> d   1      19.050   1.350   6.430  0.00  0.00    -0.646 OA
ATOM     15  O22 <0> d   1      19.254  -0.626   7.146  0.00  0.00    -0.646 OA
ENDBRANCH   5  13
ENDBRANCH   3   5
BRANCH   1  16
ATOM     16  C7  <0> d   1      17.173  -1.226  11.125  0.00  0.00     0.078 C 
ATOM     17  C6  <0> d   1      16.547  -0.213  12.086  0.00  0.00     0.014 C 
ATOM     18  C5  <0> d   1      17.609   0.278  13.072  0.00  0.00     0.006 C 
ATOM     19  C4  <0> d   1      18.155  -0.910  13.868  0.00  0.00    -0.011 C 
ATOM     20  C24 <0> d   1      18.780  -1.922  12.906  0.00  0.00     0.006 C 
ATOM     21  C23 <0> d   1      17.719  -2.413  11.920  0.00  0.00     0.014 C 
BRANCH  19  22
ATOM     22  C2  <0> d   1      19.216  -0.419  14.854  0.00  0.00    -0.019 C 
ATOM     23  C1  <0> d   1      18.931   1.038  15.226  0.00  0.00     0.010 C 
ATOM     24  C3  <0> d   1      19.179  -1.285  16.115  0.00  0.00     0.010 C 
ENDBRANCH  19  22
ENDBRANCH   1  16
TORSDOF 6
ENDMDL
MODEL 5
REMARK VINA RESULT:      -7.7      4.415      7.825
REMARK  6 active torsions:
REMARK  status: ('A' for Active; 'I' for Inactive)
REMARK    1  A    between atoms: C2_2  and  C4_4 
REMARK    2  A    between atoms: C7_7  and  C8_8 
REMARK       I    between atoms: C8_8  and  N10_10 
REMARK    3  A    between atoms: N10_10  and  C11_11 
REMARK    4  A    between atoms: C11_11  and  C13_12 
REMARK    5  A    between atoms: C11_11  and  C20_19 
REMARK    6  A    between atoms: C13_12  and  C14_13 
ROOT
ATOM      1  C8  <0> d   1      17.729   1.095  11.235  0.00  0.00     0.222 C 
ATOM      2  O9  <0> d   1      16.580   0.975  11.604  0.00  0.00    -0.273 OA
ATOM      3  N10 <0> d   1      18.650   0.177  11.590  0.00  0.00    -0.346 N 
ATOM      4  H38 <0> d   1      19.569   0.273  11.294  0.00  0.00     0.163 HD
ENDROOT
BRANCH   3   5
ATOM      5  C11 <0> d   1      18.263  -0.967  12.420  0.00  0.00     0.189 C 
BRANCH   5   6
ATOM      6  C13 <0> d   1      19.310  -1.180  13.514  0.00  0.00     0.074 C 
BRANCH   6   7
ATOM      7  C14 <0> d   1      18.819  -0.573  14.804  0.00  0.00    -0.056 A 
ATOM      8  C19 <0> d   1      18.166  -1.360  15.734  0.00  0.00     0.007 A 
ATOM      9  C18 <0> d   1      17.719  -0.805  16.918  0.00  0.00     0.001 A 
ATOM     10  C17 <0> d   1      17.919   0.541  17.169  0.00  0.00     0.000 A 
ATOM     11  C16 <0> d   1      18.568   1.328  16.236  0.00  0.00     0.001 A 
ATOM     12  C15 <0> d   1      19.018   0.772  15.054  0.00  0.00     0.007 A 
ENDBRANCH   6   7
ENDBRANCH   5   6
BRANCH   5  13
ATOM     13  C20 <0> d   1      18.174  -2.203  11.563  0.00  0.00     0.197 C 
ATOM     14  O21 <0> d   1      17.107  -2.779  11.433  0.00  0.00    -0.646 OA
ATOM     15  O22 <0> d   1      19.168  -2.628  10.999  0.00  0.00    -0.646 OA
ENDBRANCH   5  13
ENDBRANCH   3   5
BRANCH   1  16
ATOM     16  C7  <0> d   1      18.127   2.271  10.381  0.00  0.00     0.078 C 
ATOM     17  C6  <0> d   1      19.608   2.586  10.606  0.00  0.00     0.014 C 
ATOM     18  C5  <0> d   1      19.838   2.926  12.080  0.00  0.00     0.006 C 
ATOM     19  C4  <0> d   1      18.993   4.144  12.461  0.00  0.00    -0.011 C 
ATOM     20  C24 <0> d   1      17.514   3.827  12.236  0.00  0.00     0.006 C 
ATOM     21  C23 <0> d   1      17.282   3.488  10.763  0.00  0.00     0.014 C 
BRANCH  19  22
ATOM     22  C2  <0> d   1      19.225   4.483  13.935  0.00  0.00    -0.019 C 
ATOM     23  C1  <0> d   1      20.044   5.771  14.039  0.00  0.00     0.010 C 
ATOM     24  C3  <0> d   1      17.876   4.678  14.631  0.00  0.00     0.010 C 
ENDBRANCH  19  22
ENDBRANCH   1  16
TORSDOF 6
ENDMDL
MODEL 6
REMARK VINA RESULT:      -7.6      6.819     10.235
REMARK  6 active torsions:
REMARK  status: ('A' for Active; 'I' for Inactive)
REMARK    1  A    between atoms: C2_2  and  C4_4 
REMARK    2  A    between atoms: C7_7  and  C8_8 
REMARK       I    between atoms: C8_8  and  N10_10 
REMARK    3  A    between atoms: N10_10  and  C11_11 
REMARK    4  A    between atoms: C11_11  and  C13_12 
REMARK    5  A    between atoms: C11_11  and  C20_19 
REMARK    6  A    between atoms: C13_12  and  C14_13 
ROOT
ATOM      1  C8  <0> d   1      18.996   3.788  16.269  0.00  0.00     0.222 C 
ATOM      2  O9  <0> d   1      20.185   3.590  16.401  0.00  0.00    -0.273 OA
ATOM      3  N10 <0> d   1      18.126   2.765  16.381  0.00  0.00    -0.346 N 
ATOM      4  H38 <0> d   1      17.175   2.924  16.277  0.00  0.00     0.163 HD
ENDROOT
BRANCH   3   5
ATOM      5  C11 <0> d   1      18.617   1.413  16.662  0.00  0.00     0.189 C 
BRANCH   5   6
ATOM      6  C13 <0> d   1      17.605   0.387  16.151  0.00  0.00     0.074 C 
BRANCH   6   7
ATOM      7  C14 <0> d   1      18.028  -0.099  14.788  0.00  0.00    -0.056 A 
ATOM      8  C19 <0> d   1      17.599   0.564  13.653  0.00  0.00     0.007 A 
ATOM      9  C18 <0> d   1      17.989   0.121  12.404  0.00  0.00     0.001 A 
ATOM     10  C17 <0> d   1      18.802  -0.992  12.288  0.00  0.00     0.000 A 
ATOM     11  C16 <0> d   1      19.227  -1.658  13.423  0.00  0.00     0.001 A 
ATOM     12  C15 <0> d   1      18.840  -1.213  14.672  0.00  0.00     0.007 A 
ENDBRANCH   6   7
ENDBRANCH   5   6
BRANCH   5  13
ATOM     13  C20 <0> d   1      18.797   1.243  18.148  0.00  0.00     0.197 C 
ATOM     14  O21 <0> d   1      17.822   1.123  18.871  0.00  0.00    -0.646 OA
ATOM     15  O22 <0> d   1      19.917   1.225  18.629  0.00  0.00    -0.646 OA
ENDBRANCH   5  13
ENDBRANCH   3   5
BRANCH   1  16
ATOM     16  C7  <0> d   1      18.491   5.179  15.981  0.00  0.00     0.078 C 
ATOM     17  C6  <0> d   1      17.187   5.093  15.186  0.00  0.00     0.014 C 
ATOM     18  C5  <0> d   1      17.442   4.359  13.867  0.00  0.00     0.006 C 
ATOM     19  C4  <0> d   1      18.488   5.123  13.052  0.00  0.00    -0.011 C 
ATOM     20  C24 <0> d   1      19.791   5.209  13.848  0.00  0.00     0.006 C 
ATOM     21  C23 <0> d   1      19.537   5.942  15.167  0.00  0.00     0.014 C 
BRANCH  19  22
ATOM     22  C2  <0> d   1      18.742   4.390  11.734  0.00  0.00    -0.019 C 
ATOM     23  C1  <0> d   1      19.867   3.371  11.925  0.00  0.00     0.010 C 
ATOM     24  C3  <0> d   1      17.465   3.665  11.300  0.00  0.00     0.010 C 
ENDBRANCH  19  22
ENDBRANCH   1  16
TORSDOF 6
ENDMDL
MODEL 7
REMARK VINA RESULT:      -7.5      1.602      4.674
REMARK  6 active torsions:
REMARK  status: ('A' for Active; 'I' for Inactive)
REMARK    1  A    between atoms: C2_2  and  C4_4 
REMARK    2  A    between atoms: C7_7  and  C8_8 
REMARK       I    between atoms: C8_8  and  N10_10 
REMARK    3  A    between atoms: N10_10  and  C11_11 
REMARK    4  A    between atoms: C11_11  and  C13_12 
REMARK    5  A    between atoms: C11_11  and  C20_19 
REMARK    6  A    between atoms: C13_12  and  C14_13 
ROOT
ATOM      1  C8  <0> d   1      18.148  -0.297   8.056  0.00  0.00     0.222 C 
ATOM      2  O9  <0> d   1      16.990  -0.449   7.732  0.00  0.00    -0.273 OA
ATOM      3  N10 <0> d   1      19.112  -1.039   7.476  0.00  0.00    -0.346 N 
ATOM      4  H38 <0> d   1      20.040  -0.917   7.735  0.00  0.00     0.163 HD
ENDROOT
BRANCH   3   5
ATOM      5  C11 <0> d   1      18.761  -2.028   6.454  0.00  0.00     0.189 C 
BRANCH   5   6
ATOM      6  C13 <0> d   1      19.701  -3.230   6.562  0.00  0.00     0.074 C 
BRANCH   6   7
ATOM      7  C14 <0> d   1      19.153  -4.207   7.571  0.00  0.00    -0.056 A 
ATOM      8  C19 <0> d   1      19.968  -5.199   8.086  0.00  0.00     0.007 A 
ATOM      9  C18 <0> d   1      19.467  -6.092   9.013  0.00  0.00     0.001 A 
ATOM     10  C17 <0> d   1      18.148  -6.000   9.420  0.00  0.00     0.000 A 
ATOM     11  C16 <0> d   1      17.333  -5.012   8.901  0.00  0.00     0.001 A 
ATOM     12  C15 <0> d   1      17.835  -4.116   7.977  0.00  0.00     0.007 A 
ENDBRANCH   6   7
ENDBRANCH   5   6
BRANCH   5  13
ATOM     13  C20 <0> d   1      18.894  -1.408   5.087  0.00  0.00     0.197 C 
ATOM     14  O21 <0> d   1      19.983  -1.018   4.698  0.00  0.00    -0.646 OA
ATOM     15  O22 <0> d   1      17.915  -1.295   4.370  0.00  0.00    -0.646 OA
ENDBRANCH   5  13
ENDBRANCH   3   5
BRANCH   1  16
ATOM     16  C7  <0> d   1      18.510   0.721   9.107  0.00  0.00     0.078 C 
ATOM     17  C6  <0> d   1      19.899   0.404   9.666  0.00  0.00     0.014 C 
ATOM     18  C5  <0> d   1      19.889  -0.992  10.291  0.00  0.00     0.006 C 
ATOM     19  C4  <0> d   1      18.860  -1.038  11.423  0.00  0.00    -0.011 C 
ATOM     20  C24 <0> d   1      17.473  -0.722  10.862  0.00  0.00     0.006 C 
ATOM     21  C23 <0> d   1      17.481   0.675  10.237  0.00  0.00     0.014 C 
BRANCH  19  22
ATOM     22  C2  <0> d   1      18.852  -2.435  12.048  0.00  0.00    -0.019 C 
ATOM     23  C1  <0> d   1      17.496  -3.098  11.798  0.00  0.00     0.010 C 
ATOM     24  C3  <0> d   1      19.959  -3.282  11.416  0.00  0.00     0.010 C 
ENDBRANCH  19  22
ENDBRANCH   1  16
TORSDOF 6
ENDMDL
MODEL 8
REMARK VINA RESULT:      -7.4      2.590      5.586
REMARK  6 active torsions:
REMARK  status: ('A' for Active; 'I' for Inactive)
REMARK    1  A    between atoms: C2_2  and  C4_4 
REMARK    2  A    between atoms: C7_7  and  C8_8 
REMARK       I    between atoms: C8_8  and  N10_10 
REMARK    3  A    between atoms: N10_10  and  C11_11 
REMARK    4  A    between atoms: C11_11  and  C13_12 
REMARK    5  A    between atoms: C11_11  and  C20_19 
REMARK    6  A    between atoms: C13_12  and  C14_13 
ROOT
ATOM      1  C8  <0> d   1      19.422  -1.234  11.630  0.00  0.00     0.222 C 
ATOM      2  O9  <0> d   1      20.484  -0.965  11.112  0.00  0.00    -0.273 OA
ATOM      3  N10 <0> d   1      18.644  -2.202  11.106  0.00  0.00    -0.346 N 
ATOM      4  H38 <0> d   1      17.793  -2.418  11.521  0.00  0.00     0.163 HD
ENDROOT
BRANCH   3   5
ATOM      5  C11 <0> d   1      19.081  -2.929   9.912  0.00  0.00     0.189 C 
BRANCH   5   6
ATOM      6  C13 <0> d   1      17.952  -2.943   8.880  0.00  0.00     0.074 C 
BRANCH   6   7
ATOM      7  C14 <0> d   1      18.209  -1.883   7.840  0.00  0.00    -0.056 A 
ATOM      8  C19 <0> d   1      17.627  -0.635   7.965  0.00  0.00     0.007 A 
ATOM      9  C18 <0> d   1      17.865   0.337   7.013  0.00  0.00     0.001 A 
ATOM     10  C17 <0> d   1      18.679   0.061   5.930  0.00  0.00     0.000 A 
ATOM     11  C16 <0> d   1      19.257  -1.188   5.802  0.00  0.00     0.001 A 
ATOM     12  C15 <0> d   1      19.022  -2.160   6.756  0.00  0.00     0.007 A 
ENDBRANCH   6   7
ENDBRANCH   5   6
BRANCH   5  13
ATOM     13  C20 <0> d   1      19.436  -4.345  10.286  0.00  0.00     0.197 C 
ATOM     14  O21 <0> d   1      19.987  -5.070   9.475  0.00  0.00    -0.646 OA
ATOM     15  O22 <0> d   1      19.172  -4.766  11.399  0.00  0.00    -0.646 OA
ENDBRANCH   5  13
ENDBRANCH   3   5
BRANCH   1  16
ATOM     16  C7  <0> d   1      18.972  -0.488  12.859  0.00  0.00     0.078 C 
ATOM     17  C6  <0> d   1      17.471  -0.203  12.761  0.00  0.00     0.014 C 
ATOM     18  C5  <0> d   1      17.193   0.645  11.519  0.00  0.00     0.006 C 
ATOM     19  C4  <0> d   1      17.958   1.967  11.622  0.00  0.00    -0.011 C 
ATOM     20  C24 <0> d   1      19.457   1.681  11.719  0.00  0.00     0.006 C 
ATOM     21  C23 <0> d   1      19.736   0.833  12.961  0.00  0.00     0.014 C 
BRANCH  19  22
ATOM     22  C2  <0> d   1      17.679   2.815  10.380  0.00  0.00    -0.019 C 
ATOM     23  C1  <0> d   1      17.456   4.271  10.795  0.00  0.00     0.010 C 
ATOM     24  C3  <0> d   1      18.875   2.734   9.428  0.00  0.00     0.010 C 
ENDBRANCH  19  22
ENDBRANCH   1  16
TORSDOF 6
ENDMDL
MODEL 9
REMARK VINA RESULT:      -7.4      4.011      5.808
REMARK  6 active torsions:
REMARK  status: ('A' for Active; 'I' for Inactive)
REMARK    1  A    between atoms: C2_2  and  C4_4 
REMARK    2  A    between atoms: C7_7  and  C8_8 
REMARK       I    between atoms: C8_8  and  N10_10 
REMARK    3  A    between atoms: N10_10  and  C11_11 
REMARK    4  A    between atoms: C11_11  and  C13_12 
REMARK    5  A    between atoms: C11_11  and  C20_19 
REMARK    6  A    between atoms: C13_12  and  C14_13 
ROOT
ATOM      1  C8  <0> d   1      19.018  -0.229  11.230  0.00  0.00     0.222 C 
ATOM      2  O9  <0> d   1      17.958  -0.753  10.958  0.00  0.00    -0.273 OA
ATOM      3  N10 <0> d   1      19.316   0.986  10.728  0.00  0.00    -0.346 N 
ATOM      4  H38 <0> d   1      20.163   1.405  10.945  0.00  0.00     0.163 HD
ENDROOT
BRANCH   3   5
ATOM      5  C11 <0> d   1      18.361   1.673   9.855  0.00  0.00     0.189 C 
BRANCH   5   6
ATOM      6  C13 <0> d   1      19.050   2.051   8.542  0.00  0.00     0.074 C 
BRANCH   6   7
ATOM      7  C14 <0> d   1      18.600   1.114   7.451  0.00  0.00    -0.056 A 
ATOM      8  C19 <0> d   1      17.554   0.239   7.677  0.00  0.00     0.007 A 
ATOM      9  C18 <0> d   1      17.140  -0.617   6.676  0.00  0.00     0.001 A 
ATOM     10  C17 <0> d   1      17.777  -0.606   5.449  0.00  0.00     0.000 A 
ATOM     11  C16 <0> d   1      18.826   0.265   5.224  0.00  0.00     0.001 A 
ATOM     12  C15 <0> d   1      19.238   1.125   6.224  0.00  0.00     0.007 A 
ENDBRANCH   6   7
ENDBRANCH   5   6
BRANCH   5  13
ATOM     13  C20 <0> d   1      17.863   2.920  10.538  0.00  0.00     0.197 C 
ATOM     14  O21 <0> d   1      17.375   2.851  11.653  0.00  0.00    -0.646 OA
ATOM     15  O22 <0> d   1      17.945   3.998   9.975  0.00  0.00    -0.646 OA
ENDBRANCH   5  13
ENDBRANCH   3   5
BRANCH   1  16
ATOM     16  C7  <0> d   1      20.000  -0.935  12.128  0.00  0.00     0.078 C 
ATOM     17  C6  <0> d   1      19.259  -1.967  12.982  0.00  0.00     0.014 C 
ATOM     18  C5  <0> d   1      18.204  -1.259  13.835  0.00  0.00     0.006 C 
ATOM     19  C4  <0> d   1      18.888  -0.238  14.747  0.00  0.00    -0.011 C 
ATOM     20  C24 <0> d   1      19.628   0.792  13.893  0.00  0.00     0.006 C 
ATOM     21  C23 <0> d   1      20.682   0.086  13.040  0.00  0.00     0.014 C 
BRANCH  19  22
ATOM     22  C2  <0> d   1      17.833   0.469  15.601  0.00  0.00    -0.019 C 
ATOM     23  C1  <0> d   1      17.293  -0.503  16.652  0.00  0.00     0.010 C 
ATOM     24  C3  <0> d   1      18.466   1.675  16.298  0.00  0.00     0.010 C 
ENDBRANCH  19  22
ENDBRANCH   1  16
TORSDOF 6
ENDMDL
