MODEL 1
REMARK VINA RESULT:      -8.0      0.000      0.000
REMARK  5 active torsions:
REMARK  status: ('A' for Active; 'I' for Inactive)
REMARK    1  A    between atoms: O2_2  and  C3_3 
REMARK    2  A    between atoms: C4_4  and  O5_5 
REMARK    3  A    between atoms: C12_12  and  N13_13 
REMARK       I    between atoms: N16_16  and  C17_17 
REMARK    4  A    between atoms: C17_17  and  C19_19 
REMARK    5  A    between atoms: C28_27  and  N29_28 
ROOT
ATOM      1  C3  ZIN A   1      17.794   2.898  11.526  0.00  0.00     0.103 A 
ATOM      2  C4  ZIN A   1      18.811   2.449  12.378  0.00  0.00     0.102 A 
ATOM      3  C7  ZIN A   1      19.666   1.459  11.984  0.00  0.00     0.057 A 
ATOM      4  C8  ZIN A   1      19.525   0.886  10.715  0.00  0.00     0.041 A 
ATOM      5  C9  ZIN A   1      18.499   1.335   9.847  0.00  0.00     0.077 A 
ATOM      6  C10 ZIN A   1      17.631   2.347  10.274  0.00  0.00     0.072 A 
ATOM      7  N11 ZIN A   1      18.383   0.768   8.636  0.00  0.00    -0.217 NA
ATOM      8  C12 ZIN A   1      19.212  -0.188   8.263  0.00  0.00     0.206 A 
ATOM      9  N27 ZIN A   1      20.189  -0.638   9.046  0.00  0.00    -0.200 NA
ATOM     10  C28 ZIN A   1      20.385  -0.144  10.260  0.00  0.00     0.137 A 
ENDROOT
BRANCH   8  11
ATOM     11  N13 ZIN A   1      19.060  -0.745   7.005  0.00  0.00    -0.248 NA
ATOM     12  C26 ZIN A   1      19.331  -2.188   7.033  0.00  0.00     0.118 C 
ATOM     13  C25 ZIN A   1      19.331  -2.732   5.601  0.00  0.00     0.140 C 
ATOM     14  N16 ZIN A   1      18.065  -2.349   4.956  0.00  0.00    -0.348 N 
ATOM     15  C15 ZIN A   1      17.658  -0.938   5.008  0.00  0.00     0.140 C 
ATOM     16  C17 ZIN A   1      17.300  -3.269   4.335  0.00  0.00     0.248 C 
ATOM     17  C14 ZIN A   1      17.724  -0.465   6.463  0.00  0.00     0.118 C 
ATOM     18  O18 ZIN A   1      16.221  -2.951   3.879  0.00  0.00    -0.270 OA
BRANCH  16  19
ATOM     19  C19 ZIN A   1      17.784  -4.689   4.206  0.00  0.00     0.213 C 
ATOM     20  O24 ZIN A   1      17.826  -5.078   2.824  0.00  0.00    -0.376 OA
ATOM     21  C23 ZIN A   1      17.439  -6.452   2.691  0.00  0.00     0.168 C 
ATOM     22  C22 ZIN A   1      17.084  -6.976   4.100  0.00  0.00     0.029 C 
ATOM     23  C21 ZIN A   1      16.779  -5.663   4.871  0.00  0.00     0.043 C 
ENDBRANCH  16  19
ENDBRANCH   8  11
BRANCH  10  24
ATOM     24  N29 ZIN A   1      21.401  -0.622  11.061  0.00  0.00    -0.383 N 
ATOM     25  H52 ZIN A   1      21.255  -0.740  12.012  0.00  0.00     0.157 HD
ATOM     26  H53 ZIN A   1      22.263  -0.839  10.672  0.00  0.00     0.157 HD
ENDBRANCH  10  24
BRANCH   1  27
ATOM     27  O2  ZIN A   1      16.956   3.884  11.940  0.00  0.00    -0.353 OA
ATOM     28  C1  ZIN A   1      16.815   5.019  11.083  0.00  0.00     0.210 C 
ENDBRANCH   1  27
BRANCH   2  29
ATOM     29  O5  ZIN A   1      18.950   3.005  13.611  0.00  0.00    -0.353 OA
ATOM     30  C6  ZIN A   1      18.760   2.146  14.737  0.00  0.00     0.210 C 
ENDBRANCH   2  29
TORSDOF 5
ENDMDL
MODEL 2
REMARK VINA RESULT:      -7.8      2.926      9.719
REMARK  5 active torsions:
REMARK  status: ('A' for Active; 'I' for Inactive)
REMARK    1  A    between atoms: O2_2  and  C3_3 
REMARK    2  A    between atoms: C4_4  and  O5_5 
REMARK    3  A    between atoms: C12_12  and  N13_13 
REMARK       I    between atoms: N16_16  and  C17_17 
REMARK    4  A    between atoms: C17_17  and  C19_19 
REMARK    5  A    between atoms: C28_27  and  N29_28 
ROOT
ATOM      1  C3  ZIN A   1      18.934  -2.894   6.636  0.00  0.00     0.103 A 
ATOM      2  C4  ZIN A   1      18.827  -1.679   5.946  0.00  0.00     0.102 A 
ATOM      3  C7  ZIN A   1      18.935  -0.489   6.608  0.00  0.00     0.057 A 
ATOM      4  C8  ZIN A   1      19.157  -0.481   7.990  0.00  0.00     0.041 A 
ATOM      5  C9  ZIN A   1      19.268  -1.705   8.694  0.00  0.00     0.077 A 
ATOM      6  C10 ZIN A   1      19.148  -2.913   7.997  0.00  0.00     0.072 A 
ATOM      7  N11 ZIN A   1      19.479  -1.672  10.019  0.00  0.00    -0.217 NA
ATOM      8  C12 ZIN A   1      19.582  -0.518  10.651  0.00  0.00     0.206 A 
ATOM      9  N27 ZIN A   1      19.484   0.654  10.028  0.00  0.00    -0.200 NA
ATOM     10  C28 ZIN A   1      19.276   0.726   8.721  0.00  0.00     0.137 A 
ENDROOT
BRANCH   8  11
ATOM     11  N13 ZIN A   1      19.801  -0.526  12.018  0.00  0.00    -0.248 NA
ATOM     12  C26 ZIN A   1      19.236   0.674  12.648  0.00  0.00     0.118 C 
ATOM     13  C25 ZIN A   1      19.654   0.717  14.122  0.00  0.00     0.140 C 
ATOM     14  N16 ZIN A   1      19.272  -0.556  14.753  0.00  0.00    -0.348 N 
ATOM     15  C15 ZIN A   1      19.685  -1.807  14.101  0.00  0.00     0.140 C 
ATOM     16  C17 ZIN A   1      18.562  -0.573  15.898  0.00  0.00     0.248 C 
ATOM     17  C14 ZIN A   1      19.266  -1.751  12.629  0.00  0.00     0.118 C 
ATOM     18  O18 ZIN A   1      18.186  -1.630  16.362  0.00  0.00    -0.270 OA
BRANCH  16  19
ATOM     19  C19 ZIN A   1      18.236   0.718  16.603  0.00  0.00     0.213 C 
ATOM     20  O24 ZIN A   1      19.389   1.208  17.304  0.00  0.00    -0.376 OA
ATOM     21  C23 ZIN A   1      18.989   1.812  18.541  0.00  0.00     0.168 C 
ATOM     22  C22 ZIN A   1      17.457   1.662  18.659  0.00  0.00     0.029 C 
ATOM     23  C21 ZIN A   1      17.166   0.478  17.698  0.00  0.00     0.043 C 
ENDBRANCH  16  19
ENDBRANCH   8  11
BRANCH  10  24
ATOM     24  N29 ZIN A   1      19.176   1.949   8.089  0.00  0.00    -0.383 N 
ATOM     25  H52 ZIN A   1      18.591   2.052   7.324  0.00  0.00     0.157 HD
ATOM     26  H53 ZIN A   1      19.691   2.704   8.412  0.00  0.00     0.157 HD
ENDBRANCH  10  24
BRANCH   1  27
ATOM     27  O2  ZIN A   1      18.823  -4.065   5.956  0.00  0.00    -0.353 OA
ATOM     28  C1  ZIN A   1      19.288  -5.245   6.616  0.00  0.00     0.210 C 
ENDBRANCH   1  27
BRANCH   2  29
ATOM     29  O5  ZIN A   1      18.612  -1.685   4.604  0.00  0.00    -0.353 OA
ATOM     30  C6  ZIN A   1      17.253  -1.649   4.163  0.00  0.00     0.210 C 
ENDBRANCH   2  29
TORSDOF 5
ENDMDL
MODEL 3
REMARK VINA RESULT:      -7.7      3.240      4.693
REMARK  5 active torsions:
REMARK  status: ('A' for Active; 'I' for Inactive)
REMARK    1  A    between atoms: O2_2  and  C3_3 
REMARK    2  A    between atoms: C4_4  and  O5_5 
REMARK    3  A    between atoms: C12_12  and  N13_13 
REMARK       I    between atoms: N16_16  and  C17_17 
REMARK    4  A    between atoms: C17_17  and  C19_19 
REMARK    5  A    between atoms: C28_27  and  N29_28 
ROOT
ATOM      1  C3  ZIN A   1      18.270   0.576  16.350  0.00  0.00     0.103 A 
ATOM      2  C4  ZIN A   1      19.044   1.625  15.837  0.00  0.00     0.102 A 
ATOM      3  C7  ZIN A   1      19.600   1.538  14.592  0.00  0.00     0.057 A 
ATOM      4  C8  ZIN A   1      19.395   0.390  13.819  0.00  0.00     0.041 A 
ATOM      5  C9  ZIN A   1      18.612  -0.675  14.331  0.00  0.00     0.077 A 
ATOM      6  C10 ZIN A   1      18.057  -0.567  15.611  0.00  0.00     0.072 A 
ATOM      7  N11 ZIN A   1      18.431  -1.766  13.571  0.00  0.00    -0.217 NA
ATOM      8  C12 ZIN A   1      18.972  -1.843  12.370  0.00  0.00     0.206 A 
ATOM      9  N27 ZIN A   1      19.713  -0.867  11.852  0.00  0.00    -0.200 NA
ATOM     10  C28 ZIN A   1      19.950   0.251  12.524  0.00  0.00     0.137 A 
ENDROOT
BRANCH   8  11
ATOM     11  N13 ZIN A   1      18.760  -2.985  11.618  0.00  0.00    -0.248 NA
ATOM     12  C26 ZIN A   1      17.987  -2.681  10.407  0.00  0.00     0.118 C 
ATOM     13  C25 ZIN A   1      17.619  -3.989   9.698  0.00  0.00     0.140 C 
ATOM     14  N16 ZIN A   1      18.851  -4.761   9.473  0.00  0.00    -0.348 N 
ATOM     15  C15 ZIN A   1      19.748  -4.988  10.616  0.00  0.00     0.140 C 
ATOM     16  C17 ZIN A   1      19.149  -5.246   8.252  0.00  0.00     0.248 C 
ATOM     17  C14 ZIN A   1      20.032  -3.641  11.288  0.00  0.00     0.118 C 
ATOM     18  O18 ZIN A   1      20.207  -5.810   8.065  0.00  0.00    -0.270 OA
BRANCH  16  19
ATOM     19  C19 ZIN A   1      18.169  -5.088   7.118  0.00  0.00     0.213 C 
ATOM     20  O24 ZIN A   1      17.982  -6.342   6.443  0.00  0.00    -0.376 OA
ATOM     21  C23 ZIN A   1      17.828  -6.121   5.035  0.00  0.00     0.168 C 
ATOM     22  C22 ZIN A   1      17.965  -4.603   4.784  0.00  0.00     0.029 C 
ATOM     23  C21 ZIN A   1      18.740  -4.129   6.043  0.00  0.00     0.043 C 
ENDBRANCH  16  19
ENDBRANCH   8  11
BRANCH  10  24
ATOM     24  N29 ZIN A   1      20.722   1.255  11.974  0.00  0.00    -0.383 N 
ATOM     25  H52 ZIN A   1      20.737   1.384  11.014  0.00  0.00     0.157 HD
ATOM     26  H53 ZIN A   1      21.247   1.831  12.550  0.00  0.00     0.157 HD
ENDBRANCH  10  24
BRANCH   1  27
ATOM     27  O2  ZIN A   1      17.727   0.686  17.591  0.00  0.00    -0.353 OA
ATOM     28  C1  ZIN A   1      18.458   0.106  18.673  0.00  0.00     0.210 C 
ENDBRANCH   1  27
BRANCH   2  29
ATOM     29  O5  ZIN A   1      19.245   2.742  16.587  0.00  0.00    -0.353 OA
ATOM     30  C6  ZIN A   1      18.616   3.945  16.140  0.00  0.00     0.210 C 
ENDBRANCH   2  29
TORSDOF 5
ENDMDL
MODEL 4
REMARK VINA RESULT:      -7.6      2.947     10.035
REMARK  5 active torsions:
REMARK  status: ('A' for Active; 'I' for Inactive)
REMARK    1  A    between atoms: O2_2  and  C3_3 
REMARK    2  A    between atoms: C4_4  and  O5_5 
REMARK    3  A    between atoms: C12_12  and  N13_13 
REMARK       I    between atoms: N16_16  and  C17_17 
REMARK    4  A    between atoms: C17_17  and  C19_19 
REMARK    5  A    between atoms: C28_27  and  N29_28 
ROOT
ATOM      1  C3  ZIN A   1      18.388  -0.726   6.600  0.00  0.00     0.103 A 
ATOM      2  C4  ZIN A   1      19.113  -1.803   7.126  0.00  0.00     0.102 A 
ATOM      3  C7  ZIN A   1      19.627  -1.748   8.391  0.00  0.00     0.057 A 
ATOM      4  C8  ZIN A   1      19.428  -0.603   9.170  0.00  0.00     0.041 A 
ATOM      5  C9  ZIN A   1      18.696   0.490   8.646  0.00  0.00     0.077 A 
ATOM      6  C10 ZIN A   1      18.182   0.414   7.346  0.00  0.00     0.072 A 
ATOM      7  N11 ZIN A   1      18.520   1.578   9.413  0.00  0.00    -0.217 NA
ATOM      8  C12 ZIN A   1      19.021   1.624  10.633  0.00  0.00     0.206 A 
ATOM      9  N27 ZIN A   1      19.714   0.620  11.163  0.00  0.00    -0.200 NA
ATOM     10  C28 ZIN A   1      19.942  -0.496  10.486  0.00  0.00     0.137 A 
ENDROOT
BRANCH   8  11
ATOM     11  N13 ZIN A   1      18.816   2.763  11.392  0.00  0.00    -0.248 NA
ATOM     12  C26 ZIN A   1      17.991   2.468  12.571  0.00  0.00     0.118 C 
ATOM     13  C25 ZIN A   1      17.637   3.778  13.283  0.00  0.00     0.140 C 
ATOM     14  N16 ZIN A   1      18.883   4.509  13.562  0.00  0.00    -0.348 N 
ATOM     15  C15 ZIN A   1      19.827   4.723  12.455  0.00  0.00     0.140 C 
ATOM     16  C17 ZIN A   1      19.151   4.970  14.800  0.00  0.00     0.248 C 
ATOM     17  C14 ZIN A   1      20.095   3.376  11.776  0.00  0.00     0.118 C 
ATOM     18  O18 ZIN A   1      20.218   5.499  15.031  0.00  0.00    -0.270 OA
BRANCH  16  19
ATOM     19  C19 ZIN A   1      18.126   4.829  15.895  0.00  0.00     0.213 C 
ATOM     20  O24 ZIN A   1      17.840   6.110  16.478  0.00  0.00    -0.376 OA
ATOM     21  C23 ZIN A   1      17.629   5.969  17.889  0.00  0.00     0.168 C 
ATOM     22  C22 ZIN A   1      17.834   4.480  18.245  0.00  0.00     0.029 C 
ATOM     23  C21 ZIN A   1      18.694   3.973  17.055  0.00  0.00     0.043 C 
ENDBRANCH  16  19
ENDBRANCH   8  11
BRANCH  10  24
ATOM     24  N29 ZIN A   1      20.664  -1.529  11.049  0.00  0.00    -0.383 N 
ATOM     25  H52 ZIN A   1      20.345  -1.959  11.857  0.00  0.00     0.157 HD
ATOM     26  H53 ZIN A   1      21.490  -1.824  10.635  0.00  0.00     0.157 HD
ENDBRANCH  10  24
BRANCH   1  27
ATOM     27  O2  ZIN A   1      17.886  -0.804   5.340  0.00  0.00    -0.353 OA
ATOM     28  C1  ZIN A   1      18.613  -0.135   4.309  0.00  0.00     0.210 C 
ENDBRANCH   1  27
BRANCH   2  29
ATOM     29  O5  ZIN A   1      19.306  -2.917   6.370  0.00  0.00    -0.353 OA
ATOM     30  C6  ZIN A   1      19.991  -4.009   6.985  0.00  0.00     0.210 C 
ENDBRANCH   2  29
TORSDOF 5
ENDMDL
MODEL 5
REMARK VINA RESULT:      -7.6      2.605      3.018
REMARK  5 active torsions:
REMARK  status: ('A' for Active; 'I' for Inactive)
REMARK    1  A    between atoms: O2_2  and  C3_3 
REMARK    2  A    between atoms: C4_4  and  O5_5 
REMARK    3  A    between atoms: C12_12  and  N13_13 
REMARK       I    between atoms: N16_16  and  C17_17 
REMARK    4  A    between atoms: C17_17  and  C19_19 
REMARK    5  A    between atoms: C28_27  and  N29_28 
ROOT
ATOM      1  C3  ZIN A   1      17.587   2.568  11.855  0.00  0.00     0.103 A 
ATOM      2  C4  ZIN A   1      18.020   2.329  13.166  0.00  0.00     0.102 A 
ATOM      3  C7  ZIN A   1      18.607   1.142  13.502  0.00  0.00     0.057 A 
ATOM      4  C8  ZIN A   1      18.779   0.153  12.526  0.00  0.00     0.041 A 
ATOM      5  C9  ZIN A   1      18.344   0.388  11.199  0.00  0.00     0.077 A 
ATOM      6  C10 ZIN A   1      17.741   1.609  10.878  0.00  0.00     0.072 A 
ATOM      7  N11 ZIN A   1      18.519  -0.577  10.282  0.00  0.00    -0.217 NA
ATOM      8  C12 ZIN A   1      19.086  -1.721  10.614  0.00  0.00     0.206 A 
ATOM      9  N27 ZIN A   1      19.508  -1.982  11.849  0.00  0.00    -0.200 NA
ATOM     10  C28 ZIN A   1      19.380  -1.095  12.825  0.00  0.00     0.137 A 
ENDROOT
BRANCH   8  11
ATOM     11  N13 ZIN A   1      19.249  -2.690   9.639  0.00  0.00    -0.248 NA
ATOM     12  C26 ZIN A   1      18.878  -4.017  10.148  0.00  0.00     0.118 C 
ATOM     13  C25 ZIN A   1      19.241  -5.080   9.107  0.00  0.00     0.140 C 
ATOM     14  N16 ZIN A   1      18.621  -4.709   7.825  0.00  0.00    -0.348 N 
ATOM     15  C15 ZIN A   1      18.835  -3.346   7.317  0.00  0.00     0.140 C 
ATOM     16  C17 ZIN A   1      17.876  -5.596   7.136  0.00  0.00     0.248 C 
ATOM     17  C14 ZIN A   1      18.488  -2.351   8.429  0.00  0.00     0.118 C 
ATOM     18  O18 ZIN A   1      17.306  -5.250   6.122  0.00  0.00    -0.270 OA
BRANCH  16  19
ATOM     19  C19 ZIN A   1      17.753  -7.016   7.623  0.00  0.00     0.213 C 
ATOM     20  O24 ZIN A   1      18.099  -7.935   6.574  0.00  0.00    -0.376 OA
ATOM     21  C23 ZIN A   1      17.257  -9.093   6.641  0.00  0.00     0.168 C 
ATOM     22  C22 ZIN A   1      16.264  -8.882   7.805  0.00  0.00     0.029 C 
ATOM     23  C21 ZIN A   1      16.278  -7.338   7.973  0.00  0.00     0.043 C 
ENDBRANCH  16  19
ENDBRANCH   8  11
BRANCH  10  24
ATOM     24  N29 ZIN A   1      19.822  -1.379  14.101  0.00  0.00    -0.383 N 
ATOM     25  H52 ZIN A   1      20.336  -0.723  14.594  0.00  0.00     0.157 HD
ATOM     26  H53 ZIN A   1      19.617  -2.237  14.503  0.00  0.00     0.157 HD
ENDBRANCH  10  24
BRANCH   1  27
ATOM     27  O2  ZIN A   1      17.007   3.757  11.545  0.00  0.00    -0.353 OA
ATOM     28  C1  ZIN A   1      17.530   4.460  10.417  0.00  0.00     0.210 C 
ENDBRANCH   1  27
BRANCH   2  29
ATOM     29  O5  ZIN A   1      17.854   3.289  14.115  0.00  0.00    -0.353 OA
ATOM     30  C6  ZIN A   1      18.673   3.197  15.282  0.00  0.00     0.210 C 
ENDBRANCH   2  29
TORSDOF 5
ENDMDL
MODEL 6
REMARK VINA RESULT:      -7.6      3.273      4.946
REMARK  5 active torsions:
REMARK  status: ('A' for Active; 'I' for Inactive)
REMARK    1  A    between atoms: O2_2  and  C3_3 
REMARK    2  A    between atoms: C4_4  and  O5_5 
REMARK    3  A    between atoms: C12_12  and  N13_13 
REMARK       I    between atoms: N16_16  and  C17_17 
REMARK    4  A    between atoms: C17_17  and  C19_19 
REMARK    5  A    between atoms: C28_27  and  N29_28 
ROOT
ATOM      1  C3  ZIN A   1      18.871   3.472  15.553  0.00  0.00     0.103 A 
ATOM      2  C4  ZIN A   1      19.178   2.643  16.640  0.00  0.00     0.102 A 
ATOM      3  C7  ZIN A   1      19.115   1.283  16.520  0.00  0.00     0.057 A 
ATOM      4  C8  ZIN A   1      18.741   0.711  15.298  0.00  0.00     0.041 A 
ATOM      5  C9  ZIN A   1      18.430   1.544  14.195  0.00  0.00     0.077 A 
ATOM      6  C10 ZIN A   1      18.495   2.934  14.342  0.00  0.00     0.072 A 
ATOM      7  N11 ZIN A   1      18.072   0.971  13.035  0.00  0.00    -0.217 NA
ATOM      8  C12 ZIN A   1      18.013  -0.343  12.927  0.00  0.00     0.206 A 
ATOM      9  N27 ZIN A   1      18.297  -1.160  13.938  0.00  0.00    -0.200 NA
ATOM     10  C28 ZIN A   1      18.660  -0.692  15.124  0.00  0.00     0.137 A 
ENDROOT
BRANCH   8  11
ATOM     11  N13 ZIN A   1      17.641  -0.893  11.714  0.00  0.00    -0.248 NA
ATOM     12  C26 ZIN A   1      17.669   0.116  10.647  0.00  0.00     0.118 C 
ATOM     13  C25 ZIN A   1      17.080  -0.483   9.366  0.00  0.00     0.140 C 
ATOM     14  N16 ZIN A   1      17.799  -1.730   9.061  0.00  0.00    -0.348 N 
ATOM     15  C15 ZIN A   1      17.932  -2.735  10.126  0.00  0.00     0.140 C 
ATOM     16  C17 ZIN A   1      18.321  -1.946   7.837  0.00  0.00     0.248 C 
ATOM     17  C14 ZIN A   1      18.486  -2.047  11.378  0.00  0.00     0.118 C 
ATOM     18  O18 ZIN A   1      18.979  -2.943   7.626  0.00  0.00    -0.270 OA
BRANCH  16  19
ATOM     19  C19 ZIN A   1      18.087  -0.949   6.732  0.00  0.00     0.213 C 
ATOM     20  O24 ZIN A   1      18.021  -1.619   5.463  0.00  0.00    -0.376 OA
ATOM     21  C23 ZIN A   1      18.634  -0.810   4.451  0.00  0.00     0.168 C 
ATOM     22  C22 ZIN A   1      19.170   0.467   5.135  0.00  0.00     0.029 C 
ATOM     23  C21 ZIN A   1      19.291   0.020   6.617  0.00  0.00     0.043 C 
ENDBRANCH  16  19
ENDBRANCH   8  11
BRANCH  10  24
ATOM     24  N29 ZIN A   1      18.950  -1.552  16.163  0.00  0.00    -0.383 N 
ATOM     25  H52 ZIN A   1      19.535  -1.265  16.881  0.00  0.00     0.157 HD
ATOM     26  H53 ZIN A   1      18.568  -2.443  16.176  0.00  0.00     0.157 HD
ENDBRANCH  10  24
BRANCH   1  27
ATOM     27  O2  ZIN A   1      18.941   4.821  15.696  0.00  0.00    -0.353 OA
ATOM     28  C1  ZIN A   1      19.980   5.497  14.985  0.00  0.00     0.210 C 
ENDBRANCH   1  27
BRANCH   2  29
ATOM     29  O5  ZIN A   1      19.542   3.197  17.827  0.00  0.00    -0.353 OA
ATOM     30  C6  ZIN A   1      18.529   3.313  18.828  0.00  0.00     0.210 C 
ENDBRANCH   2  29
TORSDOF 5
ENDMDL
MODEL 7
REMARK VINA RESULT:      -7.6      2.920      3.972
REMARK  5 active torsions:
REMARK  status: ('A' for Active; 'I' for Inactive)
REMARK    1  A    between atoms: O2_2  and  C3_3 
REMARK    2  A    between atoms: C4_4  and  O5_5 
REMARK    3  A    between atoms: C12_12  and  N13_13 
REMARK       I    between atoms: N16_16  and  C17_17 
REMARK    4  A    between atoms: C17_17  and  C19_19 
REMARK    5  A    between atoms: C28_27  and  N29_28 
ROOT
ATOM      1  C3  ZIN A   1      18.997  -0.404  15.108  0.00  0.00     0.103 A 
ATOM      2  C4  ZIN A   1      19.157   0.939  14.745  0.00  0.00     0.102 A 
ATOM      3  C7  ZIN A   1      19.363   1.290  13.441  0.00  0.00     0.057 A 
ATOM      4  C8  ZIN A   1      19.415   0.298  12.455  0.00  0.00     0.041 A 
ATOM      5  C9  ZIN A   1      19.254  -1.063  12.815  0.00  0.00     0.077 A 
ATOM      6  C10 ZIN A   1      19.049  -1.401  14.158  0.00  0.00     0.072 A 
ATOM      7  N11 ZIN A   1      19.309  -1.997  11.852  0.00  0.00    -0.217 NA
ATOM      8  C12 ZIN A   1      19.509  -1.650  10.595  0.00  0.00     0.206 A 
ATOM      9  N27 ZIN A   1      19.665  -0.384  10.215  0.00  0.00    -0.200 NA
ATOM     10  C28 ZIN A   1      19.627   0.610  11.090  0.00  0.00     0.137 A 
ENDROOT
BRANCH   8  11
ATOM     11  N13 ZIN A   1      19.558  -2.643   9.632  0.00  0.00    -0.248 NA
ATOM     12  C26 ZIN A   1      19.119  -3.932  10.182  0.00  0.00     0.118 C 
ATOM     13  C25 ZIN A   1      19.359  -5.034   9.146  0.00  0.00     0.140 C 
ATOM     14  N16 ZIN A   1      18.707  -4.640   7.887  0.00  0.00    -0.348 N 
ATOM     15  C15 ZIN A   1      18.992  -3.304   7.344  0.00  0.00     0.140 C 
ATOM     16  C17 ZIN A   1      17.871  -5.483   7.249  0.00  0.00     0.248 C 
ATOM     17  C14 ZIN A   1      18.767  -2.270   8.451  0.00  0.00     0.118 C 
ATOM     18  O18 ZIN A   1      17.279  -5.114   6.256  0.00  0.00    -0.270 OA
BRANCH  16  19
ATOM     19  C19 ZIN A   1      17.671  -6.883   7.768  0.00  0.00     0.213 C 
ATOM     20  O24 ZIN A   1      18.166  -7.842   6.820  0.00  0.00    -0.376 OA
ATOM     21  C23 ZIN A   1      17.319  -8.998   6.806  0.00  0.00     0.168 C 
ATOM     22  C22 ZIN A   1      16.165  -8.744   7.800  0.00  0.00     0.029 C 
ATOM     23  C21 ZIN A   1      16.159  -7.194   7.908  0.00  0.00     0.043 C 
ENDBRANCH  16  19
ENDBRANCH   8  11
BRANCH  10  24
ATOM     24  N29 ZIN A   1      19.791   1.917  10.681  0.00  0.00    -0.383 N 
ATOM     25  H52 ZIN A   1      19.875   2.124   9.738  0.00  0.00     0.157 HD
ATOM     26  H53 ZIN A   1      19.823   2.630  11.339  0.00  0.00     0.157 HD
ENDBRANCH  10  24
BRANCH   1  27
ATOM     27  O2  ZIN A   1      18.793  -0.729  16.412  0.00  0.00    -0.353 OA
ATOM     28  C1  ZIN A   1      17.448  -0.997  16.811  0.00  0.00     0.210 C 
ENDBRANCH   1  27
BRANCH   2  29
ATOM     29  O5  ZIN A   1      19.106   1.905  15.701  0.00  0.00    -0.353 OA
ATOM     30  C6  ZIN A   1      18.494   3.145  15.340  0.00  0.00     0.210 C 
ENDBRANCH   2  29
TORSDOF 5
ENDMDL
MODEL 8
REMARK VINA RESULT:      -7.6      2.519      9.483
REMARK  5 active torsions:
REMARK  status: ('A' for Active; 'I' for Inactive)
REMARK    1  A    between atoms: O2_2  and  C3_3 
REMARK    2  A    between atoms: C4_4  and  O5_5 
REMARK    3  A    between atoms: C12_12  and  N13_13 
REMARK       I    between atoms: N16_16  and  C17_17 
REMARK    4  A    between atoms: C17_17  and  C19_19 
REMARK    5  A    between atoms: C28_27  and  N29_28 
ROOT
ATOM      1  C3  ZIN A   1      19.284  -1.984   5.810  0.00  0.00     0.103 A 
ATOM      2  C4  ZIN A   1      18.700  -3.254   5.710  0.00  0.00     0.102 A 
ATOM      3  C7  ZIN A   1      18.368  -3.960   6.832  0.00  0.00     0.057 A 
ATOM      4  C8  ZIN A   1      18.614  -3.409   8.095  0.00  0.00     0.041 A 
ATOM      5  C9  ZIN A   1      19.204  -2.126   8.203  0.00  0.00     0.077 A 
ATOM      6  C10 ZIN A   1      19.540  -1.423   7.041  0.00  0.00     0.072 A 
ATOM      7  N11 ZIN A   1      19.430  -1.620   9.426  0.00  0.00    -0.217 NA
ATOM      8  C12 ZIN A   1      19.108  -2.309  10.505  0.00  0.00     0.206 A 
ATOM      9  N27 ZIN A   1      18.553  -3.516  10.448  0.00  0.00    -0.200 NA
ATOM     10  C28 ZIN A   1      18.289  -4.101   9.288  0.00  0.00     0.137 A 
ENDROOT
BRANCH   8  11
ATOM     11  N13 ZIN A   1      19.357  -1.752  11.747  0.00  0.00    -0.248 NA
ATOM     12  C26 ZIN A   1      19.673  -0.322  11.629  0.00  0.00     0.118 C 
ATOM     13  C25 ZIN A   1      20.118   0.214  12.993  0.00  0.00     0.140 C 
ATOM     14  N16 ZIN A   1      19.081  -0.115  13.984  0.00  0.00    -0.348 N 
ATOM     15  C15 ZIN A   1      18.613  -1.506  14.067  0.00  0.00     0.140 C 
ATOM     16  C17 ZIN A   1      18.574   0.835  14.795  0.00  0.00     0.248 C 
ATOM     17  C14 ZIN A   1      18.228  -1.974  12.660  0.00  0.00     0.118 C 
ATOM     18  O18 ZIN A   1      17.664   0.565  15.550  0.00  0.00    -0.270 OA
BRANCH  16  19
ATOM     19  C19 ZIN A   1      19.138   2.232  14.764  0.00  0.00     0.213 C 
ATOM     20  O24 ZIN A   1      19.467   2.666  16.093  0.00  0.00    -0.376 OA
ATOM     21  C23 ZIN A   1      19.176   4.063  16.237  0.00  0.00     0.168 C 
ATOM     22  C22 ZIN A   1      18.576   4.554  14.902  0.00  0.00     0.029 C 
ATOM     23  C21 ZIN A   1      18.067   3.234  14.263  0.00  0.00     0.043 C 
ENDBRANCH  16  19
ENDBRANCH   8  11
BRANCH  10  24
ATOM     24  N29 ZIN A   1      17.714  -5.355   9.244  0.00  0.00    -0.383 N 
ATOM     25  H52 ZIN A   1      17.368  -5.700   8.407  0.00  0.00     0.157 HD
ATOM     26  H53 ZIN A   1      17.658  -5.890  10.050  0.00  0.00     0.157 HD
ENDBRANCH  10  24
BRANCH   1  27
ATOM     27  O2  ZIN A   1      19.604  -1.301   4.679  0.00  0.00    -0.353 OA
ATOM     28  C1  ZIN A   1      18.848  -0.122   4.397  0.00  0.00     0.210 C 
ENDBRANCH   1  27
BRANCH   2  29
ATOM     29  O5  ZIN A   1      18.460  -3.790   4.483  0.00  0.00    -0.353 OA
ATOM     30  C6  ZIN A   1      17.102  -3.812   4.038  0.00  0.00     0.210 C 
ENDBRANCH   2  29
TORSDOF 5
ENDMDL
MODEL 9
REMARK VINA RESULT:      -7.5      3.125      9.842
REMARK  5 active torsions:
REMARK  status: ('A' for Active; 'I' for Inactive)
REMARK    1  A    between atoms: O2_2  and  C3_3 
REMARK    2  A    between atoms: C4_4  and  O5_5 
REMARK    3  A    between atoms: C12_12  and  N13_13 
REMARK       I    between atoms: N16_16  and  C17_17 
REMARK    4  A    between atoms: C17_17  and  C19_19 
REMARK    5  A    between atoms: C28_27  and  N29_28 
ROOT
ATOM      1  C3  ZIN A   1      18.790  -2.760   9.594  0.00  0.00     0.103 A 
ATOM      2  C4  ZIN A   1      18.805  -2.740   8.193  0.00  0.00     0.102 A 
ATOM      3  C7  ZIN A   1      18.844  -1.556   7.512  0.00  0.00     0.057 A 
ATOM      4  C8  ZIN A   1      18.868  -0.350   8.220  0.00  0.00     0.041 A 
ATOM      5  C9  ZIN A   1      18.854  -0.362   9.637  0.00  0.00     0.077 A 
ATOM      6  C10 ZIN A   1      18.809  -1.586  10.314  0.00  0.00     0.072 A 
ATOM      7  N11 ZIN A   1      18.877   0.809  10.294  0.00  0.00    -0.217 NA
ATOM      8  C12 ZIN A   1      18.912   1.948   9.629  0.00  0.00     0.206 A 
ATOM      9  N27 ZIN A   1      18.927   2.004   8.299  0.00  0.00    -0.200 NA
ATOM     10  C28 ZIN A   1      18.907   0.904   7.561  0.00  0.00     0.137 A 
ENDROOT
BRANCH   8  11
ATOM     11  N13 ZIN A   1      18.936   3.133  10.343  0.00  0.00    -0.248 NA
ATOM     12  C26 ZIN A   1      17.575   3.587  10.654  0.00  0.00     0.118 C 
ATOM     13  C25 ZIN A   1      17.636   4.984  11.281  0.00  0.00     0.140 C 
ATOM     14  N16 ZIN A   1      18.555   4.940  12.429  0.00  0.00    -0.348 N 
ATOM     15  C15 ZIN A   1      19.895   4.369  12.227  0.00  0.00     0.140 C 
ATOM     16  C17 ZIN A   1      18.178   5.410  13.635  0.00  0.00     0.248 C 
ATOM     17  C14 ZIN A   1      19.744   2.996  11.562  0.00  0.00     0.118 C 
ATOM     18  O18 ZIN A   1      18.917   5.293  14.589  0.00  0.00    -0.270 OA
BRANCH  16  19
ATOM     19  C19 ZIN A   1      16.839   6.083  13.796  0.00  0.00     0.213 C 
ATOM     20  O24 ZIN A   1      17.015   7.473  14.110  0.00  0.00    -0.376 OA
ATOM     21  C23 ZIN A   1      16.008   7.895  15.039  0.00  0.00     0.168 C 
ATOM     22  C22 ZIN A   1      15.139   6.664  15.376  0.00  0.00     0.029 C 
ATOM     23  C21 ZIN A   1      16.080   5.485  15.007  0.00  0.00     0.043 C 
ENDBRANCH  16  19
ENDBRANCH   8  11
BRANCH  10  24
ATOM     24  N29 ZIN A   1      18.922   0.977   6.183  0.00  0.00    -0.383 N 
ATOM     25  H52 ZIN A   1      18.553   0.254   5.655  0.00  0.00     0.157 HD
ATOM     26  H53 ZIN A   1      19.301   1.754   5.744  0.00  0.00     0.157 HD
ENDBRANCH  10  24
BRANCH   1  27
ATOM     27  O2  ZIN A   1      18.752  -3.950  10.249  0.00  0.00    -0.353 OA
ATOM     28  C1  ZIN A   1      19.822  -4.227  11.154  0.00  0.00     0.210 C 
ENDBRANCH   1  27
BRANCH   2  29
ATOM     29  O5  ZIN A   1      18.782  -3.912   7.503  0.00  0.00    -0.353 OA
ATOM     30  C6  ZIN A   1      19.993  -4.311   6.859  0.00  0.00     0.210 C 
ENDBRANCH   2  29
TORSDOF 5
ENDMDL
