MODEL 1
REMARK VINA RESULT:      -4.6      0.000      0.000
REMARK  9 active torsions:
REMARK  status: ('A' for Active; 'I' for Inactive)
REMARK    1  A    between atoms: C2_2  and  C3_3 
REMARK    2  A    between atoms: C3_3  and  C6_5 
REMARK    3  A    between atoms: C6_5  and  O8_6 
REMARK    4  A    between atoms: C6_5  and  C9_7 
REMARK    5  A    between atoms: C9_7  and  O11_8 
REMARK    6  A    between atoms: C9_7  and  C12_9 
REMARK    7  A    between atoms: C12_9  and  O14_10 
REMARK    8  A    between atoms: C12_9  and  C15_11 
REMARK    9  A    between atoms: C15_11  and  O16_12 
ROOT
ATOM      1  C9  ZIN A   1      19.303  -1.447  10.497  0.00  0.00     0.180 C 
ENDROOT
BRANCH   1   2
ATOM      2  C6  ZIN A   1      19.659  -2.347  11.682  0.00  0.00     0.190 C 
BRANCH   2   3
ATOM      3  C3  ZIN A   1      18.463  -3.240  12.021  0.00  0.00     0.262 C 
ATOM      4  F5  ZIN A   1      17.309  -2.723  11.419  0.00  0.00    -0.239 F 
BRANCH   3   5
ATOM      5  C2  ZIN A   1      18.715  -4.633  11.505  0.00  0.00     0.271 C 
ATOM      6  O1  ZIN A   1      18.650  -4.861  10.322  0.00  0.00    -0.304 OA
ENDBRANCH   3   5
ENDBRANCH   2   3
BRANCH   2   7
ATOM      7  O8  ZIN A   1      20.781  -3.163  11.340  0.00  0.00    -0.390 OA
ATOM      8  H18 ZIN A   1      20.896  -3.294  10.389  0.00  0.00     0.210 HD
ENDBRANCH   2   7
ENDBRANCH   1   2
BRANCH   1   9
ATOM      9  O11 ZIN A   1      19.524  -2.156   9.276  0.00  0.00    -0.390 OA
ATOM     10  H19 ZIN A   1      20.387  -1.987   8.873  0.00  0.00     0.210 HD
ENDBRANCH   1   9
BRANCH   1  11
ATOM     11  C12 ZIN A   1      20.182  -0.195  10.525  0.00  0.00     0.173 C 
BRANCH  11  12
ATOM     12  O14 ZIN A   1      21.469  -0.505   9.985  0.00  0.00    -0.391 OA
ATOM     13  H20 ZIN A   1      21.611  -0.168   9.090  0.00  0.00     0.210 HD
ENDBRANCH  11  12
BRANCH  11  14
ATOM     14  C15 ZIN A   1      20.338   0.285  11.969  0.00  0.00     0.198 C 
BRANCH  14  15
ATOM     15  O16 ZIN A   1      21.703   0.634  12.210  0.00  0.00    -0.398 OA
ATOM     16  H23 ZIN A   1      21.978   1.460  11.790  0.00  0.00     0.209 HD
ENDBRANCH  14  15
ENDBRANCH  11  14
ENDBRANCH   1  11
TORSDOF 9
ENDMDL
MODEL 2
REMARK VINA RESULT:      -4.6      3.088      5.668
REMARK  9 active torsions:
REMARK  status: ('A' for Active; 'I' for Inactive)
REMARK    1  A    between atoms: C2_2  and  C3_3 
REMARK    2  A    between atoms: C3_3  and  C6_5 
REMARK    3  A    between atoms: C6_5  and  O8_6 
REMARK    4  A    between atoms: C6_5  and  C9_7 
REMARK    5  A    between atoms: C9_7  and  O11_8 
REMARK    6  A    between atoms: C9_7  and  C12_9 
REMARK    7  A    between atoms: C12_9  and  O14_10 
REMARK    8  A    between atoms: C12_9  and  C15_11 
REMARK    9  A    between atoms: C15_11  and  O16_12 
ROOT
ATOM      1  C9  ZIN A   1      19.472   1.379  12.334  0.00  0.00     0.180 C 
ENDROOT
BRANCH   1   2
ATOM      2  C6  ZIN A   1      19.698   2.464  11.279  0.00  0.00     0.190 C 
BRANCH   2   3
ATOM      3  C3  ZIN A   1      18.432   3.312  11.141  0.00  0.00     0.262 C 
ATOM      4  F5  ZIN A   1      17.347   2.625  11.700  0.00  0.00    -0.239 F 
BRANCH   3   5
ATOM      5  C2  ZIN A   1      18.623   4.620  11.864  0.00  0.00     0.271 C 
ATOM      6  O1  ZIN A   1      18.608   4.652  13.071  0.00  0.00    -0.304 OA
ENDBRANCH   3   5
ENDBRANCH   2   3
BRANCH   2   7
ATOM      7  O8  ZIN A   1      20.789   3.297  11.679  0.00  0.00    -0.390 OA
ATOM      8  H18 ZIN A   1      20.779   3.532  12.617  0.00  0.00     0.210 HD
ENDBRANCH   2   7
ENDBRANCH   1   2
BRANCH   1   9
ATOM      9  O11 ZIN A   1      19.758   1.905  13.630  0.00  0.00    -0.390 OA
ATOM     10  H19 ZIN A   1      18.973   2.113  14.154  0.00  0.00     0.210 HD
ENDBRANCH   1   9
BRANCH   1  11
ATOM     11  C12 ZIN A   1      20.396   0.192  12.050  0.00  0.00     0.173 C 
BRANCH  11  12
ATOM     12  O14 ZIN A   1      21.757   0.606  12.187  0.00  0.00    -0.391 OA
ATOM     13  H20 ZIN A   1      22.293   0.022  12.740  0.00  0.00     0.210 HD
ENDBRANCH  11  12
BRANCH  11  14
ATOM     14  C15 ZIN A   1      20.157  -0.312  10.626  0.00  0.00     0.198 C 
BRANCH  14  15
ATOM     15  O16 ZIN A   1      21.413  -0.484   9.965  0.00  0.00    -0.398 OA
ATOM     16  H23 ZIN A   1      21.832  -1.338  10.133  0.00  0.00     0.209 HD
ENDBRANCH  14  15
ENDBRANCH  11  14
ENDBRANCH   1  11
TORSDOF 9
ENDMDL
MODEL 3
REMARK VINA RESULT:      -4.5      3.980      5.750
REMARK  9 active torsions:
REMARK  status: ('A' for Active; 'I' for Inactive)
REMARK    1  A    between atoms: C2_2  and  C3_3 
REMARK    2  A    between atoms: C3_3  and  C6_5 
REMARK    3  A    between atoms: C6_5  and  O8_6 
REMARK    4  A    between atoms: C6_5  and  C9_7 
REMARK    5  A    between atoms: C9_7  and  O11_8 
REMARK    6  A    between atoms: C9_7  and  C12_9 
REMARK    7  A    between atoms: C12_9  and  O14_10 
REMARK    8  A    between atoms: C12_9  and  C15_11 
REMARK    9  A    between atoms: C15_11  and  O16_12 
ROOT
ATOM      1  C9  ZIN A   1      19.694   1.842  11.562  0.00  0.00     0.180 C 
ENDROOT
BRANCH   1   2
ATOM      2  C6  ZIN A   1      18.296   2.347  11.922  0.00  0.00     0.190 C 
BRANCH   2   3
ATOM      3  C3  ZIN A   1      18.322   3.872  12.047  0.00  0.00     0.262 C 
ATOM      4  F5  ZIN A   1      19.642   4.326  11.949  0.00  0.00    -0.239 F 
BRANCH   3   5
ATOM      5  C2  ZIN A   1      17.499   4.481  10.941  0.00  0.00     0.271 C 
ATOM      6  O1  ZIN A   1      16.313   4.646  11.090  0.00  0.00    -0.304 OA
ENDBRANCH   3   5
ENDBRANCH   2   3
BRANCH   2   7
ATOM      7  O8  ZIN A   1      17.375   1.968  10.897  0.00  0.00    -0.390 OA
ATOM      8  H18 ZIN A   1      16.647   1.413  11.208  0.00  0.00     0.210 HD
ENDBRANCH   2   7
ENDBRANCH   1   2
BRANCH   1   9
ATOM      9  O11 ZIN A   1      19.830   1.783  10.141  0.00  0.00    -0.390 OA
ATOM     10  H19 ZIN A   1      19.149   1.255   9.702  0.00  0.00     0.210 HD
ENDBRANCH   1   9
BRANCH   1  11
ATOM     11  C12 ZIN A   1      19.899   0.445  12.152  0.00  0.00     0.173 C 
BRANCH  11  12
ATOM     12  O14 ZIN A   1      20.943   0.488  13.127  0.00  0.00    -0.391 OA
ATOM     13  H20 ZIN A   1      20.640   0.703  14.019  0.00  0.00     0.210 HD
ENDBRANCH  11  12
BRANCH  11  14
ATOM     14  C15 ZIN A   1      20.284  -0.528  11.036  0.00  0.00     0.198 C 
BRANCH  14  15
ATOM     15  O16 ZIN A   1      21.708  -0.575  10.915  0.00  0.00    -0.398 OA
ATOM     16  H23 ZIN A   1      22.101   0.240  10.577  0.00  0.00     0.209 HD
ENDBRANCH  14  15
ENDBRANCH  11  14
ENDBRANCH   1  11
TORSDOF 9
ENDMDL
MODEL 4
REMARK VINA RESULT:      -4.4      3.622      4.540
REMARK  9 active torsions:
REMARK  status: ('A' for Active; 'I' for Inactive)
REMARK    1  A    between atoms: C2_2  and  C3_3 
REMARK    2  A    between atoms: C3_3  and  C6_5 
REMARK    3  A    between atoms: C6_5  and  O8_6 
REMARK    4  A    between atoms: C6_5  and  C9_7 
REMARK    5  A    between atoms: C9_7  and  O11_8 
REMARK    6  A    between atoms: C9_7  and  C12_9 
REMARK    7  A    between atoms: C12_9  and  O14_10 
REMARK    8  A    between atoms: C12_9  and  C15_11 
REMARK    9  A    between atoms: C15_11  and  O16_12 
ROOT
ATOM      1  C9  ZIN A   1      19.816   0.656  13.770  0.00  0.00     0.180 C 
ENDROOT
BRANCH   1   2
ATOM      2  C6  ZIN A   1      18.468  -0.058  13.890  0.00  0.00     0.190 C 
BRANCH   2   3
ATOM      3  C3  ZIN A   1      18.659  -1.385  14.628  0.00  0.00     0.262 C 
ATOM      4  F5  ZIN A   1      20.020  -1.709  14.660  0.00  0.00    -0.239 F 
BRANCH   3   5
ATOM      5  C2  ZIN A   1      18.141  -1.255  16.037  0.00  0.00     0.271 C 
ATOM      6  O1  ZIN A   1      18.818  -0.724  16.883  0.00  0.00    -0.304 OA
ENDBRANCH   3   5
ENDBRANCH   2   3
BRANCH   2   7
ATOM      7  O8  ZIN A   1      17.556   0.767  14.620  0.00  0.00    -0.390 OA
ATOM      8  H18 ZIN A   1      17.910   1.637  14.849  0.00  0.00     0.210 HD
ENDBRANCH   2   7
ENDBRANCH   1   2
BRANCH   1   9
ATOM      9  O11 ZIN A   1      19.701   1.984  14.283  0.00  0.00    -0.390 OA
ATOM     10  H19 ZIN A   1      20.276   2.627  13.846  0.00  0.00     0.210 HD
ENDBRANCH   1   9
BRANCH   1  11
ATOM     11  C12 ZIN A   1      20.232   0.713  12.298  0.00  0.00     0.173 C 
BRANCH  11  12
ATOM     12  O14 ZIN A   1      21.654   0.600  12.201  0.00  0.00    -0.391 OA
ATOM     13  H20 ZIN A   1      22.042   1.116  11.482  0.00  0.00     0.210 HD
ENDBRANCH  11  12
BRANCH  11  14
ATOM     14  C15 ZIN A   1      19.785   2.045  11.693  0.00  0.00     0.198 C 
BRANCH  14  15
ATOM     15  O16 ZIN A   1      20.885   2.959  11.688  0.00  0.00    -0.398 OA
ATOM     16  H23 ZIN A   1      21.053   3.376  12.543  0.00  0.00     0.209 HD
ENDBRANCH  14  15
ENDBRANCH  11  14
ENDBRANCH   1  11
TORSDOF 9
ENDMDL
MODEL 5
REMARK VINA RESULT:      -4.3      2.614      4.205
REMARK  9 active torsions:
REMARK  status: ('A' for Active; 'I' for Inactive)
REMARK    1  A    between atoms: C2_2  and  C3_3 
REMARK    2  A    between atoms: C3_3  and  C6_5 
REMARK    3  A    between atoms: C6_5  and  O8_6 
REMARK    4  A    between atoms: C6_5  and  C9_7 
REMARK    5  A    between atoms: C9_7  and  O11_8 
REMARK    6  A    between atoms: C9_7  and  C12_9 
REMARK    7  A    between atoms: C12_9  and  O14_10 
REMARK    8  A    between atoms: C12_9  and  C15_11 
REMARK    9  A    between atoms: C15_11  and  O16_12 
ROOT
ATOM      1  C9  ZIN A   1      19.753  -0.013  12.239  0.00  0.00     0.180 C 
ENDROOT
BRANCH   1   2
ATOM      2  C6  ZIN A   1      19.406   1.257  11.459  0.00  0.00     0.190 C 
BRANCH   2   3
ATOM      3  C3  ZIN A   1      18.021   1.751  11.883  0.00  0.00     0.262 C 
ATOM      4  F5  ZIN A   1      17.383   2.347  10.788  0.00  0.00    -0.239 F 
BRANCH   3   5
ATOM      5  C2  ZIN A   1      17.198   0.586  12.368  0.00  0.00     0.271 C 
ATOM      6  O1  ZIN A   1      16.244   0.212  11.731  0.00  0.00    -0.304 OA
ENDBRANCH   3   5
ENDBRANCH   2   3
BRANCH   2   7
ATOM      7  O8  ZIN A   1      20.378   2.267  11.737  0.00  0.00    -0.390 OA
ATOM      8  H18 ZIN A   1      21.131   1.955  12.257  0.00  0.00     0.210 HD
ENDBRANCH   2   7
ENDBRANCH   1   2
BRANCH   1   9
ATOM      9  O11 ZIN A   1      20.705   0.298  13.258  0.00  0.00    -0.390 OA
ATOM     10  H19 ZIN A   1      21.564  -0.128  13.138  0.00  0.00     0.210 HD
ENDBRANCH   1   9
BRANCH   1  11
ATOM     11  C12 ZIN A   1      20.350  -1.050  11.285  0.00  0.00     0.173 C 
BRANCH  11  12
ATOM     12  O14 ZIN A   1      21.595  -0.567  10.775  0.00  0.00    -0.391 OA
ATOM     13  H20 ZIN A   1      21.514   0.222  10.223  0.00  0.00     0.210 HD
ENDBRANCH  11  12
BRANCH  11  14
ATOM     14  C15 ZIN A   1      19.383  -1.290  10.124  0.00  0.00     0.198 C 
BRANCH  14  15
ATOM     15  O16 ZIN A   1      20.085  -1.166   8.885  0.00  0.00    -0.398 OA
ATOM     16  H23 ZIN A   1      19.841  -0.385   8.371  0.00  0.00     0.209 HD
ENDBRANCH  14  15
ENDBRANCH  11  14
ENDBRANCH   1  11
TORSDOF 9
ENDMDL
MODEL 6
REMARK VINA RESULT:      -4.3      3.565      4.696
REMARK  9 active torsions:
REMARK  status: ('A' for Active; 'I' for Inactive)
REMARK    1  A    between atoms: C2_2  and  C3_3 
REMARK    2  A    between atoms: C3_3  and  C6_5 
REMARK    3  A    between atoms: C6_5  and  O8_6 
REMARK    4  A    between atoms: C6_5  and  C9_7 
REMARK    5  A    between atoms: C9_7  and  O11_8 
REMARK    6  A    between atoms: C9_7  and  C12_9 
REMARK    7  A    between atoms: C12_9  and  O14_10 
REMARK    8  A    between atoms: C12_9  and  C15_11 
REMARK    9  A    between atoms: C15_11  and  O16_12 
ROOT
ATOM      1  C9  ZIN A   1      18.592   1.639  11.050  0.00  0.00     0.180 C 
ENDROOT
BRANCH   1   2
ATOM      2  C6  ZIN A   1      19.074   2.278   9.746  0.00  0.00     0.190 C 
BRANCH   2   3
ATOM      3  C3  ZIN A   1      18.786   1.331   8.578  0.00  0.00     0.262 C 
ATOM      4  F5  ZIN A   1      19.093   1.972   7.372  0.00  0.00    -0.239 F 
BRANCH   3   5
ATOM      5  C2  ZIN A   1      19.630   0.091   8.717  0.00  0.00     0.271 C 
ATOM      6  O1  ZIN A   1      19.185  -0.983   8.391  0.00  0.00    -0.304 OA
ENDBRANCH   3   5
ENDBRANCH   2   3
BRANCH   2   7
ATOM      7  O8  ZIN A   1      18.388   3.514   9.539  0.00  0.00    -0.390 OA
ATOM      8  H18 ZIN A   1      17.425   3.432   9.529  0.00  0.00     0.210 HD
ENDBRANCH   2   7
ENDBRANCH   1   2
BRANCH   1   9
ATOM      9  O11 ZIN A   1      17.350   2.229  11.439  0.00  0.00    -0.390 OA
ATOM     10  H19 ZIN A   1      16.635   2.099  10.802  0.00  0.00     0.210 HD
ENDBRANCH   1   9
BRANCH   1  11
ATOM     11  C12 ZIN A   1      19.633   1.873  12.148  0.00  0.00     0.173 C 
BRANCH  11  12
ATOM     12  O14 ZIN A   1      20.607   2.812  11.687  0.00  0.00    -0.391 OA
ATOM     13  H20 ZIN A   1      20.953   2.620  10.805  0.00  0.00     0.210 HD
ENDBRANCH  11  12
BRANCH  11  14
ATOM     14  C15 ZIN A   1      20.321   0.550  12.487  0.00  0.00     0.198 C 
BRANCH  14  15
ATOM     15  O16 ZIN A   1      21.708   0.634  12.152  0.00  0.00    -0.398 OA
ATOM     16  H23 ZIN A   1      21.913   1.311  11.493  0.00  0.00     0.209 HD
ENDBRANCH  14  15
ENDBRANCH  11  14
ENDBRANCH   1  11
TORSDOF 9
ENDMDL
MODEL 7
REMARK VINA RESULT:      -4.2      2.896      4.791
REMARK  9 active torsions:
REMARK  status: ('A' for Active; 'I' for Inactive)
REMARK    1  A    between atoms: C2_2  and  C3_3 
REMARK    2  A    between atoms: C3_3  and  C6_5 
REMARK    3  A    between atoms: C6_5  and  O8_6 
REMARK    4  A    between atoms: C6_5  and  C9_7 
REMARK    5  A    between atoms: C9_7  and  O11_8 
REMARK    6  A    between atoms: C9_7  and  C12_9 
REMARK    7  A    between atoms: C12_9  and  O14_10 
REMARK    8  A    between atoms: C12_9  and  C15_11 
REMARK    9  A    between atoms: C15_11  and  O16_12 
ROOT
ATOM      1  C9  ZIN A   1      20.392  -0.096  11.722  0.00  0.00     0.180 C 
ENDROOT
BRANCH   1   2
ATOM      2  C6  ZIN A   1      19.479   0.917  11.029  0.00  0.00     0.190 C 
BRANCH   2   3
ATOM      3  C3  ZIN A   1      19.395   2.189  11.876  0.00  0.00     0.262 C 
ATOM      4  F5  ZIN A   1      20.354   3.108  11.434  0.00  0.00    -0.239 F 
BRANCH   3   5
ATOM      5  C2  ZIN A   1      18.021   2.793  11.739  0.00  0.00     0.271 C 
ATOM      6  O1  ZIN A   1      17.271   2.401  10.879  0.00  0.00    -0.304 OA
ENDBRANCH   3   5
ENDBRANCH   2   3
BRANCH   2   7
ATOM      7  O8  ZIN A   1      20.012   1.236   9.742  0.00  0.00    -0.390 OA
ATOM      8  H18 ZIN A   1      19.601   2.005   9.326  0.00  0.00     0.210 HD
ENDBRANCH   2   7
ENDBRANCH   1   2
BRANCH   1   9
ATOM      9  O11 ZIN A   1      21.424  -0.505  10.821  0.00  0.00    -0.390 OA
ATOM     10  H19 ZIN A   1      21.540  -1.462  10.763  0.00  0.00     0.210 HD
ENDBRANCH   1   9
BRANCH   1  11
ATOM     11  C12 ZIN A   1      19.571  -1.318  12.142  0.00  0.00     0.173 C 
BRANCH  11  12
ATOM     12  O14 ZIN A   1      20.012  -1.769  13.425  0.00  0.00    -0.391 OA
ATOM     13  H20 ZIN A   1      20.184  -2.719  13.470  0.00  0.00     0.210 HD
ENDBRANCH  11  12
BRANCH  11  14
ATOM     14  C15 ZIN A   1      19.759  -2.436  11.116  0.00  0.00     0.198 C 
BRANCH  14  15
ATOM     15  O16 ZIN A   1      20.899  -3.222  11.471  0.00  0.00    -0.398 OA
ATOM     16  H23 ZIN A   1      21.408  -2.865  12.211  0.00  0.00     0.209 HD
ENDBRANCH  14  15
ENDBRANCH  11  14
ENDBRANCH   1  11
TORSDOF 9
ENDMDL
MODEL 8
REMARK VINA RESULT:      -4.2      3.137      3.953
REMARK  9 active torsions:
REMARK  status: ('A' for Active; 'I' for Inactive)
REMARK    1  A    between atoms: C2_2  and  C3_3 
REMARK    2  A    between atoms: C3_3  and  C6_5 
REMARK    3  A    between atoms: C6_5  and  O8_6 
REMARK    4  A    between atoms: C6_5  and  C9_7 
REMARK    5  A    between atoms: C9_7  and  O11_8 
REMARK    6  A    between atoms: C9_7  and  C12_9 
REMARK    7  A    between atoms: C12_9  and  O14_10 
REMARK    8  A    between atoms: C12_9  and  C15_11 
REMARK    9  A    between atoms: C15_11  and  O16_12 
ROOT
ATOM      1  C9  ZIN A   1      19.561   1.168  11.073  0.00  0.00     0.180 C 
ENDROOT
BRANCH   1   2
ATOM      2  C6  ZIN A   1      20.218   0.722  12.381  0.00  0.00     0.190 C 
BRANCH   2   3
ATOM      3  C3  ZIN A   1      19.608  -0.608  12.830  0.00  0.00     0.262 C 
ATOM      4  F5  ZIN A   1      19.986  -0.873  14.151  0.00  0.00    -0.239 F 
BRANCH   3   5
ATOM      5  C2  ZIN A   1      18.106  -0.526  12.744  0.00  0.00     0.271 C 
ATOM      6  O1  ZIN A   1      17.502   0.242  13.453  0.00  0.00    -0.304 OA
ENDBRANCH   3   5
ENDBRANCH   2   3
BRANCH   2   7
ATOM      7  O8  ZIN A   1      21.623   0.558  12.176  0.00  0.00    -0.390 OA
ATOM      8  H18 ZIN A   1      22.137   1.365  12.313  0.00  0.00     0.210 HD
ENDBRANCH   2   7
ENDBRANCH   1   2
BRANCH   1   9
ATOM      9  O11 ZIN A   1      20.288   0.631   9.966  0.00  0.00    -0.390 OA
ATOM     10  H19 ZIN A   1      20.171  -0.320   9.843  0.00  0.00     0.210 HD
ENDBRANCH   1   9
BRANCH   1  11
ATOM     11  C12 ZIN A   1      19.568   2.697  10.994  0.00  0.00     0.173 C 
BRANCH  11  12
ATOM     12  O14 ZIN A   1      20.774   3.197  11.577  0.00  0.00    -0.391 OA
ATOM     13  H20 ZIN A   1      21.289   3.766  10.988  0.00  0.00     0.210 HD
ENDBRANCH  11  12
BRANCH  11  14
ATOM     14  C15 ZIN A   1      18.365   3.252  11.758  0.00  0.00     0.198 C 
BRANCH  14  15
ATOM     15  O16 ZIN A   1      17.189   2.531  11.383  0.00  0.00    -0.398 OA
ATOM     16  H23 ZIN A   1      16.782   2.038  12.107  0.00  0.00     0.209 HD
ENDBRANCH  14  15
ENDBRANCH  11  14
ENDBRANCH   1  11
TORSDOF 9
ENDMDL
MODEL 9
REMARK VINA RESULT:      -4.2      3.021      4.447
REMARK  9 active torsions:
REMARK  status: ('A' for Active; 'I' for Inactive)
REMARK    1  A    between atoms: C2_2  and  C3_3 
REMARK    2  A    between atoms: C3_3  and  C6_5 
REMARK    3  A    between atoms: C6_5  and  O8_6 
REMARK    4  A    between atoms: C6_5  and  C9_7 
REMARK    5  A    between atoms: C9_7  and  O11_8 
REMARK    6  A    between atoms: C9_7  and  C12_9 
REMARK    7  A    between atoms: C12_9  and  O14_10 
REMARK    8  A    between atoms: C12_9  and  C15_11 
REMARK    9  A    between atoms: C15_11  and  O16_12 
ROOT
ATOM      1  C9  ZIN A   1      20.224   0.613  12.041  0.00  0.00     0.180 C 
ENDROOT
BRANCH   1   2
ATOM      2  C6  ZIN A   1      19.823   0.245  10.611  0.00  0.00     0.190 C 
BRANCH   2   3
ATOM      3  C3  ZIN A   1      19.338   1.499   9.880  0.00  0.00     0.262 C 
ATOM      4  F5  ZIN A   1      19.747   1.447   8.542  0.00  0.00    -0.239 F 
BRANCH   3   5
ATOM      5  C2  ZIN A   1      17.834   1.567   9.942  0.00  0.00     0.271 C 
ATOM      6  O1  ZIN A   1      17.293   2.197  10.817  0.00  0.00    -0.304 OA
ENDBRANCH   3   5
ENDBRANCH   2   3
BRANCH   2   7
ATOM      7  O8  ZIN A   1      20.952  -0.301   9.925  0.00  0.00    -0.390 OA
ATOM      8  H18 ZIN A   1      21.612   0.358   9.669  0.00  0.00     0.210 HD
ENDBRANCH   2   7
ENDBRANCH   1   2
BRANCH   1   9
ATOM      9  O11 ZIN A   1      21.648   0.600  12.155  0.00  0.00    -0.390 OA
ATOM     10  H19 ZIN A   1      22.033   1.458  12.378  0.00  0.00     0.210 HD
ENDBRANCH   1   9
BRANCH   1  11
ATOM     11  C12 ZIN A   1      19.626  -0.405  13.015  0.00  0.00     0.173 C 
BRANCH  11  12
ATOM     12  O14 ZIN A   1      18.365  -0.857  12.517  0.00  0.00    -0.391 OA
ATOM     13  H20 ZIN A   1      17.929  -0.230  11.924  0.00  0.00     0.210 HD
ENDBRANCH  11  12
BRANCH  11  14
ATOM     14  C15 ZIN A   1      19.427   0.254  14.381  0.00  0.00     0.198 C 
BRANCH  14  15
ATOM     15  O16 ZIN A   1      19.825   1.625  14.312  0.00  0.00    -0.398 OA
ATOM     16  H23 ZIN A   1      20.127   1.903  13.436  0.00  0.00     0.209 HD
ENDBRANCH  14  15
ENDBRANCH  11  14
ENDBRANCH   1  11
TORSDOF 9
ENDMDL
