MODEL 1
REMARK VINA RESULT:      -8.0      0.000      0.000
REMARK  2 active torsions:
REMARK  status: ('A' for Active; 'I' for Inactive)
REMARK    1  A    between atoms: C3_3  and  C4_4 
REMARK    2  A    between atoms: C4_4  and  N5_5 
ROOT
ATOM      1  N5  ZIN A   1      19.523   0.435  10.429  0.00  0.00    -0.342 N 
ATOM      2  C6  ZIN A   1      19.590  -0.324  11.672  0.00  0.00     0.132 C 
ATOM      3  C7  ZIN A   1      19.956   0.546  12.874  0.00  0.00     0.078 C 
ATOM      4  C8  ZIN A   1      19.118   1.799  12.844  0.00  0.00     0.029 A 
ATOM      5  C9  ZIN A   1      18.676   2.327  11.650  0.00  0.00     0.067 A 
ATOM      6  C10 ZIN A   1      17.907   3.511  11.972  0.00  0.00     0.008 A 
ATOM      7  C11 ZIN A   1      17.223   4.447  11.196  0.00  0.00     0.015 A 
ATOM      8  C12 ZIN A   1      16.584   5.474  11.869  0.00  0.00     0.001 A 
ATOM      9  C13 ZIN A   1      16.618   5.576  13.249  0.00  0.00     0.002 A 
ATOM     10  C14 ZIN A   1      17.291   4.660  14.039  0.00  0.00     0.030 A 
ATOM     11  C15 ZIN A   1      17.942   3.616  13.387  0.00  0.00     0.045 A 
ATOM     12  N16 ZIN A   1      18.681   2.565  13.866  0.00  0.00    -0.353 N 
ATOM     13  C17 ZIN A   1      18.958   2.312  15.282  0.00  0.00     0.156 C 
ATOM     14  C18 ZIN A   1      19.018   1.689  10.373  0.00  0.00     0.257 C 
ATOM     15  O19 ZIN A   1      18.847   2.258   9.310  0.00  0.00    -0.267 OA
ENDROOT
BRANCH   1  16
ATOM     16  C4  ZIN A   1      20.028  -0.179   9.199  0.00  0.00     0.185 C 
BRANCH  16  17
ATOM     17  C3  ZIN A   1      19.215  -1.407   8.880  0.00  0.00     0.050 A 
ATOM     18  C2  ZIN A   1      18.041  -1.445   8.221  0.00  0.00     0.030 A 
ATOM     19  C1  ZIN A   1      17.299  -0.256   7.666  0.00  0.00     0.070 C 
ATOM     20  N22 ZIN A   1      17.645  -2.724   8.151  0.00  0.00    -0.354 N 
ATOM     21  C21 ZIN A   1      18.534  -3.482   8.734  0.00  0.00     0.180 A 
ATOM     22  H23 ZIN A   1      16.831  -3.038   7.727  0.00  0.00     0.166 HD
ATOM     23  N20 ZIN A   1      19.528  -2.700   9.206  0.00  0.00    -0.353 N 
ATOM     24  H40 ZIN A   1      20.316  -2.998   9.686  0.00  0.00     0.166 HD
ENDBRANCH  16  17
ENDBRANCH   1  16
TORSDOF 2
ENDMDL
MODEL 2
REMARK VINA RESULT:      -8.0      2.294      3.936
REMARK  2 active torsions:
REMARK  status: ('A' for Active; 'I' for Inactive)
REMARK    1  A    between atoms: C3_3  and  C4_4 
REMARK    2  A    between atoms: C4_4  and  N5_5 
ROOT
ATOM      1  N5  ZIN A   1      17.540   0.727  11.188  0.00  0.00    -0.342 N 
ATOM      2  C6  ZIN A   1      18.154   2.049  11.196  0.00  0.00     0.132 C 
ATOM      3  C7  ZIN A   1      17.871   2.822  12.484  0.00  0.00     0.078 C 
ATOM      4  C8  ZIN A   1      18.112   1.913  13.662  0.00  0.00     0.029 A 
ATOM      5  C9  ZIN A   1      17.928   0.551  13.555  0.00  0.00     0.067 A 
ATOM      6  C10 ZIN A   1      18.243  -0.019  14.849  0.00  0.00     0.008 A 
ATOM      7  C11 ZIN A   1      18.242  -1.323  15.344  0.00  0.00     0.015 A 
ATOM      8  C12 ZIN A   1      18.611  -1.492  16.667  0.00  0.00     0.001 A 
ATOM      9  C13 ZIN A   1      18.967  -0.422  17.470  0.00  0.00     0.002 A 
ATOM     10  C14 ZIN A   1      18.974   0.880  17.000  0.00  0.00     0.030 A 
ATOM     11  C15 ZIN A   1      18.607   1.079  15.672  0.00  0.00     0.045 A 
ATOM     12  N16 ZIN A   1      18.512   2.218  14.915  0.00  0.00    -0.353 N 
ATOM     13  C17 ZIN A   1      18.803   3.570  15.396  0.00  0.00     0.156 C 
ATOM     14  C18 ZIN A   1      17.482  -0.052  12.293  0.00  0.00     0.257 C 
ATOM     15  O19 ZIN A   1      17.087  -1.202  12.240  0.00  0.00    -0.267 OA
ENDROOT
BRANCH   1  16
ATOM     16  C4  ZIN A   1      16.958   0.227   9.940  0.00  0.00     0.185 C 
BRANCH  16  17
ATOM     17  C3  ZIN A   1      17.937  -0.697   9.264  0.00  0.00     0.050 A 
ATOM     18  C2  ZIN A   1      18.889  -0.350   8.377  0.00  0.00     0.030 A 
ATOM     19  C1  ZIN A   1      19.168   1.044   7.878  0.00  0.00     0.070 C 
ATOM     20  N22 ZIN A   1      19.542  -1.464   8.011  0.00  0.00    -0.354 N 
ATOM     21  C21 ZIN A   1      19.036  -2.487   8.644  0.00  0.00     0.180 A 
ATOM     22  H23 ZIN A   1      20.278  -1.502   7.380  0.00  0.00     0.166 HD
ATOM     23  N20 ZIN A   1      18.030  -2.053   9.434  0.00  0.00    -0.353 N 
ATOM     24  H40 ZIN A   1      17.476  -2.600  10.013  0.00  0.00     0.166 HD
ENDBRANCH  16  17
ENDBRANCH   1  16
TORSDOF 2
ENDMDL
MODEL 3
REMARK VINA RESULT:      -7.9      2.365      6.855
REMARK  2 active torsions:
REMARK  status: ('A' for Active; 'I' for Inactive)
REMARK    1  A    between atoms: C3_3  and  C4_4 
REMARK    2  A    between atoms: C4_4  and  N5_5 
ROOT
ATOM      1  N5  ZIN A   1      18.062  -1.437  11.014  0.00  0.00    -0.342 N 
ATOM      2  C6  ZIN A   1      18.986  -2.561  11.084  0.00  0.00     0.132 C 
ATOM      3  C7  ZIN A   1      18.871  -3.494   9.879  0.00  0.00     0.078 C 
ATOM      4  C8  ZIN A   1      18.845  -2.665   8.620  0.00  0.00     0.029 A 
ATOM      5  C9  ZIN A   1      18.329  -1.387   8.624  0.00  0.00     0.067 A 
ATOM      6  C10 ZIN A   1      18.457  -0.876   7.275  0.00  0.00     0.008 A 
ATOM      7  C11 ZIN A   1      18.116   0.337   6.676  0.00  0.00     0.015 A 
ATOM      8  C12 ZIN A   1      18.396   0.470   5.327  0.00  0.00     0.001 A 
ATOM      9  C13 ZIN A   1      18.986  -0.548   4.598  0.00  0.00     0.002 A 
ATOM     10  C14 ZIN A   1      19.331  -1.759   5.171  0.00  0.00     0.030 A 
ATOM     11  C15 ZIN A   1      19.061  -1.920   6.527  0.00  0.00     0.045 A 
ATOM     12  N16 ZIN A   1      19.274  -2.974   7.378  0.00  0.00    -0.353 N 
ATOM     13  C17 ZIN A   1      19.881  -4.251   6.995  0.00  0.00     0.156 C 
ATOM     14  C18 ZIN A   1      17.781  -0.800   9.854  0.00  0.00     0.257 C 
ATOM     15  O19 ZIN A   1      17.113   0.217   9.832  0.00  0.00    -0.267 OA
ENDROOT
BRANCH   1  16
ATOM     16  C4  ZIN A   1      17.408  -0.984  12.245  0.00  0.00     0.185 C 
BRANCH  16  17
ATOM     17  C3  ZIN A   1      18.223   0.117  12.872  0.00  0.00     0.050 A 
ATOM     18  C2  ZIN A   1      19.139  -0.020  13.849  0.00  0.00     0.030 A 
ATOM     19  C1  ZIN A   1      19.535  -1.311  14.517  0.00  0.00     0.070 C 
ATOM     20  N22 ZIN A   1      19.633   1.196  14.128  0.00  0.00    -0.354 N 
ATOM     21  C21 ZIN A   1      19.063   2.080  13.354  0.00  0.00     0.180 A 
ATOM     22  H23 ZIN A   1      20.311   1.388  14.795  0.00  0.00     0.166 HD
ATOM     23  N20 ZIN A   1      18.174   1.448  12.557  0.00  0.00    -0.353 N 
ATOM     24  H40 ZIN A   1      17.607   1.862  11.888  0.00  0.00     0.166 HD
ENDBRANCH  16  17
ENDBRANCH   1  16
TORSDOF 2
ENDMDL
MODEL 4
REMARK VINA RESULT:      -7.8      1.721      6.816
REMARK  2 active torsions:
REMARK  status: ('A' for Active; 'I' for Inactive)
REMARK    1  A    between atoms: C3_3  and  C4_4 
REMARK    2  A    between atoms: C4_4  and  N5_5 
ROOT
ATOM      1  N5  ZIN A   1      19.534   2.075  10.775  0.00  0.00    -0.342 N 
ATOM      2  C6  ZIN A   1      18.741   2.270   9.568  0.00  0.00     0.132 C 
ATOM      3  C7  ZIN A   1      19.097   1.277   8.462  0.00  0.00     0.078 C 
ATOM      4  C8  ZIN A   1      19.171  -0.107   9.054  0.00  0.00     0.029 A 
ATOM      5  C9  ZIN A   1      19.535  -0.296  10.370  0.00  0.00     0.067 A 
ATOM      6  C10 ZIN A   1      19.504  -1.724  10.615  0.00  0.00     0.008 A 
ATOM      7  C11 ZIN A   1      19.771  -2.506  11.738  0.00  0.00     0.015 A 
ATOM      8  C12 ZIN A   1      19.633  -3.876  11.595  0.00  0.00     0.001 A 
ATOM      9  C13 ZIN A   1      19.248  -4.451  10.397  0.00  0.00     0.002 A 
ATOM     10  C14 ZIN A   1      18.980  -3.695   9.269  0.00  0.00     0.030 A 
ATOM     11  C15 ZIN A   1      19.111  -2.313   9.385  0.00  0.00     0.045 A 
ATOM     12  N16 ZIN A   1      18.923  -1.303   8.478  0.00  0.00    -0.353 N 
ATOM     13  C17 ZIN A   1      18.512  -1.493   7.085  0.00  0.00     0.156 C 
ATOM     14  C18 ZIN A   1      19.870   0.846  11.230  0.00  0.00     0.257 C 
ATOM     15  O19 ZIN A   1      20.417   0.694  12.306  0.00  0.00    -0.267 OA
ENDROOT
BRANCH   1  16
ATOM     16  C4  ZIN A   1      19.989   3.252  11.519  0.00  0.00     0.185 C 
BRANCH  16  17
ATOM     17  C3  ZIN A   1      19.060   3.505  12.677  0.00  0.00     0.050 A 
ATOM     18  C2  ZIN A   1      17.935   4.245  12.658  0.00  0.00     0.030 A 
ATOM     19  C1  ZIN A   1      17.376   4.976  11.465  0.00  0.00     0.070 C 
ATOM     20  N22 ZIN A   1      17.404   4.224  13.890  0.00  0.00    -0.354 N 
ATOM     21  C21 ZIN A   1      18.152   3.490  14.669  0.00  0.00     0.180 A 
ATOM     22  H23 ZIN A   1      16.588   4.676  14.157  0.00  0.00     0.166 HD
ATOM     23  N20 ZIN A   1      19.198   3.025  13.952  0.00  0.00    -0.353 N 
ATOM     24  H40 ZIN A   1      19.913   2.459  14.281  0.00  0.00     0.166 HD
ENDBRANCH  16  17
ENDBRANCH   1  16
TORSDOF 2
ENDMDL
MODEL 5
REMARK VINA RESULT:      -7.7      2.094      6.134
REMARK  2 active torsions:
REMARK  status: ('A' for Active; 'I' for Inactive)
REMARK    1  A    between atoms: C3_3  and  C4_4 
REMARK    2  A    between atoms: C4_4  and  N5_5 
ROOT
ATOM      1  N5  ZIN A   1      19.816  -0.353  12.364  0.00  0.00    -0.342 N 
ATOM      2  C6  ZIN A   1      19.781  -1.810  12.335  0.00  0.00     0.132 C 
ATOM      3  C7  ZIN A   1      18.644  -2.354  11.469  0.00  0.00     0.078 C 
ATOM      4  C8  ZIN A   1      18.630  -1.610  10.158  0.00  0.00     0.029 A 
ATOM      5  C9  ZIN A   1      19.067  -0.305  10.079  0.00  0.00     0.067 A 
ATOM      6  C10 ZIN A   1      18.924   0.104   8.697  0.00  0.00     0.008 A 
ATOM      7  C11 ZIN A   1      19.197   1.292   8.019  0.00  0.00     0.015 A 
ATOM      8  C12 ZIN A   1      18.926   1.317   6.662  0.00  0.00     0.001 A 
ATOM      9  C13 ZIN A   1      18.407   0.217   6.000  0.00  0.00     0.002 A 
ATOM     10  C14 ZIN A   1      18.128  -0.971   6.652  0.00  0.00     0.030 A 
ATOM     11  C15 ZIN A   1      18.392  -1.023   8.018  0.00  0.00     0.045 A 
ATOM     12  N16 ZIN A   1      18.231  -2.027   8.938  0.00  0.00    -0.353 N 
ATOM     13  C17 ZIN A   1      17.704  -3.361   8.639  0.00  0.00     0.156 C 
ATOM     14  C18 ZIN A   1      19.550   0.400  11.272  0.00  0.00     0.257 C 
ATOM     15  O19 ZIN A   1      19.712   1.607  11.278  0.00  0.00    -0.267 OA
ENDROOT
BRANCH   1  16
ATOM     16  C4  ZIN A   1      20.145   0.319  13.624  0.00  0.00     0.185 C 
BRANCH  16  17
ATOM     17  C3  ZIN A   1      18.976   0.218  14.568  0.00  0.00     0.050 A 
ATOM     18  C2  ZIN A   1      18.047   1.164  14.800  0.00  0.00     0.030 A 
ATOM     19  C1  ZIN A   1      17.990   2.526  14.158  0.00  0.00     0.070 C 
ATOM     20  N22 ZIN A   1      17.184   0.685  15.709  0.00  0.00    -0.354 N 
ATOM     21  C21 ZIN A   1      17.538  -0.527  16.041  0.00  0.00     0.180 A 
ATOM     22  H23 ZIN A   1      16.414   1.161  16.058  0.00  0.00     0.166 HD
ATOM     23  N20 ZIN A   1      18.654  -0.856  15.355  0.00  0.00    -0.353 N 
ATOM     24  H40 ZIN A   1      19.136  -1.695  15.410  0.00  0.00     0.166 HD
ENDBRANCH  16  17
ENDBRANCH   1  16
TORSDOF 2
ENDMDL
MODEL 6
REMARK VINA RESULT:      -7.5      1.874      2.542
REMARK  2 active torsions:
REMARK  status: ('A' for Active; 'I' for Inactive)
REMARK    1  A    between atoms: C3_3  and  C4_4 
REMARK    2  A    between atoms: C4_4  and  N5_5 
ROOT
ATOM      1  N5  ZIN A   1      19.474  -1.727  12.184  0.00  0.00    -0.342 N 
ATOM      2  C6  ZIN A   1      18.702  -2.034  13.381  0.00  0.00     0.132 C 
ATOM      3  C7  ZIN A   1      19.059  -1.130  14.561  0.00  0.00     0.078 C 
ATOM      4  C8  ZIN A   1      19.104   0.300  14.085  0.00  0.00     0.029 A 
ATOM      5  C9  ZIN A   1      19.445   0.602  12.784  0.00  0.00     0.067 A 
ATOM      6  C10 ZIN A   1      19.389   2.044  12.659  0.00  0.00     0.008 A 
ATOM      7  C11 ZIN A   1      19.627   2.921  11.600  0.00  0.00     0.015 A 
ATOM      8  C12 ZIN A   1      19.470   4.272  11.858  0.00  0.00     0.001 A 
ATOM      9  C13 ZIN A   1      19.095   4.740  13.105  0.00  0.00     0.002 A 
ATOM     10  C14 ZIN A   1      18.855   3.889  14.169  0.00  0.00     0.030 A 
ATOM     11  C15 ZIN A   1      19.005   2.524  13.938  0.00  0.00     0.045 A 
ATOM     12  N16 ZIN A   1      18.846   1.439  14.761  0.00  0.00    -0.353 N 
ATOM     13  C17 ZIN A   1      18.453   1.507  16.170  0.00  0.00     0.156 C 
ATOM     14  C18 ZIN A   1      19.785  -0.459  11.828  0.00  0.00     0.257 C 
ATOM     15  O19 ZIN A   1      20.314  -0.210  10.761  0.00  0.00    -0.267 OA
ENDROOT
BRANCH   1  16
ATOM     16  C4  ZIN A   1      19.936  -2.831  11.340  0.00  0.00     0.185 C 
BRANCH  16  17
ATOM     17  C3  ZIN A   1      19.040  -2.952  10.135  0.00  0.00     0.050 A 
ATOM     18  C2  ZIN A   1      17.878  -3.627  10.063  0.00  0.00     0.030 A 
ATOM     19  C1  ZIN A   1      17.235  -4.406  11.182  0.00  0.00     0.070 C 
ATOM     20  N22 ZIN A   1      17.395  -3.492   8.818  0.00  0.00    -0.354 N 
ATOM     21  C21 ZIN A   1      18.211  -2.750   8.119  0.00  0.00     0.180 A 
ATOM     22  H23 ZIN A   1      16.567  -3.878   8.492  0.00  0.00     0.166 HD
ATOM     23  N20 ZIN A   1      19.252  -2.394   8.902  0.00  0.00    -0.353 N 
ATOM     24  H40 ZIN A   1      20.008  -1.847   8.639  0.00  0.00     0.166 HD
ENDBRANCH  16  17
ENDBRANCH   1  16
TORSDOF 2
ENDMDL
MODEL 7
REMARK VINA RESULT:      -7.5      2.070      3.248
REMARK  2 active torsions:
REMARK  status: ('A' for Active; 'I' for Inactive)
REMARK    1  A    between atoms: C3_3  and  C4_4 
REMARK    2  A    between atoms: C4_4  and  N5_5 
ROOT
ATOM      1  N5  ZIN A   1      18.031  -2.610   9.672  0.00  0.00    -0.342 N 
ATOM      2  C6  ZIN A   1      18.148  -3.078  11.047  0.00  0.00     0.132 C 
ATOM      3  C7  ZIN A   1      19.237  -2.343  11.828  0.00  0.00     0.078 C 
ATOM      4  C8  ZIN A   1      19.097  -0.861  11.585  0.00  0.00     0.029 A 
ATOM      5  C9  ZIN A   1      18.579  -0.384  10.400  0.00  0.00     0.067 A 
ATOM      6  C10 ZIN A   1      18.579   1.062  10.493  0.00  0.00     0.008 A 
ATOM      7  C11 ZIN A   1      18.181   2.075   9.621  0.00  0.00     0.015 A 
ATOM      8  C12 ZIN A   1      18.333   3.378  10.062  0.00  0.00     0.001 A 
ATOM      9  C13 ZIN A   1      18.857   3.671  11.309  0.00  0.00     0.002 A 
ATOM     10  C14 ZIN A   1      19.260   2.683  12.190  0.00  0.00     0.030 A 
ATOM     11  C15 ZIN A   1      19.117   1.362  11.772  0.00  0.00     0.045 A 
ATOM     12  N16 ZIN A   1      19.413   0.175  12.390  0.00  0.00    -0.353 N 
ATOM     13  C17 ZIN A   1      19.990   0.050  13.731  0.00  0.00     0.156 C 
ATOM     14  C18 ZIN A   1      18.159  -1.305   9.337  0.00  0.00     0.257 C 
ATOM     15  O19 ZIN A   1      17.927  -0.912   8.208  0.00  0.00    -0.267 OA
ENDROOT
BRANCH   1  16
ATOM     16  C4  ZIN A   1      17.771  -3.588   8.612  0.00  0.00     0.185 C 
BRANCH  16  17
ATOM     17  C3  ZIN A   1      19.073  -4.196   8.160  0.00  0.00     0.050 A 
ATOM     18  C2  ZIN A   1      19.715  -3.952   7.002  0.00  0.00     0.030 A 
ATOM     19  C1  ZIN A   1      19.255  -3.013   5.916  0.00  0.00     0.070 C 
ATOM     20  N22 ZIN A   1      20.832  -4.695   6.981  0.00  0.00    -0.354 N 
ATOM     21  C21 ZIN A   1      20.911  -5.384   8.087  0.00  0.00     0.180 A 
ATOM     22  H23 ZIN A   1      21.481  -4.712   6.261  0.00  0.00     0.166 HD
ATOM     23  N20 ZIN A   1      19.832  -5.105   8.850  0.00  0.00    -0.353 N 
ATOM     24  H40 ZIN A   1      19.632  -5.479   9.721  0.00  0.00     0.166 HD
ENDBRANCH  16  17
ENDBRANCH   1  16
TORSDOF 2
ENDMDL
MODEL 8
REMARK VINA RESULT:      -7.4      1.986      3.881
REMARK  2 active torsions:
REMARK  status: ('A' for Active; 'I' for Inactive)
REMARK    1  A    between atoms: C3_3  and  C4_4 
REMARK    2  A    between atoms: C4_4  and  N5_5 
ROOT
ATOM      1  N5  ZIN A   1      19.934   0.302  10.938  0.00  0.00    -0.342 N 
ATOM      2  C6  ZIN A   1      19.952   1.758  10.989  0.00  0.00     0.132 C 
ATOM      3  C7  ZIN A   1      18.815   2.331  11.834  0.00  0.00     0.078 C 
ATOM      4  C8  ZIN A   1      18.740   1.570  13.133  0.00  0.00     0.029 A 
ATOM      5  C9  ZIN A   1      19.126   0.248  13.203  0.00  0.00     0.067 A 
ATOM      6  C10 ZIN A   1      18.933  -0.175  14.574  0.00  0.00     0.008 A 
ATOM      7  C11 ZIN A   1      19.145  -1.382  15.241  0.00  0.00     0.015 A 
ATOM      8  C12 ZIN A   1      18.839  -1.416  16.590  0.00  0.00     0.001 A 
ATOM      9  C13 ZIN A   1      18.345  -0.308  17.256  0.00  0.00     0.002 A 
ATOM     10  C14 ZIN A   1      18.126   0.899  16.615  0.00  0.00     0.030 A 
ATOM     11  C15 ZIN A   1      18.426   0.962  15.257  0.00  0.00     0.045 A 
ATOM     12  N16 ZIN A   1      18.326   1.984  14.349  0.00  0.00    -0.353 N 
ATOM     13  C17 ZIN A   1      17.842   3.332  14.656  0.00  0.00     0.156 C 
ATOM     14  C18 ZIN A   1      19.613  -0.457  12.011  0.00  0.00     0.257 C 
ATOM     15  O19 ZIN A   1      19.730  -1.668  11.991  0.00  0.00    -0.267 OA
ENDROOT
BRANCH   1  16
ATOM     16  C4  ZIN A   1      20.270  -0.364   9.677  0.00  0.00     0.185 C 
BRANCH  16  17
ATOM     17  C3  ZIN A   1      19.028  -0.503   8.836  0.00  0.00     0.050 A 
ATOM     18  C2  ZIN A   1      18.390  -1.649   8.529  0.00  0.00     0.030 A 
ATOM     19  C1  ZIN A   1      18.794  -3.033   8.967  0.00  0.00     0.070 C 
ATOM     20  N22 ZIN A   1      17.335  -1.343   7.758  0.00  0.00    -0.354 N 
ATOM     21  C21 ZIN A   1      17.291  -0.050   7.584  0.00  0.00     0.180 A 
ATOM     22  H23 ZIN A   1      16.702  -1.981   7.394  0.00  0.00     0.166 HD
ATOM     23  N20 ZIN A   1      18.331   0.512   8.237  0.00  0.00    -0.353 N 
ATOM     24  H40 ZIN A   1      18.544   1.457   8.273  0.00  0.00     0.166 HD
ENDBRANCH  16  17
ENDBRANCH   1  16
TORSDOF 2
ENDMDL
MODEL 9
REMARK VINA RESULT:      -7.4      2.351      4.575
REMARK  2 active torsions:
REMARK  status: ('A' for Active; 'I' for Inactive)
REMARK    1  A    between atoms: C3_3  and  C4_4 
REMARK    2  A    between atoms: C4_4  and  N5_5 
ROOT
ATOM      1  N5  ZIN A   1      17.834   1.578  12.118  0.00  0.00    -0.342 N 
ATOM      2  C6  ZIN A   1      18.447   2.896  12.222  0.00  0.00     0.132 C 
ATOM      3  C7  ZIN A   1      18.161   3.574  13.561  0.00  0.00     0.078 C 
ATOM      4  C8  ZIN A   1      18.400   2.583  14.672  0.00  0.00     0.029 A 
ATOM      5  C9  ZIN A   1      18.217   1.232  14.467  0.00  0.00     0.067 A 
ATOM      6  C10 ZIN A   1      18.531   0.571  15.717  0.00  0.00     0.008 A 
ATOM      7  C11 ZIN A   1      18.529  -0.766  16.117  0.00  0.00     0.015 A 
ATOM      8  C12 ZIN A   1      18.896  -1.029  17.426  0.00  0.00     0.001 A 
ATOM      9  C13 ZIN A   1      19.249  -0.019  18.303  0.00  0.00     0.002 A 
ATOM     10  C14 ZIN A   1      19.257   1.313  17.929  0.00  0.00     0.030 A 
ATOM     11  C15 ZIN A   1      18.892   1.607  16.617  0.00  0.00     0.045 A 
ATOM     12  N16 ZIN A   1      18.798   2.797  15.944  0.00  0.00    -0.353 N 
ATOM     13  C17 ZIN A   1      19.087   4.112  16.522  0.00  0.00     0.156 C 
ATOM     14  C18 ZIN A   1      17.775   0.721  13.164  0.00  0.00     0.257 C 
ATOM     15  O19 ZIN A   1      17.380  -0.422  13.028  0.00  0.00    -0.267 OA
ENDROOT
BRANCH   1  16
ATOM     16  C4  ZIN A   1      17.255   1.168  10.836  0.00  0.00     0.185 C 
BRANCH  16  17
ATOM     17  C3  ZIN A   1      18.327   1.165   9.778  0.00  0.00     0.050 A 
ATOM     18  C2  ZIN A   1      19.225   0.188   9.546  0.00  0.00     0.030 A 
ATOM     19  C1  ZIN A   1      19.338  -1.109  10.306  0.00  0.00     0.070 C 
ATOM     20  N22 ZIN A   1      20.005   0.574   8.525  0.00  0.00    -0.354 N 
ATOM     21  C21 ZIN A   1      19.619   1.750   8.110  0.00  0.00     0.180 A 
ATOM     22  H23 ZIN A   1      20.736   0.058   8.151  0.00  0.00     0.166 HD
ATOM     23  N20 ZIN A   1      18.576   2.156   8.867  0.00  0.00    -0.353 N 
ATOM     24  H40 ZIN A   1      18.096   2.994   8.781  0.00  0.00     0.166 HD
ENDBRANCH  16  17
ENDBRANCH   1  16
TORSDOF 2
ENDMDL
