MODEL 1
REMARK VINA RESULT:      -5.9      0.000      0.000
REMARK  3 active torsions:
REMARK  status: ('A' for Active; 'I' for Inactive)
REMARK       I    between atoms: C2_2  and  N4_4 
REMARK    1  A    between atoms: N4_4  and  S5_5 
REMARK    2  A    between atoms: S5_5  and  C8_8 
REMARK    3  A    between atoms: C11_11  and  N12_12 
ROOT
ATOM      1  C8  <0> d   1      17.829   0.792   9.805  0.00  0.00     0.081 A 
ATOM      2  C9  <0> d   1      17.329  -0.131   8.905  0.00  0.00     0.027 A 
ATOM      3  C10 <0> d   1      17.757  -0.118   7.591  0.00  0.00     0.030 A 
ATOM      4  C11 <0> d   1      18.691   0.823   7.176  0.00  0.00     0.025 A 
ATOM      5  C13 <0> d   1      19.191   1.748   8.084  0.00  0.00     0.030 A 
ATOM      6  C14 <0> d   1      18.754   1.733   9.393  0.00  0.00     0.027 A 
ENDROOT
BRANCH   1   7
ATOM      7  S5  <0> d   1      17.280   0.772  11.480  0.00  0.00     0.286 S 
ATOM      8  O6  <0> d   1      16.066   0.034  11.494  0.00  0.00    -0.198 OA
ATOM      9  O7  <0> d   1      17.386   2.108  11.952  0.00  0.00    -0.198 OA
BRANCH   7  10
ATOM     10  N4  <0> d   1      18.378  -0.118  12.344  0.00  0.00    -0.123 NA
ATOM     11  C2  <0> d   1      18.264  -0.212  13.683  0.00  0.00     0.250 C 
ATOM     12  C1  <0> d   1      19.263  -1.021  14.470  0.00  0.00     0.120 C 
ATOM     13  O3  <0> d   1      17.357   0.354  14.256  0.00  0.00    -0.271 OA
ENDBRANCH   7  10
ENDBRANCH   1   7
BRANCH   4  14
ATOM     14  N12 <0> d   1      19.126   0.839   5.849  0.00  0.00    -0.399 N 
ATOM     15  H20 <0> d   1      19.023   1.643   5.315  0.00  0.00     0.156 HD
ATOM     16  H21 <0> d   1      19.531   0.048   5.461  0.00  0.00     0.156 HD
ENDBRANCH   4  14
TORSDOF 3
ENDMDL
MODEL 2
REMARK VINA RESULT:      -5.8      2.428      2.963
REMARK  3 active torsions:
REMARK  status: ('A' for Active; 'I' for Inactive)
REMARK       I    between atoms: C2_2  and  N4_4 
REMARK    1  A    between atoms: N4_4  and  S5_5 
REMARK    2  A    between atoms: S5_5  and  C8_8 
REMARK    3  A    between atoms: C11_11  and  N12_12 
ROOT
ATOM      1  C8  <0> d   1      18.079   1.229   9.422  0.00  0.00     0.081 A 
ATOM      2  C9  <0> d   1      17.363   0.140   8.958  0.00  0.00     0.027 A 
ATOM      3  C10 <0> d   1      17.529  -0.292   7.656  0.00  0.00     0.030 A 
ATOM      4  C11 <0> d   1      18.414   0.368   6.814  0.00  0.00     0.025 A 
ATOM      5  C13 <0> d   1      19.131   1.461   7.285  0.00  0.00     0.030 A 
ATOM      6  C14 <0> d   1      18.957   1.892   8.584  0.00  0.00     0.027 A 
ENDROOT
BRANCH   1   7
ATOM      7  S5  <0> d   1      17.865   1.777  11.084  0.00  0.00     0.286 S 
ATOM      8  O6  <0> d   1      19.166   1.857  11.649  0.00  0.00    -0.198 OA
ATOM      9  O7  <0> d   1      16.823   0.984  11.636  0.00  0.00    -0.198 OA
BRANCH   7  10
ATOM     10  N4  <0> d   1      17.287   3.327  11.017  0.00  0.00    -0.123 NA
ATOM     11  C2  <0> d   1      17.242   4.079  12.135  0.00  0.00     0.250 C 
ATOM     12  C1  <0> d   1      16.717   5.490  12.076  0.00  0.00     0.120 C 
ATOM     13  O3  <0> d   1      17.626   3.619  13.190  0.00  0.00    -0.271 OA
ENDBRANCH   7  10
ENDBRANCH   1   7
BRANCH   4  14
ATOM     14  N12 <0> d   1      18.584  -0.066   5.498  0.00  0.00    -0.399 N 
ATOM     15  H20 <0> d   1      18.855  -0.980   5.319  0.00  0.00     0.156 HD
ATOM     16  H21 <0> d   1      18.429   0.546   4.761  0.00  0.00     0.156 HD
ENDBRANCH   4  14
TORSDOF 3
ENDMDL
MODEL 3
REMARK VINA RESULT:      -5.6      2.003      6.049
REMARK  3 active torsions:
REMARK  status: ('A' for Active; 'I' for Inactive)
REMARK       I    between atoms: C2_2  and  N4_4 
REMARK    1  A    between atoms: N4_4  and  S5_5 
REMARK    2  A    between atoms: S5_5  and  C8_8 
REMARK    3  A    between atoms: C11_11  and  N12_12 
ROOT
ATOM      1  C8  <0> d   1      17.856  -0.457  13.306  0.00  0.00     0.081 A 
ATOM      2  C9  <0> d   1      17.437   0.556  14.149  0.00  0.00     0.027 A 
ATOM      3  C10 <0> d   1      17.850   0.576  15.467  0.00  0.00     0.030 A 
ATOM      4  C11 <0> d   1      18.687  -0.424  15.946  0.00  0.00     0.025 A 
ATOM      5  C13 <0> d   1      19.107  -1.440  15.095  0.00  0.00     0.030 A 
ATOM      6  C14 <0> d   1      18.686  -1.456  13.781  0.00  0.00     0.027 A 
ENDROOT
BRANCH   1   7
ATOM      7  S5  <0> d   1      17.327  -0.477  11.625  0.00  0.00     0.286 S 
ATOM      8  O6  <0> d   1      16.020   0.080  11.610  0.00  0.00    -0.198 OA
ATOM      9  O7  <0> d   1      17.627  -1.773  11.126  0.00  0.00    -0.198 OA
BRANCH   7  10
ATOM     10  N4  <0> d   1      18.295   0.580  10.795  0.00  0.00    -0.123 NA
ATOM     11  C2  <0> d   1      18.129   0.746   9.468  0.00  0.00     0.250 C 
ATOM     12  C1  <0> d   1      19.009   1.707   8.711  0.00  0.00     0.120 C 
ATOM     13  O3  <0> d   1      17.270   0.121   8.882  0.00  0.00    -0.271 OA
ENDBRANCH   7  10
ENDBRANCH   1   7
BRANCH   4  14
ATOM     14  N12 <0> d   1      19.107  -0.409  17.277  0.00  0.00    -0.399 N 
ATOM     15  H20 <0> d   1      18.700   0.207  17.907  0.00  0.00     0.156 HD
ATOM     16  H21 <0> d   1      19.804  -1.014  17.573  0.00  0.00     0.156 HD
ENDBRANCH   4  14
TORSDOF 3
ENDMDL
MODEL 4
REMARK VINA RESULT:      -5.6      4.988      6.572
REMARK  3 active torsions:
REMARK  status: ('A' for Active; 'I' for Inactive)
REMARK       I    between atoms: C2_2  and  N4_4 
REMARK    1  A    between atoms: N4_4  and  S5_5 
REMARK    2  A    between atoms: S5_5  and  C8_8 
REMARK    3  A    between atoms: C11_11  and  N12_12 
ROOT
ATOM      1  C8  <0> d   1      18.942  -0.541   6.620  0.00  0.00     0.081 A 
ATOM      2  C9  <0> d   1      19.304  -1.092   7.836  0.00  0.00     0.027 A 
ATOM      3  C10 <0> d   1      19.558  -0.273   8.919  0.00  0.00     0.030 A 
ATOM      4  C11 <0> d   1      19.449   1.105   8.786  0.00  0.00     0.025 A 
ATOM      5  C13 <0> d   1      19.085   1.655   7.563  0.00  0.00     0.030 A 
ATOM      6  C14 <0> d   1      18.839   0.831   6.483  0.00  0.00     0.027 A 
ENDROOT
BRANCH   1   7
ATOM      7  S5  <0> d   1      18.619  -1.590   5.241  0.00  0.00     0.286 S 
ATOM      8  O6  <0> d   1      19.794  -1.577   4.444  0.00  0.00    -0.198 OA
ATOM      9  O7  <0> d   1      17.338  -1.219   4.748  0.00  0.00    -0.198 OA
BRANCH   7  10
ATOM     10  N4  <0> d   1      18.466  -3.132   5.825  0.00  0.00    -0.123 NA
ATOM     11  C2  <0> d   1      18.272  -4.159   4.973  0.00  0.00     0.250 C 
ATOM     12  C1  <0> d   1      18.133  -5.563   5.503  0.00  0.00     0.120 C 
ATOM     13  O3  <0> d   1      18.209  -3.952   3.780  0.00  0.00    -0.271 OA
ENDBRANCH   7  10
ENDBRANCH   1   7
BRANCH   4  14
ATOM     14  N12 <0> d   1      19.706   1.937   9.878  0.00  0.00    -0.399 N 
ATOM     15  H20 <0> d   1      20.606   2.009  10.232  0.00  0.00     0.156 HD
ATOM     16  H21 <0> d   1      18.984   2.442  10.283  0.00  0.00     0.156 HD
ENDBRANCH   4  14
TORSDOF 3
ENDMDL
MODEL 5
REMARK VINA RESULT:      -5.6      1.603      2.094
REMARK  3 active torsions:
REMARK  status: ('A' for Active; 'I' for Inactive)
REMARK       I    between atoms: C2_2  and  N4_4 
REMARK    1  A    between atoms: N4_4  and  S5_5 
REMARK    2  A    between atoms: S5_5  and  C8_8 
REMARK    3  A    between atoms: C11_11  and  N12_12 
ROOT
ATOM      1  C8  <0> d   1      18.246   1.593   9.792  0.00  0.00     0.081 A 
ATOM      2  C9  <0> d   1      19.057   2.090   8.788  0.00  0.00     0.027 A 
ATOM      3  C10 <0> d   1      19.096   1.463   7.557  0.00  0.00     0.030 A 
ATOM      4  C11 <0> d   1      18.320   0.333   7.329  0.00  0.00     0.025 A 
ATOM      5  C13 <0> d   1      17.506  -0.161   8.340  0.00  0.00     0.030 A 
ATOM      6  C14 <0> d   1      17.476   0.466   9.569  0.00  0.00     0.027 A 
ENDROOT
BRANCH   1   7
ATOM      7  S5  <0> d   1      18.198   2.396  11.360  0.00  0.00     0.286 S 
ATOM      8  O6  <0> d   1      17.037   3.215  11.355  0.00  0.00    -0.198 OA
ATOM      9  O7  <0> d   1      19.506   2.901  11.592  0.00  0.00    -0.198 OA
BRANCH   7  10
ATOM     10  N4  <0> d   1      17.940   1.225  12.502  0.00  0.00    -0.123 NA
ATOM     11  C2  <0> d   1      17.881   1.557  13.807  0.00  0.00     0.250 C 
ATOM     12  C1  <0> d   1      17.646   0.492  14.846  0.00  0.00     0.120 C 
ATOM     13  O3  <0> d   1      18.017   2.714  14.144  0.00  0.00    -0.271 OA
ENDBRANCH   7  10
ENDBRANCH   1   7
BRANCH   4  14
ATOM     14  N12 <0> d   1      18.358  -0.303   6.087  0.00  0.00    -0.399 N 
ATOM     15  H20 <0> d   1      17.768  -0.010   5.374  0.00  0.00     0.156 HD
ATOM     16  H21 <0> d   1      18.973  -1.037   5.936  0.00  0.00     0.156 HD
ENDBRANCH   4  14
TORSDOF 3
ENDMDL
MODEL 6
REMARK VINA RESULT:      -5.5      2.857      3.600
REMARK  3 active torsions:
REMARK  status: ('A' for Active; 'I' for Inactive)
REMARK       I    between atoms: C2_2  and  N4_4 
REMARK    1  A    between atoms: N4_4  and  S5_5 
REMARK    2  A    between atoms: S5_5  and  C8_8 
REMARK    3  A    between atoms: C11_11  and  N12_12 
ROOT
ATOM      1  C8  <0> d   1      18.665   0.027   8.053  0.00  0.00     0.081 A 
ATOM      2  C9  <0> d   1      18.563   0.844   6.942  0.00  0.00     0.027 A 
ATOM      3  C10 <0> d   1      18.763   0.322   5.678  0.00  0.00     0.030 A 
ATOM      4  C11 <0> d   1      19.067  -1.025   5.525  0.00  0.00     0.025 A 
ATOM      5  C13 <0> d   1      19.168  -1.842   6.644  0.00  0.00     0.030 A 
ATOM      6  C14 <0> d   1      18.973  -1.312   7.904  0.00  0.00     0.027 A 
ENDROOT
BRANCH   1   7
ATOM      7  S5  <0> d   1      18.408   0.698   9.662  0.00  0.00     0.286 S 
ATOM      8  O6  <0> d   1      19.602   0.454  10.393  0.00  0.00    -0.198 OA
ATOM      9  O7  <0> d   1      17.130   0.244  10.086  0.00  0.00    -0.198 OA
BRANCH   7  10
ATOM     10  N4  <0> d   1      18.289   2.341   9.495  0.00  0.00    -0.123 NA
ATOM     11  C2  <0> d   1      17.725   3.079  10.472  0.00  0.00     0.250 C 
ATOM     12  C1  <0> d   1      17.617   4.574  10.321  0.00  0.00     0.120 C 
ATOM     13  O3  <0> d   1      17.307   2.539  11.474  0.00  0.00    -0.271 OA
ENDBRANCH   7  10
ENDBRANCH   1   7
BRANCH   4  14
ATOM     14  N12 <0> d   1      19.271  -1.556   4.250  0.00  0.00    -0.399 N 
ATOM     15  H20 <0> d   1      19.958  -2.226   4.108  0.00  0.00     0.156 HD
ATOM     16  H21 <0> d   1      18.725  -1.256   3.507  0.00  0.00     0.156 HD
ENDBRANCH   4  14
TORSDOF 3
ENDMDL
MODEL 7
REMARK VINA RESULT:      -5.4      2.955      3.643
REMARK  3 active torsions:
REMARK  status: ('A' for Active; 'I' for Inactive)
REMARK       I    between atoms: C2_2  and  N4_4 
REMARK    1  A    between atoms: N4_4  and  S5_5 
REMARK    2  A    between atoms: S5_5  and  C8_8 
REMARK    3  A    between atoms: C11_11  and  N12_12 
ROOT
ATOM      1  C8  <0> d   1      18.625   1.825  11.669  0.00  0.00     0.081 A 
ATOM      2  C9  <0> d   1      17.882   2.709  12.430  0.00  0.00     0.027 A 
ATOM      3  C10 <0> d   1      17.414   3.881  11.869  0.00  0.00     0.030 A 
ATOM      4  C11 <0> d   1      17.691   4.171  10.539  0.00  0.00     0.025 A 
ATOM      5  C13 <0> d   1      18.438   3.281   9.778  0.00  0.00     0.030 A 
ATOM      6  C14 <0> d   1      18.907   2.114  10.347  0.00  0.00     0.027 A 
ENDROOT
BRANCH   1   7
ATOM      7  S5  <0> d   1      19.219   0.330  12.390  0.00  0.00     0.286 S 
ATOM      8  O6  <0> d   1      20.587   0.553  12.703  0.00  0.00    -0.198 OA
ATOM      9  O7  <0> d   1      18.775  -0.725  11.548  0.00  0.00    -0.198 OA
BRANCH   7  10
ATOM     10  N4  <0> d   1      18.434   0.137  13.835  0.00  0.00    -0.123 NA
ATOM     11  C2  <0> d   1      18.782  -0.869  14.662  0.00  0.00     0.250 C 
ATOM     12  C1  <0> d   1      18.067  -1.045  15.977  0.00  0.00     0.120 C 
ATOM     13  O3  <0> d   1      19.670  -1.632  14.347  0.00  0.00    -0.271 OA
ENDBRANCH   7  10
ENDBRANCH   1   7
BRANCH   4  14
ATOM     14  N12 <0> d   1      17.220   5.355   9.968  0.00  0.00    -0.399 N 
ATOM     15  H20 <0> d   1      16.946   5.370   9.037  0.00  0.00     0.156 HD
ATOM     16  H21 <0> d   1      17.166   6.163  10.501  0.00  0.00     0.156 HD
ENDBRANCH   4  14
TORSDOF 3
ENDMDL
MODEL 8
REMARK VINA RESULT:      -5.3      3.593      5.921
REMARK  3 active torsions:
REMARK  status: ('A' for Active; 'I' for Inactive)
REMARK       I    between atoms: C2_2  and  N4_4 
REMARK    1  A    between atoms: N4_4  and  S5_5 
REMARK    2  A    between atoms: S5_5  and  C8_8 
REMARK    3  A    between atoms: C11_11  and  N12_12 
ROOT
ATOM      1  C8  <0> d   1      18.304   0.434  13.158  0.00  0.00     0.081 A 
ATOM      2  C9  <0> d   1      17.602   0.783  14.298  0.00  0.00     0.027 A 
ATOM      3  C10 <0> d   1      17.832   0.113  15.484  0.00  0.00     0.030 A 
ATOM      4  C11 <0> d   1      18.768  -0.913  15.531  0.00  0.00     0.025 A 
ATOM      5  C13 <0> d   1      19.470  -1.260  14.383  0.00  0.00     0.030 A 
ATOM      6  C14 <0> d   1      19.232  -0.590  13.200  0.00  0.00     0.027 A 
ENDROOT
BRANCH   1   7
ATOM      7  S5  <0> d   1      18.009   1.292  11.648  0.00  0.00     0.286 S 
ATOM      8  O6  <0> d   1      16.948   0.606  10.998  0.00  0.00    -0.198 OA
ATOM      9  O7  <0> d   1      19.281   1.503  11.051  0.00  0.00    -0.198 OA
BRANCH   7  10
ATOM     10  N4  <0> d   1      17.424   2.791  12.042  0.00  0.00    -0.123 NA
ATOM     11  C2  <0> d   1      17.377   3.763  11.110  0.00  0.00     0.250 C 
ATOM     12  C1  <0> d   1      16.845   5.127  11.468  0.00  0.00     0.120 C 
ATOM     13  O3  <0> d   1      17.763   3.540   9.982  0.00  0.00    -0.271 OA
ENDBRANCH   7  10
ENDBRANCH   1   7
BRANCH   4  14
ATOM     14  N12 <0> d   1      19.002  -1.593  16.727  0.00  0.00    -0.399 N 
ATOM     15  H20 <0> d   1      18.618  -1.264  17.555  0.00  0.00     0.156 HD
ATOM     16  H21 <0> d   1      19.548  -2.394  16.731  0.00  0.00     0.156 HD
ENDBRANCH   4  14
TORSDOF 3
ENDMDL
MODEL 9
REMARK VINA RESULT:      -5.2      5.250      5.870
REMARK  3 active torsions:
REMARK  status: ('A' for Active; 'I' for Inactive)
REMARK       I    between atoms: C2_2  and  N4_4 
REMARK    1  A    between atoms: N4_4  and  S5_5 
REMARK    2  A    between atoms: S5_5  and  C8_8 
REMARK    3  A    between atoms: C11_11  and  N12_12 
ROOT
ATOM      1  C8  <0> d   1      18.344   3.786  14.910  0.00  0.00     0.081 A 
ATOM      2  C9  <0> d   1      18.246   2.824  13.922  0.00  0.00     0.027 A 
ATOM      3  C10 <0> d   1      17.771   3.164  12.670  0.00  0.00     0.030 A 
ATOM      4  C11 <0> d   1      17.392   4.475  12.405  0.00  0.00     0.025 A 
ATOM      5  C13 <0> d   1      17.493   5.438  13.401  0.00  0.00     0.030 A 
ATOM      6  C14 <0> d   1      17.963   5.090  14.651  0.00  0.00     0.027 A 
ENDROOT
BRANCH   1   7
ATOM      7  S5  <0> d   1      18.951   3.347  16.505  0.00  0.00     0.286 S 
ATOM      8  O6  <0> d   1      18.010   3.849  17.444  0.00  0.00    -0.198 OA
ATOM      9  O7  <0> d   1      20.329   3.697  16.520  0.00  0.00    -0.198 OA
BRANCH   7  10
ATOM     10  N4  <0> d   1      18.887   1.696  16.616  0.00  0.00    -0.123 NA
ATOM     11  C2  <0> d   1      19.252   1.082  17.760  0.00  0.00     0.250 C 
ATOM     12  C1  <0> d   1      19.194  -0.420  17.861  0.00  0.00     0.120 C 
ATOM     13  O3  <0> d   1      19.627   1.740  18.707  0.00  0.00    -0.271 OA
ENDBRANCH   7  10
ENDBRANCH   1   7
BRANCH   4  14
ATOM     14  N12 <0> d   1      16.911   4.823  11.141  0.00  0.00    -0.399 N 
ATOM     15  H20 <0> d   1      17.353   4.488  10.345  0.00  0.00     0.156 HD
ATOM     16  H21 <0> d   1      16.135   5.398  11.059  0.00  0.00     0.156 HD
ENDBRANCH   4  14
TORSDOF 3
ENDMDL
