MODEL 1
REMARK VINA RESULT:     -10.9      0.000      0.000
REMARK  14 active torsions:
REMARK  status: ('A' for Active; 'I' for Inactive)
REMARK    1  A    between atoms: C2_2  and  N5_5 
REMARK       I    between atoms: N5_5  and  C6_6 
REMARK    2  A    between atoms: C6_6  and  C8_8 
REMARK    3  A    between atoms: N11_10  and  C13_12 
REMARK    4  A    between atoms: C13_12  and  C14_13 
REMARK    5  A    between atoms: N22_21  and  C23_22 
REMARK    6  A    between atoms: C23_22  and  C24_23 
REMARK    7  A    between atoms: C24_23  and  O26_24 
REMARK    8  A    between atoms: C24_23  and  C27_25 
REMARK    9  A    between atoms: C27_25  and  C28_26 
REMARK   10  A    between atoms: C28_26  and  C30_27 
REMARK   11  A    between atoms: C28_26  and  C37_34 
REMARK   12  A    between atoms: C30_27  and  C31_28 
REMARK       I    between atoms: C37_34  and  N39_36 
REMARK   13  A    between atoms: N39_36  and  C40_37 
REMARK   14  A    between atoms: C49_45  and  O51_46 
ROOT
ATOM      1  C24 ZIN A   1      20.284  -0.089  11.455  0.00  0.00     0.147 C 
ENDROOT
BRANCH   1   2
ATOM      2  C23 ZIN A   1      20.372   0.985  12.540  0.00  0.00     0.305 C 
BRANCH   2   3
ATOM      3  N22 ZIN A   1      19.260   1.932  12.383  0.00  0.00     0.108 N 
ATOM      4  C8  ZIN A   1      18.794   2.420  13.688  0.00  0.00     0.339 C 
ATOM      5  C10 ZIN A   1      17.601   3.356  13.484  0.00  0.00     0.281 C 
ATOM      6  N11 ZIN A   1      18.003   4.484  12.636  0.00  0.00    -0.063 N 
ATOM      7  H12 ZIN A   1      18.761   4.983  13.076  0.00  0.00     0.280 HD
ATOM      8  C20 ZIN A   1      18.441   3.984  11.326  0.00  0.00     0.265 C 
ATOM      9  C21 ZIN A   1      19.641   3.054  11.512  0.00  0.00     0.301 C 
BRANCH   4  10
ATOM     10  C6  ZIN A   1      18.377   1.251  14.542  0.00  0.00     0.253 C 
ATOM     11  N5  ZIN A   1      18.993   1.022  15.719  0.00  0.00    -0.351 N 
ATOM     12  H61 ZIN A   1      19.706   1.610  16.016  0.00  0.00     0.163 HD
ATOM     13  O7  ZIN A   1      17.487   0.516  14.171  0.00  0.00    -0.271 OA
BRANCH  11  14
ATOM     14  C2  ZIN A   1      18.588  -0.114  16.549  0.00  0.00     0.022 C 
ATOM     15  C1  ZIN A   1      19.322  -0.056  17.890  0.00  0.00     0.037 C 
ATOM     16  C3  ZIN A   1      18.939  -1.420  15.833  0.00  0.00     0.037 C 
ATOM     17  C4  ZIN A   1      17.078  -0.057  16.792  0.00  0.00     0.037 C 
ENDBRANCH  11  14
ENDBRANCH   4  10
BRANCH   6  18
ATOM     18  C13 ZIN A   1      16.861   5.391  12.455  0.00  0.00     0.275 C 
BRANCH  18  19
ATOM     19  C14 ZIN A   1      16.552   6.078  13.761  0.00  0.00    -0.015 A 
ATOM     20  C19 ZIN A   1      15.324   5.903  14.371  0.00  0.00     0.125 A 
ATOM     21  N18 ZIN A   1      15.049   6.497  15.515  0.00  0.00    -0.273 NA
ATOM     22  C17 ZIN A   1      15.920   7.284  16.116  0.00  0.00     0.116 A 
ATOM     23  C16 ZIN A   1      17.166   7.511  15.562  0.00  0.00     0.020 A 
ATOM     24  C15 ZIN A   1      17.495   6.899  14.362  0.00  0.00     0.012 A 
ENDBRANCH  18  19
ENDBRANCH   6  18
ENDBRANCH   2   3
ENDBRANCH   1   2
BRANCH   1  25
ATOM     25  O26 ZIN A   1      21.601  -0.494  11.076  0.00  0.00    -0.394 OA
ATOM     26  H76 ZIN A   1      22.306  -0.032  11.549  0.00  0.00     0.210 HD
ENDBRANCH   1  25
BRANCH   1  27
ATOM     27  C27 ZIN A   1      19.515  -1.297  11.993  0.00  0.00     0.047 C 
BRANCH  27  28
ATOM     28  C28 ZIN A   1      19.770  -2.508  11.094  0.00  0.00     0.084 C 
BRANCH  28  29
ATOM     29  C30 ZIN A   1      19.416  -3.789  11.850  0.00  0.00     0.052 C 
BRANCH  29  30
ATOM     30  C31 ZIN A   1      18.920  -4.827  10.876  0.00  0.00    -0.057 A 
ATOM     31  C36 ZIN A   1      17.624  -5.298  10.969  0.00  0.00     0.007 A 
ATOM     32  C35 ZIN A   1      17.167  -6.247  10.073  0.00  0.00     0.001 A 
ATOM     33  C34 ZIN A   1      18.010  -6.731   9.090  0.00  0.00     0.000 A 
ATOM     34  C33 ZIN A   1      19.308  -6.264   9.001  0.00  0.00     0.001 A 
ATOM     35  C32 ZIN A   1      19.762  -5.312   9.894  0.00  0.00     0.007 A 
ENDBRANCH  29  30
ENDBRANCH  28  29
BRANCH  28  36
ATOM     36  C37 ZIN A   1      18.917  -2.403   9.856  0.00  0.00     0.222 C 
ATOM     37  O38 ZIN A   1      17.742  -2.120   9.952  0.00  0.00    -0.273 OA
ATOM     38  N39 ZIN A   1      19.460  -2.621   8.642  0.00  0.00    -0.350 N 
ATOM     39  H86 ZIN A   1      20.381  -2.918   8.569  0.00  0.00     0.163 HD
BRANCH  38  40
ATOM     40  C40 ZIN A   1      18.660  -2.412   7.432  0.00  0.00     0.147 C 
ATOM     41  C49 ZIN A   1      19.150  -3.339   6.299  0.00  0.00     0.149 C 
ATOM     42  C48 ZIN A   1      18.939  -2.463   5.044  0.00  0.00     0.073 C 
ATOM     43  C47 ZIN A   1      19.016  -1.035   5.538  0.00  0.00    -0.047 A 
ATOM     44  C42 ZIN A   1      18.856  -1.005   6.910  0.00  0.00    -0.027 A 
ATOM     45  C46 ZIN A   1      19.211   0.145   4.840  0.00  0.00     0.008 A 
ATOM     46  C43 ZIN A   1      18.892   0.205   7.582  0.00  0.00     0.010 A 
ATOM     47  C44 ZIN A   1      19.085   1.382   6.885  0.00  0.00     0.001 A 
ATOM     48  C45 ZIN A   1      19.245   1.352   5.513  0.00  0.00     0.001 A 
BRANCH  41  49
ATOM     49  O51 ZIN A   1      20.532  -3.662   6.467  0.00  0.00    -0.393 OA
ATOM     50  H93 ZIN A   1      21.137  -2.973   6.160  0.00  0.00     0.210 HD
ENDBRANCH  41  49
ENDBRANCH  38  40
ENDBRANCH  28  36
ENDBRANCH  27  28
ENDBRANCH   1  27
TORSDOF 14
ENDMDL
MODEL 2
REMARK VINA RESULT:     -10.9      1.930     10.376
REMARK  14 active torsions:
REMARK  status: ('A' for Active; 'I' for Inactive)
REMARK    1  A    between atoms: C2_2  and  N5_5 
REMARK       I    between atoms: N5_5  and  C6_6 
REMARK    2  A    between atoms: C6_6  and  C8_8 
REMARK    3  A    between atoms: N11_10  and  C13_12 
REMARK    4  A    between atoms: C13_12  and  C14_13 
REMARK    5  A    between atoms: N22_21  and  C23_22 
REMARK    6  A    between atoms: C23_22  and  C24_23 
REMARK    7  A    between atoms: C24_23  and  O26_24 
REMARK    8  A    between atoms: C24_23  and  C27_25 
REMARK    9  A    between atoms: C27_25  and  C28_26 
REMARK   10  A    between atoms: C28_26  and  C30_27 
REMARK   11  A    between atoms: C28_26  and  C37_34 
REMARK   12  A    between atoms: C30_27  and  C31_28 
REMARK       I    between atoms: C37_34  and  N39_36 
REMARK   13  A    between atoms: N39_36  and  C40_37 
REMARK   14  A    between atoms: C49_45  and  O51_46 
ROOT
ATOM      1  C24 ZIN A   1      20.298   0.334  11.707  0.00  0.00     0.147 C 
ENDROOT
BRANCH   1   2
ATOM      2  C23 ZIN A   1      20.344  -0.698  10.579  0.00  0.00     0.305 C 
BRANCH   2   3
ATOM      3  N22 ZIN A   1      19.238  -1.651  10.742  0.00  0.00     0.108 N 
ATOM      4  C8  ZIN A   1      18.845  -2.228   9.449  0.00  0.00     0.339 C 
ATOM      5  C10 ZIN A   1      17.655  -3.169   9.653  0.00  0.00     0.281 C 
ATOM      6  N11 ZIN A   1      18.028  -4.234  10.592  0.00  0.00    -0.063 N 
ATOM      7  H12 ZIN A   1      18.814  -4.747  10.222  0.00  0.00     0.280 HD
ATOM      8  C20 ZIN A   1      18.394  -3.644  11.887  0.00  0.00     0.265 C 
ATOM      9  C21 ZIN A   1      19.590  -2.708  11.700  0.00  0.00     0.301 C 
BRANCH   4  10
ATOM     10  C6  ZIN A   1      18.455  -1.122   8.502  0.00  0.00     0.253 C 
ATOM     11  N5  ZIN A   1      19.056  -1.022   7.300  0.00  0.00    -0.351 N 
ATOM     12  H61 ZIN A   1      19.740  -1.660   7.045  0.00  0.00     0.163 HD
ATOM     13  O7  ZIN A   1      17.601  -0.323   8.822  0.00  0.00    -0.271 OA
BRANCH  11  14
ATOM     14  C2  ZIN A   1      18.678   0.053   6.380  0.00  0.00     0.022 C 
ATOM     15  C1  ZIN A   1      19.422  -0.124   5.054  0.00  0.00     0.037 C 
ATOM     16  C3  ZIN A   1      19.049   1.405   6.995  0.00  0.00     0.037 C 
ATOM     17  C4  ZIN A   1      17.169   0.004   6.129  0.00  0.00     0.037 C 
ENDBRANCH  11  14
ENDBRANCH   4  10
BRANCH   6  18
ATOM     18  C13 ZIN A   1      16.891  -5.145  10.774  0.00  0.00     0.275 C 
BRANCH  18  19
ATOM     19  C14 ZIN A   1      16.608  -5.863   9.479  0.00  0.00    -0.015 A 
ATOM     20  C19 ZIN A   1      15.402  -5.685   8.828  0.00  0.00     0.125 A 
ATOM     21  N18 ZIN A   1      15.149  -6.306   7.693  0.00  0.00    -0.273 NA
ATOM     22  C17 ZIN A   1      16.024  -7.122   7.139  0.00  0.00     0.116 A 
ATOM     23  C16 ZIN A   1      17.249  -7.354   7.735  0.00  0.00     0.020 A 
ATOM     24  C15 ZIN A   1      17.554  -6.715   8.928  0.00  0.00     0.012 A 
ENDBRANCH  18  19
ENDBRANCH   6  18
ENDBRANCH   2   3
ENDBRANCH   1   2
BRANCH   1  25
ATOM     25  O26 ZIN A   1      21.630   0.704  12.070  0.00  0.00    -0.394 OA
ATOM     26  H76 ZIN A   1      22.143   1.088  11.347  0.00  0.00     0.210 HD
ENDBRANCH   1  25
BRANCH   1  27
ATOM     27  C27 ZIN A   1      19.537   1.574  11.235  0.00  0.00     0.047 C 
BRANCH  27  28
ATOM     28  C28 ZIN A   1      19.665   2.682  12.281  0.00  0.00     0.084 C 
BRANCH  28  29
ATOM     29  C30 ZIN A   1      19.221   4.013  11.672  0.00  0.00     0.052 C 
BRANCH  29  30
ATOM     30  C31 ZIN A   1      18.957   5.007  12.774  0.00  0.00    -0.057 A 
ATOM     31  C36 ZIN A   1      17.667   5.435  13.024  0.00  0.00     0.007 A 
ATOM     32  C35 ZIN A   1      17.423   6.343  14.037  0.00  0.00     0.001 A 
ATOM     33  C34 ZIN A   1      18.473   6.831  14.794  0.00  0.00     0.000 A 
ATOM     34  C33 ZIN A   1      19.764   6.408  14.540  0.00  0.00     0.001 A 
ATOM     35  C32 ZIN A   1      20.006   5.496  13.530  0.00  0.00     0.007 A 
ENDBRANCH  29  30
ENDBRANCH  28  29
BRANCH  28  36
ATOM     36  C37 ZIN A   1      18.794   2.357  13.468  0.00  0.00     0.222 C 
ATOM     37  O38 ZIN A   1      17.667   1.945  13.297  0.00  0.00    -0.273 OA
ATOM     38  N39 ZIN A   1      19.269   2.523  14.718  0.00  0.00    -0.350 N 
ATOM     39  H86 ZIN A   1      20.143   2.920  14.856  0.00  0.00     0.163 HD
BRANCH  38  40
ATOM     40  C40 ZIN A   1      18.465   2.104  15.869  0.00  0.00     0.147 C 
ATOM     41  C49 ZIN A   1      18.821   2.951  17.108  0.00  0.00     0.149 C 
ATOM     42  C48 ZIN A   1      18.673   1.930  18.259  0.00  0.00     0.073 C 
ATOM     43  C47 ZIN A   1      18.917   0.578  17.624  0.00  0.00    -0.047 A 
ATOM     44  C42 ZIN A   1      18.798   0.677  16.251  0.00  0.00    -0.027 A 
ATOM     45  C46 ZIN A   1      19.221  -0.643  18.203  0.00  0.00     0.008 A 
ATOM     46  C43 ZIN A   1      18.982  -0.444  15.460  0.00  0.00     0.010 A 
ATOM     47  C44 ZIN A   1      19.283  -1.662  16.039  0.00  0.00     0.001 A 
ATOM     48  C45 ZIN A   1      19.402  -1.761  17.413  0.00  0.00     0.001 A 
BRANCH  41  49
ATOM     49  O51 ZIN A   1      20.164   3.433  17.027  0.00  0.00    -0.393 OA
ATOM     50  H93 ZIN A   1      20.530   3.722  17.874  0.00  0.00     0.210 HD
ENDBRANCH  41  49
ENDBRANCH  38  40
ENDBRANCH  28  36
ENDBRANCH  27  28
ENDBRANCH   1  27
TORSDOF 14
ENDMDL
MODEL 3
REMARK VINA RESULT:     -10.6      2.204      9.900
REMARK  14 active torsions:
REMARK  status: ('A' for Active; 'I' for Inactive)
REMARK    1  A    between atoms: C2_2  and  N5_5 
REMARK       I    between atoms: N5_5  and  C6_6 
REMARK    2  A    between atoms: C6_6  and  C8_8 
REMARK    3  A    between atoms: N11_10  and  C13_12 
REMARK    4  A    between atoms: C13_12  and  C14_13 
REMARK    5  A    between atoms: N22_21  and  C23_22 
REMARK    6  A    between atoms: C23_22  and  C24_23 
REMARK    7  A    between atoms: C24_23  and  O26_24 
REMARK    8  A    between atoms: C24_23  and  C27_25 
REMARK    9  A    between atoms: C27_25  and  C28_26 
REMARK   10  A    between atoms: C28_26  and  C30_27 
REMARK   11  A    between atoms: C28_26  and  C37_34 
REMARK   12  A    between atoms: C30_27  and  C31_28 
REMARK       I    between atoms: C37_34  and  N39_36 
REMARK   13  A    between atoms: N39_36  and  C40_37 
REMARK   14  A    between atoms: C49_45  and  O51_46 
ROOT
ATOM      1  C24 ZIN A   1      18.517  -1.515  11.901  0.00  0.00     0.147 C 
ENDROOT
BRANCH   1   2
ATOM      2  C23 ZIN A   1      19.207  -2.357  10.827  0.00  0.00     0.305 C 
BRANCH   2   3
ATOM      3  N22 ZIN A   1      18.249  -3.321  10.270  0.00  0.00     0.108 N 
ATOM      4  C8  ZIN A   1      18.377  -3.410   8.809  0.00  0.00     0.339 C 
ATOM      5  C10 ZIN A   1      17.325  -4.378   8.264  0.00  0.00     0.281 C 
ATOM      6  N11 ZIN A   1      17.517  -5.701   8.871  0.00  0.00    -0.063 N 
ATOM      7  H12 ZIN A   1      18.442  -6.040   8.654  0.00  0.00     0.280 HD
ATOM      8  C20 ZIN A   1      17.359  -5.602  10.328  0.00  0.00     0.265 C 
ATOM      9  C21 ZIN A   1      18.412  -4.645  10.890  0.00  0.00     0.301 C 
BRANCH   4  10
ATOM     10  C6  ZIN A   1      18.169  -2.046   8.202  0.00  0.00     0.253 C 
ATOM     11  N5  ZIN A   1      18.827  -1.701   7.078  0.00  0.00    -0.351 N 
ATOM     12  H61 ZIN A   1      19.436  -2.330   6.660  0.00  0.00     0.163 HD
ATOM     13  O7  ZIN A   1      17.409  -1.260   8.726  0.00  0.00    -0.271 OA
BRANCH  11  14
ATOM     14  C2  ZIN A   1      18.625  -0.376   6.489  0.00  0.00     0.022 C 
ATOM     15  C1  ZIN A   1      17.133  -0.153   6.232  0.00  0.00     0.037 C 
ATOM     16  C3  ZIN A   1      19.388  -0.284   5.166  0.00  0.00     0.037 C 
ATOM     17  C4  ZIN A   1      19.143   0.696   7.451  0.00  0.00     0.037 C 
ENDBRANCH  11  14
ENDBRANCH   4  10
BRANCH   6  18
ATOM     18  C13 ZIN A   1      16.517  -6.634   8.334  0.00  0.00     0.275 C 
BRANCH  18  19
ATOM     19  C14 ZIN A   1      16.674  -6.735   6.838  0.00  0.00    -0.015 A 
ATOM     20  C19 ZIN A   1      17.898  -7.059   6.283  0.00  0.00     0.125 A 
ATOM     21  N18 ZIN A   1      18.043  -7.153   4.976  0.00  0.00    -0.273 NA
ATOM     22  C17 ZIN A   1      17.039  -6.934   4.150  0.00  0.00     0.116 A 
ATOM     23  C16 ZIN A   1      15.788  -6.599   4.631  0.00  0.00     0.020 A 
ATOM     24  C15 ZIN A   1      15.595  -6.497   6.001  0.00  0.00     0.012 A 
ENDBRANCH  18  19
ENDBRANCH   6  18
ENDBRANCH   2   3
ENDBRANCH   1   2
BRANCH   1  25
ATOM     25  O26 ZIN A   1      17.100  -1.616  11.750  0.00  0.00    -0.394 OA
ATOM     26  H76 ZIN A   1      16.766  -1.259  10.916  0.00  0.00     0.210 HD
ENDBRANCH   1  25
BRANCH   1  27
ATOM     27  C27 ZIN A   1      18.919  -2.024  13.286  0.00  0.00     0.047 C 
BRANCH  27  28
ATOM     28  C28 ZIN A   1      18.522  -0.994  14.345  0.00  0.00     0.084 C 
BRANCH  28  29
ATOM     29  C30 ZIN A   1      18.949  -1.492  15.726  0.00  0.00     0.052 C 
BRANCH  29  30
ATOM     30  C31 ZIN A   1      18.475  -0.523  16.779  0.00  0.00    -0.057 A 
ATOM     31  C36 ZIN A   1      17.129  -0.233  16.895  0.00  0.00     0.007 A 
ATOM     32  C35 ZIN A   1      16.692   0.652  17.863  0.00  0.00     0.001 A 
ATOM     33  C34 ZIN A   1      17.605   1.254  18.709  0.00  0.00     0.000 A 
ATOM     34  C33 ZIN A   1      18.952   0.969  18.589  0.00  0.00     0.001 A 
ATOM     35  C32 ZIN A   1      19.387   0.080  17.624  0.00  0.00     0.007 A 
ENDBRANCH  29  30
ENDBRANCH  28  29
BRANCH  28  36
ATOM     36  C37 ZIN A   1      19.205   0.317  14.051  0.00  0.00     0.222 C 
ATOM     37  O38 ZIN A   1      20.395   0.343  13.821  0.00  0.00    -0.273 OA
ATOM     38  N39 ZIN A   1      18.492   1.461  14.043  0.00  0.00    -0.350 N 
ATOM     39  H86 ZIN A   1      17.556   1.451  14.298  0.00  0.00     0.163 HD
BRANCH  38  40
ATOM     40  C40 ZIN A   1      19.131   2.720  13.650  0.00  0.00     0.147 C 
ATOM     41  C49 ZIN A   1      18.725   3.851  14.619  0.00  0.00     0.149 C 
ATOM     42  C48 ZIN A   1      18.660   5.078  13.683  0.00  0.00     0.073 C 
ATOM     43  C47 ZIN A   1      18.361   4.515  12.310  0.00  0.00    -0.047 A 
ATOM     44  C42 ZIN A   1      18.632   3.160  12.291  0.00  0.00    -0.027 A 
ATOM     45  C46 ZIN A   1      17.889   5.141  11.168  0.00  0.00     0.008 A 
ATOM     46  C43 ZIN A   1      18.430   2.434  11.130  0.00  0.00     0.010 A 
ATOM     47  C44 ZIN A   1      17.961   3.058   9.991  0.00  0.00     0.001 A 
ATOM     48  C45 ZIN A   1      17.690   4.414  10.010  0.00  0.00     0.001 A 
BRANCH  41  49
ATOM     49  O51 ZIN A   1      17.448   3.588  15.203  0.00  0.00    -0.393 OA
ATOM     50  H93 ZIN A   1      17.386   3.828  16.138  0.00  0.00     0.210 HD
ENDBRANCH  41  49
ENDBRANCH  38  40
ENDBRANCH  28  36
ENDBRANCH  27  28
ENDBRANCH   1  27
TORSDOF 14
ENDMDL
MODEL 4
REMARK VINA RESULT:     -10.6      1.958     10.039
REMARK  14 active torsions:
REMARK  status: ('A' for Active; 'I' for Inactive)
REMARK    1  A    between atoms: C2_2  and  N5_5 
REMARK       I    between atoms: N5_5  and  C6_6 
REMARK    2  A    between atoms: C6_6  and  C8_8 
REMARK    3  A    between atoms: N11_10  and  C13_12 
REMARK    4  A    between atoms: C13_12  and  C14_13 
REMARK    5  A    between atoms: N22_21  and  C23_22 
REMARK    6  A    between atoms: C23_22  and  C24_23 
REMARK    7  A    between atoms: C24_23  and  O26_24 
REMARK    8  A    between atoms: C24_23  and  C27_25 
REMARK    9  A    between atoms: C27_25  and  C28_26 
REMARK   10  A    between atoms: C28_26  and  C30_27 
REMARK   11  A    between atoms: C28_26  and  C37_34 
REMARK   12  A    between atoms: C30_27  and  C31_28 
REMARK       I    between atoms: C37_34  and  N39_36 
REMARK   13  A    between atoms: N39_36  and  C40_37 
REMARK   14  A    between atoms: C49_45  and  O51_46 
ROOT
ATOM      1  C24 ZIN A   1      20.430  -0.104  11.794  0.00  0.00     0.147 C 
ENDROOT
BRANCH   1   2
ATOM      2  C23 ZIN A   1      20.470  -0.957  10.525  0.00  0.00     0.305 C 
BRANCH   2   3
ATOM      3  N22 ZIN A   1      19.444  -2.005  10.606  0.00  0.00     0.108 N 
ATOM      4  C8  ZIN A   1      19.050  -2.463   9.267  0.00  0.00     0.339 C 
ATOM      5  C10 ZIN A   1      17.941  -3.510   9.394  0.00  0.00     0.281 C 
ATOM      6  N11 ZIN A   1      18.424  -4.641  10.195  0.00  0.00    -0.063 N 
ATOM      7  H12 ZIN A   1      19.233  -5.047   9.749  0.00  0.00     0.280 HD
ATOM      8  C20 ZIN A   1      18.789  -4.173  11.538  0.00  0.00     0.265 C 
ATOM      9  C21 ZIN A   1      19.906  -3.132  11.429  0.00  0.00     0.301 C 
BRANCH   4  10
ATOM     10  C6  ZIN A   1      18.548  -1.292   8.463  0.00  0.00     0.253 C 
ATOM     11  N5  ZIN A   1      19.117  -0.994   7.278  0.00  0.00    -0.351 N 
ATOM     12  H61 ZIN A   1      19.851  -1.533   6.944  0.00  0.00     0.163 HD
ATOM     13  O7  ZIN A   1      17.631  -0.618   8.881  0.00  0.00    -0.271 OA
BRANCH  11  14
ATOM     14  C2  ZIN A   1      18.629   0.144   6.497  0.00  0.00     0.022 C 
ATOM     15  C1  ZIN A   1      17.114   0.028   6.316  0.00  0.00     0.037 C 
ATOM     16  C3  ZIN A   1      19.307   0.149   5.125  0.00  0.00     0.037 C 
ATOM     17  C4  ZIN A   1      18.956   1.447   7.231  0.00  0.00     0.037 C 
ENDBRANCH  11  14
ENDBRANCH   4  10
BRANCH   6  18
ATOM     18  C13 ZIN A   1      17.364  -5.653  10.301  0.00  0.00     0.275 C 
BRANCH  18  19
ATOM     19  C14 ZIN A   1      17.248  -6.399   8.996  0.00  0.00    -0.015 A 
ATOM     20  C19 ZIN A   1      18.383  -6.784   8.307  0.00  0.00     0.125 A 
ATOM     21  N18 ZIN A   1      18.289  -7.441   7.167  0.00  0.00    -0.273 NA
ATOM     22  C17 ZIN A   1      17.122  -7.746   6.637  0.00  0.00     0.116 A 
ATOM     23  C16 ZIN A   1      15.944  -7.389   7.266  0.00  0.00     0.020 A 
ATOM     24  C15 ZIN A   1      16.002  -6.702   8.470  0.00  0.00     0.012 A 
ENDBRANCH  18  19
ENDBRANCH   6  18
ENDBRANCH   2   3
ENDBRANCH   1   2
BRANCH   1  25
ATOM     25  O26 ZIN A   1      21.683   0.561  11.962  0.00  0.00    -0.394 OA
ATOM     26  H76 ZIN A   1      21.689   1.217  12.672  0.00  0.00     0.210 HD
ENDBRANCH   1  25
BRANCH   1  27
ATOM     27  C27 ZIN A   1      19.314   0.936  11.676  0.00  0.00     0.047 C 
BRANCH  27  28
ATOM     28  C28 ZIN A   1      18.892   1.394  13.073  0.00  0.00     0.084 C 
BRANCH  28  29
ATOM     29  C30 ZIN A   1      19.744   0.679  14.123  0.00  0.00     0.052 C 
BRANCH  29  30
ATOM     30  C31 ZIN A   1      18.845  -0.027  15.105  0.00  0.00    -0.057 A 
ATOM     31  C36 ZIN A   1      17.777   0.645  15.671  0.00  0.00     0.007 A 
ATOM     32  C35 ZIN A   1      16.949  -0.003  16.568  0.00  0.00     0.001 A 
ATOM     33  C34 ZIN A   1      17.195  -1.321  16.907  0.00  0.00     0.000 A 
ATOM     34  C33 ZIN A   1      18.266  -1.991  16.346  0.00  0.00     0.001 A 
ATOM     35  C32 ZIN A   1      19.090  -1.344  15.445  0.00  0.00     0.007 A 
ENDBRANCH  29  30
ENDBRANCH  28  29
BRANCH  28  36
ATOM     36  C37 ZIN A   1      19.089   2.883  13.195  0.00  0.00     0.222 C 
ATOM     37  O38 ZIN A   1      19.291   3.551  12.204  0.00  0.00    -0.273 OA
ATOM     38  N39 ZIN A   1      19.039   3.472  14.406  0.00  0.00    -0.350 N 
ATOM     39  H86 ZIN A   1      18.951   2.931  15.206  0.00  0.00     0.163 HD
BRANCH  38  40
ATOM     40  C40 ZIN A   1      19.121   4.932  14.515  0.00  0.00     0.147 C 
ATOM     41  C49 ZIN A   1      19.860   5.331  15.809  0.00  0.00     0.149 C 
ATOM     42  C48 ZIN A   1      19.123   6.623  16.224  0.00  0.00     0.073 C 
ATOM     43  C47 ZIN A   1      17.737   6.498  15.629  0.00  0.00    -0.047 A 
ATOM     44  C42 ZIN A   1      17.735   5.526  14.647  0.00  0.00    -0.027 A 
ATOM     45  C46 ZIN A   1      16.569   7.182  15.925  0.00  0.00     0.008 A 
ATOM     46  C43 ZIN A   1      16.566   5.239  13.964  0.00  0.00     0.010 A 
ATOM     47  C44 ZIN A   1      15.402   5.923  14.258  0.00  0.00     0.001 A 
ATOM     48  C45 ZIN A   1      15.404   6.895  15.240  0.00  0.00     0.001 A 
BRANCH  41  49
ATOM     49  O51 ZIN A   1      19.719   4.321  16.810  0.00  0.00    -0.393 OA
ATOM     50  H93 ZIN A   1      20.067   3.458  16.550  0.00  0.00     0.210 HD
ENDBRANCH  41  49
ENDBRANCH  38  40
ENDBRANCH  28  36
ENDBRANCH  27  28
ENDBRANCH   1  27
TORSDOF 14
ENDMDL
MODEL 5
REMARK VINA RESULT:     -10.2      1.891      3.621
REMARK  14 active torsions:
REMARK  status: ('A' for Active; 'I' for Inactive)
REMARK    1  A    between atoms: C2_2  and  N5_5 
REMARK       I    between atoms: N5_5  and  C6_6 
REMARK    2  A    between atoms: C6_6  and  C8_8 
REMARK    3  A    between atoms: N11_10  and  C13_12 
REMARK    4  A    between atoms: C13_12  and  C14_13 
REMARK    5  A    between atoms: N22_21  and  C23_22 
REMARK    6  A    between atoms: C23_22  and  C24_23 
REMARK    7  A    between atoms: C24_23  and  O26_24 
REMARK    8  A    between atoms: C24_23  and  C27_25 
REMARK    9  A    between atoms: C27_25  and  C28_26 
REMARK   10  A    between atoms: C28_26  and  C30_27 
REMARK   11  A    between atoms: C28_26  and  C37_34 
REMARK   12  A    between atoms: C30_27  and  C31_28 
REMARK       I    between atoms: C37_34  and  N39_36 
REMARK   13  A    between atoms: N39_36  and  C40_37 
REMARK   14  A    between atoms: C49_45  and  O51_46 
ROOT
ATOM      1  C24 ZIN A   1      19.025  -0.676  12.637  0.00  0.00     0.147 C 
ENDROOT
BRANCH   1   2
ATOM      2  C23 ZIN A   1      17.854  -0.138  13.460  0.00  0.00     0.305 C 
BRANCH   2   3
ATOM      3  N22 ZIN A   1      18.369   0.591  14.628  0.00  0.00     0.108 N 
ATOM      4  C8  ZIN A   1      17.915   1.988  14.620  0.00  0.00     0.339 C 
ATOM      5  C10 ZIN A   1      18.520   2.725  15.817  0.00  0.00     0.281 C 
ATOM      6  N11 ZIN A   1      18.103   2.064  17.060  0.00  0.00    -0.063 N 
ATOM      7  H12 ZIN A   1      17.097   2.070  17.123  0.00  0.00     0.280 HD
ATOM      8  C20 ZIN A   1      18.586   0.676  17.065  0.00  0.00     0.265 C 
ATOM      9  C21 ZIN A   1      17.982  -0.077  15.879  0.00  0.00     0.301 C 
BRANCH   4  10
ATOM     10  C6  ZIN A   1      18.358   2.654  13.343  0.00  0.00     0.253 C 
ATOM     11  N5  ZIN A   1      17.458   3.284  12.563  0.00  0.00    -0.351 N 
ATOM     12  H61 ZIN A   1      16.523   3.307  12.823  0.00  0.00     0.163 HD
ATOM     13  O7  ZIN A   1      19.526   2.623  13.017  0.00  0.00    -0.271 OA
BRANCH  11  14
ATOM     14  C2  ZIN A   1      17.889   3.930  11.322  0.00  0.00     0.022 C 
ATOM     15  C1  ZIN A   1      18.147   2.865  10.254  0.00  0.00     0.037 C 
ATOM     16  C3  ZIN A   1      19.176   4.717  11.577  0.00  0.00     0.037 C 
ATOM     17  C4  ZIN A   1      16.795   4.885  10.836  0.00  0.00     0.037 C 
ENDBRANCH  11  14
ENDBRANCH   4  10
BRANCH   6  18
ATOM     18  C13 ZIN A   1      18.670   2.782  18.209  0.00  0.00     0.275 C 
BRANCH  18  19
ATOM     19  C14 ZIN A   1      17.635   3.719  18.777  0.00  0.00    -0.015 A 
ATOM     20  C19 ZIN A   1      16.597   3.231  19.549  0.00  0.00     0.125 A 
ATOM     21  N18 ZIN A   1      15.690   4.045  20.053  0.00  0.00    -0.273 NA
ATOM     22  C17 ZIN A   1      15.728   5.345  19.836  0.00  0.00     0.116 A 
ATOM     23  C16 ZIN A   1      16.732   5.904  19.069  0.00  0.00     0.020 A 
ATOM     24  C15 ZIN A   1      17.708   5.081  18.527  0.00  0.00     0.012 A 
ENDBRANCH  18  19
ENDBRANCH   6  18
ENDBRANCH   2   3
ENDBRANCH   1   2
BRANCH   1  25
ATOM     25  O26 ZIN A   1      20.248  -0.446  13.341  0.00  0.00    -0.394 OA
ATOM     26  H76 ZIN A   1      20.417  -1.077  14.054  0.00  0.00     0.210 HD
ENDBRANCH   1  25
BRANCH   1  27
ATOM     27  C27 ZIN A   1      18.843  -2.178  12.412  0.00  0.00     0.047 C 
BRANCH  27  28
ATOM     28  C28 ZIN A   1      19.691  -2.622  11.219  0.00  0.00     0.084 C 
BRANCH  28  29
ATOM     29  C30 ZIN A   1      20.150  -4.066  11.428  0.00  0.00     0.052 C 
BRANCH  29  30
ATOM     30  C31 ZIN A   1      19.222  -5.001  10.696  0.00  0.00    -0.057 A 
ATOM     31  C36 ZIN A   1      17.994  -5.323  11.243  0.00  0.00     0.007 A 
ATOM     32  C35 ZIN A   1      17.141  -6.177  10.570  0.00  0.00     0.001 A 
ATOM     33  C34 ZIN A   1      17.519  -6.716   9.354  0.00  0.00     0.000 A 
ATOM     34  C33 ZIN A   1      18.750  -6.398   8.810  0.00  0.00     0.001 A 
ATOM     35  C32 ZIN A   1      19.601  -5.540   9.481  0.00  0.00     0.007 A 
ENDBRANCH  29  30
ENDBRANCH  28  29
BRANCH  28  36
ATOM     36  C37 ZIN A   1      18.869  -2.535   9.958  0.00  0.00     0.222 C 
ATOM     37  O38 ZIN A   1      17.669  -2.373  10.026  0.00  0.00    -0.273 OA
ATOM     38  N39 ZIN A   1      19.468  -2.636   8.755  0.00  0.00    -0.350 N 
ATOM     39  H86 ZIN A   1      20.415  -2.838   8.699  0.00  0.00     0.163 HD
BRANCH  38  40
ATOM     40  C40 ZIN A   1      18.688  -2.441   7.529  0.00  0.00     0.147 C 
ATOM     41  C49 ZIN A   1      19.207  -3.370   6.412  0.00  0.00     0.149 C 
ATOM     42  C48 ZIN A   1      19.011  -2.505   5.147  0.00  0.00     0.073 C 
ATOM     43  C47 ZIN A   1      19.066  -1.073   5.633  0.00  0.00    -0.047 A 
ATOM     44  C42 ZIN A   1      18.881  -1.035   7.002  0.00  0.00    -0.027 A 
ATOM     45  C46 ZIN A   1      19.264   0.105   4.932  0.00  0.00     0.008 A 
ATOM     46  C43 ZIN A   1      18.894   0.179   7.666  0.00  0.00     0.010 A 
ATOM     47  C44 ZIN A   1      19.089   1.353   6.966  0.00  0.00     0.001 A 
ATOM     48  C45 ZIN A   1      19.275   1.316   5.597  0.00  0.00     0.001 A 
BRANCH  41  49
ATOM     49  O51 ZIN A   1      20.588  -3.680   6.606  0.00  0.00    -0.393 OA
ATOM     50  H93 ZIN A   1      21.042  -3.086   7.219  0.00  0.00     0.210 HD
ENDBRANCH  41  49
ENDBRANCH  38  40
ENDBRANCH  28  36
ENDBRANCH  27  28
ENDBRANCH   1  27
TORSDOF 14
ENDMDL
MODEL 6
REMARK VINA RESULT:     -10.2      1.660      4.436
REMARK  14 active torsions:
REMARK  status: ('A' for Active; 'I' for Inactive)
REMARK    1  A    between atoms: C2_2  and  N5_5 
REMARK       I    between atoms: N5_5  and  C6_6 
REMARK    2  A    between atoms: C6_6  and  C8_8 
REMARK    3  A    between atoms: N11_10  and  C13_12 
REMARK    4  A    between atoms: C13_12  and  C14_13 
REMARK    5  A    between atoms: N22_21  and  C23_22 
REMARK    6  A    between atoms: C23_22  and  C24_23 
REMARK    7  A    between atoms: C24_23  and  O26_24 
REMARK    8  A    between atoms: C24_23  and  C27_25 
REMARK    9  A    between atoms: C27_25  and  C28_26 
REMARK   10  A    between atoms: C28_26  and  C30_27 
REMARK   11  A    between atoms: C28_26  and  C37_34 
REMARK   12  A    between atoms: C30_27  and  C31_28 
REMARK       I    between atoms: C37_34  and  N39_36 
REMARK   13  A    between atoms: N39_36  and  C40_37 
REMARK   14  A    between atoms: C49_45  and  O51_46 
ROOT
ATOM      1  C24 ZIN A   1      18.574   1.222  11.231  0.00  0.00     0.147 C 
ENDROOT
BRANCH   1   2
ATOM      2  C23 ZIN A   1      19.249   2.026  12.344  0.00  0.00     0.305 C 
BRANCH   2   3
ATOM      3  N22 ZIN A   1      18.295   2.998  12.894  0.00  0.00     0.108 N 
ATOM      4  C8  ZIN A   1      18.372   3.042  14.360  0.00  0.00     0.339 C 
ATOM      5  C10 ZIN A   1      17.325   4.022  14.895  0.00  0.00     0.281 C 
ATOM      6  N11 ZIN A   1      17.571   5.356  14.335  0.00  0.00    -0.063 N 
ATOM      7  H12 ZIN A   1      18.497   5.664  14.594  0.00  0.00     0.280 HD
ATOM      8  C20 ZIN A   1      17.466   5.302  12.870  0.00  0.00     0.265 C 
ATOM      9  C21 ZIN A   1      18.514   4.334  12.319  0.00  0.00     0.301 C 
BRANCH   4  10
ATOM     10  C6  ZIN A   1      18.107   1.668  14.919  0.00  0.00     0.253 C 
ATOM     11  N5  ZIN A   1      18.793   1.233  15.994  0.00  0.00    -0.351 N 
ATOM     12  H61 ZIN A   1      19.460   1.805  16.407  0.00  0.00     0.163 HD
ATOM     13  O7  ZIN A   1      17.275   0.953  14.401  0.00  0.00    -0.271 OA
BRANCH  11  14
ATOM     14  C2  ZIN A   1      18.536  -0.103  16.536  0.00  0.00     0.022 C 
ATOM     15  C1  ZIN A   1      18.968  -1.160  15.517  0.00  0.00     0.037 C 
ATOM     16  C3  ZIN A   1      17.042  -0.257  16.826  0.00  0.00     0.037 C 
ATOM     17  C4  ZIN A   1      19.329  -0.290  17.832  0.00  0.00     0.037 C 
ENDBRANCH  11  14
ENDBRANCH   4  10
BRANCH   6  18
ATOM     18  C13 ZIN A   1      16.576   6.299  14.862  0.00  0.00     0.275 C 
BRANCH  18  19
ATOM     19  C14 ZIN A   1      16.802   6.494  16.340  0.00  0.00    -0.015 A 
ATOM     20  C19 ZIN A   1      17.992   7.024  16.802  0.00  0.00     0.125 A 
ATOM     21  N18 ZIN A   1      18.195   7.201  18.093  0.00  0.00    -0.273 NA
ATOM     22  C17 ZIN A   1      17.285   6.875  18.990  0.00  0.00     0.116 A 
ATOM     23  C16 ZIN A   1      16.073   6.335  18.602  0.00  0.00     0.020 A 
ATOM     24  C15 ZIN A   1      15.820   6.138  17.253  0.00  0.00     0.012 A 
ENDBRANCH  18  19
ENDBRANCH   6  18
ENDBRANCH   2   3
ENDBRANCH   1   2
BRANCH   1  25
ATOM     25  O26 ZIN A   1      17.154   1.300  11.380  0.00  0.00    -0.394 OA
ATOM     26  H76 ZIN A   1      16.868   1.685  12.219  0.00  0.00     0.210 HD
ENDBRANCH   1  25
BRANCH   1  27
ATOM     27  C27 ZIN A   1      18.975   1.795   9.871  0.00  0.00     0.047 C 
BRANCH  27  28
ATOM     28  C28 ZIN A   1      18.535   0.837   8.763  0.00  0.00     0.084 C 
BRANCH  28  29
ATOM     29  C30 ZIN A   1      18.892   1.435   7.401  0.00  0.00     0.052 C 
BRANCH  29  30
ATOM     30  C31 ZIN A   1      18.478   0.481   6.309  0.00  0.00    -0.057 A 
ATOM     31  C36 ZIN A   1      17.159   0.081   6.205  0.00  0.00     0.007 A 
ATOM     32  C35 ZIN A   1      16.778  -0.790   5.202  0.00  0.00     0.001 A 
ATOM     33  C34 ZIN A   1      17.719  -1.268   4.308  0.00  0.00     0.000 A 
ATOM     34  C33 ZIN A   1      19.039  -0.873   4.416  0.00  0.00     0.001 A 
ATOM     35  C32 ZIN A   1      19.418   0.002   5.416  0.00  0.00     0.007 A 
ENDBRANCH  29  30
ENDBRANCH  28  29
BRANCH  28  36
ATOM     36  C37 ZIN A   1      19.241  -0.484   8.932  0.00  0.00     0.222 C 
ATOM     37  O38 ZIN A   1      20.427  -0.510   9.183  0.00  0.00    -0.273 OA
ATOM     38  N39 ZIN A   1      18.553  -1.636   8.806  0.00  0.00    -0.350 N 
ATOM     39  H86 ZIN A   1      17.622  -1.618   8.533  0.00  0.00     0.163 HD
BRANCH  38  40
ATOM     40  C40 ZIN A   1      19.212  -2.917   9.078  0.00  0.00     0.147 C 
ATOM     41  C49 ZIN A   1      19.151  -3.825   7.832  0.00  0.00     0.149 C 
ATOM     42  C48 ZIN A   1      19.002  -5.231   8.456  0.00  0.00     0.073 C 
ATOM     43  C47 ZIN A   1      18.347  -5.000   9.801  0.00  0.00    -0.047 A 
ATOM     44  C42 ZIN A   1      18.467  -3.671  10.159  0.00  0.00    -0.027 A 
ATOM     45  C46 ZIN A   1      17.697  -5.885  10.645  0.00  0.00     0.008 A 
ATOM     46  C43 ZIN A   1      17.937  -3.229  11.359  0.00  0.00     0.010 A 
ATOM     47  C44 ZIN A   1      17.291  -4.113  12.201  0.00  0.00     0.001 A 
ATOM     48  C45 ZIN A   1      17.171  -5.442  11.843  0.00  0.00     0.001 A 
BRANCH  41  49
ATOM     49  O51 ZIN A   1      18.017  -3.506   7.023  0.00  0.00    -0.393 OA
ATOM     50  H93 ZIN A   1      18.186  -3.555   6.072  0.00  0.00     0.210 HD
ENDBRANCH  41  49
ENDBRANCH  38  40
ENDBRANCH  28  36
ENDBRANCH  27  28
ENDBRANCH   1  27
TORSDOF 14
ENDMDL
MODEL 7
REMARK VINA RESULT:     -10.1      1.808      4.200
REMARK  14 active torsions:
REMARK  status: ('A' for Active; 'I' for Inactive)
REMARK    1  A    between atoms: C2_2  and  N5_5 
REMARK       I    between atoms: N5_5  and  C6_6 
REMARK    2  A    between atoms: C6_6  and  C8_8 
REMARK    3  A    between atoms: N11_10  and  C13_12 
REMARK    4  A    between atoms: C13_12  and  C14_13 
REMARK    5  A    between atoms: N22_21  and  C23_22 
REMARK    6  A    between atoms: C23_22  and  C24_23 
REMARK    7  A    between atoms: C24_23  and  O26_24 
REMARK    8  A    between atoms: C24_23  and  C27_25 
REMARK    9  A    between atoms: C27_25  and  C28_26 
REMARK   10  A    between atoms: C28_26  and  C30_27 
REMARK   11  A    between atoms: C28_26  and  C37_34 
REMARK   12  A    between atoms: C30_27  and  C31_28 
REMARK       I    between atoms: C37_34  and  N39_36 
REMARK   13  A    between atoms: N39_36  and  C40_37 
REMARK   14  A    between atoms: C49_45  and  O51_46 
ROOT
ATOM      1  C24 ZIN A   1      20.019  -1.183  11.077  0.00  0.00     0.147 C 
ENDROOT
BRANCH   1   2
ATOM      2  C23 ZIN A   1      20.071  -0.237  12.278  0.00  0.00     0.305 C 
BRANCH   2   3
ATOM      3  N22 ZIN A   1      19.052   0.810  12.122  0.00  0.00     0.108 N 
ATOM      4  C8  ZIN A   1      18.851   1.542  13.379  0.00  0.00     0.339 C 
ATOM      5  C10 ZIN A   1      17.743   2.582  13.190  0.00  0.00     0.281 C 
ATOM      6  N11 ZIN A   1      18.121   3.510  12.118  0.00  0.00    -0.063 N 
ATOM      7  H12 ZIN A   1      18.987   3.968  12.359  0.00  0.00     0.280 HD
ATOM      8  C20 ZIN A   1      18.294   2.768  10.861  0.00  0.00     0.265 C 
ATOM      9  C21 ZIN A   1      19.406   1.731  11.032  0.00  0.00     0.301 C 
BRANCH   4  10
ATOM     10  C6  ZIN A   1      18.454   0.576  14.466  0.00  0.00     0.253 C 
ATOM     11  N5  ZIN A   1      18.997   0.684  15.694  0.00  0.00    -0.351 N 
ATOM     12  H61 ZIN A   1      19.644   1.383  15.879  0.00  0.00     0.163 HD
ATOM     13  O7  ZIN A   1      17.646  -0.298  14.234  0.00  0.00    -0.271 OA
BRANCH  11  14
ATOM     14  C2  ZIN A   1      18.612  -0.255  16.750  0.00  0.00     0.022 C 
ATOM     15  C1  ZIN A   1      19.292   0.144  18.062  0.00  0.00     0.037 C 
ATOM     16  C3  ZIN A   1      19.049  -1.668  16.360  0.00  0.00     0.037 C 
ATOM     17  C4  ZIN A   1      17.093  -0.224  16.933  0.00  0.00     0.037 C 
ENDBRANCH  11  14
ENDBRANCH   4  10
BRANCH   6  18
ATOM     18  C13 ZIN A   1      17.065   4.517  11.948  0.00  0.00     0.275 C 
BRANCH  18  19
ATOM     19  C14 ZIN A   1      17.007   5.395  13.173  0.00  0.00    -0.015 A 
ATOM     20  C19 ZIN A   1      15.790   5.740  13.730  0.00  0.00     0.125 A 
ATOM     21  N18 ZIN A   1      15.731   6.504  14.803  0.00  0.00    -0.273 NA
ATOM     22  C17 ZIN A   1      16.819   6.975  15.379  0.00  0.00     0.116 A 
ATOM     23  C16 ZIN A   1      18.071   6.678  14.875  0.00  0.00     0.020 A 
ATOM     24  C15 ZIN A   1      18.174   5.872  13.750  0.00  0.00     0.012 A 
ENDBRANCH  18  19
ENDBRANCH   6  18
ENDBRANCH   2   3
ENDBRANCH   1   2
BRANCH   1  25
ATOM     25  O26 ZIN A   1      20.937  -2.260  11.278  0.00  0.00    -0.394 OA
ATOM     26  H76 ZIN A   1      21.634  -2.068  11.920  0.00  0.00     0.210 HD
ENDBRANCH   1  25
BRANCH   1  27
ATOM     27  C27 ZIN A   1      18.603  -1.743  10.929  0.00  0.00     0.047 C 
BRANCH  27  28
ATOM     28  C28 ZIN A   1      18.322  -2.038   9.455  0.00  0.00     0.084 C 
BRANCH  28  29
ATOM     29  C30 ZIN A   1      19.360  -1.326   8.586  0.00  0.00     0.052 C 
BRANCH  29  30
ATOM     30  C31 ZIN A   1      18.783  -1.077   7.216  0.00  0.00    -0.057 A 
ATOM     31  C36 ZIN A   1      19.405  -1.601   6.098  0.00  0.00     0.007 A 
ATOM     32  C35 ZIN A   1      18.874  -1.377   4.842  0.00  0.00     0.001 A 
ATOM     33  C34 ZIN A   1      17.726  -0.619   4.703  0.00  0.00     0.000 A 
ATOM     34  C33 ZIN A   1      17.108  -0.089   5.820  0.00  0.00     0.001 A 
ATOM     35  C32 ZIN A   1      17.636  -0.319   7.076  0.00  0.00     0.007 A 
ENDBRANCH  29  30
ENDBRANCH  28  29
BRANCH  28  36
ATOM     36  C37 ZIN A   1      18.400  -3.524   9.215  0.00  0.00     0.222 C 
ATOM     37  O38 ZIN A   1      19.226  -4.190   9.802  0.00  0.00    -0.273 OA
ATOM     38  N39 ZIN A   1      17.551  -4.112   8.350  0.00  0.00    -0.350 N 
ATOM     39  H86 ZIN A   1      16.939  -3.571   7.826  0.00  0.00     0.163 HD
BRANCH  38  40
ATOM     40  C40 ZIN A   1      17.552  -5.570   8.198  0.00  0.00     0.147 C 
ATOM     41  C49 ZIN A   1      18.368  -5.978   6.954  0.00  0.00     0.149 C 
ATOM     42  C48 ZIN A   1      17.589  -7.209   6.439  0.00  0.00     0.073 C 
ATOM     43  C47 ZIN A   1      16.170  -7.013   6.927  0.00  0.00    -0.047 A 
ATOM     44  C42 ZIN A   1      16.147  -6.071   7.938  0.00  0.00    -0.027 A 
ATOM     45  C46 ZIN A   1      14.990  -7.613   6.517  0.00  0.00     0.008 A 
ATOM     46  C43 ZIN A   1      14.947  -5.731   8.537  0.00  0.00     0.010 A 
ATOM     47  C44 ZIN A   1      13.771  -6.331   8.129  0.00  0.00     0.001 A 
ATOM     48  C45 ZIN A   1      13.794  -7.273   7.117  0.00  0.00     0.001 A 
BRANCH  41  49
ATOM     49  O51 ZIN A   1      18.369  -4.933   5.979  0.00  0.00    -0.393 OA
ATOM     50  H93 ZIN A   1      17.525  -4.823   5.519  0.00  0.00     0.210 HD
ENDBRANCH  41  49
ENDBRANCH  38  40
ENDBRANCH  28  36
ENDBRANCH  27  28
ENDBRANCH   1  27
TORSDOF 14
ENDMDL
MODEL 8
REMARK VINA RESULT:     -10.1      2.884     10.335
REMARK  14 active torsions:
REMARK  status: ('A' for Active; 'I' for Inactive)
REMARK    1  A    between atoms: C2_2  and  N5_5 
REMARK       I    between atoms: N5_5  and  C6_6 
REMARK    2  A    between atoms: C6_6  and  C8_8 
REMARK    3  A    between atoms: N11_10  and  C13_12 
REMARK    4  A    between atoms: C13_12  and  C14_13 
REMARK    5  A    between atoms: N22_21  and  C23_22 
REMARK    6  A    between atoms: C23_22  and  C24_23 
REMARK    7  A    between atoms: C24_23  and  O26_24 
REMARK    8  A    between atoms: C24_23  and  C27_25 
REMARK    9  A    between atoms: C27_25  and  C28_26 
REMARK   10  A    between atoms: C28_26  and  C30_27 
REMARK   11  A    between atoms: C28_26  and  C37_34 
REMARK   12  A    between atoms: C30_27  and  C31_28 
REMARK       I    between atoms: C37_34  and  N39_36 
REMARK   13  A    between atoms: N39_36  and  C40_37 
REMARK   14  A    between atoms: C49_45  and  O51_46 
ROOT
ATOM      1  C24 ZIN A   1      18.122  -2.990  10.633  0.00  0.00     0.147 C 
ENDROOT
BRANCH   1   2
ATOM      2  C23 ZIN A   1      18.727  -4.114   9.789  0.00  0.00     0.305 C 
BRANCH   2   3
ATOM      3  N22 ZIN A   1      17.708  -4.641   8.871  0.00  0.00     0.108 N 
ATOM      4  C8  ZIN A   1      18.243  -4.774   7.510  0.00  0.00     0.339 C 
ATOM      5  C10 ZIN A   1      17.136  -5.269   6.575  0.00  0.00     0.281 C 
ATOM      6  N11 ZIN A   1      16.635  -6.564   7.053  0.00  0.00    -0.063 N 
ATOM      7  H12 ZIN A   1      17.392  -7.230   7.074  0.00  0.00     0.280 HD
ATOM      8  C20 ZIN A   1      16.079  -6.409   8.404  0.00  0.00     0.265 C 
ATOM      9  C21 ZIN A   1      17.178  -5.924   9.353  0.00  0.00     0.301 C 
BRANCH   4  10
ATOM     10  C6  ZIN A   1      18.744  -3.436   7.032  0.00  0.00     0.253 C 
ATOM     11  N5  ZIN A   1      17.884  -2.410   6.877  0.00  0.00    -0.351 N 
ATOM     12  H61 ZIN A   1      16.942  -2.534   7.073  0.00  0.00     0.163 HD
ATOM     13  O7  ZIN A   1      19.922  -3.283   6.787  0.00  0.00    -0.271 OA
BRANCH  11  14
ATOM     14  C2  ZIN A   1      18.372  -1.110   6.412  0.00  0.00     0.022 C 
ATOM     15  C1  ZIN A   1      19.165  -1.296   5.117  0.00  0.00     0.037 C 
ATOM     16  C3  ZIN A   1      19.278  -0.493   7.480  0.00  0.00     0.037 C 
ATOM     17  C4  ZIN A   1      17.183  -0.181   6.154  0.00  0.00     0.037 C 
ENDBRANCH  11  14
ENDBRANCH   4  10
BRANCH   6  18
ATOM     18  C13 ZIN A   1      15.585  -7.045   6.145  0.00  0.00     0.275 C 
BRANCH  18  19
ATOM     19  C14 ZIN A   1      16.215  -7.800   5.002  0.00  0.00    -0.015 A 
ATOM     20  C19 ZIN A   1      17.003  -8.908   5.245  0.00  0.00     0.125 A 
ATOM     21  N18 ZIN A   1      17.554  -9.576   4.250  0.00  0.00    -0.273 NA
ATOM     22  C17 ZIN A   1      17.386  -9.211   2.994  0.00  0.00     0.116 A 
ATOM     23  C16 ZIN A   1      16.616  -8.109   2.674  0.00  0.00     0.020 A 
ATOM     24  C15 ZIN A   1      16.015  -7.385   3.694  0.00  0.00     0.012 A 
ENDBRANCH  18  19
ENDBRANCH   6  18
ENDBRANCH   2   3
ENDBRANCH   1   2
BRANCH   1  25
ATOM     25  O26 ZIN A   1      16.989  -3.488  11.348  0.00  0.00    -0.394 OA
ATOM     26  H76 ZIN A   1      16.150  -3.091  11.081  0.00  0.00     0.210 HD
ENDBRANCH   1  25
BRANCH   1  27
ATOM     27  C27 ZIN A   1      19.167  -2.477  11.626  0.00  0.00     0.047 C 
BRANCH  27  28
ATOM     28  C28 ZIN A   1      18.474  -1.673  12.726  0.00  0.00     0.084 C 
BRANCH  28  29
ATOM     29  C30 ZIN A   1      19.520  -1.151  13.712  0.00  0.00     0.052 C 
BRANCH  29  30
ATOM     30  C31 ZIN A   1      18.836  -0.686  14.972  0.00  0.00    -0.057 A 
ATOM     31  C36 ZIN A   1      19.091   0.578  15.470  0.00  0.00     0.007 A 
ATOM     32  C35 ZIN A   1      18.461   1.007  16.623  0.00  0.00     0.001 A 
ATOM     33  C34 ZIN A   1      17.582   0.167  17.284  0.00  0.00     0.000 A 
ATOM     34  C33 ZIN A   1      17.332  -1.098  16.789  0.00  0.00     0.001 A 
ATOM     35  C32 ZIN A   1      17.959  -1.525  15.633  0.00  0.00     0.007 A 
ENDBRANCH  29  30
ENDBRANCH  28  29
BRANCH  28  36
ATOM     36  C37 ZIN A   1      17.739  -0.509  12.112  0.00  0.00     0.222 C 
ATOM     37  O38 ZIN A   1      16.527  -0.501  12.091  0.00  0.00    -0.273 OA
ATOM     38  N39 ZIN A   1      18.429   0.523  11.587  0.00  0.00    -0.350 N 
ATOM     39  H86 ZIN A   1      19.397   0.484  11.538  0.00  0.00     0.163 HD
BRANCH  38  40
ATOM     40  C40 ZIN A   1      17.718   1.703  11.090  0.00  0.00     0.147 C 
ATOM     41  C49 ZIN A   1      18.399   2.241   9.814  0.00  0.00     0.149 C 
ATOM     42  C48 ZIN A   1      18.203   3.767   9.954  0.00  0.00     0.073 C 
ATOM     43  C47 ZIN A   1      18.084   4.017  11.442  0.00  0.00    -0.047 A 
ATOM     44  C42 ZIN A   1      17.805   2.831  12.095  0.00  0.00    -0.027 A 
ATOM     45  C46 ZIN A   1      18.210   5.190  12.167  0.00  0.00     0.008 A 
ATOM     46  C43 ZIN A   1      17.653   2.821  13.471  0.00  0.00     0.010 A 
ATOM     47  C44 ZIN A   1      17.778   3.992  14.193  0.00  0.00     0.001 A 
ATOM     48  C45 ZIN A   1      18.057   5.178  13.540  0.00  0.00     0.001 A 
BRANCH  41  49
ATOM     49  O51 ZIN A   1      19.788   1.907   9.798  0.00  0.00    -0.393 OA
ATOM     50  H93 ZIN A   1      20.166   1.835   8.911  0.00  0.00     0.210 HD
ENDBRANCH  41  49
ENDBRANCH  38  40
ENDBRANCH  28  36
ENDBRANCH  27  28
ENDBRANCH   1  27
TORSDOF 14
ENDMDL
MODEL 9
REMARK VINA RESULT:     -10.0      2.125     10.192
REMARK  14 active torsions:
REMARK  status: ('A' for Active; 'I' for Inactive)
REMARK    1  A    between atoms: C2_2  and  N5_5 
REMARK       I    between atoms: N5_5  and  C6_6 
REMARK    2  A    between atoms: C6_6  and  C8_8 
REMARK    3  A    between atoms: N11_10  and  C13_12 
REMARK    4  A    between atoms: C13_12  and  C14_13 
REMARK    5  A    between atoms: N22_21  and  C23_22 
REMARK    6  A    between atoms: C23_22  and  C24_23 
REMARK    7  A    between atoms: C24_23  and  O26_24 
REMARK    8  A    between atoms: C24_23  and  C27_25 
REMARK    9  A    between atoms: C27_25  and  C28_26 
REMARK   10  A    between atoms: C28_26  and  C30_27 
REMARK   11  A    between atoms: C28_26  and  C37_34 
REMARK   12  A    between atoms: C30_27  and  C31_28 
REMARK       I    between atoms: C37_34  and  N39_36 
REMARK   13  A    between atoms: N39_36  and  C40_37 
REMARK   14  A    between atoms: C49_45  and  O51_46 
ROOT
ATOM      1  C24 ZIN A   1      19.544   0.853   9.252  0.00  0.00     0.147 C 
ENDROOT
BRANCH   1   2
ATOM      2  C23 ZIN A   1      20.053  -0.589   9.257  0.00  0.00     0.305 C 
BRANCH   2   3
ATOM      3  N22 ZIN A   1      18.935  -1.503   9.529  0.00  0.00     0.108 N 
ATOM      4  C8  ZIN A   1      18.964  -2.657   8.621  0.00  0.00     0.339 C 
ATOM      5  C10 ZIN A   1      17.753  -3.552   8.897  0.00  0.00     0.281 C 
ATOM      6  N11 ZIN A   1      17.787  -4.003  10.293  0.00  0.00    -0.063 N 
ATOM      7  H12 ZIN A   1      18.639  -4.516  10.460  0.00  0.00     0.280 HD
ATOM      8  C20 ZIN A   1      17.730  -2.840  11.189  0.00  0.00     0.265 C 
ATOM      9  C21 ZIN A   1      18.941  -1.941  10.932  0.00  0.00     0.301 C 
BRANCH   4  10
ATOM     10  C6  ZIN A   1      18.920  -2.176   7.193  0.00  0.00     0.253 C 
ATOM     11  N5  ZIN A   1      17.903  -1.397   6.776  0.00  0.00    -0.351 N 
ATOM     12  H61 ZIN A   1      17.199  -1.146   7.394  0.00  0.00     0.163 HD
ATOM     13  O7  ZIN A   1      19.799  -2.491   6.420  0.00  0.00    -0.271 OA
BRANCH  11  14
ATOM     14  C2  ZIN A   1      17.860  -0.930   5.388  0.00  0.00     0.022 C 
ATOM     15  C1  ZIN A   1      16.878   0.238   5.272  0.00  0.00     0.037 C 
ATOM     16  C3  ZIN A   1      17.400  -2.073   4.480  0.00  0.00     0.037 C 
ATOM     17  C4  ZIN A   1      19.255  -0.468   4.960  0.00  0.00     0.037 C 
ENDBRANCH  11  14
ENDBRANCH   4  10
BRANCH   6  18
ATOM     18  C13 ZIN A   1      16.633  -4.875  10.552  0.00  0.00     0.275 C 
BRANCH  18  19
ATOM     19  C14 ZIN A   1      16.435  -5.808   9.385  0.00  0.00    -0.015 A 
ATOM     20  C19 ZIN A   1      15.274  -5.758   8.637  0.00  0.00     0.125 A 
ATOM     21  N18 ZIN A   1      15.096  -6.568   7.612  0.00  0.00    -0.273 NA
ATOM     22  C17 ZIN A   1      16.004  -7.458   7.265  0.00  0.00     0.116 A 
ATOM     23  C16 ZIN A   1      17.188  -7.570   7.969  0.00  0.00     0.020 A 
ATOM     24  C15 ZIN A   1      17.414  -6.732   9.051  0.00  0.00     0.012 A 
ENDBRANCH  18  19
ENDBRANCH   6  18
ENDBRANCH   2   3
ENDBRANCH   1   2
BRANCH   1  25
ATOM     25  O26 ZIN A   1      18.989   1.158   7.971  0.00  0.00    -0.394 OA
ATOM     26  H76 ZIN A   1      18.871   0.387   7.399  0.00  0.00     0.210 HD
ENDBRANCH   1  25
BRANCH   1  27
ATOM     27  C27 ZIN A   1      18.468   1.019  10.326  0.00  0.00     0.047 C 
BRANCH  27  28
ATOM     28  C28 ZIN A   1      18.964   1.986  11.401  0.00  0.00     0.084 C 
BRANCH  28  29
ATOM     29  C30 ZIN A   1      17.781   2.781  11.958  0.00  0.00     0.052 C 
BRANCH  29  30
ATOM     30  C31 ZIN A   1      18.291   3.895  12.834  0.00  0.00    -0.057 A 
ATOM     31  C36 ZIN A   1      19.536   4.446  12.597  0.00  0.00     0.007 A 
ATOM     32  C35 ZIN A   1      20.003   5.472  13.398  0.00  0.00     0.001 A 
ATOM     33  C34 ZIN A   1      19.228   5.939  14.443  0.00  0.00     0.000 A 
ATOM     34  C33 ZIN A   1      17.986   5.384  14.684  0.00  0.00     0.001 A 
ATOM     35  C32 ZIN A   1      17.517   4.362  13.880  0.00  0.00     0.007 A 
ENDBRANCH  29  30
ENDBRANCH  28  29
BRANCH  28  36
ATOM     36  C37 ZIN A   1      19.615   1.208  12.516  0.00  0.00     0.222 C 
ATOM     37  O38 ZIN A   1      20.784   0.898  12.435  0.00  0.00    -0.273 OA
ATOM     38  N39 ZIN A   1      18.898   0.859  13.602  0.00  0.00    -0.350 N 
ATOM     39  H86 ZIN A   1      17.946   1.043  13.635  0.00  0.00     0.163 HD
BRANCH  38  40
ATOM     40  C40 ZIN A   1      19.556   0.200  14.734  0.00  0.00     0.147 C 
ATOM     41  C49 ZIN A   1      19.069  -1.258  14.861  0.00  0.00     0.149 C 
ATOM     42  C48 ZIN A   1      19.066  -1.472  16.391  0.00  0.00     0.073 C 
ATOM     43  C47 ZIN A   1      18.879  -0.093  16.985  0.00  0.00    -0.047 A 
ATOM     44  C42 ZIN A   1      19.160   0.869  16.033  0.00  0.00    -0.027 A 
ATOM     45  C46 ZIN A   1      18.492   0.289  18.258  0.00  0.00     0.008 A 
ATOM     46  C43 ZIN A   1      19.053   2.210  16.357  0.00  0.00     0.010 A 
ATOM     47  C44 ZIN A   1      18.669   2.591  17.628  0.00  0.00     0.001 A 
ATOM     48  C45 ZIN A   1      18.388   1.629  18.580  0.00  0.00     0.001 A 
BRANCH  41  49
ATOM     49  O51 ZIN A   1      17.752  -1.404  14.326  0.00  0.00    -0.393 OA
ATOM     50  H93 ZIN A   1      17.096  -0.817  14.727  0.00  0.00     0.210 HD
ENDBRANCH  41  49
ENDBRANCH  38  40
ENDBRANCH  28  36
ENDBRANCH  27  28
ENDBRANCH   1  27
TORSDOF 14
ENDMDL
