MODEL 1
REMARK VINA RESULT:      -8.9      0.000      0.000
REMARK  6 active torsions:
REMARK  status: ('A' for Active; 'I' for Inactive)
REMARK    1  A    between atoms: C2_2  and  O3_3 
REMARK    2  A    between atoms: C2_2  and  C19_16 
REMARK    3  A    between atoms: O3_3  and  C4_4 
REMARK    4  A    between atoms: C19_16  and  O20_17 
REMARK    5  A    between atoms: C19_16  and  C21_18 
REMARK    6  A    between atoms: C19_16  and  C27_24 
ROOT
ATOM      1  O1  <0> d   1      17.329  -1.816  12.283  0.00  0.00    -0.261 OA
ATOM      2  C2  <0> d   1      18.056  -0.978  11.805  0.00  0.00     0.303 C 
ENDROOT
BRANCH   2   3
ATOM      3  O3  <0> d   1      18.025  -0.737  10.485  0.00  0.00    -0.313 OA
BRANCH   3   4
ATOM      4  C4  <0> d   1      18.763  -1.649   9.630  0.00  0.00     0.136 C 
ATOM      5  C13 <0> d   1      19.956  -0.914   9.012  0.00  0.00     0.066 C 
ATOM      6  C11 <0> d   1      19.419   0.188   8.085  0.00  0.00     0.193 C 
ATOM      7  C10 <0> d   1      18.302   0.958   8.829  0.00  0.00     0.036 C 
ATOM      8  N14 <0> d   1      18.707  -0.508   6.969  0.00  0.00    -0.058 N 
ATOM      9  C9  <0> d   1      17.007   0.179   8.512  0.00  0.00     0.036 C 
ATOM     10  C7  <0> d   1      17.461  -0.990   7.605  0.00  0.00     0.193 C 
ATOM     11  C6  <0> d   1      17.842  -2.166   8.521  0.00  0.00     0.066 C 
ATOM     12  C18 <0> d   1      18.413   0.423   5.874  0.00  0.00     0.238 C 
ATOM     13  C15 <0> d   1      19.513  -1.627   6.457  0.00  0.00     0.238 C 
ATOM     14  C17 <0> d   1      19.066  -0.161   4.601  0.00  0.00     0.030 C 
ATOM     15  C16 <0> d   1      19.202  -1.670   4.938  0.00  0.00     0.030 C 
ENDBRANCH   3   4
ENDBRANCH   2   3
BRANCH   2  16
ATOM     16  C19 <0> d   1      18.994  -0.201  12.690  0.00  0.00     0.201 C 
BRANCH  16  17
ATOM     17  O20 <0> d   1      20.331  -0.666  12.494  0.00  0.00    -0.371 OA
ATOM     18  H49 <0> d   1      20.701  -1.131  13.257  0.00  0.00     0.212 HD
ENDBRANCH  16  17
BRANCH  16  19
ATOM     19  C21 <0> d   1      18.917   1.264  12.342  0.00  0.00    -0.009 A 
ATOM     20  C26 <0> d   1      17.696   1.912  12.348  0.00  0.00     0.011 A 
ATOM     21  C25 <0> d   1      17.626   3.256  12.034  0.00  0.00     0.001 A 
ATOM     22  C24 <0> d   1      18.775   3.950  11.705  0.00  0.00     0.000 A 
ATOM     23  C23 <0> d   1      19.996   3.301  11.694  0.00  0.00     0.001 A 
ATOM     24  C22 <0> d   1      20.067   1.957  12.013  0.00  0.00     0.011 A 
ENDBRANCH  16  19
BRANCH  16  25
ATOM     25  C27 <0> d   1      18.601  -0.395  14.133  0.00  0.00    -0.009 A 
ATOM     26  C32 <0> d   1      17.584   0.365  14.680  0.00  0.00     0.011 A 
ATOM     27  C31 <0> d   1      17.220   0.183  16.001  0.00  0.00     0.001 A 
ATOM     28  C30 <0> d   1      17.880  -0.751  16.777  0.00  0.00     0.000 A 
ATOM     29  C29 <0> d   1      18.901  -1.507  16.232  0.00  0.00     0.001 A 
ATOM     30  C28 <0> d   1      19.261  -1.329  14.909  0.00  0.00     0.011 A 
ENDBRANCH  16  25
ENDBRANCH   2  16
TORSDOF 6
ENDMDL
MODEL 2
REMARK VINA RESULT:      -8.7      1.552      3.596
REMARK  6 active torsions:
REMARK  status: ('A' for Active; 'I' for Inactive)
REMARK    1  A    between atoms: C2_2  and  O3_3 
REMARK    2  A    between atoms: C2_2  and  C19_16 
REMARK    3  A    between atoms: O3_3  and  C4_4 
REMARK    4  A    between atoms: C19_16  and  O20_17 
REMARK    5  A    between atoms: C19_16  and  C21_18 
REMARK    6  A    between atoms: C19_16  and  C27_24 
ROOT
ATOM      1  O1  <0> d   1      18.290   1.268  12.413  0.00  0.00    -0.261 OA
ATOM      2  C2  <0> d   1      18.675   0.211  11.973  0.00  0.00     0.303 C 
ENDROOT
BRANCH   2   3
ATOM      3  O3  <0> d   1      18.484  -0.086  10.678  0.00  0.00    -0.313 OA
BRANCH   3   4
ATOM      4  C4  <0> d   1      19.151   0.757   9.702  0.00  0.00     0.136 C 
ATOM      5  C13 <0> d   1      18.104   1.430   8.811  0.00  0.00     0.066 C 
ATOM      6  C11 <0> d   1      17.384   0.340   8.000  0.00  0.00     0.193 C 
ATOM      7  C10 <0> d   1      16.999  -0.813   8.958  0.00  0.00     0.036 C 
ATOM      8  N14 <0> d   1      18.411  -0.262   7.094  0.00  0.00    -0.058 N 
ATOM      9  C9  <0> d   1      18.227  -1.749   8.964  0.00  0.00     0.036 C 
ATOM     10  C7  <0> d   1      19.242  -1.075   8.009  0.00  0.00     0.193 C 
ATOM     11  C6  <0> d   1      20.089  -0.100   8.846  0.00  0.00     0.066 C 
ATOM     12  C18 <0> d   1      17.780  -1.100   6.071  0.00  0.00     0.238 C 
ATOM     13  C15 <0> d   1      19.208   0.790   6.443  0.00  0.00     0.238 C 
ATOM     14  C17 <0> d   1      18.222  -0.544   4.698  0.00  0.00     0.030 C 
ATOM     15  C16 <0> d   1      19.529   0.222   5.036  0.00  0.00     0.030 C 
ENDBRANCH   3   4
ENDBRANCH   2   3
BRANCH   2  16
ATOM     16  C19 <0> d   1      19.373  -0.772  12.876  0.00  0.00     0.201 C 
BRANCH  16  17
ATOM     17  O20 <0> d   1      20.765  -0.455  12.940  0.00  0.00    -0.371 OA
ATOM     18  H49 <0> d   1      21.269  -1.022  13.540  0.00  0.00     0.212 HD
ENDBRANCH  16  17
BRANCH  16  19
ATOM     19  C21 <0> d   1      18.777  -0.696  14.258  0.00  0.00    -0.009 A 
ATOM     20  C26 <0> d   1      17.692   0.125  14.499  0.00  0.00     0.011 A 
ATOM     21  C25 <0> d   1      17.142   0.191  15.765  0.00  0.00     0.001 A 
ATOM     22  C24 <0> d   1      17.682  -0.559  16.793  0.00  0.00     0.000 A 
ATOM     23  C23 <0> d   1      18.771  -1.377  16.554  0.00  0.00     0.001 A 
ATOM     24  C22 <0> d   1      19.318  -1.446  15.286  0.00  0.00     0.011 A 
ENDBRANCH  16  19
BRANCH  16  25
ATOM     25  C27 <0> d   1      19.199  -2.167  12.331  0.00  0.00    -0.009 A 
ATOM     26  C32 <0> d   1      17.954  -2.768  12.352  0.00  0.00     0.011 A 
ATOM     27  C31 <0> d   1      17.794  -4.045  11.848  0.00  0.00     0.001 A 
ATOM     28  C30 <0> d   1      18.881  -4.725  11.331  0.00  0.00     0.000 A 
ATOM     29  C29 <0> d   1      20.128  -4.127  11.315  0.00  0.00     0.001 A 
ATOM     30  C28 <0> d   1      20.286  -2.848  11.815  0.00  0.00     0.011 A 
ENDBRANCH  16  25
ENDBRANCH   2  16
TORSDOF 6
ENDMDL
MODEL 3
REMARK VINA RESULT:      -8.6      1.857      3.249
REMARK  6 active torsions:
REMARK  status: ('A' for Active; 'I' for Inactive)
REMARK    1  A    between atoms: C2_2  and  O3_3 
REMARK    2  A    between atoms: C2_2  and  C19_16 
REMARK    3  A    between atoms: O3_3  and  C4_4 
REMARK    4  A    between atoms: C19_16  and  O20_17 
REMARK    5  A    between atoms: C19_16  and  C21_18 
REMARK    6  A    between atoms: C19_16  and  C27_24 
ROOT
ATOM      1  O1  <0> d   1      18.473   3.511   9.722  0.00  0.00    -0.261 OA
ATOM      2  C2  <0> d   1      18.739   2.586  10.453  0.00  0.00     0.303 C 
ENDROOT
BRANCH   2   3
ATOM      3  O3  <0> d   1      18.574   1.325  10.027  0.00  0.00    -0.313 OA
BRANCH   3   4
ATOM      4  C4  <0> d   1      19.356   0.909   8.877  0.00  0.00     0.136 C 
ATOM      5  C13 <0> d   1      18.416   0.577   7.715  0.00  0.00     0.066 C 
ATOM      6  C11 <0> d   1      17.570  -0.644   8.110  0.00  0.00     0.193 C 
ATOM      7  C10 <0> d   1      17.027  -0.426   9.542  0.00  0.00     0.036 C 
ATOM      8  N14 <0> d   1      18.520  -1.791   8.247  0.00  0.00    -0.058 N 
ATOM      9  C9  <0> d   1      18.123  -0.992  10.471  0.00  0.00     0.036 C 
ATOM     10  C7  <0> d   1      19.228  -1.501   9.514  0.00  0.00     0.193 C 
ATOM     11  C6  <0> d   1      20.184  -0.326   9.244  0.00  0.00     0.066 C 
ATOM     12  C18 <0> d   1      17.796  -3.064   8.327  0.00  0.00     0.238 C 
ATOM     13  C15 <0> d   1      19.454  -1.830   7.111  0.00  0.00     0.238 C 
ATOM     14  C17 <0> d   1      18.323  -3.953   7.178  0.00  0.00     0.030 C 
ATOM     15  C16 <0> d   1      19.715  -3.339   6.870  0.00  0.00     0.030 C 
ENDBRANCH   3   4
ENDBRANCH   2   3
BRANCH   2  16
ATOM     16  C19 <0> d   1      19.259   2.851  11.842  0.00  0.00     0.201 C 
BRANCH  16  17
ATOM     17  O20 <0> d   1      20.649   3.179  11.776  0.00  0.00    -0.371 OA
ATOM     18  H49 <0> d   1      20.858   3.875  11.138  0.00  0.00     0.212 HD
ENDBRANCH  16  17
BRANCH  16  19
ATOM     19  C21 <0> d   1      18.501   4.001  12.453  0.00  0.00    -0.009 A 
ATOM     20  C26 <0> d   1      19.078   4.754  13.458  0.00  0.00     0.011 A 
ATOM     21  C25 <0> d   1      18.384   5.811  14.015  0.00  0.00     0.001 A 
ATOM     22  C24 <0> d   1      17.109   6.111  13.572  0.00  0.00     0.000 A 
ATOM     23  C23 <0> d   1      16.529   5.355  12.570  0.00  0.00     0.001 A 
ATOM     24  C22 <0> d   1      17.226   4.300  12.010  0.00  0.00     0.011 A 
ENDBRANCH  16  19
BRANCH  16  25
ATOM     25  C27 <0> d   1      19.073   1.619  12.692  0.00  0.00    -0.009 A 
ATOM     26  C32 <0> d   1      20.136   0.763  12.911  0.00  0.00     0.011 A 
ATOM     27  C31 <0> d   1      19.966  -0.363  13.694  0.00  0.00     0.001 A 
ATOM     28  C30 <0> d   1      18.731  -0.639  14.249  0.00  0.00     0.000 A 
ATOM     29  C29 <0> d   1      17.665   0.214  14.025  0.00  0.00     0.001 A 
ATOM     30  C28 <0> d   1      17.837   1.343  13.246  0.00  0.00     0.011 A 
ENDBRANCH  16  25
ENDBRANCH   2  16
TORSDOF 6
ENDMDL
MODEL 4
REMARK VINA RESULT:      -8.6      2.255      6.858
REMARK  6 active torsions:
REMARK  status: ('A' for Active; 'I' for Inactive)
REMARK    1  A    between atoms: C2_2  and  O3_3 
REMARK    2  A    between atoms: C2_2  and  C19_16 
REMARK    3  A    between atoms: O3_3  and  C4_4 
REMARK    4  A    between atoms: C19_16  and  O20_17 
REMARK    5  A    between atoms: C19_16  and  C21_18 
REMARK    6  A    between atoms: C19_16  and  C27_24 
ROOT
ATOM      1  O1  <0> d   1      18.286  -1.354  10.690  0.00  0.00    -0.261 OA
ATOM      2  C2  <0> d   1      18.618  -0.280  11.134  0.00  0.00     0.303 C 
ENDROOT
BRANCH   2   3
ATOM      3  O3  <0> d   1      18.423  -0.001  12.432  0.00  0.00    -0.313 OA
BRANCH   3   4
ATOM      4  C4  <0> d   1      19.141  -0.815  13.396  0.00  0.00     0.136 C 
ATOM      5  C13 <0> d   1      18.138  -1.520  14.313  0.00  0.00     0.066 C 
ATOM      6  C11 <0> d   1      17.398  -0.452  15.135  0.00  0.00     0.193 C 
ATOM      7  C10 <0> d   1      16.951   0.682  14.181  0.00  0.00     0.036 C 
ATOM      8  N14 <0> d   1      18.422   0.190  16.015  0.00  0.00    -0.058 N 
ATOM      9  C9  <0> d   1      18.145   1.660  14.143  0.00  0.00     0.036 C 
ATOM     10  C7  <0> d   1      19.204   1.027  15.079  0.00  0.00     0.193 C 
ATOM     11  C6  <0> d   1      20.066   0.078  14.228  0.00  0.00     0.066 C 
ATOM     12  C18 <0> d   1      17.784   1.010  17.049  0.00  0.00     0.238 C 
ATOM     13  C15 <0> d   1      19.269  -0.830  16.654  0.00  0.00     0.238 C 
ATOM     14  C17 <0> d   1      18.275   0.477  18.414  0.00  0.00     0.030 C 
ATOM     15  C16 <0> d   1      19.601  -0.244  18.051  0.00  0.00     0.030 C 
ENDBRANCH   3   4
ENDBRANCH   2   3
BRANCH   2  16
ATOM     16  C19 <0> d   1      19.254   0.744  10.230  0.00  0.00     0.201 C 
BRANCH  16  17
ATOM     17  O20 <0> d   1      20.666   0.530  10.187  0.00  0.00    -0.371 OA
ATOM     18  H49 <0> d   1      21.176   1.167  10.707  0.00  0.00     0.212 HD
ENDBRANCH  16  17
BRANCH  16  19
ATOM     19  C21 <0> d   1      18.684   0.613   8.842  0.00  0.00    -0.009 A 
ATOM     20  C26 <0> d   1      17.512  -0.090   8.639  0.00  0.00     0.011 A 
ATOM     21  C25 <0> d   1      16.986  -0.206   7.366  0.00  0.00     0.001 A 
ATOM     22  C24 <0> d   1      17.638   0.375   6.294  0.00  0.00     0.000 A 
ATOM     23  C23 <0> d   1      18.814   1.074   6.495  0.00  0.00     0.001 A 
ATOM     24  C22 <0> d   1      19.337   1.194   7.769  0.00  0.00     0.011 A 
ENDBRANCH  16  19
BRANCH  16  25
ATOM     25  C27 <0> d   1      18.972   2.127  10.760  0.00  0.00    -0.009 A 
ATOM     26  C32 <0> d   1      19.958   2.826  11.431  0.00  0.00     0.011 A 
ATOM     27  C31 <0> d   1      19.700   4.096  11.913  0.00  0.00     0.001 A 
ATOM     28  C30 <0> d   1      18.453   4.662  11.732  0.00  0.00     0.000 A 
ATOM     29  C29 <0> d   1      17.463   3.961  11.067  0.00  0.00     0.001 A 
ATOM     30  C28 <0> d   1      17.724   2.694  10.581  0.00  0.00     0.011 A 
ENDBRANCH  16  25
ENDBRANCH   2  16
TORSDOF 6
ENDMDL
MODEL 5
REMARK VINA RESULT:      -8.6      2.467      7.477
REMARK  6 active torsions:
REMARK  status: ('A' for Active; 'I' for Inactive)
REMARK    1  A    between atoms: C2_2  and  O3_3 
REMARK    2  A    between atoms: C2_2  and  C19_16 
REMARK    3  A    between atoms: O3_3  and  C4_4 
REMARK    4  A    between atoms: C19_16  and  O20_17 
REMARK    5  A    between atoms: C19_16  and  C21_18 
REMARK    6  A    between atoms: C19_16  and  C27_24 
ROOT
ATOM      1  O1  <0> d   1      17.421   1.912  10.559  0.00  0.00    -0.261 OA
ATOM      2  C2  <0> d   1      18.101   1.055  11.072  0.00  0.00     0.303 C 
ENDROOT
BRANCH   2   3
ATOM      3  O3  <0> d   1      18.052   0.865  12.400  0.00  0.00    -0.313 OA
BRANCH   3   4
ATOM      4  C4  <0> d   1      18.810   1.788  13.226  0.00  0.00     0.136 C 
ATOM      5  C13 <0> d   1      19.991   1.048  13.863  0.00  0.00     0.066 C 
ATOM      6  C11 <0> d   1      19.435  -0.016  14.823  0.00  0.00     0.193 C 
ATOM      7  C10 <0> d   1      18.301  -0.786  14.104  0.00  0.00     0.036 C 
ATOM      8  N14 <0> d   1      18.738   0.726  15.919  0.00  0.00    -0.058 N 
ATOM      9  C9  <0> d   1      17.022   0.027  14.400  0.00  0.00     0.036 C 
ATOM     10  C7  <0> d   1      17.501   1.213  15.272  0.00  0.00     0.193 C 
ATOM     11  C6  <0> d   1      17.901   2.354  14.321  0.00  0.00     0.066 C 
ATOM     12  C18 <0> d   1      18.430  -0.167  17.041  0.00  0.00     0.238 C 
ATOM     13  C15 <0> d   1      19.567   1.844  16.397  0.00  0.00     0.238 C 
ATOM     14  C17 <0> d   1      19.096   0.442  18.296  0.00  0.00     0.030 C 
ATOM     15  C16 <0> d   1      19.261   1.937  17.914  0.00  0.00     0.030 C 
ENDBRANCH   3   4
ENDBRANCH   2   3
BRANCH   2  16
ATOM     16  C19 <0> d   1      19.000   0.196  10.221  0.00  0.00     0.201 C 
BRANCH  16  17
ATOM     17  O20 <0> d   1      20.353   0.630  10.367  0.00  0.00    -0.371 OA
ATOM     18  H49 <0> d   1      20.713   1.063   9.581  0.00  0.00     0.212 HD
ENDBRANCH  16  17
BRANCH  16  19
ATOM     19  C21 <0> d   1      18.884  -1.241  10.659  0.00  0.00    -0.009 A 
ATOM     20  C26 <0> d   1      17.649  -1.863  10.670  0.00  0.00     0.011 A 
ATOM     21  C25 <0> d   1      17.544  -3.183  11.067  0.00  0.00     0.001 A 
ATOM     22  C24 <0> d   1      18.672  -3.879  11.461  0.00  0.00     0.000 A 
ATOM     23  C23 <0> d   1      19.906  -3.255  11.455  0.00  0.00     0.001 A 
ATOM     24  C22 <0> d   1      20.012  -1.936  11.054  0.00  0.00     0.011 A 
ENDBRANCH  16  19
BRANCH  16  25
ATOM     25  C27 <0> d   1      18.586   0.315   8.776  0.00  0.00    -0.009 A 
ATOM     26  C32 <0> d   1      19.325   1.096   7.907  0.00  0.00     0.011 A 
ATOM     27  C31 <0> d   1      18.949   1.201   6.581  0.00  0.00     0.001 A 
ATOM     28  C30 <0> d   1      17.829   0.533   6.126  0.00  0.00     0.000 A 
ATOM     29  C29 <0> d   1      17.085  -0.245   6.996  0.00  0.00     0.001 A 
ATOM     30  C28 <0> d   1      17.465  -0.353   8.320  0.00  0.00     0.011 A 
ENDBRANCH  16  25
ENDBRANCH   2  16
TORSDOF 6
ENDMDL
MODEL 6
REMARK VINA RESULT:      -8.5      2.395      3.845
REMARK  6 active torsions:
REMARK  status: ('A' for Active; 'I' for Inactive)
REMARK    1  A    between atoms: C2_2  and  O3_3 
REMARK    2  A    between atoms: C2_2  and  C19_16 
REMARK    3  A    between atoms: O3_3  and  C4_4 
REMARK    4  A    between atoms: C19_16  and  O20_17 
REMARK    5  A    between atoms: C19_16  and  C21_18 
REMARK    6  A    between atoms: C19_16  and  C27_24 
ROOT
ATOM      1  O1  <0> d   1      20.659  -0.398   9.819  0.00  0.00    -0.261 OA
ATOM      2  C2  <0> d   1      20.123  -0.616  10.880  0.00  0.00     0.303 C 
ENDROOT
BRANCH   2   3
ATOM      3  O3  <0> d   1      19.477  -1.775  11.080  0.00  0.00    -0.313 OA
BRANCH   3   4
ATOM      4  C4  <0> d   1      18.185  -1.929  10.437  0.00  0.00     0.136 C 
ATOM      5  C13 <0> d   1      17.293  -2.829  11.298  0.00  0.00     0.066 C 
ATOM      6  C11 <0> d   1      17.914  -4.235  11.334  0.00  0.00     0.193 C 
ATOM      7  C10 <0> d   1      19.428  -4.098  11.621  0.00  0.00     0.036 C 
ATOM      8  N14 <0> d   1      17.850  -4.762   9.936  0.00  0.00    -0.058 N 
ATOM      9  C9  <0> d   1      20.081  -3.938  10.231  0.00  0.00     0.036 C 
ATOM     10  C7  <0> d   1      18.900  -3.994   9.231  0.00  0.00     0.193 C 
ATOM     11  C6  <0> d   1      18.376  -2.559   9.054  0.00  0.00     0.066 C 
ATOM     12  C18 <0> d   1      18.137  -6.199   9.904  0.00  0.00     0.238 C 
ATOM     13  C15 <0> d   1      16.524  -4.515   9.348  0.00  0.00     0.238 C 
ATOM     14  C17 <0> d   1      16.921  -6.886   9.244  0.00  0.00     0.030 C 
ATOM     15  C16 <0> d   1      16.270  -5.738   8.429  0.00  0.00     0.030 C 
ENDBRANCH   3   4
ENDBRANCH   2   3
BRANCH   2  16
ATOM     16  C19 <0> d   1      20.185   0.412  11.980  0.00  0.00     0.201 C 
BRANCH  16  17
ATOM     17  O20 <0> d   1      21.550   0.682  12.303  0.00  0.00    -0.371 OA
ATOM     18  H49 <0> d   1      22.125  -0.095  12.262  0.00  0.00     0.212 HD
ENDBRANCH  16  17
BRANCH  16  19
ATOM     19  C21 <0> d   1      19.517   1.682  11.519  0.00  0.00    -0.009 A 
ATOM     20  C26 <0> d   1      18.483   1.627  10.604  0.00  0.00     0.011 A 
ATOM     21  C25 <0> d   1      17.868   2.791  10.185  0.00  0.00     0.001 A 
ATOM     22  C24 <0> d   1      18.291   4.012  10.675  0.00  0.00     0.000 A 
ATOM     23  C23 <0> d   1      19.330   4.068  11.588  0.00  0.00     0.001 A 
ATOM     24  C22 <0> d   1      19.942   2.903  12.010  0.00  0.00     0.011 A 
ENDBRANCH  16  19
BRANCH  16  25
ATOM     25  C27 <0> d   1      19.473  -0.115  13.200  0.00  0.00    -0.009 A 
ATOM     26  C32 <0> d   1      20.057  -1.105  13.967  0.00  0.00     0.011 A 
ATOM     27  C31 <0> d   1      19.407  -1.585  15.089  0.00  0.00     0.001 A 
ATOM     28  C30 <0> d   1      18.168  -1.080  15.437  0.00  0.00     0.000 A 
ATOM     29  C29 <0> d   1      17.581  -0.094  14.667  0.00  0.00     0.001 A 
ATOM     30  C28 <0> d   1      18.234   0.389  13.548  0.00  0.00     0.011 A 
ENDBRANCH  16  25
ENDBRANCH   2  16
TORSDOF 6
ENDMDL
MODEL 7
REMARK VINA RESULT:      -8.4      1.317      2.156
REMARK  6 active torsions:
REMARK  status: ('A' for Active; 'I' for Inactive)
REMARK    1  A    between atoms: C2_2  and  O3_3 
REMARK    2  A    between atoms: C2_2  and  C19_16 
REMARK    3  A    between atoms: O3_3  and  C4_4 
REMARK    4  A    between atoms: C19_16  and  O20_17 
REMARK    5  A    between atoms: C19_16  and  C21_18 
REMARK    6  A    between atoms: C19_16  and  C27_24 
ROOT
ATOM      1  O1  <0> d   1      16.720   0.564  12.129  0.00  0.00    -0.261 OA
ATOM      2  C2  <0> d   1      17.909   0.707  11.973  0.00  0.00     0.303 C 
ENDROOT
BRANCH   2   3
ATOM      3  O3  <0> d   1      18.468   0.431  10.784  0.00  0.00    -0.313 OA
BRANCH   3   4
ATOM      4  C4  <0> d   1      17.824   0.987   9.608  0.00  0.00     0.136 C 
ATOM      5  C13 <0> d   1      16.984  -0.097   8.927  0.00  0.00     0.066 C 
ATOM      6  C11 <0> d   1      17.932  -1.191   8.409  0.00  0.00     0.193 C 
ATOM      7  C10 <0> d   1      18.938  -1.544   9.531  0.00  0.00     0.036 C 
ATOM      8  N14 <0> d   1      18.772  -0.556   7.347  0.00  0.00    -0.058 N 
ATOM      9  C9  <0> d   1      20.109  -0.556   9.336  0.00  0.00     0.036 C 
ATOM     10  C7  <0> d   1      19.703   0.302   8.113  0.00  0.00     0.193 C 
ATOM     11  C6  <0> d   1      18.893   1.501   8.638  0.00  0.00     0.066 C 
ATOM     12  C18 <0> d   1      19.500  -1.570   6.579  0.00  0.00     0.238 C 
ATOM     13  C15 <0> d   1      17.938   0.243   6.435  0.00  0.00     0.238 C 
ATOM     14  C17 <0> d   1      19.106  -1.380   5.097  0.00  0.00     0.030 C 
ATOM     15  C16 <0> d   1      18.618   0.092   5.050  0.00  0.00     0.030 C 
ENDBRANCH   3   4
ENDBRANCH   2   3
BRANCH   2  16
ATOM     16  C19 <0> d   1      18.765   1.199  13.111  0.00  0.00     0.201 C 
BRANCH  16  17
ATOM     17  O20 <0> d   1      20.144   1.086  12.755  0.00  0.00    -0.371 OA
ATOM     18  H49 <0> d   1      20.753   1.383  13.445  0.00  0.00     0.212 HD
ENDBRANCH  16  17
BRANCH  16  19
ATOM     19  C21 <0> d   1      18.438   2.642  13.398  0.00  0.00    -0.009 A 
ATOM     20  C26 <0> d   1      17.709   3.381  12.484  0.00  0.00     0.011 A 
ATOM     21  C25 <0> d   1      17.405   4.703  12.750  0.00  0.00     0.001 A 
ATOM     22  C24 <0> d   1      17.836   5.289  13.925  0.00  0.00     0.000 A 
ATOM     23  C23 <0> d   1      18.569   4.551  14.837  0.00  0.00     0.001 A 
ATOM     24  C22 <0> d   1      18.869   3.228  14.574  0.00  0.00     0.011 A 
ENDBRANCH  16  19
BRANCH  16  25
ATOM     25  C27 <0> d   1      18.492   0.369  14.340  0.00  0.00    -0.009 A 
ATOM     26  C32 <0> d   1      17.425   0.680  15.162  0.00  0.00     0.011 A 
ATOM     27  C31 <0> d   1      17.172  -0.084  16.286  0.00  0.00     0.001 A 
ATOM     28  C30 <0> d   1      17.993  -1.152  16.593  0.00  0.00     0.000 A 
ATOM     29  C29 <0> d   1      19.065  -1.460  15.775  0.00  0.00     0.001 A 
ATOM     30  C28 <0> d   1      19.314  -0.699  14.649  0.00  0.00     0.011 A 
ENDBRANCH  16  25
ENDBRANCH   2  16
TORSDOF 6
ENDMDL
MODEL 8
REMARK VINA RESULT:      -8.3      2.832      4.094
REMARK  6 active torsions:
REMARK  status: ('A' for Active; 'I' for Inactive)
REMARK    1  A    between atoms: C2_2  and  O3_3 
REMARK    2  A    between atoms: C2_2  and  C19_16 
REMARK    3  A    between atoms: O3_3  and  C4_4 
REMARK    4  A    between atoms: C19_16  and  O20_17 
REMARK    5  A    between atoms: C19_16  and  C21_18 
REMARK    6  A    between atoms: C19_16  and  C27_24 
ROOT
ATOM      1  O1  <0> d   1      20.417  -3.501  12.011  0.00  0.00    -0.261 OA
ATOM      2  C2  <0> d   1      19.965  -2.780  11.152  0.00  0.00     0.303 C 
ENDROOT
BRANCH   2   3
ATOM      3  O3  <0> d   1      19.331  -3.312  10.095  0.00  0.00    -0.313 OA
BRANCH   3   4
ATOM      4  C4  <0> d   1      19.028  -4.731  10.153  0.00  0.00     0.136 C 
ATOM      5  C13 <0> d   1      19.986  -5.494   9.234  0.00  0.00     0.066 C 
ATOM      6  C11 <0> d   1      19.711  -5.065   7.784  0.00  0.00     0.193 C 
ATOM      7  C10 <0> d   1      19.614  -3.521   7.736  0.00  0.00     0.036 C 
ATOM      8  N14 <0> d   1      18.327  -5.531   7.459  0.00  0.00    -0.058 N 
ATOM      9  C9  <0> d   1      18.128  -3.209   8.020  0.00  0.00     0.036 C 
ATOM     10  C7  <0> d   1      17.464  -4.594   8.212  0.00  0.00     0.193 C 
ATOM     11  C6  <0> d   1      17.582  -4.961   9.702  0.00  0.00     0.066 C 
ATOM     12  C18 <0> d   1      18.069  -5.443   6.019  0.00  0.00     0.238 C 
ATOM     13  C15 <0> d   1      18.129  -6.917   7.909  0.00  0.00     0.238 C 
ATOM     14  C17 <0> d   1      17.672  -6.860   5.546  0.00  0.00     0.030 C 
ATOM     15  C16 <0> d   1      17.179  -7.539   6.851  0.00  0.00     0.030 C 
ENDBRANCH   3   4
ENDBRANCH   2   3
BRANCH   2  16
ATOM     16  C19 <0> d   1      20.110  -1.286  11.270  0.00  0.00     0.201 C 
BRANCH  16  17
ATOM     17  O20 <0> d   1      21.483  -0.925  11.107  0.00  0.00    -0.371 OA
ATOM     18  H49 <0> d   1      22.102  -1.652  11.268  0.00  0.00     0.212 HD
ENDBRANCH  16  17
BRANCH  16  19
ATOM     19  C21 <0> d   1      19.285  -0.615  10.202  0.00  0.00    -0.009 A 
ATOM     20  C26 <0> d   1      19.897  -0.111   9.070  0.00  0.00     0.011 A 
ATOM     21  C25 <0> d   1      19.139   0.500   8.088  0.00  0.00     0.001 A 
ATOM     22  C24 <0> d   1      17.771   0.615   8.243  0.00  0.00     0.000 A 
ATOM     23  C23 <0> d   1      17.159   0.115   9.378  0.00  0.00     0.001 A 
ATOM     24  C22 <0> d   1      17.916  -0.499  10.358  0.00  0.00     0.011 A 
ENDBRANCH  16  19
BRANCH  16  25
ATOM     25  C27 <0> d   1      19.631  -0.840  12.628  0.00  0.00    -0.009 A 
ATOM     26  C32 <0> d   1      18.817  -1.667  13.380  0.00  0.00     0.011 A 
ATOM     27  C31 <0> d   1      18.382  -1.260  14.627  0.00  0.00     0.001 A 
ATOM     28  C30 <0> d   1      18.752  -0.022  15.118  0.00  0.00     0.000 A 
ATOM     29  C29 <0> d   1      19.561   0.808  14.364  0.00  0.00     0.001 A 
ATOM     30  C28 <0> d   1      20.000   0.398  13.119  0.00  0.00     0.011 A 
ENDBRANCH  16  25
ENDBRANCH   2  16
TORSDOF 6
ENDMDL
MODEL 9
REMARK VINA RESULT:      -8.2      2.191      7.508
REMARK  6 active torsions:
REMARK  status: ('A' for Active; 'I' for Inactive)
REMARK    1  A    between atoms: C2_2  and  O3_3 
REMARK    2  A    between atoms: C2_2  and  C19_16 
REMARK    3  A    between atoms: O3_3  and  C4_4 
REMARK    4  A    between atoms: C19_16  and  O20_17 
REMARK    5  A    between atoms: C19_16  and  C21_18 
REMARK    6  A    between atoms: C19_16  and  C27_24 
ROOT
ATOM      1  O1  <0> d   1      17.349   0.260   9.650  0.00  0.00    -0.261 OA
ATOM      2  C2  <0> d   1      18.326  -0.184  10.205  0.00  0.00     0.303 C 
ENDROOT
BRANCH   2   3
ATOM      3  O3  <0> d   1      18.556   0.109  11.494  0.00  0.00    -0.313 OA
BRANCH   3   4
ATOM      4  C4  <0> d   1      17.859  -0.688  12.487  0.00  0.00     0.136 C 
ATOM      5  C13 <0> d   1      16.940   0.217  13.312  0.00  0.00     0.066 C 
ATOM      6  C11 <0> d   1      17.815   1.202  14.104  0.00  0.00     0.193 C 
ATOM      7  C10 <0> d   1      18.878   1.797  13.149  0.00  0.00     0.036 C 
ATOM      8  N14 <0> d   1      18.608   0.382  15.072  0.00  0.00    -0.058 N 
ATOM      9  C9  <0> d   1      20.067   0.815  13.221  0.00  0.00     0.036 C 
ATOM     10  C7  <0> d   1      19.614  -0.282  14.215  0.00  0.00     0.193 C 
ATOM     11  C6  <0> d   1      18.881  -1.366  13.405  0.00  0.00     0.066 C 
ATOM     12  C18 <0> d   1      19.251   1.233  16.077  0.00  0.00     0.238 C 
ATOM     13  C15 <0> d   1      17.746  -0.603  15.744  0.00  0.00     0.238 C 
ATOM     14  C17 <0> d   1      18.770   0.738  17.460  0.00  0.00     0.030 C 
ATOM     15  C16 <0> d   1      18.331  -0.723  17.175  0.00  0.00     0.030 C 
ENDBRANCH   3   4
ENDBRANCH   2   3
BRANCH   2  16
ATOM     16  C19 <0> d   1      19.283  -1.071   9.451  0.00  0.00     0.201 C 
BRANCH  16  17
ATOM     17  O20 <0> d   1      20.618  -0.813   9.890  0.00  0.00    -0.371 OA
ATOM     18  H49 <0> d   1      20.692  -0.635  10.838  0.00  0.00     0.212 HD
ENDBRANCH  16  17
BRANCH  16  19
ATOM     19  C21 <0> d   1      18.939  -2.515   9.709  0.00  0.00    -0.009 A 
ATOM     20  C26 <0> d   1      17.748  -3.037   9.240  0.00  0.00     0.011 A 
ATOM     21  C25 <0> d   1      17.435  -4.363   9.472  0.00  0.00     0.001 A 
ATOM     22  C24 <0> d   1      18.310  -5.166  10.180  0.00  0.00     0.000 A 
ATOM     23  C23 <0> d   1      19.500  -4.642  10.654  0.00  0.00     0.001 A 
ATOM     24  C22 <0> d   1      19.814  -3.317  10.418  0.00  0.00     0.011 A 
ENDBRANCH  16  19
BRANCH  16  25
ATOM     25  C27 <0> d   1      19.175  -0.785   7.974  0.00  0.00    -0.009 A 
ATOM     26  C32 <0> d   1      19.255  -1.821   7.062  0.00  0.00     0.011 A 
ATOM     27  C31 <0> d   1      19.151  -1.560   5.709  0.00  0.00     0.001 A 
ATOM     28  C30 <0> d   1      18.978  -0.262   5.267  0.00  0.00     0.000 A 
ATOM     29  C29 <0> d   1      18.904   0.776   6.179  0.00  0.00     0.001 A 
ATOM     30  C28 <0> d   1      19.002   0.513   7.532  0.00  0.00     0.011 A 
ENDBRANCH  16  25
ENDBRANCH   2  16
TORSDOF 6
ENDMDL
