MODEL 1
REMARK VINA RESULT:      -8.8      0.000      0.000
REMARK  5 active torsions:
REMARK  status: ('A' for Active; 'I' for Inactive)
REMARK    1  A    between atoms: C21_18  and  O23_19 
REMARK    2  A    between atoms: C27_23  and  O28_24 
REMARK    3  A    between atoms: C27_23  and  C29_25 
REMARK    4  A    between atoms: C29_25  and  C31_27 
REMARK    5  A    between atoms: C31_27  and  O32_28 
ROOT
ATOM      1  C1  ZIN A   1      20.175  -1.626  14.621  0.00  0.00     0.013 C 
ATOM      2  C2  ZIN A   1      18.851  -1.110  14.054  0.00  0.00     0.025 C 
ATOM      3  C4  ZIN A   1      18.467  -1.915  12.782  0.00  0.00     0.013 C 
ATOM      4  C5  ZIN A   1      19.008  -1.042  11.646  0.00  0.00     0.005 C 
ATOM      5  C7  ZIN A   1      18.373  -1.259  10.284  0.00  0.00     0.035 C 
ATOM      6  C9  ZIN A   1      18.649  -2.685   9.804  0.00  0.00     0.013 C 
ATOM      7  C10 ZIN A   1      17.972  -2.913   8.449  0.00  0.00     0.036 C 
ATOM      8  C11 ZIN A   1      18.454  -1.836   7.494  0.00  0.00    -0.061 A 
ATOM      9  C12 ZIN A   1      18.938  -2.195   6.313  0.00  0.00     0.058 A 
ATOM     10  C13 ZIN A   1      19.434  -1.181   5.370  0.00  0.00     0.172 A 
ATOM     11  O14 ZIN A   1      19.844  -1.502   4.270  0.00  0.00    -0.289 OA
ATOM     12  C15 ZIN A   1      19.422   0.231   5.786  0.00  0.00     0.052 A 
ATOM     13  C16 ZIN A   1      18.927   0.567   6.966  0.00  0.00    -0.006 A 
ATOM     14  C17 ZIN A   1      18.353  -0.407   7.937  0.00  0.00     0.036 A 
ATOM     15  C18 ZIN A   1      16.870  -0.075   8.113  0.00  0.00     0.028 C 
ATOM     16  C19 ZIN A   1      18.995  -0.239   9.317  0.00  0.00     0.147 C 
ATOM     17  F20 ZIN A   1      20.366  -0.499   9.222  0.00  0.00    -0.238 F 
ATOM     18  C21 ZIN A   1      18.809   1.200   9.789  0.00  0.00     0.160 C 
ATOM     19  C24 ZIN A   1      19.319   1.397  11.226  0.00  0.00     0.048 C 
ATOM     20  C25 ZIN A   1      18.620   0.381  12.131  0.00  0.00     0.001 C 
ATOM     21  C26 ZIN A   1      17.103   0.510  11.979  0.00  0.00     0.019 C 
ATOM     22  C27 ZIN A   1      19.002   0.366  13.608  0.00  0.00     0.131 C 
ENDROOT
BRANCH  22  23
ATOM     23  O28 ZIN A   1      20.341   0.835  13.778  0.00  0.00    -0.381 OA
ATOM     24  H54 ZIN A   1      20.984   0.136  13.958  0.00  0.00     0.211 HD
ENDBRANCH  22  23
BRANCH  22  25
ATOM     25  C29 ZIN A   1      18.045   1.214  14.405  0.00  0.00     0.185 C 
ATOM     26  O30 ZIN A   1      17.224   0.691  15.119  0.00  0.00    -0.292 OA
BRANCH  25  27
ATOM     27  C31 ZIN A   1      18.112   2.717  14.310  0.00  0.00     0.245 C 
BRANCH  27  28
ATOM     28  O32 ZIN A   1      19.341   3.177  14.876  0.00  0.00    -0.393 OA
ATOM     29  H57 ZIN A   1      19.599   2.714  15.684  0.00  0.00     0.209 HD
ENDBRANCH  27  28
ENDBRANCH  25  27
ENDBRANCH  22  25
BRANCH  18  30
ATOM     30  O23 ZIN A   1      17.419   1.530   9.741  0.00  0.00    -0.392 OA
ATOM     31  H48 ZIN A   1      17.179   2.119   9.012  0.00  0.00     0.210 HD
ENDBRANCH  18  30
TORSDOF 5
ENDMDL
MODEL 2
REMARK VINA RESULT:      -8.8      2.753      6.311
REMARK  5 active torsions:
REMARK  status: ('A' for Active; 'I' for Inactive)
REMARK    1  A    between atoms: C21_18  and  O23_19 
REMARK    2  A    between atoms: C27_23  and  O28_24 
REMARK    3  A    between atoms: C27_23  and  C29_25 
REMARK    4  A    between atoms: C29_25  and  C31_27 
REMARK    5  A    between atoms: C31_27  and  O32_28 
ROOT
ATOM      1  C1  ZIN A   1      15.964  -5.393   9.474  0.00  0.00     0.013 C 
ATOM      2  C2  ZIN A   1      17.376  -5.023   9.935  0.00  0.00     0.025 C 
ATOM      3  C4  ZIN A   1      17.311  -3.889  10.994  0.00  0.00     0.013 C 
ATOM      4  C5  ZIN A   1      17.520  -2.624  10.156  0.00  0.00     0.005 C 
ATOM      5  C7  ZIN A   1      18.018  -1.405  10.911  0.00  0.00     0.035 C 
ATOM      6  C9  ZIN A   1      16.980  -0.979  11.951  0.00  0.00     0.013 C 
ATOM      7  C10 ZIN A   1      17.504   0.226  12.739  0.00  0.00     0.036 C 
ATOM      8  C11 ZIN A   1      17.867   1.316  11.747  0.00  0.00    -0.061 A 
ATOM      9  C12 ZIN A   1      17.377   2.535  11.926  0.00  0.00     0.058 A 
ATOM     10  C13 ZIN A   1      17.690   3.612  10.974  0.00  0.00     0.172 A 
ATOM     11  O14 ZIN A   1      17.275   4.742  11.154  0.00  0.00    -0.289 OA
ATOM     12  C15 ZIN A   1      18.517   3.293   9.798  0.00  0.00     0.052 A 
ATOM     13  C16 ZIN A   1      19.001   2.071   9.644  0.00  0.00    -0.006 A 
ATOM     14  C17 ZIN A   1      18.771   0.956  10.606  0.00  0.00     0.036 A 
ATOM     15  C18 ZIN A   1      20.127   0.556  11.192  0.00  0.00     0.028 C 
ATOM     16  C19 ZIN A   1      18.236  -0.283   9.883  0.00  0.00     0.147 C 
ATOM     17  F20 ZIN A   1      17.006   0.023   9.294  0.00  0.00    -0.238 F 
ATOM     18  C21 ZIN A   1      19.212  -0.685   8.781  0.00  0.00     0.160 C 
ATOM     19  C24 ZIN A   1      18.794  -2.000   8.104  0.00  0.00     0.048 C 
ATOM     20  C25 ZIN A   1      18.644  -3.073   9.183  0.00  0.00     0.001 C 
ATOM     21  C26 ZIN A   1      19.934  -3.169  10.000  0.00  0.00     0.019 C 
ATOM     22  C27 ZIN A   1      18.194  -4.464   8.744  0.00  0.00     0.131 C 
ENDROOT
BRANCH  22  23
ATOM     23  O28 ZIN A   1      17.406  -4.377   7.555  0.00  0.00    -0.381 OA
ATOM     24  H54 ZIN A   1      17.641  -5.026   6.879  0.00  0.00     0.211 HD
ENDBRANCH  22  23
BRANCH  22  25
ATOM     25  C29 ZIN A   1      19.389  -5.352   8.515  0.00  0.00     0.185 C 
ATOM     26  O30 ZIN A   1      19.732  -6.135   9.368  0.00  0.00    -0.292 OA
BRANCH  25  27
ATOM     27  C31 ZIN A   1      20.158  -5.263   7.222  0.00  0.00     0.245 C 
BRANCH  27  28
ATOM     28  O32 ZIN A   1      19.568  -6.135   6.255  0.00  0.00    -0.393 OA
ATOM     29  H57 ZIN A   1      20.199  -6.724   5.820  0.00  0.00     0.209 HD
ENDBRANCH  27  28
ENDBRANCH  25  27
ENDBRANCH  22  25
BRANCH  18  30
ATOM     30  O23 ZIN A   1      20.514  -0.848   9.348  0.00  0.00    -0.392 OA
ATOM     31  H48 ZIN A   1      20.757  -0.158   9.982  0.00  0.00     0.210 HD
ENDBRANCH  18  30
TORSDOF 5
ENDMDL
MODEL 3
REMARK VINA RESULT:      -8.6      2.441      4.465
REMARK  5 active torsions:
REMARK  status: ('A' for Active; 'I' for Inactive)
REMARK    1  A    between atoms: C21_18  and  O23_19 
REMARK    2  A    between atoms: C27_23  and  O28_24 
REMARK    3  A    between atoms: C27_23  and  C29_25 
REMARK    4  A    between atoms: C29_25  and  C31_27 
REMARK    5  A    between atoms: C31_27  and  O32_28 
ROOT
ATOM      1  C1  ZIN A   1      16.883   4.995  10.423  0.00  0.00     0.013 C 
ATOM      2  C2  ZIN A   1      18.207   4.321  10.788  0.00  0.00     0.025 C 
ATOM      3  C4  ZIN A   1      18.471   3.116   9.843  0.00  0.00     0.013 C 
ATOM      4  C5  ZIN A   1      17.930   1.927  10.643  0.00  0.00     0.005 C 
ATOM      5  C7  ZIN A   1      18.478   0.565  10.256  0.00  0.00     0.035 C 
ATOM      6  C9  ZIN A   1      18.082   0.238   8.814  0.00  0.00     0.013 C 
ATOM      7  C10 ZIN A   1      18.671  -1.118   8.414  0.00  0.00     0.036 C 
ATOM      8  C11 ZIN A   1      18.214  -2.149   9.429  0.00  0.00    -0.061 A 
ATOM      9  C12 ZIN A   1      17.645  -3.267   8.997  0.00  0.00     0.058 A 
ATOM     10  C13 ZIN A   1      17.170  -4.280   9.952  0.00  0.00     0.172 A 
ATOM     11  O14 ZIN A   1      16.683  -5.324   9.560  0.00  0.00    -0.289 OA
ATOM     12  C15 ZIN A   1      17.298  -4.003  11.392  0.00  0.00     0.052 A 
ATOM     13  C16 ZIN A   1      17.875  -2.884  11.800  0.00  0.00    -0.006 A 
ATOM     14  C17 ZIN A   1      18.432  -1.851  10.882  0.00  0.00     0.036 A 
ATOM     15  C18 ZIN A   1      19.941  -1.776  11.123  0.00  0.00     0.028 C 
ATOM     16  C19 ZIN A   1      17.875  -0.466  11.223  0.00  0.00     0.147 C 
ATOM     17  F20 ZIN A   1      16.487  -0.473  11.054  0.00  0.00    -0.238 F 
ATOM     18  C21 ZIN A   1      18.182  -0.144  12.682  0.00  0.00     0.160 C 
ATOM     19  C24 ZIN A   1      17.761   1.289  13.048  0.00  0.00     0.048 C 
ATOM     20  C25 ZIN A   1      18.437   2.254  12.074  0.00  0.00     0.001 C 
ATOM     21  C26 ZIN A   1      19.949   2.022  12.079  0.00  0.00     0.019 C 
ATOM     22  C27 ZIN A   1      18.132   3.743  12.223  0.00  0.00     0.131 C 
ENDROOT
BRANCH  22  23
ATOM     23  O28 ZIN A   1      16.838   3.927  12.801  0.00  0.00    -0.381 OA
ATOM     24  H54 ZIN A   1      16.132   4.052  12.152  0.00  0.00     0.211 HD
ENDBRANCH  22  23
BRANCH  22  25
ATOM     25  C29 ZIN A   1      19.184   4.409  13.072  0.00  0.00     0.185 C 
ATOM     26  O30 ZIN A   1      20.161   4.894  12.553  0.00  0.00    -0.292 OA
BRANCH  25  27
ATOM     27  C31 ZIN A   1      19.017   4.470  14.569  0.00  0.00     0.245 C 
BRANCH  27  28
ATOM     28  O32 ZIN A   1      19.753   3.405  15.174  0.00  0.00    -0.393 OA
ATOM     29  H57 ZIN A   1      19.832   3.477  16.135  0.00  0.00     0.209 HD
ENDBRANCH  27  28
ENDBRANCH  25  27
ENDBRANCH  22  25
BRANCH  18  30
ATOM     30  O23 ZIN A   1      19.586  -0.287  12.906  0.00  0.00    -0.392 OA
ATOM     31  H48 ZIN A   1      19.837  -1.133  13.303  0.00  0.00     0.210 HD
ENDBRANCH  18  30
TORSDOF 5
ENDMDL
MODEL 4
REMARK VINA RESULT:      -8.4      3.049      4.717
REMARK  5 active torsions:
REMARK  status: ('A' for Active; 'I' for Inactive)
REMARK    1  A    between atoms: C21_18  and  O23_19 
REMARK    2  A    between atoms: C27_23  and  O28_24 
REMARK    3  A    between atoms: C27_23  and  C29_25 
REMARK    4  A    between atoms: C29_25  and  C31_27 
REMARK    5  A    between atoms: C31_27  and  O32_28 
ROOT
ATOM      1  C1  ZIN A   1      17.486   1.245  10.201  0.00  0.00     0.013 C 
ATOM      2  C2  ZIN A   1      18.603   0.316  10.681  0.00  0.00     0.025 C 
ATOM      3  C4  ZIN A   1      19.173  -0.495   9.485  0.00  0.00     0.013 C 
ATOM      4  C5  ZIN A   1      18.387  -1.809   9.555  0.00  0.00     0.005 C 
ATOM      5  C7  ZIN A   1      19.032  -3.002   8.873  0.00  0.00     0.035 C 
ATOM      6  C9  ZIN A   1      19.156  -2.737   7.371  0.00  0.00     0.013 C 
ATOM      7  C10 ZIN A   1      19.843  -3.926   6.694  0.00  0.00     0.036 C 
ATOM      8  C11 ZIN A   1      19.063  -5.181   7.037  0.00  0.00    -0.061 A 
ATOM      9  C12 ZIN A   1      18.675  -5.985   6.056  0.00  0.00     0.058 A 
ATOM     10  C13 ZIN A   1      17.898  -7.199   6.348  0.00  0.00     0.172 A 
ATOM     11  O14 ZIN A   1      17.573  -7.960   5.455  0.00  0.00    -0.289 OA
ATOM     12  C15 ZIN A   1      17.524  -7.475   7.745  0.00  0.00     0.052 A 
ATOM     13  C16 ZIN A   1      17.928  -6.663   8.709  0.00  0.00    -0.006 A 
ATOM     14  C17 ZIN A   1      18.769  -5.453   8.482  0.00  0.00     0.036 A 
ATOM     15  C18 ZIN A   1      20.103  -5.670   9.198  0.00  0.00     0.028 C 
ATOM     16  C19 ZIN A   1      18.132  -4.221   9.129  0.00  0.00     0.147 C 
ATOM     17  F20 ZIN A   1      16.886  -3.983   8.539  0.00  0.00    -0.238 F 
ATOM     18  C21 ZIN A   1      17.919  -4.485  10.617  0.00  0.00     0.160 C 
ATOM     19  C24 ZIN A   1      17.401  -3.235  11.347  0.00  0.00     0.048 C 
ATOM     20  C25 ZIN A   1      18.372  -2.084  11.083  0.00  0.00     0.001 C 
ATOM     21  C26 ZIN A   1      19.790  -2.502  11.479  0.00  0.00     0.019 C 
ATOM     22  C27 ZIN A   1      18.038  -0.721  11.683  0.00  0.00     0.131 C 
ENDROOT
BRANCH  22  23
ATOM     23  O28 ZIN A   1      16.625  -0.585  11.845  0.00  0.00    -0.381 OA
ATOM     24  H54 ZIN A   1      16.119  -1.358  11.559  0.00  0.00     0.211 HD
ENDBRANCH  22  23
BRANCH  22  25
ATOM     25  C29 ZIN A   1      18.735  -0.547  13.007  0.00  0.00     0.185 C 
ATOM     26  O30 ZIN A   1      18.573  -1.360  13.886  0.00  0.00    -0.292 OA
BRANCH  25  27
ATOM     27  C31 ZIN A   1      19.635   0.640  13.236  0.00  0.00     0.245 C 
BRANCH  27  28
ATOM     28  O32 ZIN A   1      20.993   0.202  13.315  0.00  0.00    -0.393 OA
ATOM     29  H57 ZIN A   1      21.297  -0.280  12.534  0.00  0.00     0.209 HD
ENDBRANCH  27  28
ENDBRANCH  25  27
ENDBRANCH  22  25
BRANCH  18  30
ATOM     30  O23 ZIN A   1      19.160  -4.884  11.202  0.00  0.00    -0.392 OA
ATOM     31  H48 ZIN A   1      19.067  -5.498  11.943  0.00  0.00     0.210 HD
ENDBRANCH  18  30
TORSDOF 5
ENDMDL
MODEL 5
REMARK VINA RESULT:      -8.1      2.719      6.212
REMARK  5 active torsions:
REMARK  status: ('A' for Active; 'I' for Inactive)
REMARK    1  A    between atoms: C21_18  and  O23_19 
REMARK    2  A    between atoms: C27_23  and  O28_24 
REMARK    3  A    between atoms: C27_23  and  C29_25 
REMARK    4  A    between atoms: C29_25  and  C31_27 
REMARK    5  A    between atoms: C31_27  and  O32_28 
ROOT
ATOM      1  C1  ZIN A   1      16.535  -4.988  11.149  0.00  0.00     0.013 C 
ATOM      2  C2  ZIN A   1      17.920  -4.361  10.978  0.00  0.00     0.025 C 
ATOM      3  C4  ZIN A   1      18.115  -3.211  12.004  0.00  0.00     0.013 C 
ATOM      4  C5  ZIN A   1      17.725  -1.965  11.203  0.00  0.00     0.005 C 
ATOM      5  C7  ZIN A   1      18.276  -0.648  11.718  0.00  0.00     0.035 C 
ATOM      6  C9  ZIN A   1      17.723  -0.365  13.116  0.00  0.00     0.013 C 
ATOM      7  C10 ZIN A   1      18.314   0.944  13.648  0.00  0.00     0.036 C 
ATOM      8  C11 ZIN A   1      18.025   2.038  12.636  0.00  0.00    -0.061 A 
ATOM      9  C12 ZIN A   1      17.454   3.161  13.050  0.00  0.00     0.058 A 
ATOM     10  C13 ZIN A   1      17.140   4.235  12.095  0.00  0.00     0.172 A 
ATOM     11  O14 ZIN A   1      16.652   5.283  12.476  0.00  0.00    -0.289 OA
ATOM     12  C15 ZIN A   1      17.430   4.014  10.669  0.00  0.00     0.052 A 
ATOM     13  C16 ZIN A   1      18.007   2.888  10.279  0.00  0.00    -0.006 A 
ATOM     14  C17 ZIN A   1      18.406   1.792  11.207  0.00  0.00     0.036 A 
ATOM     15  C18 ZIN A   1      19.928   1.657  11.145  0.00  0.00     0.028 C 
ATOM     16  C19 ZIN A   1      17.838   0.450  10.736  0.00  0.00     0.147 C 
ATOM     17  F20 ZIN A   1      16.442   0.514  10.739  0.00  0.00    -0.238 F 
ATOM     18  C21 ZIN A   1      18.306   0.177   9.310  0.00  0.00     0.160 C 
ATOM     19  C24 ZIN A   1      17.876  -1.218   8.828  0.00  0.00     0.048 C 
ATOM     20  C25 ZIN A   1      18.388  -2.255   9.829  0.00  0.00     0.001 C 
ATOM     21  C26 ZIN A   1      19.898  -2.092  10.015  0.00  0.00     0.019 C 
ATOM     22  C27 ZIN A   1      18.043  -3.719   9.574  0.00  0.00     0.131 C 
ENDROOT
BRANCH  22  23
ATOM     23  O28 ZIN A   1      16.823  -3.819   8.838  0.00  0.00    -0.381 OA
ATOM     24  H54 ZIN A   1      16.914  -4.263   7.983  0.00  0.00     0.211 HD
ENDBRANCH  22  23
BRANCH  22  25
ATOM     25  C29 ZIN A   1      19.162  -4.397   8.826  0.00  0.00     0.185 C 
ATOM     26  O30 ZIN A   1      19.451  -4.033   7.711  0.00  0.00    -0.292 OA
BRANCH  25  27
ATOM     27  C31 ZIN A   1      19.921  -5.530   9.469  0.00  0.00     0.245 C 
BRANCH  27  28
ATOM     28  O32 ZIN A   1      20.812  -6.109   8.514  0.00  0.00    -0.393 OA
ATOM     29  H57 ZIN A   1      21.318  -5.462   8.005  0.00  0.00     0.209 HD
ENDBRANCH  27  28
ENDBRANCH  25  27
ENDBRANCH  22  25
BRANCH  18  30
ATOM     30  O23 ZIN A   1      19.733   0.264   9.263  0.00  0.00    -0.392 OA
ATOM     31  H48 ZIN A   1      20.184  -0.343   9.866  0.00  0.00     0.210 HD
ENDBRANCH  18  30
TORSDOF 5
ENDMDL
MODEL 6
REMARK VINA RESULT:      -8.0      2.610      6.964
REMARK  5 active torsions:
REMARK  status: ('A' for Active; 'I' for Inactive)
REMARK    1  A    between atoms: C21_18  and  O23_19 
REMARK    2  A    between atoms: C27_23  and  O28_24 
REMARK    3  A    between atoms: C27_23  and  C29_25 
REMARK    4  A    between atoms: C29_25  and  C31_27 
REMARK    5  A    between atoms: C31_27  and  O32_28 
ROOT
ATOM      1  C1  ZIN A   1      19.344   0.388   7.622  0.00  0.00     0.013 C 
ATOM      2  C2  ZIN A   1      18.484  -0.005   8.826  0.00  0.00     0.025 C 
ATOM      3  C4  ZIN A   1      17.732   1.240   9.373  0.00  0.00     0.013 C 
ATOM      4  C5  ZIN A   1      18.649   1.727  10.500  0.00  0.00     0.005 C 
ATOM      5  C7  ZIN A   1      17.991   2.592  11.560  0.00  0.00     0.035 C 
ATOM      6  C9  ZIN A   1      17.478   3.887  10.928  0.00  0.00     0.013 C 
ATOM      7  C10 ZIN A   1      16.779   4.738  11.993  0.00  0.00     0.036 C 
ATOM      8  C11 ZIN A   1      17.751   4.953  13.138  0.00  0.00    -0.061 A 
ATOM      9  C12 ZIN A   1      17.973   6.187  13.569  0.00  0.00     0.058 A 
ATOM     10  C13 ZIN A   1      18.924   6.436  14.663  0.00  0.00     0.172 A 
ATOM     11  O14 ZIN A   1      19.102   7.562  15.089  0.00  0.00    -0.289 OA
ATOM     12  C15 ZIN A   1      19.654   5.292  15.234  0.00  0.00     0.052 A 
ATOM     13  C16 ZIN A   1      19.411   4.067  14.793  0.00  0.00    -0.006 A 
ATOM     14  C17 ZIN A   1      18.414   3.746  13.733  0.00  0.00     0.036 A 
ATOM     15  C18 ZIN A   1      17.325   2.876  14.362  0.00  0.00     0.028 C 
ATOM     16  C19 ZIN A   1      19.052   2.901  12.627  0.00  0.00     0.147 C 
ATOM     17  F20 ZIN A   1      20.084   3.630  12.027  0.00  0.00    -0.238 F 
ATOM     18  C21 ZIN A   1      19.648   1.636  13.239  0.00  0.00     0.160 C 
ATOM     19  C24 ZIN A   1      20.189   0.684  12.161  0.00  0.00     0.048 C 
ATOM     20  C25 ZIN A   1      19.064   0.388  11.168  0.00  0.00     0.001 C 
ATOM     21  C26 ZIN A   1      17.839  -0.140  11.916  0.00  0.00     0.019 C 
ATOM     22  C27 ZIN A   1      19.385  -0.513   9.979  0.00  0.00     0.131 C 
ENDROOT
BRANCH  22  23
ATOM     23  O28 ZIN A   1      20.772  -0.421   9.647  0.00  0.00    -0.381 OA
ATOM     24  H54 ZIN A   1      21.283  -1.212   9.868  0.00  0.00     0.211 HD
ENDBRANCH  22  23
BRANCH  22  25
ATOM     25  C29 ZIN A   1      19.016  -1.941  10.291  0.00  0.00     0.185 C 
ATOM     26  O30 ZIN A   1      18.209  -2.520   9.604  0.00  0.00    -0.292 OA
BRANCH  25  27
ATOM     27  C31 ZIN A   1      19.653  -2.645  11.461  0.00  0.00     0.245 C 
BRANCH  27  28
ATOM     28  O32 ZIN A   1      21.064  -2.734  11.254  0.00  0.00    -0.393 OA
ATOM     29  H57 ZIN A   1      21.315  -2.974  10.351  0.00  0.00     0.209 HD
ENDBRANCH  27  28
ENDBRANCH  25  27
ENDBRANCH  22  25
BRANCH  18  30
ATOM     30  O23 ZIN A   1      18.636   0.961  13.990  0.00  0.00    -0.392 OA
ATOM     31  H48 ZIN A   1      18.882   0.066  14.265  0.00  0.00     0.210 HD
ENDBRANCH  18  30
TORSDOF 5
ENDMDL
MODEL 7
REMARK VINA RESULT:      -7.9      2.285      7.317
REMARK  5 active torsions:
REMARK  status: ('A' for Active; 'I' for Inactive)
REMARK    1  A    between atoms: C21_18  and  O23_19 
REMARK    2  A    between atoms: C27_23  and  O28_24 
REMARK    3  A    between atoms: C27_23  and  C29_25 
REMARK    4  A    between atoms: C29_25  and  C31_27 
REMARK    5  A    between atoms: C31_27  and  O32_28 
ROOT
ATOM      1  C1  ZIN A   1      20.040   1.747   8.375  0.00  0.00     0.013 C 
ATOM      2  C2  ZIN A   1      18.746   1.173   8.956  0.00  0.00     0.025 C 
ATOM      3  C4  ZIN A   1      18.308   1.997  10.198  0.00  0.00     0.013 C 
ATOM      4  C5  ZIN A   1      18.895   1.198  11.365  0.00  0.00     0.005 C 
ATOM      5  C7  ZIN A   1      18.241   1.424  12.716  0.00  0.00     0.035 C 
ATOM      6  C9  ZIN A   1      18.429   2.880  13.147  0.00  0.00     0.013 C 
ATOM      7  C10 ZIN A   1      17.733   3.114  14.491  0.00  0.00     0.036 C 
ATOM      8  C11 ZIN A   1      18.273   2.102  15.485  0.00  0.00    -0.061 A 
ATOM      9  C12 ZIN A   1      18.730   2.530  16.654  0.00  0.00     0.058 A 
ATOM     10  C13 ZIN A   1      19.280   1.581  17.633  0.00  0.00     0.172 A 
ATOM     11  O14 ZIN A   1      19.665   1.964  18.723  0.00  0.00    -0.289 OA
ATOM     12  C15 ZIN A   1      19.354   0.156  17.267  0.00  0.00     0.052 A 
ATOM     13  C16 ZIN A   1      18.886  -0.250  16.098  0.00  0.00    -0.006 A 
ATOM     14  C17 ZIN A   1      18.260   0.654  15.091  0.00  0.00     0.036 A 
ATOM     15  C18 ZIN A   1      16.801   0.229  14.923  0.00  0.00     0.028 C 
ATOM     16  C19 ZIN A   1      18.918   0.478  13.720  0.00  0.00     0.147 C 
ATOM     17  F20 ZIN A   1      20.270   0.822  13.810  0.00  0.00    -0.238 F 
ATOM     18  C21 ZIN A   1      18.820  -0.985  13.298  0.00  0.00     0.160 C 
ATOM     19  C24 ZIN A   1      19.348  -1.202  11.871  0.00  0.00     0.048 C 
ATOM     20  C25 ZIN A   1      18.595  -0.262  10.929  0.00  0.00     0.001 C 
ATOM     21  C26 ZIN A   1      17.087  -0.475  11.081  0.00  0.00     0.019 C 
ATOM     22  C27 ZIN A   1      18.982  -0.274   9.453  0.00  0.00     0.131 C 
ENDROOT
BRANCH  22  23
ATOM     23  O28 ZIN A   1      20.348  -0.669   9.303  0.00  0.00    -0.381 OA
ATOM     24  H54 ZIN A   1      20.918   0.019   8.933  0.00  0.00     0.211 HD
ENDBRANCH  22  23
BRANCH  22  25
ATOM     25  C29 ZIN A   1      18.082  -1.206   8.684  0.00  0.00     0.185 C 
ATOM     26  O30 ZIN A   1      17.291  -0.761   7.887  0.00  0.00    -0.292 OA
BRANCH  25  27
ATOM     27  C31 ZIN A   1      18.166  -2.694   8.911  0.00  0.00     0.245 C 
BRANCH  27  28
ATOM     28  O32 ZIN A   1      19.528  -3.115   8.812  0.00  0.00    -0.393 OA
ATOM     29  H57 ZIN A   1      19.707  -3.698   8.062  0.00  0.00     0.209 HD
ENDBRANCH  27  28
ENDBRANCH  25  27
ENDBRANCH  22  25
BRANCH  18  30
ATOM     30  O23 ZIN A   1      17.452  -1.396  13.354  0.00  0.00    -0.392 OA
ATOM     31  H48 ZIN A   1      17.213  -1.861  14.169  0.00  0.00     0.210 HD
ENDBRANCH  18  30
TORSDOF 5
ENDMDL
MODEL 8
REMARK VINA RESULT:      -7.9      1.996      2.694
REMARK  5 active torsions:
REMARK  status: ('A' for Active; 'I' for Inactive)
REMARK    1  A    between atoms: C21_18  and  O23_19 
REMARK    2  A    between atoms: C27_23  and  O28_24 
REMARK    3  A    between atoms: C27_23  and  C29_25 
REMARK    4  A    between atoms: C29_25  and  C31_27 
REMARK    5  A    between atoms: C31_27  and  O32_28 
ROOT
ATOM      1  C1  ZIN A   1      19.273  -0.408  14.937  0.00  0.00     0.013 C 
ATOM      2  C2  ZIN A   1      18.458   0.152  13.769  0.00  0.00     0.025 C 
ATOM      3  C4  ZIN A   1      17.719  -1.000  13.034  0.00  0.00     0.013 C 
ATOM      4  C5  ZIN A   1      18.671  -1.340  11.883  0.00  0.00     0.005 C 
ATOM      5  C7  ZIN A   1      18.046  -2.048  10.695  0.00  0.00     0.035 C 
ATOM      6  C9  ZIN A   1      17.504  -3.411  11.129  0.00  0.00     0.013 C 
ATOM      7  C10 ZIN A   1      16.838  -4.104   9.936  0.00  0.00     0.036 C 
ATOM      8  C11 ZIN A   1      17.848  -4.172   8.805  0.00  0.00    -0.061 A 
ATOM      9  C12 ZIN A   1      18.078  -5.340   8.220  0.00  0.00     0.058 A 
ATOM     10  C13 ZIN A   1      19.065  -5.449   7.135  0.00  0.00     0.172 A 
ATOM     11  O14 ZIN A   1      19.252  -6.510   6.568  0.00  0.00    -0.289 OA
ATOM     12  C15 ZIN A   1      19.822  -4.246   6.749  0.00  0.00     0.052 A 
ATOM     13  C16 ZIN A   1      19.570  -3.090   7.342  0.00  0.00    -0.006 A 
ATOM     14  C17 ZIN A   1      18.539  -2.904   8.402  0.00  0.00     0.036 A 
ATOM     15  C18 ZIN A   1      17.478  -1.945   7.860  0.00  0.00     0.028 C 
ATOM     16  C19 ZIN A   1      19.143  -2.221   9.632  0.00  0.00     0.147 C 
ATOM     17  F20 ZIN A   1      20.148  -3.035  10.163  0.00  0.00    -0.238 F 
ATOM     18  C21 ZIN A   1      19.766  -0.892   9.217  0.00  0.00     0.160 C 
ATOM     19  C24 ZIN A   1      20.275  -0.099  10.432  0.00  0.00     0.048 C 
ATOM     20  C25 ZIN A   1      19.118   0.072  11.416  0.00  0.00     0.001 C 
ATOM     21  C26 ZIN A   1      17.922   0.709  10.705  0.00  0.00     0.019 C 
ATOM     22  C27 ZIN A   1      19.401   0.802  12.726  0.00  0.00     0.131 C 
ENDROOT
BRANCH  22  23
ATOM     23  O28 ZIN A   1      20.775   0.651  13.089  0.00  0.00    -0.381 OA
ATOM     24  H54 ZIN A   1      20.911   0.272  13.968  0.00  0.00     0.211 HD
ENDBRANCH  22  23
BRANCH  22  25
ATOM     25  C29 ZIN A   1      19.052   2.262  12.597  0.00  0.00     0.185 C 
ATOM     26  O30 ZIN A   1      18.224   2.752  13.328  0.00  0.00    -0.292 OA
BRANCH  25  27
ATOM     27  C31 ZIN A   1      19.734   3.111  11.555  0.00  0.00     0.245 C 
BRANCH  27  28
ATOM     28  O32 ZIN A   1      21.127   3.209  11.858  0.00  0.00    -0.393 OA
ATOM     29  H57 ZIN A   1      21.320   3.691  12.674  0.00  0.00     0.209 HD
ENDBRANCH  27  28
ENDBRANCH  25  27
ENDBRANCH  22  25
BRANCH  18  30
ATOM     30  O23 ZIN A   1      18.785  -0.111   8.530  0.00  0.00    -0.392 OA
ATOM     31  H48 ZIN A   1      17.901  -0.503   8.530  0.00  0.00     0.210 HD
ENDBRANCH  18  30
TORSDOF 5
ENDMDL
MODEL 9
REMARK VINA RESULT:      -7.9      2.565      4.082
REMARK  5 active torsions:
REMARK  status: ('A' for Active; 'I' for Inactive)
REMARK    1  A    between atoms: C21_18  and  O23_19 
REMARK    2  A    between atoms: C27_23  and  O28_24 
REMARK    3  A    between atoms: C27_23  and  C29_25 
REMARK    4  A    between atoms: C29_25  and  C31_27 
REMARK    5  A    between atoms: C31_27  and  O32_28 
ROOT
ATOM      1  C1  ZIN A   1      19.478   1.560  17.585  0.00  0.00     0.013 C 
ATOM      2  C2  ZIN A   1      18.478   2.468  16.865  0.00  0.00     0.025 C 
ATOM      3  C4  ZIN A   1      17.773   1.685  15.724  0.00  0.00     0.013 C 
ATOM      4  C5  ZIN A   1      18.609   2.046  14.492  0.00  0.00     0.005 C 
ATOM      5  C7  ZIN A   1      17.918   1.876  13.151  0.00  0.00     0.035 C 
ATOM      6  C9  ZIN A   1      17.569   0.403  12.930  0.00  0.00     0.013 C 
ATOM      7  C10 ZIN A   1      16.835   0.242  11.595  0.00  0.00     0.036 C 
ATOM      8  C11 ZIN A   1      17.705   0.841  10.504  0.00  0.00    -0.061 A 
ATOM      9  C12 ZIN A   1      17.976   0.114   9.429  0.00  0.00     0.058 A 
ATOM     10  C13 ZIN A   1      18.832   0.653   8.361  0.00  0.00     0.172 A 
ATOM     11  O14 ZIN A   1      19.053   0.005   7.354  0.00  0.00    -0.289 OA
ATOM     12  C15 ZIN A   1      19.415   1.994   8.536  0.00  0.00     0.052 A 
ATOM     13  C16 ZIN A   1      19.124   2.704   9.614  0.00  0.00    -0.006 A 
ATOM     14  C17 ZIN A   1      18.214   2.238  10.699  0.00  0.00     0.036 A 
ATOM     15  C18 ZIN A   1      17.006   3.176  10.732  0.00  0.00     0.028 C 
ATOM     16  C19 ZIN A   1      18.891   2.363  12.066  0.00  0.00     0.147 C 
ATOM     17  F20 ZIN A   1      20.028   1.550  12.094  0.00  0.00    -0.238 F 
ATOM     18  C21 ZIN A   1      19.327   3.809  12.283  0.00  0.00     0.160 C 
ATOM     19  C24 ZIN A   1      19.897   4.026  13.693  0.00  0.00     0.048 C 
ATOM     20  C25 ZIN A   1      18.855   3.563  14.712  0.00  0.00     0.001 C 
ATOM     21  C26 ZIN A   1      17.526   4.276  14.455  0.00  0.00     0.019 C 
ATOM     22  C27 ZIN A   1      19.221   3.648  16.192  0.00  0.00     0.131 C 
ENDROOT
BRANCH  22  23
ATOM     23  O28 ZIN A   1      20.637   3.547  16.358  0.00  0.00    -0.381 OA
ATOM     24  H54 ZIN A   1      20.933   3.635  17.274  0.00  0.00     0.211 HD
ENDBRANCH  22  23
BRANCH  22  25
ATOM     25  C29 ZIN A   1      18.716   4.940  16.781  0.00  0.00     0.185 C 
ATOM     26  O30 ZIN A   1      17.877   4.921  17.649  0.00  0.00    -0.292 OA
BRANCH  25  27
ATOM     27  C31 ZIN A   1      19.259   6.257  16.286  0.00  0.00     0.245 C 
BRANCH  27  28
ATOM     28  O32 ZIN A   1      20.686   6.242  16.358  0.00  0.00    -0.393 OA
ATOM     29  H57 ZIN A   1      21.033   5.968  17.218  0.00  0.00     0.209 HD
ENDBRANCH  27  28
ENDBRANCH  25  27
ENDBRANCH  22  25
BRANCH  18  30
ATOM     30  O23 ZIN A   1      18.199   4.668  12.101  0.00  0.00    -0.392 OA
ATOM     31  H48 ZIN A   1      17.461   4.254  11.632  0.00  0.00     0.210 HD
ENDBRANCH  18  30
TORSDOF 5
ENDMDL
