MODEL 1
REMARK VINA RESULT:      -7.0      0.000      0.000
REMARK  4 active torsions:
REMARK  status: ('A' for Active; 'I' for Inactive)
REMARK    1  A    between atoms: C2_2  and  C4_4 
REMARK    2  A    between atoms: C4_4  and  C7_7 
REMARK       I    between atoms: C7_7  and  N9_9 
REMARK    3  A    between atoms: N9_9  and  C10_10 
REMARK    4  A    between atoms: C13_13  and  C14_14 
ROOT
ATOM      1  C4  ZIN A   1      17.855   3.778  13.290  0.00  0.00     0.253 C 
ATOM      2  C5  ZIN A   1      18.117   2.724  14.285  0.00  0.00     0.081 C 
ATOM      3  N6  ZIN A   1      18.319   1.911  15.052  0.00  0.00    -0.196 NA
ENDROOT
BRANCH   1   4
ATOM      4  C2  ZIN A   1      19.008   4.748  13.271  0.00  0.00     0.149 C 
ATOM      5  C1  ZIN A   1      19.121   5.804  14.340  0.00  0.00     0.093 C 
ATOM      6  O3  ZIN A   1      19.841   4.680  12.399  0.00  0.00    -0.296 OA
ENDBRANCH   1   4
BRANCH   1   7
ATOM      7  C7  ZIN A   1      17.702   3.154  11.927  0.00  0.00     0.247 C 
ATOM      8  O8  ZIN A   1      16.907   3.616  11.134  0.00  0.00    -0.271 OA
ATOM      9  N9  ZIN A   1      18.445   2.083  11.588  0.00  0.00    -0.326 N 
ATOM     10  H24 ZIN A   1      19.025   1.667  12.245  0.00  0.00     0.169 HD
BRANCH   9  11
ATOM     11  C10 ZIN A   1      18.384   1.571  10.287  0.00  0.00     0.034 A 
ATOM     12  C19 ZIN A   1      19.191   2.104   9.290  0.00  0.00     0.030 A 
ATOM     13  C18 ZIN A   1      19.124   1.600   8.006  0.00  0.00     0.018 A 
ATOM     14  C13 ZIN A   1      18.257   0.563   7.713  0.00  0.00     0.048 A 
ATOM     15  C12 ZIN A   1      17.456   0.026   8.705  0.00  0.00     0.018 A 
ATOM     16  C11 ZIN A   1      17.519   0.526   9.990  0.00  0.00     0.030 A 
BRANCH  14  17
ATOM     17  C14 ZIN A   1      18.186   0.016   6.311  0.00  0.00     0.417 C 
ATOM     18  F15 ZIN A   1      18.689  -1.290   6.293  0.00  0.00    -0.166 F 
ATOM     19  F16 ZIN A   1      16.855   0.009   5.881  0.00  0.00    -0.166 F 
ATOM     20  F17 ZIN A   1      18.947   0.821   5.457  0.00  0.00    -0.166 F 
ENDBRANCH  14  17
ENDBRANCH   9  11
ENDBRANCH   1   7
TORSDOF 4
ENDMDL
MODEL 2
REMARK VINA RESULT:      -6.9      5.349      7.403
REMARK  4 active torsions:
REMARK  status: ('A' for Active; 'I' for Inactive)
REMARK    1  A    between atoms: C2_2  and  C4_4 
REMARK    2  A    between atoms: C4_4  and  C7_7 
REMARK       I    between atoms: C7_7  and  N9_9 
REMARK    3  A    between atoms: N9_9  and  C10_10 
REMARK    4  A    between atoms: C13_13  and  C14_14 
ROOT
ATOM      1  C4  ZIN A   1      19.793  -0.028   9.378  0.00  0.00     0.253 C 
ATOM      2  C5  ZIN A   1      19.438  -1.132   8.469  0.00  0.00     0.081 C 
ATOM      3  N6  ZIN A   1      19.165  -1.983   7.769  0.00  0.00    -0.196 NA
ENDROOT
BRANCH   1   4
ATOM      4  C2  ZIN A   1      19.342   1.279   8.778  0.00  0.00     0.149 C 
ATOM      5  C1  ZIN A   1      19.084   1.380   7.297  0.00  0.00     0.093 C 
ATOM      6  O3  ZIN A   1      19.187   2.247   9.485  0.00  0.00    -0.296 OA
ENDBRANCH   1   4
BRANCH   1   7
ATOM      7  C7  ZIN A   1      19.113  -0.233  10.706  0.00  0.00     0.247 C 
ATOM      8  O8  ZIN A   1      18.093  -0.887  10.771  0.00  0.00    -0.271 OA
ATOM      9  N9  ZIN A   1      19.636   0.310  11.823  0.00  0.00    -0.326 N 
ATOM     10  H24 ZIN A   1      20.408   0.896  11.762  0.00  0.00     0.169 HD
BRANCH   9  11
ATOM     11  C10 ZIN A   1      19.069   0.030  13.071  0.00  0.00     0.034 A 
ATOM     12  C19 ZIN A   1      19.494  -1.075  13.796  0.00  0.00     0.030 A 
ATOM     13  C18 ZIN A   1      18.928  -1.352  15.025  0.00  0.00     0.018 A 
ATOM     14  C13 ZIN A   1      17.941  -0.527  15.536  0.00  0.00     0.048 A 
ATOM     15  C12 ZIN A   1      17.520   0.577  14.818  0.00  0.00     0.018 A 
ATOM     16  C11 ZIN A   1      18.082   0.859  13.588  0.00  0.00     0.030 A 
BRANCH  14  17
ATOM     17  C14 ZIN A   1      17.325  -0.833  16.876  0.00  0.00     0.417 C 
ATOM     18  F15 ZIN A   1      18.250  -0.555  17.889  0.00  0.00    -0.166 F 
ATOM     19  F16 ZIN A   1      16.185  -0.043  17.055  0.00  0.00    -0.166 F 
ATOM     20  F17 ZIN A   1      16.969  -2.185  16.928  0.00  0.00    -0.166 F 
ENDBRANCH  14  17
ENDBRANCH   9  11
ENDBRANCH   1   7
TORSDOF 4
ENDMDL
MODEL 3
REMARK VINA RESULT:      -6.8      5.324      7.530
REMARK  4 active torsions:
REMARK  status: ('A' for Active; 'I' for Inactive)
REMARK    1  A    between atoms: C2_2  and  C4_4 
REMARK    2  A    between atoms: C4_4  and  C7_7 
REMARK       I    between atoms: C7_7  and  N9_9 
REMARK    3  A    between atoms: N9_9  and  C10_10 
REMARK    4  A    between atoms: C13_13  and  C14_14 
ROOT
ATOM      1  C4  ZIN A   1      17.466   0.335   9.084  0.00  0.00     0.253 C 
ATOM      2  C5  ZIN A   1      18.531   1.314   8.808  0.00  0.00     0.081 C 
ATOM      3  N6  ZIN A   1      19.352   2.069   8.595  0.00  0.00    -0.196 NA
ENDROOT
BRANCH   1   4
ATOM      4  C2  ZIN A   1      17.840  -0.995   8.483  0.00  0.00     0.149 C 
ATOM      5  C1  ZIN A   1      18.031  -1.123   6.994  0.00  0.00     0.093 C 
ATOM      6  O3  ZIN A   1      17.986  -1.960   9.195  0.00  0.00    -0.296 OA
ENDBRANCH   1   4
BRANCH   1   7
ATOM      7  C7  ZIN A   1      17.297   0.184  10.574  0.00  0.00     0.247 C 
ATOM      8  O8  ZIN A   1      16.195  -0.009  11.043  0.00  0.00    -0.271 OA
ATOM      9  N9  ZIN A   1      18.369   0.264  11.386  0.00  0.00    -0.326 N 
ATOM     10  H24 ZIN A   1      19.239   0.494  11.021  0.00  0.00     0.169 HD
BRANCH   9  11
ATOM     11  C10 ZIN A   1      18.231   0.015  12.756  0.00  0.00     0.034 A 
ATOM     12  C19 ZIN A   1      18.662  -1.192  13.291  0.00  0.00     0.030 A 
ATOM     13  C18 ZIN A   1      18.519  -1.437  14.643  0.00  0.00     0.018 A 
ATOM     14  C13 ZIN A   1      17.951  -0.480  15.464  0.00  0.00     0.048 A 
ATOM     15  C12 ZIN A   1      17.525   0.725  14.935  0.00  0.00     0.018 A 
ATOM     16  C11 ZIN A   1      17.666   0.976  13.584  0.00  0.00     0.030 A 
BRANCH  14  17
ATOM     17  C14 ZIN A   1      17.795  -0.750  16.938  0.00  0.00     0.417 C 
ATOM     18  F15 ZIN A   1      17.364   0.414  17.583  0.00  0.00    -0.166 F 
ATOM     19  F16 ZIN A   1      16.853  -1.766  17.128  0.00  0.00    -0.166 F 
ATOM     20  F17 ZIN A   1      19.025  -1.151  17.471  0.00  0.00    -0.166 F 
ENDBRANCH  14  17
ENDBRANCH   9  11
ENDBRANCH   1   7
TORSDOF 4
ENDMDL
MODEL 4
REMARK VINA RESULT:      -6.8      2.449      3.443
REMARK  4 active torsions:
REMARK  status: ('A' for Active; 'I' for Inactive)
REMARK    1  A    between atoms: C2_2  and  C4_4 
REMARK    2  A    between atoms: C4_4  and  C7_7 
REMARK       I    between atoms: C7_7  and  N9_9 
REMARK    3  A    between atoms: N9_9  and  C10_10 
REMARK    4  A    between atoms: C13_13  and  C14_14 
ROOT
ATOM      1  C4  ZIN A   1      19.677   0.488  13.978  0.00  0.00     0.253 C 
ATOM      2  C5  ZIN A   1      18.884   1.636  14.450  0.00  0.00     0.081 C 
ATOM      3  N6  ZIN A   1      18.272   2.521  14.813  0.00  0.00    -0.196 NA
ENDROOT
BRANCH   1   4
ATOM      4  C2  ZIN A   1      19.041  -0.791  14.455  0.00  0.00     0.149 C 
ATOM      5  C1  ZIN A   1      18.975  -1.098  15.928  0.00  0.00     0.093 C 
ATOM      6  O3  ZIN A   1      18.582  -1.572  13.655  0.00  0.00    -0.296 OA
ENDBRANCH   1   4
BRANCH   1   7
ATOM      7  C7  ZIN A   1      19.726   0.496  12.473  0.00  0.00     0.247 C 
ATOM      8  O8  ZIN A   1      20.731   0.137  11.896  0.00  0.00    -0.271 OA
ATOM      9  N9  ZIN A   1      18.653   0.901  11.766  0.00  0.00    -0.326 N 
ATOM     10  H24 ZIN A   1      17.876   1.260  12.224  0.00  0.00     0.169 HD
BRANCH   9  11
ATOM     11  C10 ZIN A   1      18.657   0.805  10.370  0.00  0.00     0.034 A 
ATOM     12  C19 ZIN A   1      18.096  -0.302   9.747  0.00  0.00     0.030 A 
ATOM     13  C18 ZIN A   1      18.105  -0.397   8.369  0.00  0.00     0.018 A 
ATOM     14  C13 ZIN A   1      18.670   0.612   7.609  0.00  0.00     0.048 A 
ATOM     15  C12 ZIN A   1      19.225   1.718   8.226  0.00  0.00     0.018 A 
ATOM     16  C11 ZIN A   1      19.218   1.819   9.604  0.00  0.00     0.030 A 
BRANCH  14  17
ATOM     17  C14 ZIN A   1      18.680   0.505   6.107  0.00  0.00     0.417 C 
ATOM     18  F15 ZIN A   1      17.412   0.819   5.608  0.00  0.00    -0.166 F 
ATOM     19  F16 ZIN A   1      19.622   1.397   5.582  0.00  0.00    -0.166 F 
ATOM     20  F17 ZIN A   1      19.018  -0.800   5.734  0.00  0.00    -0.166 F 
ENDBRANCH  14  17
ENDBRANCH   9  11
ENDBRANCH   1   7
TORSDOF 4
ENDMDL
MODEL 5
REMARK VINA RESULT:      -6.7      4.709      7.488
REMARK  4 active torsions:
REMARK  status: ('A' for Active; 'I' for Inactive)
REMARK    1  A    between atoms: C2_2  and  C4_4 
REMARK    2  A    between atoms: C4_4  and  C7_7 
REMARK       I    between atoms: C7_7  and  N9_9 
REMARK    3  A    between atoms: N9_9  and  C10_10 
REMARK    4  A    between atoms: C13_13  and  C14_14 
ROOT
ATOM      1  C4  ZIN A   1      19.203  -3.117   6.124  0.00  0.00     0.253 C 
ATOM      2  C5  ZIN A   1      18.258  -4.206   6.422  0.00  0.00     0.081 C 
ATOM      3  N6  ZIN A   1      17.530  -5.047   6.652  0.00  0.00    -0.196 NA
ENDROOT
BRANCH   1   4
ATOM      4  C2  ZIN A   1      18.889  -2.537   4.769  0.00  0.00     0.149 C 
ATOM      5  C1  ZIN A   1      17.634  -2.950   4.045  0.00  0.00     0.093 C 
ATOM      6  O3  ZIN A   1      19.643  -1.740   4.263  0.00  0.00    -0.296 OA
ENDBRANCH   1   4
BRANCH   1   7
ATOM      7  C7  ZIN A   1      19.076  -2.042   7.173  0.00  0.00     0.247 C 
ATOM      8  O8  ZIN A   1      19.604  -2.186   8.255  0.00  0.00    -0.271 OA
ATOM      9  N9  ZIN A   1      18.377  -0.921   6.908  0.00  0.00    -0.326 N 
ATOM     10  H24 ZIN A   1      17.892  -0.837   6.072  0.00  0.00     0.169 HD
BRANCH   9  11
ATOM     11  C10 ZIN A   1      18.351   0.124   7.839  0.00  0.00     0.034 A 
ATOM     12  C19 ZIN A   1      19.150   1.243   7.651  0.00  0.00     0.030 A 
ATOM     13  C18 ZIN A   1      19.126   2.271   8.574  0.00  0.00     0.018 A 
ATOM     14  C13 ZIN A   1      18.303   2.187   9.683  0.00  0.00     0.048 A 
ATOM     15  C12 ZIN A   1      17.502   1.075   9.870  0.00  0.00     0.018 A 
ATOM     16  C11 ZIN A   1      17.522   0.045   8.951  0.00  0.00     0.030 A 
BRANCH  14  17
ATOM     17  C14 ZIN A   1      18.280   3.308  10.688  0.00  0.00     0.417 C 
ATOM     18  F15 ZIN A   1      17.321   3.035  11.670  0.00  0.00    -0.166 F 
ATOM     19  F16 ZIN A   1      19.539   3.425  11.286  0.00  0.00    -0.166 F 
ATOM     20  F17 ZIN A   1      17.958   4.507  10.043  0.00  0.00    -0.166 F 
ENDBRANCH  14  17
ENDBRANCH   9  11
ENDBRANCH   1   7
TORSDOF 4
ENDMDL
MODEL 6
REMARK VINA RESULT:      -6.6      4.788      7.322
REMARK  4 active torsions:
REMARK  status: ('A' for Active; 'I' for Inactive)
REMARK    1  A    between atoms: C2_2  and  C4_4 
REMARK    2  A    between atoms: C4_4  and  C7_7 
REMARK       I    between atoms: C7_7  and  N9_9 
REMARK    3  A    between atoms: N9_9  and  C10_10 
REMARK    4  A    between atoms: C13_13  and  C14_14 
ROOT
ATOM      1  C4  ZIN A   1      18.641  -2.262   6.594  0.00  0.00     0.253 C 
ATOM      2  C5  ZIN A   1      19.231  -1.730   5.354  0.00  0.00     0.081 C 
ATOM      3  N6  ZIN A   1      19.686  -1.319   4.398  0.00  0.00    -0.196 NA
ENDROOT
BRANCH   1   4
ATOM      4  C2  ZIN A   1      19.362  -3.524   6.992  0.00  0.00     0.149 C 
ATOM      5  C1  ZIN A   1      18.734  -4.473   7.979  0.00  0.00     0.093 C 
ATOM      6  O3  ZIN A   1      20.446  -3.775   6.519  0.00  0.00    -0.296 OA
ENDBRANCH   1   4
BRANCH   1   7
ATOM      7  C7  ZIN A   1      18.774  -1.240   7.693  0.00  0.00     0.247 C 
ATOM      8  O8  ZIN A   1      19.736  -1.265   8.432  0.00  0.00    -0.271 OA
ATOM      9  N9  ZIN A   1      17.825  -0.297   7.855  0.00  0.00    -0.326 N 
ATOM     10  H24 ZIN A   1      17.020  -0.321   7.315  0.00  0.00     0.169 HD
BRANCH   9  11
ATOM     11  C10 ZIN A   1      18.001   0.718   8.802  0.00  0.00     0.034 A 
ATOM     12  C19 ZIN A   1      18.751   1.843   8.486  0.00  0.00     0.030 A 
ATOM     13  C18 ZIN A   1      18.928   2.841   9.425  0.00  0.00     0.018 A 
ATOM     14  C13 ZIN A   1      18.354   2.722  10.678  0.00  0.00     0.048 A 
ATOM     15  C12 ZIN A   1      17.602   1.605  10.994  0.00  0.00     0.018 A 
ATOM     16  C11 ZIN A   1      17.422   0.605  10.060  0.00  0.00     0.030 A 
BRANCH  14  17
ATOM     17  C14 ZIN A   1      18.549   3.811  11.700  0.00  0.00     0.417 C 
ATOM     18  F15 ZIN A   1      18.008   5.008  11.216  0.00  0.00    -0.166 F 
ATOM     19  F16 ZIN A   1      17.905   3.455  12.889  0.00  0.00    -0.166 F 
ATOM     20  F17 ZIN A   1      19.916   3.983  11.944  0.00  0.00    -0.166 F 
ENDBRANCH  14  17
ENDBRANCH   9  11
ENDBRANCH   1   7
TORSDOF 4
ENDMDL
MODEL 7
REMARK VINA RESULT:      -6.5      5.439      7.514
REMARK  4 active torsions:
REMARK  status: ('A' for Active; 'I' for Inactive)
REMARK    1  A    between atoms: C2_2  and  C4_4 
REMARK    2  A    between atoms: C4_4  and  C7_7 
REMARK       I    between atoms: C7_7  and  N9_9 
REMARK    3  A    between atoms: N9_9  and  C10_10 
REMARK    4  A    between atoms: C13_13  and  C14_14 
ROOT
ATOM      1  C4  ZIN A   1      19.243  -1.231   7.748  0.00  0.00     0.253 C 
ATOM      2  C5  ZIN A   1      18.805  -2.605   7.449  0.00  0.00     0.081 C 
ATOM      3  N6  ZIN A   1      18.468  -3.665   7.219  0.00  0.00    -0.196 NA
ENDROOT
BRANCH   1   4
ATOM      4  C2  ZIN A   1      18.268  -0.252   7.145  0.00  0.00     0.149 C 
ATOM      5  C1  ZIN A   1      18.654   0.541   5.924  0.00  0.00     0.093 C 
ATOM      6  O3  ZIN A   1      17.177  -0.103   7.642  0.00  0.00    -0.296 OA
ENDBRANCH   1   4
BRANCH   1   7
ATOM      7  C7  ZIN A   1      19.294  -1.034   9.241  0.00  0.00     0.247 C 
ATOM      8  O8  ZIN A   1      20.083  -0.248   9.722  0.00  0.00    -0.271 OA
ATOM      9  N9  ZIN A   1      18.466  -1.731  10.042  0.00  0.00    -0.326 N 
ATOM     10  H24 ZIN A   1      17.888  -2.414   9.667  0.00  0.00     0.169 HD
BRANCH   9  11
ATOM     11  C10 ZIN A   1      18.436  -1.469  11.417  0.00  0.00     0.034 A 
ATOM     12  C19 ZIN A   1      17.530  -0.552  11.931  0.00  0.00     0.030 A 
ATOM     13  C18 ZIN A   1      17.507  -0.292  13.287  0.00  0.00     0.018 A 
ATOM     14  C13 ZIN A   1      18.382  -0.948  14.134  0.00  0.00     0.048 A 
ATOM     15  C12 ZIN A   1      19.282  -1.867  13.625  0.00  0.00     0.018 A 
ATOM     16  C11 ZIN A   1      19.310  -2.130  12.270  0.00  0.00     0.030 A 
BRANCH  14  17
ATOM     17  C14 ZIN A   1      18.355  -0.662  15.612  0.00  0.00     0.417 C 
ATOM     18  F15 ZIN A   1      18.660  -1.830  16.320  0.00  0.00    -0.166 F 
ATOM     19  F16 ZIN A   1      19.299   0.326  15.913  0.00  0.00    -0.166 F 
ATOM     20  F17 ZIN A   1      17.081  -0.215  15.978  0.00  0.00    -0.166 F 
ENDBRANCH  14  17
ENDBRANCH   9  11
ENDBRANCH   1   7
TORSDOF 4
ENDMDL
MODEL 8
REMARK VINA RESULT:      -6.4      4.719      6.607
REMARK  4 active torsions:
REMARK  status: ('A' for Active; 'I' for Inactive)
REMARK    1  A    between atoms: C2_2  and  C4_4 
REMARK    2  A    between atoms: C4_4  and  C7_7 
REMARK       I    between atoms: C7_7  and  N9_9 
REMARK    3  A    between atoms: N9_9  and  C10_10 
REMARK    4  A    between atoms: C13_13  and  C14_14 
ROOT
ATOM      1  C4  ZIN A   1      18.905  -3.970  10.826  0.00  0.00     0.253 C 
ATOM      2  C5  ZIN A   1      17.588  -4.483  11.239  0.00  0.00     0.081 C 
ATOM      3  N6  ZIN A   1      16.572  -4.879  11.557  0.00  0.00    -0.196 NA
ENDROOT
BRANCH   1   4
ATOM      4  C2  ZIN A   1      19.196  -4.411   9.415  0.00  0.00     0.149 C 
ATOM      5  C1  ZIN A   1      19.710  -5.802   9.151  0.00  0.00     0.093 C 
ATOM      6  O3  ZIN A   1      19.017  -3.648   8.495  0.00  0.00    -0.296 OA
ENDBRANCH   1   4
BRANCH   1   7
ATOM      7  C7  ZIN A   1      18.900  -2.465  10.892  0.00  0.00     0.247 C 
ATOM      8  O8  ZIN A   1      19.910  -1.868  11.200  0.00  0.00    -0.271 OA
ATOM      9  N9  ZIN A   1      17.774  -1.781  10.609  0.00  0.00    -0.326 N 
ATOM     10  H24 ZIN A   1      16.947  -2.258  10.437  0.00  0.00     0.169 HD
BRANCH   9  11
ATOM     11  C10 ZIN A   1      17.797  -0.383  10.563  0.00  0.00     0.034 A 
ATOM     12  C19 ZIN A   1      18.136   0.269   9.384  0.00  0.00     0.030 A 
ATOM     13  C18 ZIN A   1      18.163   1.649   9.343  0.00  0.00     0.018 A 
ATOM     14  C13 ZIN A   1      17.848   2.383  10.472  0.00  0.00     0.048 A 
ATOM     15  C12 ZIN A   1      17.504   1.737  11.646  0.00  0.00     0.018 A 
ATOM     16  C11 ZIN A   1      17.476   0.357  11.694  0.00  0.00     0.030 A 
BRANCH  14  17
ATOM     17  C14 ZIN A   1      17.879   3.888  10.424  0.00  0.00     0.417 C 
ATOM     18  F15 ZIN A   1      18.822   4.365  11.341  0.00  0.00    -0.166 F 
ATOM     19  F16 ZIN A   1      18.227   4.306   9.135  0.00  0.00    -0.166 F 
ATOM     20  F17 ZIN A   1      16.615   4.391  10.751  0.00  0.00    -0.166 F 
ENDBRANCH  14  17
ENDBRANCH   9  11
ENDBRANCH   1   7
TORSDOF 4
ENDMDL
MODEL 9
REMARK VINA RESULT:      -6.3      5.023      7.276
REMARK  4 active torsions:
REMARK  status: ('A' for Active; 'I' for Inactive)
REMARK    1  A    between atoms: C2_2  and  C4_4 
REMARK    2  A    between atoms: C4_4  and  C7_7 
REMARK       I    between atoms: C7_7  and  N9_9 
REMARK    3  A    between atoms: N9_9  and  C10_10 
REMARK    4  A    between atoms: C13_13  and  C14_14 
ROOT
ATOM      1  C4  ZIN A   1      18.646  -3.645   8.427  0.00  0.00     0.253 C 
ATOM      2  C5  ZIN A   1      19.411  -3.549   7.172  0.00  0.00     0.081 C 
ATOM      3  N6  ZIN A   1      20.000  -3.475   6.204  0.00  0.00    -0.196 NA
ENDROOT
BRANCH   1   4
ATOM      4  C2  ZIN A   1      19.319  -4.626   9.351  0.00  0.00     0.149 C 
ATOM      5  C1  ZIN A   1      19.564  -6.042   8.899  0.00  0.00     0.093 C 
ATOM      6  O3  ZIN A   1      19.663  -4.278  10.456  0.00  0.00    -0.296 OA
ENDBRANCH   1   4
BRANCH   1   7
ATOM      7  C7  ZIN A   1      18.590  -2.291   9.086  0.00  0.00     0.247 C 
ATOM      8  O8  ZIN A   1      17.610  -1.966   9.723  0.00  0.00    -0.271 OA
ATOM      9  N9  ZIN A   1      19.628  -1.440   8.967  0.00  0.00    -0.326 N 
ATOM     10  H24 ZIN A   1      20.380  -1.667   8.397  0.00  0.00     0.169 HD
BRANCH   9  11
ATOM     11  C10 ZIN A   1      19.625  -0.229   9.668  0.00  0.00     0.034 A 
ATOM     12  C19 ZIN A   1      19.221   0.940   9.036  0.00  0.00     0.030 A 
ATOM     13  C18 ZIN A   1      19.223   2.135   9.728  0.00  0.00     0.018 A 
ATOM     14  C13 ZIN A   1      19.623   2.168  11.052  0.00  0.00     0.048 A 
ATOM     15  C12 ZIN A   1      20.021   1.004  11.686  0.00  0.00     0.018 A 
ATOM     16  C11 ZIN A   1      20.021  -0.193  10.999  0.00  0.00     0.030 A 
BRANCH  14  17
ATOM     17  C14 ZIN A   1      19.626   3.472  11.805  0.00  0.00     0.417 C 
ATOM     18  F15 ZIN A   1      19.162   3.261  13.108  0.00  0.00    -0.166 F 
ATOM     19  F16 ZIN A   1      20.928   3.982  11.849  0.00  0.00    -0.166 F 
ATOM     20  F17 ZIN A   1      18.790   4.387  11.155  0.00  0.00    -0.166 F 
ENDBRANCH  14  17
ENDBRANCH   9  11
ENDBRANCH   1   7
TORSDOF 4
ENDMDL
