MODEL 1
REMARK VINA RESULT:      -7.9      0.000      0.000
REMARK  7 active torsions:
REMARK  status: ('A' for Active; 'I' for Inactive)
REMARK    1  A    between atoms: O1_1  and  C2_2 
REMARK    2  A    between atoms: C2_2  and  C3_3 
REMARK    3  A    between atoms: C3_3  and  O4_4 
REMARK    4  A    between atoms: O4_4  and  C5_5 
REMARK    5  A    between atoms: C5_5  and  C6_6 
REMARK    6  A    between atoms: C6_6  and  N7_7 
REMARK    7  A    between atoms: N11_11  and  C12_12 
ROOT
ATOM      1  C12 <0> d   1      18.501  -1.870  11.200  0.00  0.00     0.138 C 
ATOM      2  N13 <0> d   1      18.497  -1.209  10.117  0.00  0.00    -0.229 NA
ATOM      3  C14 <0> d   1      18.529   0.128   9.891  0.00  0.00     0.076 A 
ATOM      4  C15 <0> d   1      19.402   0.622   8.914  0.00  0.00     0.033 A 
ATOM      5  C16 <0> d   1      19.463   1.976   8.653  0.00  0.00     0.002 A 
ATOM      6  C17 <0> d   1      18.662   2.858   9.354  0.00  0.00     0.002 A 
ATOM      7  C18 <0> d   1      17.794   2.384  10.323  0.00  0.00     0.021 A 
ATOM      8  C19 <0> d   1      17.725   1.029  10.595  0.00  0.00     0.034 A 
ATOM      9  S20 <0> d   1      16.617   0.450  11.836  0.00  0.00    -0.087 SA
ATOM     10  C21 <0> d   1      17.702  -0.319  12.993  0.00  0.00     0.019 A 
ATOM     11  C22 <0> d   1      17.748   0.130  14.303  0.00  0.00     0.020 A 
ATOM     12  C23 <0> d   1      18.596  -0.475  15.213  0.00  0.00     0.001 A 
ATOM     13  C24 <0> d   1      19.398  -1.531  14.818  0.00  0.00     0.001 A 
ATOM     14  C25 <0> d   1      19.362  -1.987  13.516  0.00  0.00     0.017 A 
ATOM     15  C26 <0> d   1      18.509  -1.385  12.582  0.00  0.00     0.027 A 
ENDROOT
BRANCH   1  16
ATOM     16  N11 <0> d   1      18.492  -3.240  11.056  0.00  0.00    -0.362 N 
ATOM     17  C10 <0> d   1      17.227  -3.981  10.951  0.00  0.00     0.152 C 
ATOM     18  C9  <0> d   1      17.303  -4.903   9.730  0.00  0.00     0.254 C 
ATOM     19  N7  <0> d   1      18.496  -5.753   9.833  0.00  0.00    -0.066 N 
ATOM     20  H8  <0> d   1      18.475  -6.255  10.709  0.00  0.00     0.280 HD
ATOM     21  C28 <0> d   1      19.705  -4.922   9.778  0.00  0.00     0.254 C 
ATOM     22  C27 <0> d   1      19.749  -4.003  11.003  0.00  0.00     0.152 C 
BRANCH  19  23
ATOM     23  C6  <0> d   1      18.511  -6.712   8.721  0.00  0.00     0.261 C 
BRANCH  23  24
ATOM     24  C5  <0> d   1      17.867  -6.073   7.489  0.00  0.00     0.195 C 
BRANCH  24  25
ATOM     25  O4  <0> d   1      18.874  -5.798   6.513  0.00  0.00    -0.387 OA
BRANCH  25  26
ATOM     26  C3  <0> d   1      18.702  -4.554   5.834  0.00  0.00     0.193 C 
BRANCH  26  27
ATOM     27  C2  <0> d   1      19.656  -3.513   6.426  0.00  0.00     0.190 C 
BRANCH  27  28
ATOM     28  O1  <0> d   1      20.930  -4.116   6.660  0.00  0.00    -0.399 OA
ATOM     29  H29 <0> d   1      21.326  -4.517   5.874  0.00  0.00     0.209 HD
ENDBRANCH  27  28
ENDBRANCH  26  27
ENDBRANCH  25  26
ENDBRANCH  24  25
ENDBRANCH  23  24
ENDBRANCH  19  23
ENDBRANCH   1  16
TORSDOF 7
ENDMDL
MODEL 2
REMARK VINA RESULT:      -7.7      3.954      7.049
REMARK  7 active torsions:
REMARK  status: ('A' for Active; 'I' for Inactive)
REMARK    1  A    between atoms: O1_1  and  C2_2 
REMARK    2  A    between atoms: C2_2  and  C3_3 
REMARK    3  A    between atoms: C3_3  and  O4_4 
REMARK    4  A    between atoms: O4_4  and  C5_5 
REMARK    5  A    between atoms: C5_5  and  C6_6 
REMARK    6  A    between atoms: C6_6  and  N7_7 
REMARK    7  A    between atoms: N11_11  and  C12_12 
ROOT
ATOM      1  C12 <0> d   1      18.177   3.088  13.908  0.00  0.00     0.138 C 
ATOM      2  N13 <0> d   1      18.368   1.908  14.335  0.00  0.00    -0.229 NA
ATOM      3  C14 <0> d   1      18.261   1.385  15.582  0.00  0.00     0.076 A 
ATOM      4  C15 <0> d   1      17.594   0.164  15.741  0.00  0.00     0.033 A 
ATOM      5  C16 <0> d   1      17.467  -0.402  16.994  0.00  0.00     0.002 A 
ATOM      6  C17 <0> d   1      17.996   0.230  18.103  0.00  0.00     0.002 A 
ATOM      7  C18 <0> d   1      18.658   1.438  17.960  0.00  0.00     0.021 A 
ATOM      8  C19 <0> d   1      18.791   2.016  16.710  0.00  0.00     0.034 A 
ATOM      9  S20 <0> d   1      19.633   3.556  16.553  0.00  0.00    -0.087 SA
ATOM     10  C21 <0> d   1      18.389   4.610  15.883  0.00  0.00     0.019 A 
ATOM     11  C22 <0> d   1      18.000   5.746  16.572  0.00  0.00     0.020 A 
ATOM     12  C23 <0> d   1      17.027   6.576  16.046  0.00  0.00     0.001 A 
ATOM     13  C24 <0> d   1      16.442   6.273  14.828  0.00  0.00     0.001 A 
ATOM     14  C25 <0> d   1      16.821   5.144  14.132  0.00  0.00     0.017 A 
ATOM     15  C26 <0> d   1      17.805   4.293  14.653  0.00  0.00     0.027 A 
ENDROOT
BRANCH   1  16
ATOM     16  N11 <0> d   1      18.350   3.261  12.553  0.00  0.00    -0.362 N 
ATOM     17  C10 <0> d   1      19.633   3.727  12.008  0.00  0.00     0.152 C 
ATOM     18  C9  <0> d   1      20.054   2.780  10.879  0.00  0.00     0.254 C 
ATOM     19  N7  <0> d   1      18.973   2.688   9.890  0.00  0.00    -0.066 N 
ATOM     20  H8  <0> d   1      18.738   3.614   9.563  0.00  0.00     0.280 HD
ATOM     21  C28 <0> d   1      17.789   2.073  10.501  0.00  0.00     0.254 C 
ATOM     22  C27 <0> d   1      17.254   2.985  11.610  0.00  0.00     0.152 C 
BRANCH  19  23
ATOM     23  C6  <0> d   1      19.418   1.869   8.755  0.00  0.00     0.261 C 
BRANCH  23  24
ATOM     24  C5  <0> d   1      18.748   0.496   8.823  0.00  0.00     0.195 C 
BRANCH  24  25
ATOM     25  O4  <0> d   1      19.738  -0.506   9.061  0.00  0.00    -0.387 OA
BRANCH  25  26
ATOM     26  C3  <0> d   1      19.466  -1.334  10.193  0.00  0.00     0.193 C 
BRANCH  26  27
ATOM     27  C2  <0> d   1      20.329  -0.883  11.373  0.00  0.00     0.190 C 
BRANCH  27  28
ATOM     28  O1  <0> d   1      21.634  -0.540  10.904  0.00  0.00    -0.399 OA
ATOM     29  H29 <0> d   1      21.908  -1.025  10.114  0.00  0.00     0.209 HD
ENDBRANCH  27  28
ENDBRANCH  26  27
ENDBRANCH  25  26
ENDBRANCH  24  25
ENDBRANCH  23  24
ENDBRANCH  19  23
ENDBRANCH   1  16
TORSDOF 7
ENDMDL
MODEL 3
REMARK VINA RESULT:      -7.7      1.659      3.864
REMARK  7 active torsions:
REMARK  status: ('A' for Active; 'I' for Inactive)
REMARK    1  A    between atoms: O1_1  and  C2_2 
REMARK    2  A    between atoms: C2_2  and  C3_3 
REMARK    3  A    between atoms: C3_3  and  O4_4 
REMARK    4  A    between atoms: O4_4  and  C5_5 
REMARK    5  A    between atoms: C5_5  and  C6_6 
REMARK    6  A    between atoms: C6_6  and  N7_7 
REMARK    7  A    between atoms: N11_11  and  C12_12 
ROOT
ATOM      1  C12 <0> d   1      18.571  -1.936  12.399  0.00  0.00     0.138 C 
ATOM      2  N13 <0> d   1      18.650  -1.918  13.665  0.00  0.00    -0.229 NA
ATOM      3  C14 <0> d   1      18.606  -0.887  14.545  0.00  0.00     0.076 A 
ATOM      4  C15 <0> d   1      17.806  -1.014  15.688  0.00  0.00     0.033 A 
ATOM      5  C16 <0> d   1      17.737   0.013  16.607  0.00  0.00     0.002 A 
ATOM      6  C17 <0> d   1      18.456   1.177  16.410  0.00  0.00     0.002 A 
ATOM      7  C18 <0> d   1      19.251   1.317  15.285  0.00  0.00     0.021 A 
ATOM      8  C19 <0> d   1      19.328   0.295  14.355  0.00  0.00     0.034 A 
ATOM      9  S20 <0> d   1      20.342   0.497  12.928  0.00  0.00    -0.087 SA
ATOM     10  C21 <0> d   1      19.182   0.358  11.608  0.00  0.00     0.019 A 
ATOM     11  C22 <0> d   1      19.017   1.407  10.718  0.00  0.00     0.020 A 
ATOM     12  C23 <0> d   1      18.111   1.297   9.680  0.00  0.00     0.001 A 
ATOM     13  C24 <0> d   1      17.368   0.139   9.525  0.00  0.00     0.001 A 
ATOM     14  C25 <0> d   1      17.524  -0.912  10.406  0.00  0.00     0.017 A 
ATOM     15  C26 <0> d   1      18.437  -0.817  11.464  0.00  0.00     0.027 A 
ENDROOT
BRANCH   1  16
ATOM     16  N11 <0> d   1      18.624  -3.185  11.821  0.00  0.00    -0.362 N 
ATOM     17  C10 <0> d   1      17.437  -4.052  11.785  0.00  0.00     0.152 C 
ATOM     18  C9  <0> d   1      17.240  -4.547  10.349  0.00  0.00     0.254 C 
ATOM     19  N7  <0> d   1      18.475  -5.190   9.880  0.00  0.00    -0.066 N 
ATOM     20  H8  <0> d   1      18.734  -5.926  10.521  0.00  0.00     0.280 HD
ATOM     21  C28 <0> d   1      19.557  -4.200   9.812  0.00  0.00     0.254 C 
ATOM     22  C27 <0> d   1      19.870  -3.689  11.222  0.00  0.00     0.152 C 
BRANCH  19  23
ATOM     23  C6  <0> d   1      18.252  -5.761   8.546  0.00  0.00     0.261 C 
BRANCH  23  24
ATOM     24  C5  <0> d   1      19.356  -5.290   7.598  0.00  0.00     0.195 C 
BRANCH  24  25
ATOM     25  O4  <0> d   1      18.768  -4.711   6.431  0.00  0.00    -0.387 OA
BRANCH  25  26
ATOM     26  C3  <0> d   1      19.397  -3.502   6.002  0.00  0.00     0.193 C 
BRANCH  26  27
ATOM     27  C2  <0> d   1      18.814  -3.075   4.653  0.00  0.00     0.190 C 
BRANCH  27  28
ATOM     28  O1  <0> d   1      19.551  -1.959   4.150  0.00  0.00    -0.399 OA
ATOM     29  H29 <0> d   1      19.032  -1.367   3.588  0.00  0.00     0.209 HD
ENDBRANCH  27  28
ENDBRANCH  26  27
ENDBRANCH  25  26
ENDBRANCH  24  25
ENDBRANCH  23  24
ENDBRANCH  19  23
ENDBRANCH   1  16
TORSDOF 7
ENDMDL
MODEL 4
REMARK VINA RESULT:      -7.6      3.967      7.203
REMARK  7 active torsions:
REMARK  status: ('A' for Active; 'I' for Inactive)
REMARK    1  A    between atoms: O1_1  and  C2_2 
REMARK    2  A    between atoms: C2_2  and  C3_3 
REMARK    3  A    between atoms: C3_3  and  O4_4 
REMARK    4  A    between atoms: O4_4  and  C5_5 
REMARK    5  A    between atoms: C5_5  and  C6_6 
REMARK    6  A    between atoms: C6_6  and  N7_7 
REMARK    7  A    between atoms: N11_11  and  C12_12 
ROOT
ATOM      1  C12 <0> d   1      18.194  -2.824   9.147  0.00  0.00     0.138 C 
ATOM      2  N13 <0> d   1      18.504  -1.728   8.588  0.00  0.00    -0.229 NA
ATOM      3  C14 <0> d   1      18.520  -1.369   7.280  0.00  0.00     0.076 A 
ATOM      4  C15 <0> d   1      17.964  -0.137   6.916  0.00  0.00     0.033 A 
ATOM      5  C16 <0> d   1      17.963   0.264   5.595  0.00  0.00     0.002 A 
ATOM      6  C17 <0> d   1      18.511  -0.546   4.618  0.00  0.00     0.002 A 
ATOM      7  C18 <0> d   1      19.065  -1.767   4.964  0.00  0.00     0.021 A 
ATOM      8  C19 <0> d   1      19.071  -2.181   6.285  0.00  0.00     0.034 A 
ATOM      9  S20 <0> d   1      19.777  -3.741   6.700  0.00  0.00    -0.087 SA
ATOM     10  C21 <0> d   1      18.412  -4.607   7.405  0.00  0.00     0.019 A 
ATOM     11  C22 <0> d   1      17.980  -5.795   6.840  0.00  0.00     0.020 A 
ATOM     12  C23 <0> d   1      16.912  -6.477   7.394  0.00  0.00     0.001 A 
ATOM     13  C24 <0> d   1      16.275  -5.975   8.516  0.00  0.00     0.001 A 
ATOM     14  C25 <0> d   1      16.696  -4.791   9.087  0.00  0.00     0.017 A 
ATOM     15  C26 <0> d   1      17.776  -4.088   8.537  0.00  0.00     0.027 A 
ENDROOT
BRANCH   1  16
ATOM     16  N11 <0> d   1      18.264  -2.827  10.522  0.00  0.00    -0.362 N 
ATOM     17  C10 <0> d   1      19.304  -3.592  11.225  0.00  0.00     0.152 C 
ATOM     18  C9  <0> d   1      19.988  -2.668  12.237  0.00  0.00     0.254 C 
ATOM     19  N7  <0> d   1      18.974  -2.073  13.118  0.00  0.00    -0.066 N 
ATOM     20  H8  <0> d   1      18.435  -2.808  13.553  0.00  0.00     0.280 HD
ATOM     21  C28 <0> d   1      18.080  -1.210  12.336  0.00  0.00     0.254 C 
ATOM     22  C27 <0> d   1      17.300  -2.063  11.330  0.00  0.00     0.152 C 
BRANCH  19  23
ATOM     23  C6  <0> d   1      19.638  -1.274  14.156  0.00  0.00     0.261 C 
BRANCH  23  24
ATOM     24  C5  <0> d   1      18.788  -1.284  15.428  0.00  0.00     0.195 C 
BRANCH  24  25
ATOM     25  O4  <0> d   1      18.739   0.034  15.979  0.00  0.00    -0.387 OA
BRANCH  25  26
ATOM     26  C3  <0> d   1      18.079   0.111  17.243  0.00  0.00     0.193 C 
BRANCH  26  27
ATOM     27  C2  <0> d   1      19.108  -0.031  18.366  0.00  0.00     0.190 C 
BRANCH  27  28
ATOM     28  O1  <0> d   1      19.872   1.173  18.465  0.00  0.00    -0.399 OA
ATOM     29  H29 <0> d   1      19.339   1.966  18.611  0.00  0.00     0.209 HD
ENDBRANCH  27  28
ENDBRANCH  26  27
ENDBRANCH  25  26
ENDBRANCH  24  25
ENDBRANCH  23  24
ENDBRANCH  19  23
ENDBRANCH   1  16
TORSDOF 7
ENDMDL
MODEL 5
REMARK VINA RESULT:      -7.6      1.794      2.431
REMARK  7 active torsions:
REMARK  status: ('A' for Active; 'I' for Inactive)
REMARK    1  A    between atoms: O1_1  and  C2_2 
REMARK    2  A    between atoms: C2_2  and  C3_3 
REMARK    3  A    between atoms: C3_3  and  O4_4 
REMARK    4  A    between atoms: O4_4  and  C5_5 
REMARK    5  A    between atoms: C5_5  and  C6_6 
REMARK    6  A    between atoms: C6_6  and  N7_7 
REMARK    7  A    between atoms: N11_11  and  C12_12 
ROOT
ATOM      1  C12 <0> d   1      18.405  -2.073  11.071  0.00  0.00     0.138 C 
ATOM      2  N13 <0> d   1      18.402  -1.445   9.969  0.00  0.00    -0.229 NA
ATOM      3  C14 <0> d   1      18.511  -0.119   9.701  0.00  0.00     0.076 A 
ATOM      4  C15 <0> d   1      19.376   0.288   8.677  0.00  0.00     0.033 A 
ATOM      5  C16 <0> d   1      19.514   1.627   8.373  0.00  0.00     0.002 A 
ATOM      6  C17 <0> d   1      18.799   2.580   9.075  0.00  0.00     0.002 A 
ATOM      7  C18 <0> d   1      17.940   2.192  10.089  0.00  0.00     0.021 A 
ATOM      8  C19 <0> d   1      17.795   0.852  10.405  0.00  0.00     0.034 A 
ATOM      9  S20 <0> d   1      16.700   0.382  11.703  0.00  0.00    -0.087 SA
ATOM     10  C21 <0> d   1      17.777  -0.423  12.844  0.00  0.00     0.019 A 
ATOM     11  C22 <0> d   1      17.902   0.060  14.136  0.00  0.00     0.020 A 
ATOM     12  C23 <0> d   1      18.744  -0.572  15.032  0.00  0.00     0.001 A 
ATOM     13  C24 <0> d   1      19.461  -1.690  14.642  0.00  0.00     0.001 A 
ATOM     14  C25 <0> d   1      19.345  -2.180  13.357  0.00  0.00     0.017 A 
ATOM     15  C26 <0> d   1      18.497  -1.550  12.436  0.00  0.00     0.027 A 
ENDROOT
BRANCH   1  16
ATOM     16  N11 <0> d   1      18.302  -3.443  10.970  0.00  0.00    -0.362 N 
ATOM     17  C10 <0> d   1      17.150  -4.159  11.538  0.00  0.00     0.152 C 
ATOM     18  C9  <0> d   1      16.576  -5.087  10.462  0.00  0.00     0.254 C 
ATOM     19  N7  <0> d   1      17.641  -5.960   9.951  0.00  0.00    -0.066 N 
ATOM     20  H8  <0> d   1      18.063  -6.459  10.721  0.00  0.00     0.280 HD
ATOM     21  C28 <0> d   1      18.664  -5.154   9.274  0.00  0.00     0.254 C 
ATOM     22  C27 <0> d   1      19.343  -4.231  10.291  0.00  0.00     0.152 C 
BRANCH  19  23
ATOM     23  C6  <0> d   1      17.069  -6.922   9.001  0.00  0.00     0.261 C 
BRANCH  23  24
ATOM     24  C5  <0> d   1      17.135  -6.343   7.587  0.00  0.00     0.195 C 
BRANCH  24  25
ATOM     25  O4  <0> d   1      15.813  -6.217   7.061  0.00  0.00    -0.387 OA
BRANCH  25  26
ATOM     26  C3  <0> d   1      14.830  -6.974   7.769  0.00  0.00     0.193 C 
BRANCH  26  27
ATOM     27  C2  <0> d   1      13.444  -6.377   7.514  0.00  0.00     0.190 C 
BRANCH  27  28
ATOM     28  O1  <0> d   1      13.039  -5.612   8.651  0.00  0.00    -0.399 OA
ATOM     29  H29 <0> d   1      12.123  -5.305   8.612  0.00  0.00     0.209 HD
ENDBRANCH  27  28
ENDBRANCH  26  27
ENDBRANCH  25  26
ENDBRANCH  24  25
ENDBRANCH  23  24
ENDBRANCH  19  23
ENDBRANCH   1  16
TORSDOF 7
ENDMDL
MODEL 6
REMARK VINA RESULT:      -7.5      4.083      6.436
REMARK  7 active torsions:
REMARK  status: ('A' for Active; 'I' for Inactive)
REMARK    1  A    between atoms: O1_1  and  C2_2 
REMARK    2  A    between atoms: C2_2  and  C3_3 
REMARK    3  A    between atoms: C3_3  and  O4_4 
REMARK    4  A    between atoms: O4_4  and  C5_5 
REMARK    5  A    between atoms: C5_5  and  C6_6 
REMARK    6  A    between atoms: C6_6  and  N7_7 
REMARK    7  A    between atoms: N11_11  and  C12_12 
ROOT
ATOM      1  C12 <0> d   1      18.919   2.240  13.594  0.00  0.00     0.138 C 
ATOM      2  N13 <0> d   1      19.091   1.343  14.474  0.00  0.00    -0.229 NA
ATOM      3  C14 <0> d   1      18.669   1.266  15.761  0.00  0.00     0.076 A 
ATOM      4  C15 <0> d   1      18.111   0.064  16.213  0.00  0.00     0.033 A 
ATOM      5  C16 <0> d   1      17.672  -0.054  17.517  0.00  0.00     0.002 A 
ATOM      6  C17 <0> d   1      17.779   1.014  18.388  0.00  0.00     0.002 A 
ATOM      7  C18 <0> d   1      18.328   2.208  17.955  0.00  0.00     0.021 A 
ATOM      8  C19 <0> d   1      18.771   2.339  16.650  0.00  0.00     0.034 A 
ATOM      9  S20 <0> d   1      19.462   3.871  16.120  0.00  0.00    -0.087 SA
ATOM     10  C21 <0> d   1      18.376   4.354  14.818  0.00  0.00     0.019 A 
ATOM     11  C22 <0> d   1      17.686   5.552  14.901  0.00  0.00     0.020 A 
ATOM     12  C23 <0> d   1      16.837   5.934  13.878  0.00  0.00     0.001 A 
ATOM     13  C24 <0> d   1      16.677   5.121  12.769  0.00  0.00     0.001 A 
ATOM     14  C25 <0> d   1      17.358   3.925  12.676  0.00  0.00     0.017 A 
ATOM     15  C26 <0> d   1      18.222   3.524  13.703  0.00  0.00     0.027 A 
ENDROOT
BRANCH   1  16
ATOM     16  N11 <0> d   1      19.471   1.972  12.361  0.00  0.00    -0.362 N 
ATOM     17  C10 <0> d   1      19.599   0.591  11.874  0.00  0.00     0.152 C 
ATOM     18  C9  <0> d   1      19.013   0.518  10.460  0.00  0.00     0.254 C 
ATOM     19  N7  <0> d   1      19.662   1.523   9.609  0.00  0.00    -0.066 N 
ATOM     20  H8  <0> d   1      20.662   1.385   9.631  0.00  0.00     0.280 HD
ATOM     21  C28 <0> d   1      19.346   2.870  10.100  0.00  0.00     0.254 C 
ATOM     22  C27 <0> d   1      19.950   3.061  11.494  0.00  0.00     0.152 C 
BRANCH  19  23
ATOM     23  C6  <0> d   1      19.180   1.380   8.229  0.00  0.00     0.261 C 
BRANCH  23  24
ATOM     24  C5  <0> d   1      18.165   0.238   8.160  0.00  0.00     0.195 C 
BRANCH  24  25
ATOM     25  O4  <0> d   1      18.313  -0.456   6.919  0.00  0.00    -0.387 OA
BRANCH  25  26
ATOM     26  C3  <0> d   1      18.073   0.354   5.768  0.00  0.00     0.193 C 
BRANCH  26  27
ATOM     27  C2  <0> d   1      18.630  -0.346   4.526  0.00  0.00     0.190 C 
BRANCH  27  28
ATOM     28  O1  <0> d   1      20.050  -0.456   4.640  0.00  0.00    -0.399 OA
ATOM     29  H29 <0> d   1      20.431   0.087   5.343  0.00  0.00     0.209 HD
ENDBRANCH  27  28
ENDBRANCH  26  27
ENDBRANCH  25  26
ENDBRANCH  24  25
ENDBRANCH  23  24
ENDBRANCH  19  23
ENDBRANCH   1  16
TORSDOF 7
ENDMDL
MODEL 7
REMARK VINA RESULT:      -7.3      2.128      4.346
REMARK  7 active torsions:
REMARK  status: ('A' for Active; 'I' for Inactive)
REMARK    1  A    between atoms: O1_1  and  C2_2 
REMARK    2  A    between atoms: C2_2  and  C3_3 
REMARK    3  A    between atoms: C3_3  and  O4_4 
REMARK    4  A    between atoms: O4_4  and  C5_5 
REMARK    5  A    between atoms: C5_5  and  C6_6 
REMARK    6  A    between atoms: C6_6  and  N7_7 
REMARK    7  A    between atoms: N11_11  and  C12_12 
ROOT
ATOM      1  C12 <0> d   1      18.643  -1.953  12.430  0.00  0.00     0.138 C 
ATOM      2  N13 <0> d   1      18.717  -1.856  13.693  0.00  0.00    -0.229 NA
ATOM      3  C14 <0> d   1      18.648  -0.774  14.507  0.00  0.00     0.076 A 
ATOM      4  C15 <0> d   1      17.847  -0.848  15.654  0.00  0.00     0.033 A 
ATOM      5  C16 <0> d   1      17.752   0.232  16.509  0.00  0.00     0.002 A 
ATOM      6  C17 <0> d   1      18.446   1.397  16.242  0.00  0.00     0.002 A 
ATOM      7  C18 <0> d   1      19.242   1.484  15.112  0.00  0.00     0.021 A 
ATOM      8  C19 <0> d   1      19.344   0.409  14.246  0.00  0.00     0.034 A 
ATOM      9  S20 <0> d   1      20.359   0.546  12.813  0.00  0.00    -0.087 SA
ATOM     10  C21 <0> d   1      19.207   0.300  11.500  0.00  0.00     0.019 A 
ATOM     11  C22 <0> d   1      19.023   1.289  10.548  0.00  0.00     0.020 A 
ATOM     12  C23 <0> d   1      18.122   1.096   9.516  0.00  0.00     0.001 A 
ATOM     13  C24 <0> d   1      17.406  -0.086   9.432  0.00  0.00     0.001 A 
ATOM     14  C25 <0> d   1      17.581  -1.077  10.375  0.00  0.00     0.017 A 
ATOM     15  C26 <0> d   1      18.488  -0.897  11.427  0.00  0.00     0.027 A 
ENDROOT
BRANCH   1  16
ATOM     16  N11 <0> d   1      18.725  -3.234  11.930  0.00  0.00    -0.362 N 
ATOM     17  C10 <0> d   1      17.579  -4.151  12.010  0.00  0.00     0.152 C 
ATOM     18  C9  <0> d   1      17.335  -4.748  10.619  0.00  0.00     0.254 C 
ATOM     19  N7  <0> d   1      18.574  -5.366  10.129  0.00  0.00    -0.066 N 
ATOM     20  H8  <0> d   1      18.897  -6.047  10.801  0.00  0.00     0.280 HD
ATOM     21  C28 <0> d   1      19.605  -4.337   9.944  0.00  0.00     0.254 C 
ATOM     22  C27 <0> d   1      19.962  -3.722  11.301  0.00  0.00     0.152 C 
BRANCH  19  23
ATOM     23  C6  <0> d   1      18.313  -6.032   8.847  0.00  0.00     0.261 C 
BRANCH  23  24
ATOM     24  C5  <0> d   1      17.265  -5.239   8.064  0.00  0.00     0.195 C 
BRANCH  24  25
ATOM     25  O4  <0> d   1      16.403  -6.143   7.370  0.00  0.00    -0.387 OA
BRANCH  25  26
ATOM     26  C3  <0> d   1      15.327  -6.645   8.165  0.00  0.00     0.193 C 
BRANCH  26  27
ATOM     27  C2  <0> d   1      13.994  -6.203   7.556  0.00  0.00     0.190 C 
BRANCH  27  28
ATOM     28  O1  <0> d   1      13.151  -5.683   8.586  0.00  0.00    -0.399 OA
ATOM     29  H29 <0> d   1      13.595  -5.569   9.437  0.00  0.00     0.209 HD
ENDBRANCH  27  28
ENDBRANCH  26  27
ENDBRANCH  25  26
ENDBRANCH  24  25
ENDBRANCH  23  24
ENDBRANCH  19  23
ENDBRANCH   1  16
TORSDOF 7
ENDMDL
MODEL 8
REMARK VINA RESULT:      -7.2      3.852      7.095
REMARK  7 active torsions:
REMARK  status: ('A' for Active; 'I' for Inactive)
REMARK    1  A    between atoms: O1_1  and  C2_2 
REMARK    2  A    between atoms: C2_2  and  C3_3 
REMARK    3  A    between atoms: C3_3  and  O4_4 
REMARK    4  A    between atoms: O4_4  and  C5_5 
REMARK    5  A    between atoms: C5_5  and  C6_6 
REMARK    6  A    between atoms: C6_6  and  N7_7 
REMARK    7  A    between atoms: N11_11  and  C12_12 
ROOT
ATOM      1  C12 <0> d   1      18.606  -2.201   9.060  0.00  0.00     0.138 C 
ATOM      2  N13 <0> d   1      18.740  -1.642   7.929  0.00  0.00    -0.229 NA
ATOM      3  C14 <0> d   1      18.502  -2.102   6.676  0.00  0.00     0.076 A 
ATOM      4  C15 <0> d   1      17.810  -1.279   5.779  0.00  0.00     0.033 A 
ATOM      5  C16 <0> d   1      17.550  -1.711   4.494  0.00  0.00     0.002 A 
ATOM      6  C17 <0> d   1      17.971  -2.960   4.079  0.00  0.00     0.002 A 
ATOM      7  C18 <0> d   1      18.657  -3.785   4.955  0.00  0.00     0.021 A 
ATOM      8  C19 <0> d   1      18.922  -3.364   6.246  0.00  0.00     0.034 A 
ATOM      9  S20 <0> d   1      19.792  -4.433   7.344  0.00  0.00    -0.087 SA
ATOM     10  C21 <0> d   1      18.633  -4.669   8.651  0.00  0.00     0.019 A 
ATOM     11  C22 <0> d   1      18.188  -5.944   8.959  0.00  0.00     0.020 A 
ATOM     12  C23 <0> d   1      17.282  -6.131   9.987  0.00  0.00     0.001 A 
ATOM     13  C24 <0> d   1      16.820  -5.045  10.711  0.00  0.00     0.001 A 
ATOM     14  C25 <0> d   1      17.256  -3.770  10.413  0.00  0.00     0.017 A 
ATOM     15  C26 <0> d   1      18.173  -3.564   9.374  0.00  0.00     0.027 A 
ENDROOT
BRANCH   1  16
ATOM     16  N11 <0> d   1      18.917  -1.415  10.148  0.00  0.00    -0.362 N 
ATOM     17  C10 <0> d   1      18.211  -0.149  10.393  0.00  0.00     0.152 C 
ATOM     18  C9  <0> d   1      17.724  -0.136  11.845  0.00  0.00     0.254 C 
ATOM     19  N7  <0> d   1      18.860  -0.381  12.743  0.00  0.00    -0.066 N 
ATOM     20  H8  <0> d   1      19.583   0.301  12.562  0.00  0.00     0.280 HD
ATOM     21  C28 <0> d   1      19.394  -1.729  12.517  0.00  0.00     0.254 C 
ATOM     22  C27 <0> d   1      19.965  -1.820  11.098  0.00  0.00     0.152 C 
BRANCH  19  23
ATOM     23  C6  <0> d   1      18.415  -0.260  14.138  0.00  0.00     0.261 C 
BRANCH  23  24
ATOM     24  C5  <0> d   1      19.180  -1.260  15.006  0.00  0.00     0.195 C 
BRANCH  24  25
ATOM     25  O4  <0> d   1      18.460  -1.487  16.219  0.00  0.00    -0.387 OA
BRANCH  25  26
ATOM     26  C3  <0> d   1      19.154  -1.063  17.394  0.00  0.00     0.193 C 
BRANCH  26  27
ATOM     27  C2  <0> d   1      18.928   0.436  17.607  0.00  0.00     0.190 C 
BRANCH  27  28
ATOM     28  O1  <0> d   1      19.941   0.950  18.473  0.00  0.00    -0.399 OA
ATOM     29  H29 <0> d   1      20.627   1.457  18.018  0.00  0.00     0.209 HD
ENDBRANCH  27  28
ENDBRANCH  26  27
ENDBRANCH  25  26
ENDBRANCH  24  25
ENDBRANCH  23  24
ENDBRANCH  19  23
ENDBRANCH   1  16
TORSDOF 7
ENDMDL
MODEL 9
REMARK VINA RESULT:      -7.1      3.476      6.467
REMARK  7 active torsions:
REMARK  status: ('A' for Active; 'I' for Inactive)
REMARK    1  A    between atoms: O1_1  and  C2_2 
REMARK    2  A    between atoms: C2_2  and  C3_3 
REMARK    3  A    between atoms: C3_3  and  O4_4 
REMARK    4  A    between atoms: O4_4  and  C5_5 
REMARK    5  A    between atoms: C5_5  and  C6_6 
REMARK    6  A    between atoms: C6_6  and  N7_7 
REMARK    7  A    between atoms: N11_11  and  C12_12 
ROOT
ATOM      1  C12 <0> d   1      18.403  -2.771   9.228  0.00  0.00     0.138 C 
ATOM      2  N13 <0> d   1      18.783  -1.695   8.673  0.00  0.00    -0.229 NA
ATOM      3  C14 <0> d   1      18.758  -1.308   7.373  0.00  0.00     0.076 A 
ATOM      4  C15 <0> d   1      18.300  -0.021   7.066  0.00  0.00     0.033 A 
ATOM      5  C16 <0> d   1      18.261   0.411   5.756  0.00  0.00     0.002 A 
ATOM      6  C17 <0> d   1      18.675  -0.422   4.734  0.00  0.00     0.002 A 
ATOM      7  C18 <0> d   1      19.130  -1.697   5.022  0.00  0.00     0.021 A 
ATOM      8  C19 <0> d   1      19.172  -2.143   6.332  0.00  0.00     0.034 A 
ATOM      9  S20 <0> d   1      19.751  -3.771   6.675  0.00  0.00    -0.087 SA
ATOM     10  C21 <0> d   1      18.354  -4.524   7.443  0.00  0.00     0.019 A 
ATOM     11  C22 <0> d   1      17.780  -5.652   6.881  0.00  0.00     0.020 A 
ATOM     12  C23 <0> d   1      16.686  -6.246   7.485  0.00  0.00     0.001 A 
ATOM     13  C24 <0> d   1      16.164  -5.714   8.651  0.00  0.00     0.001 A 
ATOM     14  C25 <0> d   1      16.726  -4.590   9.220  0.00  0.00     0.017 A 
ATOM     15  C26 <0> d   1      17.834  -3.976   8.620  0.00  0.00     0.027 A 
ENDROOT
BRANCH   1  16
ATOM     16  N11 <0> d   1      18.551  -2.814  10.597  0.00  0.00    -0.362 N 
ATOM     17  C10 <0> d   1      19.878  -2.968  11.209  0.00  0.00     0.152 C 
ATOM     18  C9  <0> d   1      20.051  -1.882  12.276  0.00  0.00     0.254 C 
ATOM     19  N7  <0> d   1      18.933  -1.949  13.226  0.00  0.00    -0.066 N 
ATOM     20  H8  <0> d   1      18.878  -2.879  13.614  0.00  0.00     0.280 HD
ATOM     21  C28 <0> d   1      17.675  -1.632  12.539  0.00  0.00     0.254 C 
ATOM     22  C27 <0> d   1      17.384  -2.707  11.487  0.00  0.00     0.152 C 
BRANCH  19  23
ATOM     23  C6  <0> d   1      19.155  -0.981  14.309  0.00  0.00     0.261 C 
BRANCH  23  24
ATOM     24  C5  <0> d   1      19.798   0.284  13.739  0.00  0.00     0.195 C 
BRANCH  24  25
ATOM     25  O4  <0> d   1      18.965   1.411  14.021  0.00  0.00    -0.387 OA
BRANCH  25  26
ATOM     26  C3  <0> d   1      18.814   2.310  12.922  0.00  0.00     0.193 C 
BRANCH  26  27
ATOM     27  C2  <0> d   1      19.849   1.979  11.844  0.00  0.00     0.190 C 
BRANCH  27  28
ATOM     28  O1  <0> d   1      20.737   3.086  11.681  0.00  0.00    -0.399 OA
ATOM     29  H29 <0> d   1      20.461   3.883  12.154  0.00  0.00     0.209 HD
ENDBRANCH  27  28
ENDBRANCH  26  27
ENDBRANCH  25  26
ENDBRANCH  24  25
ENDBRANCH  23  24
ENDBRANCH  19  23
ENDBRANCH   1  16
TORSDOF 7
ENDMDL
