MODEL 1
REMARK VINA RESULT:      -7.0      0.000      0.000
REMARK  7 active torsions:
REMARK  status: ('A' for Active; 'I' for Inactive)
REMARK    1  A    between atoms: C2_2  and  N5_5 
REMARK    2  A    between atoms: N5_5  and  C8_8 
REMARK    3  A    between atoms: C8_8  and  C9_9 
REMARK    4  A    between atoms: C9_9  and  O11_10 
REMARK    5  A    between atoms: C9_9  and  C12_11 
REMARK    6  A    between atoms: C12_11  and  O13_12 
REMARK    7  A    between atoms: O13_12  and  C14_13 
ROOT
ATOM      1  O13 <0> d   1      19.654  -1.203  11.237  0.00  0.00    -0.348 OA
ENDROOT
BRANCH   1   2
ATOM      2  C12 <0> d   1      19.644  -0.766  12.598  0.00  0.00     0.209 C 
BRANCH   2   3
ATOM      3  C9  <0> d   1      20.332   0.596  12.702  0.00  0.00     0.168 C 
BRANCH   3   4
ATOM      4  C8  <0> d   1      19.484   1.651  11.988  0.00  0.00     0.267 C 
BRANCH   4   5
ATOM      5  N5  <0> d   1      19.893   1.735  10.579  0.00  0.00    -0.065 N 
ATOM      6  H6  <0> d   1      20.249   0.841  10.277  0.00  0.00     0.278 HD
ATOM      7  H7  <0> d   1      20.613   2.434  10.480  0.00  0.00     0.278 HD
BRANCH   5   8
ATOM      8  C2  <0> d   1      18.735   2.104   9.754  0.00  0.00     0.115 C 
ATOM      9  C1  <0> d   1      19.096   1.959   8.274  0.00  0.00     0.045 C 
ATOM     10  C3  <0> d   1      18.343   3.555  10.045  0.00  0.00     0.045 C 
ATOM     11  C4  <0> d   1      17.559   1.183  10.085  0.00  0.00     0.045 C 
ENDBRANCH   5   8
ENDBRANCH   4   5
ENDBRANCH   3   4
BRANCH   3  12
ATOM     12  O11 <0> d   1      21.622   0.527  12.091  0.00  0.00    -0.392 OA
ATOM     13  H36 <0> d   1      21.597   0.359  11.138  0.00  0.00     0.210 HD
ENDBRANCH   3  12
ENDBRANCH   2   3
ENDBRANCH   1   2
BRANCH   1  14
ATOM     14  C14 <0> d   1      18.855  -2.255  10.921  0.00  0.00     0.077 A 
ATOM     15  C19 <0> d   1      18.596  -2.555   9.592  0.00  0.00     0.002 A 
ATOM     16  C18 <0> d   1      17.784  -3.633   9.271  0.00  0.00     0.043 A 
ATOM     17  C20 <0> d   1      19.203  -1.720   8.495  0.00  0.00     0.053 C 
ATOM     18  C17 <0> d   1      17.222  -4.402  10.283  0.00  0.00     0.030 A 
ATOM     19  N24 <0> d   1      17.527  -3.938   7.931  0.00  0.00    -0.327 N 
ATOM     20  C16 <0> d   1      17.478  -4.097  11.605  0.00  0.00     0.005 A 
ATOM     21  C15 <0> d   1      18.291  -3.027  11.927  0.00  0.00     0.037 A 
ATOM     22  C22 <0> d   1      18.332  -3.466   6.959  0.00  0.00     0.222 C 
ATOM     23  H46 <0> d   1      16.770  -4.498   7.700  0.00  0.00     0.169 HD
ATOM     24  C21 <0> d   1      19.523  -2.610   7.294  0.00  0.00     0.108 C 
ATOM     25  O23 <0> d   1      18.091  -3.731   5.801  0.00  0.00    -0.273 OA
ENDBRANCH   1  14
TORSDOF 7
ENDMDL
MODEL 2
REMARK VINA RESULT:      -6.9      4.353      7.512
REMARK  7 active torsions:
REMARK  status: ('A' for Active; 'I' for Inactive)
REMARK    1  A    between atoms: C2_2  and  N5_5 
REMARK    2  A    between atoms: N5_5  and  C8_8 
REMARK    3  A    between atoms: C8_8  and  C9_9 
REMARK    4  A    between atoms: C9_9  and  O11_10 
REMARK    5  A    between atoms: C9_9  and  C12_11 
REMARK    6  A    between atoms: C12_11  and  O13_12 
REMARK    7  A    between atoms: O13_12  and  C14_13 
ROOT
ATOM      1  O13 <0> d   1      19.637   1.063  14.431  0.00  0.00    -0.348 OA
ENDROOT
BRANCH   1   2
ATOM      2  C12 <0> d   1      19.805   0.083  13.403  0.00  0.00     0.209 C 
BRANCH   2   3
ATOM      3  C9  <0> d   1      20.362   0.753  12.146  0.00  0.00     0.168 C 
BRANCH   3   4
ATOM      4  C8  <0> d   1      19.775   0.075  10.905  0.00  0.00     0.267 C 
BRANCH   4   5
ATOM      5  N5  <0> d   1      20.127   0.853   9.710  0.00  0.00    -0.065 N 
ATOM      6  H6  <0> d   1      20.603   0.258   9.048  0.00  0.00     0.278 HD
ATOM      7  H7  <0> d   1      20.732   1.616   9.972  0.00  0.00     0.278 HD
BRANCH   5   8
ATOM      8  C2  <0> d   1      18.903   1.387   9.096  0.00  0.00     0.115 C 
ATOM      9  C1  <0> d   1      17.722   0.479   9.441  0.00  0.00     0.045 C 
ATOM     10  C3  <0> d   1      19.078   1.444   7.577  0.00  0.00     0.045 C 
ATOM     11  C4  <0> d   1      18.637   2.795   9.631  0.00  0.00     0.045 C 
ENDBRANCH   5   8
ENDBRANCH   4   5
ENDBRANCH   3   4
BRANCH   3  12
ATOM     12  O11 <0> d   1      21.785   0.629  12.129  0.00  0.00    -0.392 OA
ATOM     13  H36 <0> d   1      22.168   0.379  12.982  0.00  0.00     0.210 HD
ENDBRANCH   3  12
ENDBRANCH   2   3
ENDBRANCH   1   2
BRANCH   1  14
ATOM     14  C14 <0> d   1      18.927   0.691  15.528  0.00  0.00     0.077 A 
ATOM     15  C19 <0> d   1      18.815   1.554  16.606  0.00  0.00     0.002 A 
ATOM     16  C18 <0> d   1      18.085   1.174  17.724  0.00  0.00     0.043 A 
ATOM     17  C20 <0> d   1      19.474   2.908  16.565  0.00  0.00     0.053 C 
ATOM     18  C17 <0> d   1      17.478  -0.075  17.763  0.00  0.00     0.030 A 
ATOM     19  N24 <0> d   1      17.967   2.047  18.810  0.00  0.00    -0.327 N 
ATOM     20  C16 <0> d   1      17.597  -0.934  16.689  0.00  0.00     0.005 A 
ATOM     21  C15 <0> d   1      18.319  -0.556  15.573  0.00  0.00     0.037 A 
ATOM     22  C22 <0> d   1      18.211   3.363  18.655  0.00  0.00     0.222 C 
ATOM     23  H46 <0> d   1      17.702   1.705  19.678  0.00  0.00     0.169 HD
ATOM     24  C21 <0> d   1      18.607   3.920  17.315  0.00  0.00     0.108 C 
ATOM     25  O23 <0> d   1      18.115   4.106  19.608  0.00  0.00    -0.273 OA
ENDBRANCH   1  14
TORSDOF 7
ENDMDL
MODEL 3
REMARK VINA RESULT:      -6.8      2.320      3.643
REMARK  7 active torsions:
REMARK  status: ('A' for Active; 'I' for Inactive)
REMARK    1  A    between atoms: C2_2  and  N5_5 
REMARK    2  A    between atoms: N5_5  and  C8_8 
REMARK    3  A    between atoms: C8_8  and  C9_9 
REMARK    4  A    between atoms: C9_9  and  O11_10 
REMARK    5  A    between atoms: C9_9  and  C12_11 
REMARK    6  A    between atoms: C12_11  and  O13_12 
REMARK    7  A    between atoms: O13_12  and  C14_13 
ROOT
ATOM      1  O13 <0> d   1      19.663  -1.182   9.027  0.00  0.00    -0.348 OA
ENDROOT
BRANCH   1   2
ATOM      2  C12 <0> d   1      19.113  -0.497  10.155  0.00  0.00     0.209 C 
BRANCH   2   3
ATOM      3  C9  <0> d   1      20.182  -0.362  11.241  0.00  0.00     0.168 C 
BRANCH   3   4
ATOM      4  C8  <0> d   1      20.167   1.064  11.796  0.00  0.00     0.267 C 
BRANCH   4   5
ATOM      5  N5  <0> d   1      19.755   1.996  10.738  0.00  0.00    -0.065 N 
ATOM      6  H6  <0> d   1      19.269   1.490  10.013  0.00  0.00     0.278 HD
ATOM      7  H7  <0> d   1      20.570   2.443  10.347  0.00  0.00     0.278 HD
BRANCH   5   8
ATOM      8  C2  <0> d   1      18.862   3.016  11.305  0.00  0.00     0.115 C 
ATOM      9  C1  <0> d   1      17.793   2.338  12.164  0.00  0.00     0.045 C 
ATOM     10  C3  <0> d   1      18.189   3.793  10.171  0.00  0.00     0.045 C 
ATOM     11  C4  <0> d   1      19.675   3.981  12.170  0.00  0.00     0.045 C 
ENDBRANCH   5   8
ENDBRANCH   4   5
ENDBRANCH   3   4
BRANCH   3  12
ATOM     12  O11 <0> d   1      21.467  -0.643  10.683  0.00  0.00    -0.392 OA
ATOM     13  H36 <0> d   1      21.437  -0.984   9.778  0.00  0.00     0.210 HD
ENDBRANCH   3  12
ENDBRANCH   2   3
ENDBRANCH   1   2
BRANCH   1  14
ATOM     14  C14 <0> d   1      19.367  -0.684   7.799  0.00  0.00     0.077 A 
ATOM     15  C19 <0> d   1      19.260  -1.538   6.712  0.00  0.00     0.002 A 
ATOM     16  C18 <0> d   1      18.952  -1.028   5.458  0.00  0.00     0.043 A 
ATOM     17  C20 <0> d   1      19.467  -3.020   6.889  0.00  0.00     0.053 C 
ATOM     18  C17 <0> d   1      18.763   0.338   5.294  0.00  0.00     0.030 A 
ATOM     19  N24 <0> d   1      18.840  -1.890   4.363  0.00  0.00    -0.327 N 
ATOM     20  C16 <0> d   1      18.876   1.186   6.378  0.00  0.00     0.005 A 
ATOM     21  C15 <0> d   1      19.177   0.680   7.628  0.00  0.00     0.037 A 
ATOM     22  C22 <0> d   1      18.646  -3.210   4.552  0.00  0.00     0.222 C 
ATOM     23  H46 <0> d   1      18.894  -1.536   3.462  0.00  0.00     0.169 HD
ATOM     24  C21 <0> d   1      18.541  -3.782   5.940  0.00  0.00     0.108 C 
ATOM     25  O23 <0> d   1      18.560  -3.946   3.593  0.00  0.00    -0.273 OA
ENDBRANCH   1  14
TORSDOF 7
ENDMDL
MODEL 4
REMARK VINA RESULT:      -6.7      2.880      5.001
REMARK  7 active torsions:
REMARK  status: ('A' for Active; 'I' for Inactive)
REMARK    1  A    between atoms: C2_2  and  N5_5 
REMARK    2  A    between atoms: N5_5  and  C8_8 
REMARK    3  A    between atoms: C8_8  and  C9_9 
REMARK    4  A    between atoms: C9_9  and  O11_10 
REMARK    5  A    between atoms: C9_9  and  C12_11 
REMARK    6  A    between atoms: C12_11  and  O13_12 
REMARK    7  A    between atoms: O13_12  and  C14_13 
ROOT
ATOM      1  O13 <0> d   1      17.207   1.880  11.771  0.00  0.00    -0.348 OA
ENDROOT
BRANCH   1   2
ATOM      2  C12 <0> d   1      17.639   3.041  12.484  0.00  0.00     0.209 C 
BRANCH   2   3
ATOM      3  C9  <0> d   1      18.790   2.666  13.419  0.00  0.00     0.168 C 
BRANCH   3   4
ATOM      4  C8  <0> d   1      18.243   2.420  14.827  0.00  0.00     0.267 C 
BRANCH   4   5
ATOM      5  N5  <0> d   1      17.528   1.137  14.856  0.00  0.00    -0.065 N 
ATOM      6  H6  <0> d   1      17.629   0.674  13.964  0.00  0.00     0.278 HD
ATOM      7  H7  <0> d   1      16.551   1.300  15.041  0.00  0.00     0.278 HD
BRANCH   5   8
ATOM      8  C2  <0> d   1      18.092   0.286  15.914  0.00  0.00     0.115 C 
ATOM      9  C1  <0> d   1      16.957  -0.284  16.767  0.00  0.00     0.045 C 
ATOM     10  C3  <0> d   1      19.025   1.119  16.795  0.00  0.00     0.045 C 
ATOM     11  C4  <0> d   1      18.880  -0.862  15.280  0.00  0.00     0.045 C 
ENDBRANCH   5   8
ENDBRANCH   4   5
ENDBRANCH   3   4
BRANCH   3  12
ATOM     12  O11 <0> d   1      19.740   3.733  13.457  0.00  0.00    -0.392 OA
ATOM     13  H36 <0> d   1      19.481   4.509  12.940  0.00  0.00     0.210 HD
ENDBRANCH   3  12
ENDBRANCH   2   3
ENDBRANCH   1   2
BRANCH   1  14
ATOM     14  C14 <0> d   1      17.980   1.473  10.730  0.00  0.00     0.077 A 
ATOM     15  C19 <0> d   1      18.378   0.148  10.638  0.00  0.00     0.002 A 
ATOM     16  C18 <0> d   1      19.163  -0.267   9.572  0.00  0.00     0.043 A 
ATOM     17  C20 <0> d   1      17.951  -0.846  11.688  0.00  0.00     0.053 C 
ATOM     18  C17 <0> d   1      19.557   0.649   8.605  0.00  0.00     0.030 A 
ATOM     19  N24 <0> d   1      19.559  -1.604   9.477  0.00  0.00    -0.327 N 
ATOM     20  C16 <0> d   1      19.163   1.969   8.702  0.00  0.00     0.005 A 
ATOM     21  C15 <0> d   1      18.378   2.383   9.761  0.00  0.00     0.037 A 
ATOM     22  C22 <0> d   1      18.903  -2.560  10.163  0.00  0.00     0.222 C 
ATOM     23  H46 <0> d   1      20.307  -1.847   8.909  0.00  0.00     0.169 HD
ATOM     24  C21 <0> d   1      17.729  -2.211  11.037  0.00  0.00     0.108 C 
ATOM     25  O23 <0> d   1      19.265  -3.714  10.078  0.00  0.00    -0.273 OA
ENDBRANCH   1  14
TORSDOF 7
ENDMDL
MODEL 5
REMARK VINA RESULT:      -6.7      2.080      6.282
REMARK  7 active torsions:
REMARK  status: ('A' for Active; 'I' for Inactive)
REMARK    1  A    between atoms: C2_2  and  N5_5 
REMARK    2  A    between atoms: N5_5  and  C8_8 
REMARK    3  A    between atoms: C8_8  and  C9_9 
REMARK    4  A    between atoms: C9_9  and  O11_10 
REMARK    5  A    between atoms: C9_9  and  C12_11 
REMARK    6  A    between atoms: C12_11  and  O13_12 
REMARK    7  A    between atoms: O13_12  and  C14_13 
ROOT
ATOM      1  O13 <0> d   1      17.905  -0.950   7.988  0.00  0.00    -0.348 OA
ENDROOT
BRANCH   1   2
ATOM      2  C12 <0> d   1      18.811  -1.322   6.947  0.00  0.00     0.209 C 
BRANCH   2   3
ATOM      3  C9  <0> d   1      18.902  -2.848   6.871  0.00  0.00     0.168 C 
BRANCH   3   4
ATOM      4  C8  <0> d   1      18.385  -3.455   8.177  0.00  0.00     0.267 C 
BRANCH   4   5
ATOM      5  N5  <0> d   1      19.382  -3.256   9.237  0.00  0.00    -0.065 N 
ATOM      6  H6  <0> d   1      19.181  -2.401   9.734  0.00  0.00     0.278 HD
ATOM      7  H7  <0> d   1      20.302  -3.198   8.827  0.00  0.00     0.278 HD
BRANCH   5   8
ATOM      8  C2  <0> d   1      19.334  -4.388  10.173  0.00  0.00     0.115 C 
ATOM      9  C1  <0> d   1      17.881  -4.666  10.562  0.00  0.00     0.045 C 
ATOM     10  C3  <0> d   1      20.143  -4.047  11.427  0.00  0.00     0.045 C 
ATOM     11  C4  <0> d   1      19.930  -5.628   9.504  0.00  0.00     0.045 C 
ENDBRANCH   5   8
ENDBRANCH   4   5
ENDBRANCH   3   4
BRANCH   3  12
ATOM     12  O11 <0> d   1      20.263  -3.236   6.671  0.00  0.00    -0.392 OA
ATOM     13  H36 <0> d   1      20.741  -3.427   7.490  0.00  0.00     0.210 HD
ENDBRANCH   3  12
ENDBRANCH   2   3
ENDBRANCH   1   2
BRANCH   1  14
ATOM     14  C14 <0> d   1      18.172   0.204   8.654  0.00  0.00     0.077 A 
ATOM     15  C19 <0> d   1      17.855   0.317   9.999  0.00  0.00     0.002 A 
ATOM     16  C18 <0> d   1      18.133   1.495  10.678  0.00  0.00     0.043 A 
ATOM     17  C20 <0> d   1      17.221  -0.839  10.728  0.00  0.00     0.053 C 
ATOM     18  C17 <0> d   1      18.717   2.561  10.006  0.00  0.00     0.030 A 
ATOM     19  N24 <0> d   1      17.819   1.607  12.036  0.00  0.00    -0.327 N 
ATOM     20  C16 <0> d   1      19.026   2.446   8.665  0.00  0.00     0.005 A 
ATOM     21  C15 <0> d   1      18.754   1.273   7.988  0.00  0.00     0.037 A 
ATOM     22  C22 <0> d   1      17.613   0.503  12.781  0.00  0.00     0.222 C 
ATOM     23  H46 <0> d   1      17.756   2.484  12.446  0.00  0.00     0.169 HD
ATOM     24  C21 <0> d   1      17.722  -0.868  12.172  0.00  0.00     0.108 C 
ATOM     25  O23 <0> d   1      17.331   0.617  13.955  0.00  0.00    -0.273 OA
ENDBRANCH   1  14
TORSDOF 7
ENDMDL
MODEL 6
REMARK VINA RESULT:      -6.6      2.674      4.402
REMARK  7 active torsions:
REMARK  status: ('A' for Active; 'I' for Inactive)
REMARK    1  A    between atoms: C2_2  and  N5_5 
REMARK    2  A    between atoms: N5_5  and  C8_8 
REMARK    3  A    between atoms: C8_8  and  C9_9 
REMARK    4  A    between atoms: C9_9  and  O11_10 
REMARK    5  A    between atoms: C9_9  and  C12_11 
REMARK    6  A    between atoms: C12_11  and  O13_12 
REMARK    7  A    between atoms: O13_12  and  C14_13 
ROOT
ATOM      1  O13 <0> d   1      19.466  -1.165   8.793  0.00  0.00    -0.348 OA
ENDROOT
BRANCH   1   2
ATOM      2  C12 <0> d   1      19.860  -0.196   9.767  0.00  0.00     0.209 C 
BRANCH   2   3
ATOM      3  C9  <0> d   1      20.544  -0.901  10.940  0.00  0.00     0.168 C 
BRANCH   3   4
ATOM      4  C8  <0> d   1      19.514  -1.186  12.035  0.00  0.00     0.267 C 
BRANCH   4   5
ATOM      5  N5  <0> d   1      20.073  -0.816  13.341  0.00  0.00    -0.065 N 
ATOM      6  H6  <0> d   1      20.757  -0.083  13.220  0.00  0.00     0.278 HD
ATOM      7  H7  <0> d   1      20.513  -1.621  13.760  0.00  0.00     0.278 HD
BRANCH   5   8
ATOM      8  C2  <0> d   1      18.995  -0.337  14.218  0.00  0.00     0.115 C 
ATOM      9  C1  <0> d   1      17.686  -0.274  13.427  0.00  0.00     0.045 C 
ATOM     10  C3  <0> d   1      19.343   1.059  14.740  0.00  0.00     0.045 C 
ATOM     11  C4  <0> d   1      18.833  -1.297  15.398  0.00  0.00     0.045 C 
ENDBRANCH   5   8
ENDBRANCH   4   5
ENDBRANCH   3   4
BRANCH   3  12
ATOM     12  O11 <0> d   1      21.576  -0.062  11.464  0.00  0.00    -0.392 OA
ATOM     13  H36 <0> d   1      21.455   0.878  11.269  0.00  0.00     0.210 HD
ENDBRANCH   3  12
ENDBRANCH   2   3
ENDBRANCH   1   2
BRANCH   1  14
ATOM     14  C14 <0> d   1      19.243  -0.716   7.531  0.00  0.00     0.077 A 
ATOM     15  C19 <0> d   1      19.150  -1.616   6.480  0.00  0.00     0.002 A 
ATOM     16  C18 <0> d   1      18.917  -1.154   5.192  0.00  0.00     0.043 A 
ATOM     17  C20 <0> d   1      19.291  -3.094   6.734  0.00  0.00     0.053 C 
ATOM     18  C17 <0> d   1      18.789   0.209   4.958  0.00  0.00     0.030 A 
ATOM     19  N24 <0> d   1      18.818  -2.062   4.134  0.00  0.00    -0.327 N 
ATOM     20  C16 <0> d   1      18.887   1.103   6.006  0.00  0.00     0.005 A 
ATOM     21  C15 <0> d   1      19.115   0.645   7.290  0.00  0.00     0.037 A 
ATOM     22  C22 <0> d   1      18.566  -3.363   4.374  0.00  0.00     0.222 C 
ATOM     23  H46 <0> d   1      18.926  -1.753   3.221  0.00  0.00     0.169 HD
ATOM     24  C21 <0> d   1      18.378  -3.864   5.780  0.00  0.00     0.108 C 
ATOM     25  O23 <0> d   1      18.493  -4.141   3.446  0.00  0.00    -0.273 OA
ENDBRANCH   1  14
TORSDOF 7
ENDMDL
MODEL 7
REMARK VINA RESULT:      -6.5      2.147      5.169
REMARK  7 active torsions:
REMARK  status: ('A' for Active; 'I' for Inactive)
REMARK    1  A    between atoms: C2_2  and  N5_5 
REMARK    2  A    between atoms: N5_5  and  C8_8 
REMARK    3  A    between atoms: C8_8  and  C9_9 
REMARK    4  A    between atoms: C9_9  and  O11_10 
REMARK    5  A    between atoms: C9_9  and  C12_11 
REMARK    6  A    between atoms: C12_11  and  O13_12 
REMARK    7  A    between atoms: O13_12  and  C14_13 
ROOT
ATOM      1  O13 <0> d   1      16.845  -0.466  11.337  0.00  0.00    -0.348 OA
ENDROOT
BRANCH   1   2
ATOM      2  C12 <0> d   1      17.413  -0.995  12.538  0.00  0.00     0.209 C 
BRANCH   2   3
ATOM      3  C9  <0> d   1      18.730  -1.702  12.210  0.00  0.00     0.168 C 
BRANCH   3   4
ATOM      4  C8  <0> d   1      18.480  -3.206  12.075  0.00  0.00     0.267 C 
BRANCH   4   5
ATOM      5  N5  <0> d   1      17.484  -3.443  11.022  0.00  0.00    -0.065 N 
ATOM      6  H6  <0> d   1      17.429  -2.635  10.421  0.00  0.00     0.278 HD
ATOM      7  H7  <0> d   1      16.583  -3.611  11.443  0.00  0.00     0.278 HD
BRANCH   5   8
ATOM      8  C2  <0> d   1      17.879  -4.616  10.229  0.00  0.00     0.115 C 
ATOM      9  C1  <0> d   1      19.402  -4.757  10.252  0.00  0.00     0.045 C 
ATOM     10  C3  <0> d   1      17.403  -4.439   8.785  0.00  0.00     0.045 C 
ATOM     11  C4  <0> d   1      17.241  -5.873  10.825  0.00  0.00     0.045 C 
ENDBRANCH   5   8
ENDBRANCH   4   5
ENDBRANCH   3   4
BRANCH   3  12
ATOM     12  O11 <0> d   1      19.671  -1.468  13.260  0.00  0.00    -0.392 OA
ATOM     13  H36 <0> d   1      20.415  -2.087  13.266  0.00  0.00     0.210 HD
ENDBRANCH   3  12
ENDBRANCH   2   3
ENDBRANCH   1   2
BRANCH   1  14
ATOM     14  C14 <0> d   1      17.452   0.621  10.795  0.00  0.00     0.077 A 
ATOM     15  C19 <0> d   1      17.936   0.570   9.497  0.00  0.00     0.002 A 
ATOM     16  C18 <0> d   1      18.551   1.684   8.943  0.00  0.00     0.043 A 
ATOM     17  C20 <0> d   1      17.787  -0.689   8.682  0.00  0.00     0.053 C 
ATOM     18  C17 <0> d   1      18.690   2.844   9.695  0.00  0.00     0.030 A 
ATOM     19  N24 <0> d   1      19.034   1.633   7.632  0.00  0.00    -0.327 N 
ATOM     20  C16 <0> d   1      18.211   2.889  10.989  0.00  0.00     0.005 A 
ATOM     21  C15 <0> d   1      17.594   1.783  11.541  0.00  0.00     0.037 A 
ATOM     22  C22 <0> d   1      18.592   0.689   6.779  0.00  0.00     0.222 C 
ATOM     23  H46 <0> d   1      19.687   2.285   7.333  0.00  0.00     0.169 HD
ATOM     24  C21 <0> d   1      17.567  -0.323   7.214  0.00  0.00     0.108 C 
ATOM     25  O23 <0> d   1      19.028   0.652   5.648  0.00  0.00    -0.273 OA
ENDBRANCH   1  14
TORSDOF 7
ENDMDL
MODEL 8
REMARK VINA RESULT:      -6.5      3.527      5.214
REMARK  7 active torsions:
REMARK  status: ('A' for Active; 'I' for Inactive)
REMARK    1  A    between atoms: C2_2  and  N5_5 
REMARK    2  A    between atoms: N5_5  and  C8_8 
REMARK    3  A    between atoms: C8_8  and  C9_9 
REMARK    4  A    between atoms: C9_9  and  O11_10 
REMARK    5  A    between atoms: C9_9  and  C12_11 
REMARK    6  A    between atoms: C12_11  and  O13_12 
REMARK    7  A    between atoms: O13_12  and  C14_13 
ROOT
ATOM      1  O13 <0> d   1      17.764   2.333  12.994  0.00  0.00    -0.348 OA
ENDROOT
BRANCH   1   2
ATOM      2  C12 <0> d   1      18.946   2.533  13.773  0.00  0.00     0.209 C 
BRANCH   2   3
ATOM      3  C9  <0> d   1      18.587   3.261  15.069  0.00  0.00     0.168 C 
BRANCH   3   4
ATOM      4  C8  <0> d   1      18.515   2.252  16.217  0.00  0.00     0.267 C 
BRANCH   4   5
ATOM      5  N5  <0> d   1      19.115   0.981  15.789  0.00  0.00    -0.065 N 
ATOM      6  H6  <0> d   1      20.120   1.042  15.858  0.00  0.00     0.278 HD
ATOM      7  H7  <0> d   1      18.855   0.791  14.833  0.00  0.00     0.278 HD
BRANCH   5   8
ATOM      8  C2  <0> d   1      18.630  -0.104  16.653  0.00  0.00     0.115 C 
ATOM      9  C1  <0> d   1      19.045  -1.452  16.060  0.00  0.00     0.045 C 
ATOM     10  C3  <0> d   1      17.104  -0.037  16.750  0.00  0.00     0.045 C 
ATOM     11  C4  <0> d   1      19.236   0.047  18.050  0.00  0.00     0.045 C 
ENDBRANCH   5   8
ENDBRANCH   4   5
ENDBRANCH   3   4
BRANCH   3  12
ATOM     12  O11 <0> d   1      17.319   3.904  14.919  0.00  0.00    -0.392 OA
ATOM     13  H36 <0> d   1      17.322   4.635  14.286  0.00  0.00     0.210 HD
ENDBRANCH   3  12
ENDBRANCH   2   3
ENDBRANCH   1   2
BRANCH   1  14
ATOM     14  C14 <0> d   1      17.675   1.171  12.296  0.00  0.00     0.077 A 
ATOM     15  C19 <0> d   1      17.826   1.178  10.917  0.00  0.00     0.002 A 
ATOM     16  C18 <0> d   1      17.740  -0.011  10.206  0.00  0.00     0.043 A 
ATOM     17  C20 <0> d   1      18.093   2.470  10.190  0.00  0.00     0.053 C 
ATOM     18  C17 <0> d   1      17.491  -1.203  10.876  0.00  0.00     0.030 A 
ATOM     19  N24 <0> d   1      17.897  -0.005   8.817  0.00  0.00    -0.327 N 
ATOM     20  C16 <0> d   1      17.337  -1.204  12.248  0.00  0.00     0.005 A 
ATOM     21  C15 <0> d   1      17.427  -0.023  12.959  0.00  0.00     0.037 A 
ATOM     22  C22 <0> d   1      18.495   1.034   8.203  0.00  0.00     0.222 C 
ATOM     23  H46 <0> d   1      17.579  -0.756   8.292  0.00  0.00     0.169 HD
ATOM     24  C21 <0> d   1      19.012   2.203   8.998  0.00  0.00     0.108 C 
ATOM     25  O23 <0> d   1      18.616   1.030   6.997  0.00  0.00    -0.273 OA
ENDBRANCH   1  14
TORSDOF 7
ENDMDL
MODEL 9
REMARK VINA RESULT:      -6.5      1.933      6.454
REMARK  7 active torsions:
REMARK  status: ('A' for Active; 'I' for Inactive)
REMARK    1  A    between atoms: C2_2  and  N5_5 
REMARK    2  A    between atoms: N5_5  and  C8_8 
REMARK    3  A    between atoms: C8_8  and  C9_9 
REMARK    4  A    between atoms: C9_9  and  O11_10 
REMARK    5  A    between atoms: C9_9  and  C12_11 
REMARK    6  A    between atoms: C12_11  and  O13_12 
REMARK    7  A    between atoms: O13_12  and  C14_13 
ROOT
ATOM      1  O13 <0> d   1      19.923   0.004   9.319  0.00  0.00    -0.348 OA
ENDROOT
BRANCH   1   2
ATOM      2  C12 <0> d   1      19.268  -0.441   8.129  0.00  0.00     0.209 C 
BRANCH   2   3
ATOM      3  C9  <0> d   1      17.933  -1.092   8.494  0.00  0.00     0.168 C 
BRANCH   3   4
ATOM      4  C8  <0> d   1      18.140  -2.593   8.712  0.00  0.00     0.267 C 
BRANCH   4   5
ATOM      5  N5  <0> d   1      19.357  -2.808   9.505  0.00  0.00    -0.065 N 
ATOM      6  H6  <0> d   1      19.644  -1.937   9.926  0.00  0.00     0.278 HD
ATOM      7  H7  <0> d   1      20.093  -3.150   8.906  0.00  0.00     0.278 HD
BRANCH   5   8
ATOM      8  C2  <0> d   1      19.086  -3.795  10.560  0.00  0.00     0.115 C 
ATOM      9  C1  <0> d   1      20.242  -3.801  11.561  0.00  0.00     0.045 C 
ATOM     10  C3  <0> d   1      18.944  -5.184   9.934  0.00  0.00     0.045 C 
ATOM     11  C4  <0> d   1      17.788  -3.426  11.281  0.00  0.00     0.045 C 
ENDBRANCH   5   8
ENDBRANCH   4   5
ENDBRANCH   3   4
BRANCH   3  12
ATOM     12  O11 <0> d   1      16.997  -0.889   7.433  0.00  0.00    -0.392 OA
ATOM     13  H36 <0> d   1      17.120  -1.484   6.681  0.00  0.00     0.210 HD
ENDBRANCH   3  12
ENDBRANCH   2   3
ENDBRANCH   1   2
BRANCH   1  14
ATOM     14  C14 <0> d   1      19.382   1.074   9.957  0.00  0.00     0.077 A 
ATOM     15  C19 <0> d   1      19.212   1.048  11.333  0.00  0.00     0.002 A 
ATOM     16  C18 <0> d   1      18.664   2.144  11.984  0.00  0.00     0.043 A 
ATOM     17  C20 <0> d   1      19.631  -0.163  12.125  0.00  0.00     0.053 C 
ATOM     18  C17 <0> d   1      18.276   3.260  11.253  0.00  0.00     0.030 A 
ATOM     19  N24 <0> d   1      18.498   2.120  13.372  0.00  0.00    -0.327 N 
ATOM     20  C16 <0> d   1      18.441   3.280   9.883  0.00  0.00     0.005 A 
ATOM     21  C15 <0> d   1      18.992   2.192   9.233  0.00  0.00     0.037 A 
ATOM     22  C22 <0> d   1      19.188   1.242  14.125  0.00  0.00     0.222 C 
ATOM     23  H46 <0> d   1      17.887   2.742  13.796  0.00  0.00     0.169 HD
ATOM     24  C21 <0> d   1      20.155   0.278  13.492  0.00  0.00     0.108 C 
ATOM     25  O23 <0> d   1      19.027   1.226  15.326  0.00  0.00    -0.273 OA
ENDBRANCH   1  14
TORSDOF 7
ENDMDL
