MODEL 1
REMARK VINA RESULT:      -5.4      0.000      0.000
REMARK  3 active torsions:
REMARK  status: ('A' for Active; 'I' for Inactive)
REMARK    1  A    between atoms: O2_2  and  C3_3 
REMARK    2  A    between atoms: C3_3  and  C5_5 
REMARK    3  A    between atoms: C11_11  and  O12_12 
ROOT
ATOM      1  C5  <0> d   1      18.609  -0.408   6.111  0.00  0.00     0.072 A 
ATOM      2  C6  <0> d   1      19.092   0.902   6.042  0.00  0.00     0.021 A 
ATOM      3  C7  <0> d   1      19.094   1.693   7.171  0.00  0.00     0.008 A 
ATOM      4  C8  <0> d   1      18.619   1.196   8.374  0.00  0.00    -0.059 A 
ATOM      5  C9  <0> d   1      18.627   2.071   9.601  0.00  0.00     0.048 C 
ATOM      6  C10 <0> d   1      18.139  -0.097   8.455  0.00  0.00     0.044 A 
ATOM      7  C11 <0> d   1      18.123  -0.904   7.329  0.00  0.00     0.082 A 
ENDROOT
BRANCH   1   8
ATOM      8  C3  <0> d   1      18.603  -1.259   4.907  0.00  0.00     0.295 C 
ATOM      9  O4  <0> d   1      19.652  -1.584   4.389  0.00  0.00    -0.259 OA
BRANCH   8  10
ATOM     10  O2  <0> d   1      17.434  -1.676   4.383  0.00  0.00    -0.322 OA
ATOM     11  C1  <0> d   1      17.333  -3.081   4.030  0.00  0.00     0.213 C 
ENDBRANCH   8  10
ENDBRANCH   1   8
BRANCH   7  12
ATOM     12  O12 <0> d   1      17.652  -2.174   7.407  0.00  0.00    -0.360 OA
ATOM     13  H22 <0> d   1      17.219  -2.381   8.245  0.00  0.00     0.217 HD
ENDBRANCH   7  12
TORSDOF 3
ENDMDL
MODEL 2
REMARK VINA RESULT:      -5.3      3.505      5.730
REMARK  3 active torsions:
REMARK  status: ('A' for Active; 'I' for Inactive)
REMARK    1  A    between atoms: O2_2  and  C3_3 
REMARK    2  A    between atoms: C3_3  and  C5_5 
REMARK    3  A    between atoms: C11_11  and  O12_12 
ROOT
ATOM      1  C5  <0> d   1      18.245   1.981   9.849  0.00  0.00     0.072 A 
ATOM      2  C6  <0> d   1      19.053   2.246   8.740  0.00  0.00     0.021 A 
ATOM      3  C7  <0> d   1      19.060   1.376   7.671  0.00  0.00     0.008 A 
ATOM      4  C8  <0> d   1      18.269   0.239   7.690  0.00  0.00    -0.059 A 
ATOM      5  C9  <0> d   1      18.285  -0.704   6.515  0.00  0.00     0.048 C 
ATOM      6  C10 <0> d   1      17.465  -0.035   8.779  0.00  0.00     0.044 A 
ATOM      7  C11 <0> d   1      17.450   0.825   9.866  0.00  0.00     0.082 A 
ENDROOT
BRANCH   1   8
ATOM      8  C3  <0> d   1      18.233   2.906  10.996  0.00  0.00     0.295 C 
ATOM      9  O4  <0> d   1      19.266   3.160  11.582  0.00  0.00    -0.259 OA
BRANCH   8  10
ATOM     10  O2  <0> d   1      17.075   3.470  11.395  0.00  0.00    -0.322 OA
ATOM     11  C1  <0> d   1      16.792   4.808  10.908  0.00  0.00     0.213 C 
ENDBRANCH   8  10
ENDBRANCH   1   8
BRANCH   7  12
ATOM     12  O12 <0> d   1      16.662   0.557  10.937  0.00  0.00    -0.360 OA
ATOM     13  H22 <0> d   1      16.965  -0.189  11.471  0.00  0.00     0.217 HD
ENDBRANCH   7  12
TORSDOF 3
ENDMDL
MODEL 3
REMARK VINA RESULT:      -5.2      3.703      5.485
REMARK  3 active torsions:
REMARK  status: ('A' for Active; 'I' for Inactive)
REMARK    1  A    between atoms: O2_2  and  C3_3 
REMARK    2  A    between atoms: C3_3  and  C5_5 
REMARK    3  A    between atoms: C11_11  and  O12_12 
ROOT
ATOM      1  C5  <0> d   1      17.731   0.612   9.815  0.00  0.00     0.072 A 
ATOM      2  C6  <0> d   1      17.276  -0.268   8.829  0.00  0.00     0.021 A 
ATOM      3  C7  <0> d   1      17.741  -0.151   7.537  0.00  0.00     0.008 A 
ATOM      4  C8  <0> d   1      18.658   0.835   7.210  0.00  0.00    -0.059 A 
ATOM      5  C9  <0> d   1      19.159   0.952   5.794  0.00  0.00     0.048 C 
ATOM      6  C10 <0> d   1      19.116   1.710   8.175  0.00  0.00     0.044 A 
ATOM      7  C11 <0> d   1      18.654   1.612   9.478  0.00  0.00     0.082 A 
ENDROOT
BRANCH   1   8
ATOM      8  C3  <0> d   1      17.238   0.493  11.199  0.00  0.00     0.295 C 
ATOM      9  O4  <0> d   1      16.082   0.183  11.407  0.00  0.00    -0.259 OA
BRANCH   8  10
ATOM     10  O2  <0> d   1      18.069   0.730  12.233  0.00  0.00    -0.322 OA
ATOM     11  C1  <0> d   1      18.918  -0.367  12.661  0.00  0.00     0.213 C 
ENDBRANCH   8  10
ENDBRANCH   1   8
BRANCH   7  12
ATOM     12  O12 <0> d   1      19.103   2.471  10.427  0.00  0.00    -0.360 OA
ATOM     13  H22 <0> d   1      18.559   3.264  10.529  0.00  0.00     0.217 HD
ENDBRANCH   7  12
TORSDOF 3
ENDMDL
MODEL 4
REMARK VINA RESULT:      -5.2      8.442     11.184
REMARK  3 active torsions:
REMARK  status: ('A' for Active; 'I' for Inactive)
REMARK    1  A    between atoms: O2_2  and  C3_3 
REMARK    2  A    between atoms: C3_3  and  C5_5 
REMARK    3  A    between atoms: C11_11  and  O12_12 
ROOT
ATOM      1  C5  <0> d   1      18.693   0.750  16.991  0.00  0.00     0.072 A 
ATOM      2  C6  <0> d   1      19.019  -0.605  17.097  0.00  0.00     0.021 A 
ATOM      3  C7  <0> d   1      18.984  -1.409  15.978  0.00  0.00     0.008 A 
ATOM      4  C8  <0> d   1      18.628  -0.880  14.748  0.00  0.00    -0.059 A 
ATOM      5  C9  <0> d   1      18.594  -1.770  13.533  0.00  0.00     0.048 C 
ATOM      6  C10 <0> d   1      18.304   0.457  14.630  0.00  0.00     0.044 A 
ATOM      7  C11 <0> d   1      18.327   1.279  15.746  0.00  0.00     0.082 A 
ENDROOT
BRANCH   1   8
ATOM      8  C3  <0> d   1      18.727   1.615  18.184  0.00  0.00     0.295 C 
ATOM      9  O4  <0> d   1      19.782   1.835  18.745  0.00  0.00    -0.259 OA
BRANCH   8  10
ATOM     10  O2  <0> d   1      17.588   2.163  18.652  0.00  0.00    -0.322 OA
ATOM     11  C1  <0> d   1      17.633   3.567  19.018  0.00  0.00     0.213 C 
ENDBRANCH   8  10
ENDBRANCH   1   8
BRANCH   7  12
ATOM     12  O12 <0> d   1      18.009   2.593  15.631  0.00  0.00    -0.360 OA
ATOM     13  H22 <0> d   1      17.479   2.934  16.364  0.00  0.00     0.217 HD
ENDBRANCH   7  12
TORSDOF 3
ENDMDL
MODEL 5
REMARK VINA RESULT:      -5.0      2.397      4.497
REMARK  3 active torsions:
REMARK  status: ('A' for Active; 'I' for Inactive)
REMARK    1  A    between atoms: O2_2  and  C3_3 
REMARK    2  A    between atoms: C3_3  and  C5_5 
REMARK    3  A    between atoms: C11_11  and  O12_12 
ROOT
ATOM      1  C5  <0> d   1      19.314   0.111   8.653  0.00  0.00     0.072 A 
ATOM      2  C6  <0> d   1      19.125   1.282   7.914  0.00  0.00     0.021 A 
ATOM      3  C7  <0> d   1      18.944   1.210   6.549  0.00  0.00     0.008 A 
ATOM      4  C8  <0> d   1      18.947  -0.017   5.907  0.00  0.00    -0.059 A 
ATOM      5  C9  <0> d   1      18.747  -0.081   4.415  0.00  0.00     0.048 C 
ATOM      6  C10 <0> d   1      19.132  -1.181   6.626  0.00  0.00     0.044 A 
ATOM      7  C11 <0> d   1      19.323  -1.128   7.998  0.00  0.00     0.082 A 
ENDROOT
BRANCH   1   8
ATOM      8  C3  <0> d   1      19.510   0.180  10.113  0.00  0.00     0.295 C 
ATOM      9  O4  <0> d   1      20.510  -0.292  10.614  0.00  0.00    -0.259 OA
BRANCH   8  10
ATOM     10  O2  <0> d   1      18.578   0.767  10.890  0.00  0.00    -0.322 OA
ATOM     11  C1  <0> d   1      17.291   0.102  10.993  0.00  0.00     0.213 C 
ENDBRANCH   8  10
ENDBRANCH   1   8
BRANCH   7  12
ATOM     12  O12 <0> d   1      19.505  -2.271   8.705  0.00  0.00    -0.360 OA
ATOM     13  H22 <0> d   1      20.424  -2.436   8.955  0.00  0.00     0.217 HD
ENDBRANCH   7  12
TORSDOF 3
ENDMDL
MODEL 6
REMARK VINA RESULT:      -4.9      6.544      8.571
REMARK  3 active torsions:
REMARK  status: ('A' for Active; 'I' for Inactive)
REMARK    1  A    between atoms: O2_2  and  C3_3 
REMARK    2  A    between atoms: C3_3  and  C5_5 
REMARK    3  A    between atoms: C11_11  and  O12_12 
ROOT
ATOM      1  C5  <0> d   1      19.260  -0.096  14.340  0.00  0.00     0.072 A 
ATOM      2  C6  <0> d   1      19.080  -1.289  15.046  0.00  0.00     0.021 A 
ATOM      3  C7  <0> d   1      18.881  -1.256  16.409  0.00  0.00     0.008 A 
ATOM      4  C8  <0> d   1      18.859  -0.047  17.084  0.00  0.00    -0.059 A 
ATOM      5  C9  <0> d   1      18.640  -0.025  18.575  0.00  0.00     0.048 C 
ATOM      6  C10 <0> d   1      19.035   1.139  16.399  0.00  0.00     0.044 A 
ATOM      7  C11 <0> d   1      19.243   1.125  15.028  0.00  0.00     0.082 A 
ENDROOT
BRANCH   1   8
ATOM      8  C3  <0> d   1      19.474  -0.123  12.882  0.00  0.00     0.295 C 
ATOM      9  O4  <0> d   1      20.493   0.339  12.409  0.00  0.00    -0.259 OA
BRANCH   8  10
ATOM     10  O2  <0> d   1      18.540  -0.662  12.074  0.00  0.00    -0.322 OA
ATOM     11  C1  <0> d   1      17.233  -0.029  12.064  0.00  0.00     0.213 C 
ENDBRANCH   8  10
ENDBRANCH   1   8
BRANCH   7  12
ATOM     12  O12 <0> d   1      19.417   2.289  14.354  0.00  0.00    -0.360 OA
ATOM     13  H22 <0> d   1      18.956   2.323  13.505  0.00  0.00     0.217 HD
ENDBRANCH   7  12
TORSDOF 3
ENDMDL
MODEL 7
REMARK VINA RESULT:      -4.9      4.355      6.014
REMARK  3 active torsions:
REMARK  status: ('A' for Active; 'I' for Inactive)
REMARK    1  A    between atoms: O2_2  and  C3_3 
REMARK    2  A    between atoms: C3_3  and  C5_5 
REMARK    3  A    between atoms: C11_11  and  O12_12 
ROOT
ATOM      1  C5  <0> d   1      19.148  -0.045  11.192  0.00  0.00     0.072 A 
ATOM      2  C6  <0> d   1      17.842  -0.466  11.456  0.00  0.00     0.021 A 
ATOM      3  C7  <0> d   1      17.573  -1.807  11.625  0.00  0.00     0.008 A 
ATOM      4  C8  <0> d   1      18.592  -2.741  11.536  0.00  0.00    -0.059 A 
ATOM      5  C9  <0> d   1      18.286  -4.204  11.724  0.00  0.00     0.048 C 
ATOM      6  C10 <0> d   1      19.888  -2.339  11.276  0.00  0.00     0.044 A 
ATOM      7  C11 <0> d   1      20.175  -0.995  11.096  0.00  0.00     0.082 A 
ENDROOT
BRANCH   1   8
ATOM      8  C3  <0> d   1      19.442   1.387  11.008  0.00  0.00     0.295 C 
ATOM      9  O4  <0> d   1      20.171   1.963  11.791  0.00  0.00    -0.259 OA
BRANCH   8  10
ATOM     10  O2  <0> d   1      18.902   2.059   9.972  0.00  0.00    -0.322 OA
ATOM     11  C1  <0> d   1      19.348   1.686   8.641  0.00  0.00     0.213 C 
ENDBRANCH   8  10
ENDBRANCH   1   8
BRANCH   7  12
ATOM     12  O12 <0> d   1      21.447  -0.598  10.840  0.00  0.00    -0.360 OA
ATOM     13  H22 <0> d   1      21.889  -0.187  11.595  0.00  0.00     0.217 HD
ENDBRANCH   7  12
TORSDOF 3
ENDMDL
MODEL 8
REMARK VINA RESULT:      -4.9      5.737      7.792
REMARK  3 active torsions:
REMARK  status: ('A' for Active; 'I' for Inactive)
REMARK    1  A    between atoms: O2_2  and  C3_3 
REMARK    2  A    between atoms: C3_3  and  C5_5 
REMARK    3  A    between atoms: C11_11  and  O12_12 
ROOT
ATOM      1  C5  <0> d   1      18.048  -0.475  13.605  0.00  0.00     0.072 A 
ATOM      2  C6  <0> d   1      17.368   0.345  14.510  0.00  0.00     0.021 A 
ATOM      3  C7  <0> d   1      17.710   0.326  15.845  0.00  0.00     0.008 A 
ATOM      4  C8  <0> d   1      18.725  -0.502  16.295  0.00  0.00    -0.059 A 
ATOM      5  C9  <0> d   1      19.089  -0.513  17.757  0.00  0.00     0.048 C 
ATOM      6  C10 <0> d   1      19.405  -1.318  15.412  0.00  0.00     0.044 A 
ATOM      7  C11 <0> d   1      19.070  -1.317  14.067  0.00  0.00     0.082 A 
ENDROOT
BRANCH   1   8
ATOM      8  C3  <0> d   1      17.687  -0.462  12.176  0.00  0.00     0.295 C 
ATOM      9  O4  <0> d   1      16.535  -0.646  11.839  0.00  0.00    -0.259 OA
BRANCH   8  10
ATOM     10  O2  <0> d   1      18.636  -0.244  11.244  0.00  0.00    -0.322 OA
ATOM     11  C1  <0> d   1      19.212   1.088  11.188  0.00  0.00     0.213 C 
ENDBRANCH   8  10
ENDBRANCH   1   8
BRANCH   7  12
ATOM     12  O12 <0> d   1      19.737  -2.118  13.198  0.00  0.00    -0.360 OA
ATOM     13  H22 <0> d   1      19.857  -3.024  13.512  0.00  0.00     0.217 HD
ENDBRANCH   7  12
TORSDOF 3
ENDMDL
MODEL 9
REMARK VINA RESULT:      -4.8      3.854      6.013
REMARK  3 active torsions:
REMARK  status: ('A' for Active; 'I' for Inactive)
REMARK    1  A    between atoms: O2_2  and  C3_3 
REMARK    2  A    between atoms: C3_3  and  C5_5 
REMARK    3  A    between atoms: C11_11  and  O12_12 
ROOT
ATOM      1  C5  <0> d   1      19.018  -0.658  11.034  0.00  0.00     0.072 A 
ATOM      2  C6  <0> d   1      17.752  -0.359  10.525  0.00  0.00     0.021 A 
ATOM      3  C7  <0> d   1      17.628   0.153   9.251  0.00  0.00     0.008 A 
ATOM      4  C8  <0> d   1      18.752   0.373   8.473  0.00  0.00    -0.059 A 
ATOM      5  C9  <0> d   1      18.603   0.933   7.082  0.00  0.00     0.048 C 
ATOM      6  C10 <0> d   1      20.010   0.082   8.964  0.00  0.00     0.044 A 
ATOM      7  C11 <0> d   1      20.155  -0.427  10.246  0.00  0.00     0.082 A 
ENDROOT
BRANCH   1   8
ATOM      8  C3  <0> d   1      19.159  -1.205  12.396  0.00  0.00     0.295 C 
ATOM      9  O4  <0> d   1      19.607  -2.321  12.558  0.00  0.00    -0.259 OA
BRANCH   8  10
ATOM     10  O2  <0> d   1      18.790  -0.465  13.460  0.00  0.00    -0.322 OA
ATOM     11  C1  <0> d   1      19.674   0.619  13.849  0.00  0.00     0.213 C 
ENDBRANCH   8  10
ENDBRANCH   1   8
BRANCH   7  12
ATOM     12  O12 <0> d   1      21.389  -0.714  10.730  0.00  0.00    -0.360 OA
ATOM     13  H22 <0> d   1      21.453  -1.579  11.156  0.00  0.00     0.217 HD
ENDBRANCH   7  12
TORSDOF 3
ENDMDL
