MODEL 1
REMARK VINA RESULT:      -8.8      0.000      0.000
REMARK  8 active torsions:
REMARK  status: ('A' for Active; 'I' for Inactive)
REMARK    1  A    between atoms: O2_2  and  C3_3 
REMARK    2  A    between atoms: C5_5  and  C6_6 
REMARK    3  A    between atoms: C11_11  and  O12_12 
REMARK    4  A    between atoms: O12_12  and  C13_13 
REMARK    5  A    between atoms: C13_13  and  C14_14 
REMARK    6  A    between atoms: C14_14  and  C15_15 
REMARK    7  A    between atoms: C15_15  and  N16_16 
REMARK    8  A    between atoms: C19_19  and  C20_20 
ROOT
ATOM      1  N16 ZIN A   1      18.806  -3.679  10.388  0.00  0.00     0.088 N 
ATOM      2  C17 ZIN A   1      19.750  -3.782  11.509  0.00  0.00     0.273 C 
ATOM      3  C18 ZIN A   1      19.749  -2.473  12.301  0.00  0.00     0.041 C 
ATOM      4  C19 ZIN A   1      18.335  -2.199  12.822  0.00  0.00     0.044 C 
ATOM      5  C30 ZIN A   1      17.365  -2.144  11.640  0.00  0.00     0.041 C 
ATOM      6  C31 ZIN A   1      17.435  -3.463  10.867  0.00  0.00     0.273 C 
ENDROOT
BRANCH   1   7
ATOM      7  C15 ZIN A   1      18.883  -4.866   9.525  0.00  0.00     0.274 C 
BRANCH   7   8
ATOM      8  C14 ZIN A   1      19.340  -4.451   8.126  0.00  0.00     0.057 C 
BRANCH   8   9
ATOM      9  C13 ZIN A   1      18.560  -3.210   7.683  0.00  0.00     0.177 C 
BRANCH   9  10
ATOM     10  O12 ZIN A   1      19.477  -2.185   7.297  0.00  0.00    -0.348 OA
BRANCH  10  11
ATOM     11  C11 ZIN A   1      19.348  -0.980   7.910  0.00  0.00     0.102 A 
ATOM     12  C3  ZIN A   1      18.791   0.096   7.218  0.00  0.00     0.102 A 
ATOM     13  C4  ZIN A   1      18.659   1.321   7.839  0.00  0.00     0.054 A 
ATOM     14  C5  ZIN A   1      19.092   1.483   9.161  0.00  0.00     0.012 A 
ATOM     15  C9  ZIN A   1      19.654   0.399   9.846  0.00  0.00     0.018 A 
ATOM     16  C10 ZIN A   1      19.783  -0.820   9.219  0.00  0.00     0.040 A 
BRANCH  12  17
ATOM     17  O2  ZIN A   1      18.373  -0.065   5.934  0.00  0.00    -0.353 OA
ATOM     18  C1  ZIN A   1      19.333   0.177   4.903  0.00  0.00     0.210 C 
ENDBRANCH  12  17
BRANCH  14  19
ATOM     19  C6  ZIN A   1      18.953   2.784   9.828  0.00  0.00     0.155 C 
ATOM     20  C7  ZIN A   1      19.659   3.040  11.135  0.00  0.00     0.096 C 
ATOM     21  O8  ZIN A   1      18.272   3.652   9.326  0.00  0.00    -0.293 OA
ENDBRANCH  14  19
ENDBRANCH  10  11
ENDBRANCH   9  10
ENDBRANCH   8   9
ENDBRANCH   7   8
ENDBRANCH   1   7
BRANCH   4  22
ATOM     22  C20 ZIN A   1      18.315  -0.880  13.552  0.00  0.00     0.079 A 
ATOM     23  C29 ZIN A   1      18.613  -0.670  14.971  0.00  0.00     0.027 A 
ATOM     24  C23 ZIN A   1      18.473   0.709  15.206  0.00  0.00     0.116 A 
ATOM     25  C28 ZIN A   1      18.991  -1.519  16.015  0.00  0.00     0.019 A 
ATOM     26  O22 ZIN A   1      18.113   1.275  14.037  0.00  0.00    -0.212 OA
ATOM     27  C24 ZIN A   1      18.699   1.211  16.481  0.00  0.00     0.082 A 
ATOM     28  N21 ZIN A   1      18.025   0.276  13.041  0.00  0.00    -0.131 NA
ATOM     29  C25 ZIN A   1      19.067   0.355  17.500  0.00  0.00     0.119 A 
ATOM     30  F26 ZIN A   1      19.287   0.845  18.740  0.00  0.00    -0.206 F 
ATOM     31  C27 ZIN A   1      19.210  -1.007  17.262  0.00  0.00     0.043 A 
ENDBRANCH   4  22
TORSDOF 8
ENDMDL
MODEL 2
REMARK VINA RESULT:      -8.5      3.287      8.016
REMARK  8 active torsions:
REMARK  status: ('A' for Active; 'I' for Inactive)
REMARK    1  A    between atoms: O2_2  and  C3_3 
REMARK    2  A    between atoms: C5_5  and  C6_6 
REMARK    3  A    between atoms: C11_11  and  O12_12 
REMARK    4  A    between atoms: O12_12  and  C13_13 
REMARK    5  A    between atoms: C13_13  and  C14_14 
REMARK    6  A    between atoms: C14_14  and  C15_15 
REMARK    7  A    between atoms: C15_15  and  N16_16 
REMARK    8  A    between atoms: C19_19  and  C20_20 
ROOT
ATOM      1  N16 ZIN A   1      17.705   2.679  10.701  0.00  0.00     0.088 N 
ATOM      2  C17 ZIN A   1      17.385   1.263  10.922  0.00  0.00     0.273 C 
ATOM      3  C18 ZIN A   1      17.488   0.502   9.599  0.00  0.00     0.041 C 
ATOM      4  C19 ZIN A   1      18.908   0.644   9.044  0.00  0.00     0.044 C 
ATOM      5  C30 ZIN A   1      19.232   2.129   8.867  0.00  0.00     0.041 C 
ATOM      6  C31 ZIN A   1      19.079   2.843  10.212  0.00  0.00     0.273 C 
ENDROOT
BRANCH   1   7
ATOM      7  C15 ZIN A   1      17.481   3.466  11.921  0.00  0.00     0.274 C 
BRANCH   7   8
ATOM      8  C14 ZIN A   1      17.596   2.555  13.144  0.00  0.00     0.057 C 
BRANCH   8   9
ATOM      9  C13 ZIN A   1      18.875   2.893  13.914  0.00  0.00     0.177 C 
BRANCH   9  10
ATOM     10  O12 ZIN A   1      19.310   1.743  14.641  0.00  0.00    -0.348 OA
BRANCH  10  11
ATOM     11  C11 ZIN A   1      19.306   0.557  13.980  0.00  0.00     0.102 A 
ATOM     12  C3  ZIN A   1      18.436  -0.459  14.379  0.00  0.00     0.102 A 
ATOM     13  C4  ZIN A   1      18.430  -1.664  13.708  0.00  0.00     0.054 A 
ATOM     14  C5  ZIN A   1      19.303  -1.868  12.631  0.00  0.00     0.012 A 
ATOM     15  C9  ZIN A   1      20.175  -0.845  12.241  0.00  0.00     0.018 A 
ATOM     16  C10 ZIN A   1      20.175   0.355  12.916  0.00  0.00     0.040 A 
BRANCH  12  17
ATOM     17  O2  ZIN A   1      17.591  -0.258  15.425  0.00  0.00    -0.353 OA
ATOM     18  C1  ZIN A   1      17.879  -0.960  16.636  0.00  0.00     0.210 C 
ENDBRANCH  12  17
BRANCH  14  19
ATOM     19  C6  ZIN A   1      19.301  -3.149  11.912  0.00  0.00     0.155 C 
ATOM     20  C7  ZIN A   1      18.002  -3.868  11.658  0.00  0.00     0.096 C 
ATOM     21  O8  ZIN A   1      20.345  -3.626  11.523  0.00  0.00    -0.293 OA
ENDBRANCH  14  19
ENDBRANCH  10  11
ENDBRANCH   9  10
ENDBRANCH   8   9
ENDBRANCH   7   8
ENDBRANCH   1   7
BRANCH   4  22
ATOM     22  C20 ZIN A   1      18.999  -0.054   7.711  0.00  0.00     0.079 A 
ATOM     23  C29 ZIN A   1      19.053  -1.502   7.491  0.00  0.00     0.027 A 
ATOM     24  C23 ZIN A   1      19.129  -1.690   6.101  0.00  0.00     0.116 A 
ATOM     25  C28 ZIN A   1      19.026  -2.609   8.343  0.00  0.00     0.019 A 
ATOM     26  O22 ZIN A   1      19.132  -0.466   5.535  0.00  0.00    -0.212 OA
ATOM     27  C24 ZIN A   1      19.190  -2.979   5.588  0.00  0.00     0.082 A 
ATOM     28  N21 ZIN A   1      19.050   0.517   6.547  0.00  0.00    -0.131 NA
ATOM     29  C25 ZIN A   1      19.168  -4.060   6.447  0.00  0.00     0.119 A 
ATOM     30  F26 ZIN A   1      19.227  -5.314   5.946  0.00  0.00    -0.206 F 
ATOM     31  C27 ZIN A   1      19.087  -3.870   7.821  0.00  0.00     0.043 A 
ENDBRANCH   4  22
TORSDOF 8
ENDMDL
MODEL 3
REMARK VINA RESULT:      -8.2      3.257      7.945
REMARK  8 active torsions:
REMARK  status: ('A' for Active; 'I' for Inactive)
REMARK    1  A    between atoms: O2_2  and  C3_3 
REMARK    2  A    between atoms: C5_5  and  C6_6 
REMARK    3  A    between atoms: C11_11  and  O12_12 
REMARK    4  A    between atoms: O12_12  and  C13_13 
REMARK    5  A    between atoms: C13_13  and  C14_14 
REMARK    6  A    between atoms: C14_14  and  C15_15 
REMARK    7  A    between atoms: C15_15  and  N16_16 
REMARK    8  A    between atoms: C19_19  and  C20_20 
ROOT
ATOM      1  N16 ZIN A   1      19.299   1.629   9.641  0.00  0.00     0.088 N 
ATOM      2  C17 ZIN A   1      18.007   1.312   9.017  0.00  0.00     0.273 C 
ATOM      3  C18 ZIN A   1      18.208   0.247   7.937  0.00  0.00     0.041 C 
ATOM      4  C19 ZIN A   1      18.813  -1.008   8.572  0.00  0.00     0.044 C 
ATOM      5  C30 ZIN A   1      20.132  -0.641   9.255  0.00  0.00     0.041 C 
ATOM      6  C31 ZIN A   1      19.876   0.450  10.297  0.00  0.00     0.273 C 
ENDROOT
BRANCH   1   7
ATOM      7  C15 ZIN A   1      19.166   2.747  10.586  0.00  0.00     0.274 C 
BRANCH   7   8
ATOM      8  C14 ZIN A   1      17.827   2.640  11.317  0.00  0.00     0.057 C 
BRANCH   8   9
ATOM      9  C13 ZIN A   1      18.077   2.491  12.819  0.00  0.00     0.177 C 
BRANCH   9  10
ATOM     10  O12 ZIN A   1      17.276   1.425  13.331  0.00  0.00    -0.348 OA
BRANCH  10  11
ATOM     11  C11 ZIN A   1      17.641   0.162  12.993  0.00  0.00     0.102 A 
ATOM     12  C3  ZIN A   1      18.714  -0.450  13.643  0.00  0.00     0.102 A 
ATOM     13  C4  ZIN A   1      19.088  -1.733  13.301  0.00  0.00     0.054 A 
ATOM     14  C5  ZIN A   1      18.392  -2.417  12.295  0.00  0.00     0.012 A 
ATOM     15  C9  ZIN A   1      17.320  -1.795  11.645  0.00  0.00     0.018 A 
ATOM     16  C10 ZIN A   1      16.954  -0.513  11.993  0.00  0.00     0.040 A 
BRANCH  12  17
ATOM     17  O2  ZIN A   1      19.388   0.217  14.617  0.00  0.00    -0.353 OA
ATOM     18  C1  ZIN A   1      18.958   0.007  15.964  0.00  0.00     0.210 C 
ENDBRANCH  12  17
BRANCH  14  19
ATOM     19  C6  ZIN A   1      18.784  -3.784  11.927  0.00  0.00     0.155 C 
ATOM     20  C7  ZIN A   1      20.183  -4.062  11.444  0.00  0.00     0.096 C 
ATOM     21  O8  ZIN A   1      17.980  -4.688  12.012  0.00  0.00    -0.293 OA
ENDBRANCH  14  19
ENDBRANCH  10  11
ENDBRANCH   9  10
ENDBRANCH   8   9
ENDBRANCH   7   8
ENDBRANCH   1   7
BRANCH   4  22
ATOM     22  C20 ZIN A   1      19.069  -2.040   7.503  0.00  0.00     0.079 A 
ATOM     23  C29 ZIN A   1      18.683  -3.452   7.550  0.00  0.00     0.027 A 
ATOM     24  C23 ZIN A   1      19.120  -4.024   6.343  0.00  0.00     0.116 A 
ATOM     25  C28 ZIN A   1      18.010  -4.238   8.489  0.00  0.00     0.019 A 
ATOM     26  O22 ZIN A   1      19.723  -3.046   5.638  0.00  0.00    -0.212 OA
ATOM     27  C24 ZIN A   1      18.888  -5.372   6.102  0.00  0.00     0.082 A 
ATOM     28  N21 ZIN A   1      19.675  -1.840   6.373  0.00  0.00    -0.131 NA
ATOM     29  C25 ZIN A   1      18.225  -6.133   7.044  0.00  0.00     0.119 A 
ATOM     30  F26 ZIN A   1      18.000  -7.444   6.808  0.00  0.00    -0.206 F 
ATOM     31  C27 ZIN A   1      17.790  -5.562   8.235  0.00  0.00     0.043 A 
ENDBRANCH   4  22
TORSDOF 8
ENDMDL
MODEL 4
REMARK VINA RESULT:      -8.2      2.909      6.473
REMARK  8 active torsions:
REMARK  status: ('A' for Active; 'I' for Inactive)
REMARK    1  A    between atoms: O2_2  and  C3_3 
REMARK    2  A    between atoms: C5_5  and  C6_6 
REMARK    3  A    between atoms: C11_11  and  O12_12 
REMARK    4  A    between atoms: O12_12  and  C13_13 
REMARK    5  A    between atoms: C13_13  and  C14_14 
REMARK    6  A    between atoms: C14_14  and  C15_15 
REMARK    7  A    between atoms: C15_15  and  N16_16 
REMARK    8  A    between atoms: C19_19  and  C20_20 
ROOT
ATOM      1  N16 ZIN A   1      18.467   0.431  14.504  0.00  0.00     0.088 N 
ATOM      2  C17 ZIN A   1      17.325   0.027  13.674  0.00  0.00     0.273 C 
ATOM      3  C18 ZIN A   1      17.803  -0.924  12.574  0.00  0.00     0.041 C 
ATOM      4  C19 ZIN A   1      18.452  -2.153  13.216  0.00  0.00     0.044 C 
ATOM      5  C30 ZIN A   1      19.607  -1.702  14.113  0.00  0.00     0.041 C 
ATOM      6  C31 ZIN A   1      19.077  -0.728  15.168  0.00  0.00     0.273 C 
ENDROOT
BRANCH   1   7
ATOM      7  C15 ZIN A   1      18.070   1.451  15.484  0.00  0.00     0.274 C 
BRANCH   7   8
ATOM      8  C14 ZIN A   1      18.820   2.753  15.197  0.00  0.00     0.057 C 
BRANCH   8   9
ATOM      9  C13 ZIN A   1      18.063   3.553  14.135  0.00  0.00     0.177 C 
BRANCH   9  10
ATOM     10  O12 ZIN A   1      18.941   3.848  13.046  0.00  0.00    -0.348 OA
BRANCH  10  11
ATOM     11  C11 ZIN A   1      18.946   2.976  12.006  0.00  0.00     0.102 A 
ATOM     12  C3  ZIN A   1      17.891   2.978  11.092  0.00  0.00     0.102 A 
ATOM     13  C4  ZIN A   1      17.894   2.093  10.033  0.00  0.00     0.054 A 
ATOM     14  C5  ZIN A   1      18.954   1.189   9.883  0.00  0.00     0.012 A 
ATOM     15  C9  ZIN A   1      20.005   1.191  10.807  0.00  0.00     0.018 A 
ATOM     16  C10 ZIN A   1      19.994   2.077  11.861  0.00  0.00     0.040 A 
BRANCH  12  17
ATOM     17  O2  ZIN A   1      16.864   3.856  11.241  0.00  0.00    -0.353 OA
ATOM     18  C1  ZIN A   1      16.962   5.096  10.536  0.00  0.00     0.210 C 
ENDBRANCH  12  17
BRANCH  14  19
ATOM     19  C6  ZIN A   1      18.963   0.245   8.758  0.00  0.00     0.155 C 
ATOM     20  C7  ZIN A   1      18.638   0.725   7.367  0.00  0.00     0.096 C 
ATOM     21  O8  ZIN A   1      19.233  -0.922   8.949  0.00  0.00    -0.293 OA
ENDBRANCH  14  19
ENDBRANCH  10  11
ENDBRANCH   9  10
ENDBRANCH   8   9
ENDBRANCH   7   8
ENDBRANCH   1   7
BRANCH   4  22
ATOM     22  C20 ZIN A   1      18.978  -3.066  12.138  0.00  0.00     0.079 A 
ATOM     23  C29 ZIN A   1      18.194  -4.022  11.352  0.00  0.00     0.027 A 
ATOM     24  C23 ZIN A   1      19.095  -4.645  10.472  0.00  0.00     0.116 A 
ATOM     25  C28 ZIN A   1      16.841  -4.369  11.324  0.00  0.00     0.019 A 
ATOM     26  O22 ZIN A   1      20.312  -4.118  10.712  0.00  0.00    -0.212 OA
ATOM     27  C24 ZIN A   1      18.630  -5.611   9.589  0.00  0.00     0.082 A 
ATOM     28  N21 ZIN A   1      20.209  -3.152  11.739  0.00  0.00    -0.131 NA
ATOM     29  C25 ZIN A   1      17.289  -5.943   9.580  0.00  0.00     0.119 A 
ATOM     30  F26 ZIN A   1      16.838  -6.883   8.720  0.00  0.00    -0.206 F 
ATOM     31  C27 ZIN A   1      16.401  -5.321  10.449  0.00  0.00     0.043 A 
ENDBRANCH   4  22
TORSDOF 8
ENDMDL
MODEL 5
REMARK VINA RESULT:      -8.2      2.725      4.614
REMARK  8 active torsions:
REMARK  status: ('A' for Active; 'I' for Inactive)
REMARK    1  A    between atoms: O2_2  and  C3_3 
REMARK    2  A    between atoms: C5_5  and  C6_6 
REMARK    3  A    between atoms: C11_11  and  O12_12 
REMARK    4  A    between atoms: O12_12  and  C13_13 
REMARK    5  A    between atoms: C13_13  and  C14_14 
REMARK    6  A    between atoms: C14_14  and  C15_15 
REMARK    7  A    between atoms: C15_15  and  N16_16 
REMARK    8  A    between atoms: C19_19  and  C20_20 
ROOT
ATOM      1  N16 ZIN A   1      19.094  -1.916  11.711  0.00  0.00     0.088 N 
ATOM      2  C17 ZIN A   1      20.114  -0.933  11.324  0.00  0.00     0.273 C 
ATOM      3  C18 ZIN A   1      19.444   0.411  11.031  0.00  0.00     0.041 C 
ATOM      4  C19 ZIN A   1      18.697   0.887  12.280  0.00  0.00     0.044 C 
ATOM      5  C30 ZIN A   1      17.674  -0.176  12.689  0.00  0.00     0.041 C 
ATOM      6  C31 ZIN A   1      18.396  -1.503  12.935  0.00  0.00     0.273 C 
ENDROOT
BRANCH   1   7
ATOM      7  C15 ZIN A   1      19.683  -3.253  11.866  0.00  0.00     0.274 C 
BRANCH   7   8
ATOM      8  C14 ZIN A   1      18.584  -4.311  11.760  0.00  0.00     0.057 C 
BRANCH   8   9
ATOM      9  C13 ZIN A   1      17.596  -3.910  10.661  0.00  0.00     0.177 C 
BRANCH   9  10
ATOM     10  O12 ZIN A   1      18.040  -4.433   9.408  0.00  0.00    -0.348 OA
BRANCH  10  11
ATOM     11  C11 ZIN A   1      18.358  -3.533   8.443  0.00  0.00     0.102 A 
ATOM     12  C3  ZIN A   1      19.131  -3.928   7.351  0.00  0.00     0.102 A 
ATOM     13  C4  ZIN A   1      19.455  -3.015   6.368  0.00  0.00     0.054 A 
ATOM     14  C5  ZIN A   1      19.012  -1.690   6.474  0.00  0.00     0.012 A 
ATOM     15  C9  ZIN A   1      18.241  -1.301   7.575  0.00  0.00     0.018 A 
ATOM     16  C10 ZIN A   1      17.922  -2.219   8.551  0.00  0.00     0.040 A 
BRANCH  12  17
ATOM     17  O2  ZIN A   1      19.560  -5.214   7.251  0.00  0.00    -0.353 OA
ATOM     18  C1  ZIN A   1      20.952  -5.453   7.467  0.00  0.00     0.210 C 
ENDBRANCH  12  17
BRANCH  14  19
ATOM     19  C6  ZIN A   1      19.353  -0.714   5.431  0.00  0.00     0.155 C 
ATOM     20  C7  ZIN A   1      19.040   0.746   5.634  0.00  0.00     0.096 C 
ATOM     21  O8  ZIN A   1      19.888  -1.083   4.407  0.00  0.00    -0.293 OA
ENDBRANCH  14  19
ENDBRANCH  10  11
ENDBRANCH   9  10
ENDBRANCH   8   9
ENDBRANCH   7   8
ENDBRANCH   1   7
BRANCH   4  22
ATOM     22  C20 ZIN A   1      17.986   2.181  11.978  0.00  0.00     0.079 A 
ATOM     23  C29 ZIN A   1      17.973   3.380  12.821  0.00  0.00     0.027 A 
ATOM     24  C23 ZIN A   1      17.192   4.332  12.144  0.00  0.00     0.116 A 
ATOM     25  C28 ZIN A   1      18.559   3.705  14.046  0.00  0.00     0.019 A 
ATOM     26  O22 ZIN A   1      16.765   3.755  11.002  0.00  0.00    -0.212 OA
ATOM     27  C24 ZIN A   1      17.000   5.586  12.709  0.00  0.00     0.082 A 
ATOM     28  N21 ZIN A   1      17.269   2.436  10.928  0.00  0.00    -0.131 NA
ATOM     29  C25 ZIN A   1      17.584   5.887  13.924  0.00  0.00     0.119 A 
ATOM     30  F26 ZIN A   1      17.398   7.107  14.473  0.00  0.00    -0.206 F 
ATOM     31  C27 ZIN A   1      18.361   4.944  14.588  0.00  0.00     0.043 A 
ENDBRANCH   4  22
TORSDOF 8
ENDMDL
MODEL 6
REMARK VINA RESULT:      -8.2      3.783      8.554
REMARK  8 active torsions:
REMARK  status: ('A' for Active; 'I' for Inactive)
REMARK    1  A    between atoms: O2_2  and  C3_3 
REMARK    2  A    between atoms: C5_5  and  C6_6 
REMARK    3  A    between atoms: C11_11  and  O12_12 
REMARK    4  A    between atoms: O12_12  and  C13_13 
REMARK    5  A    between atoms: C13_13  and  C14_14 
REMARK    6  A    between atoms: C14_14  and  C15_15 
REMARK    7  A    between atoms: C15_15  and  N16_16 
REMARK    8  A    between atoms: C19_19  and  C20_20 
ROOT
ATOM      1  N16 ZIN A   1      18.667  -0.286  15.489  0.00  0.00     0.088 N 
ATOM      2  C17 ZIN A   1      17.495   0.475  15.035  0.00  0.00     0.273 C 
ATOM      3  C18 ZIN A   1      17.854   1.262  13.773  0.00  0.00     0.041 C 
ATOM      4  C19 ZIN A   1      18.310   0.289  12.682  0.00  0.00     0.044 C 
ATOM      5  C30 ZIN A   1      19.500  -0.523  13.198  0.00  0.00     0.041 C 
ATOM      6  C31 ZIN A   1      19.093  -1.260  14.477  0.00  0.00     0.273 C 
ENDROOT
BRANCH   1   7
ATOM      7  C15 ZIN A   1      18.400  -0.945  16.775  0.00  0.00     0.274 C 
BRANCH   7   8
ATOM      8  C14 ZIN A   1      19.313  -0.354  17.850  0.00  0.00     0.057 C 
BRANCH   8   9
ATOM      9  C13 ZIN A   1      18.594   0.801  18.551  0.00  0.00     0.177 C 
BRANCH   9  10
ATOM     10  O12 ZIN A   1      19.463   1.933  18.616  0.00  0.00    -0.348 OA
BRANCH  10  11
ATOM     11  C11 ZIN A   1      19.153   2.994  17.828  0.00  0.00     0.102 A 
ATOM     12  C3  ZIN A   1      18.337   4.013  18.321  0.00  0.00     0.102 A 
ATOM     13  C4  ZIN A   1      18.020   5.092  17.522  0.00  0.00     0.054 A 
ATOM     14  C5  ZIN A   1      18.514   5.159  16.213  0.00  0.00     0.012 A 
ATOM     15  C9  ZIN A   1      19.328   4.131  15.724  0.00  0.00     0.018 A 
ATOM     16  C10 ZIN A   1      19.639   3.057  16.528  0.00  0.00     0.040 A 
BRANCH  12  17
ATOM     17  O2  ZIN A   1      17.858   3.945  19.592  0.00  0.00    -0.353 OA
ATOM     18  C1  ZIN A   1      16.478   3.610  19.749  0.00  0.00     0.210 C 
ENDBRANCH  12  17
BRANCH  14  19
ATOM     19  C6  ZIN A   1      18.181   6.305  15.357  0.00  0.00     0.155 C 
ATOM     20  C7  ZIN A   1      17.342   6.106  14.123  0.00  0.00     0.096 C 
ATOM     21  O8  ZIN A   1      18.582   7.413  15.646  0.00  0.00    -0.293 OA
ENDBRANCH  14  19
ENDBRANCH  10  11
ENDBRANCH   9  10
ENDBRANCH   8   9
ENDBRANCH   7   8
ENDBRANCH   1   7
BRANCH   4  22
ATOM     22  C20 ZIN A   1      18.722   1.063  11.456  0.00  0.00     0.079 A 
ATOM     23  C29 ZIN A   1      18.466   0.685  10.064  0.00  0.00     0.027 A 
ATOM     24  C23 ZIN A   1      19.024   1.699   9.268  0.00  0.00     0.116 A 
ATOM     25  C28 ZIN A   1      17.814  -0.394   9.462  0.00  0.00     0.019 A 
ATOM     26  O22 ZIN A   1      19.575   2.602  10.105  0.00  0.00    -0.212 OA
ATOM     27  C24 ZIN A   1      18.932   1.611   7.885  0.00  0.00     0.082 A 
ATOM     28  N21 ZIN A   1      19.373   2.186  11.440  0.00  0.00    -0.131 NA
ATOM     29  C25 ZIN A   1      18.288   0.534   7.308  0.00  0.00     0.119 A 
ATOM     30  F26 ZIN A   1      18.199   0.449   5.963  0.00  0.00    -0.206 F 
ATOM     31  C27 ZIN A   1      17.733  -0.465   8.100  0.00  0.00     0.043 A 
ENDBRANCH   4  22
TORSDOF 8
ENDMDL
MODEL 7
REMARK VINA RESULT:      -8.1      3.555      8.290
REMARK  8 active torsions:
REMARK  status: ('A' for Active; 'I' for Inactive)
REMARK    1  A    between atoms: O2_2  and  C3_3 
REMARK    2  A    between atoms: C5_5  and  C6_6 
REMARK    3  A    between atoms: C11_11  and  O12_12 
REMARK    4  A    between atoms: O12_12  and  C13_13 
REMARK    5  A    between atoms: C13_13  and  C14_14 
REMARK    6  A    between atoms: C14_14  and  C15_15 
REMARK    7  A    between atoms: C15_15  and  N16_16 
REMARK    8  A    between atoms: C19_19  and  C20_20 
ROOT
ATOM      1  N16 ZIN A   1      17.907  -0.940  15.582  0.00  0.00     0.088 N 
ATOM      2  C17 ZIN A   1      19.323  -1.214  15.301  0.00  0.00     0.273 C 
ATOM      3  C18 ZIN A   1      19.495  -1.538  13.815  0.00  0.00     0.041 C 
ATOM      4  C19 ZIN A   1      19.009  -0.351  12.979  0.00  0.00     0.044 C 
ATOM      5  C30 ZIN A   1      17.547  -0.057  13.326  0.00  0.00     0.041 C 
ATOM      6  C31 ZIN A   1      17.431   0.225  14.826  0.00  0.00     0.273 C 
ENDROOT
BRANCH   1   7
ATOM      7  C15 ZIN A   1      17.683  -0.760  17.023  0.00  0.00     0.274 C 
BRANCH   7   8
ATOM      8  C14 ZIN A   1      19.002  -0.392  17.703  0.00  0.00     0.057 C 
BRANCH   8   9
ATOM      9  C13 ZIN A   1      18.761   0.743  18.702  0.00  0.00     0.177 C 
BRANCH   9  10
ATOM     10  O12 ZIN A   1      19.623   1.840  18.392  0.00  0.00    -0.348 OA
BRANCH  10  11
ATOM     11  C11 ZIN A   1      19.137   2.785  17.548  0.00  0.00     0.102 A 
ATOM     12  C3  ZIN A   1      18.320   3.804  18.039  0.00  0.00     0.102 A 
ATOM     13  C4  ZIN A   1      17.825   4.766  17.183  0.00  0.00     0.054 A 
ATOM     14  C5  ZIN A   1      18.139   4.713  15.819  0.00  0.00     0.012 A 
ATOM     15  C9  ZIN A   1      18.956   3.685  15.333  0.00  0.00     0.018 A 
ATOM     16  C10 ZIN A   1      19.445   2.729  16.195  0.00  0.00     0.040 A 
BRANCH  12  17
ATOM     17  O2  ZIN A   1      18.016   3.852  19.364  0.00  0.00    -0.353 OA
ATOM     18  C1  ZIN A   1      16.649   3.644  19.725  0.00  0.00     0.210 C 
ENDBRANCH  12  17
BRANCH  14  19
ATOM     19  C6  ZIN A   1      17.617   5.734  14.902  0.00  0.00     0.155 C 
ATOM     20  C7  ZIN A   1      16.276   6.369  15.166  0.00  0.00     0.096 C 
ATOM     21  O8  ZIN A   1      18.265   6.067  13.933  0.00  0.00    -0.293 OA
ENDBRANCH  14  19
ENDBRANCH  10  11
ENDBRANCH   9  10
ENDBRANCH   8   9
ENDBRANCH   7   8
ENDBRANCH   1   7
BRANCH   4  22
ATOM     22  C20 ZIN A   1      19.121  -0.687  11.514  0.00  0.00     0.079 A 
ATOM     23  C29 ZIN A   1      19.051   0.260  10.398  0.00  0.00     0.027 A 
ATOM     24  C23 ZIN A   1      19.207  -0.497   9.225  0.00  0.00     0.116 A 
ATOM     25  C28 ZIN A   1      18.890   1.645  10.317  0.00  0.00     0.019 A 
ATOM     26  O22 ZIN A   1      19.348  -1.784   9.599  0.00  0.00    -0.212 OA
ATOM     27  C24 ZIN A   1      19.186   0.142   7.992  0.00  0.00     0.082 A 
ATOM     28  N21 ZIN A   1      19.292  -1.870  11.009  0.00  0.00    -0.131 NA
ATOM     29  C25 ZIN A   1      19.021   1.512   7.932  0.00  0.00     0.119 A 
ATOM     30  F26 ZIN A   1      19.001   2.132   6.732  0.00  0.00    -0.206 F 
ATOM     31  C27 ZIN A   1      18.872   2.257   9.096  0.00  0.00     0.043 A 
ENDBRANCH   4  22
TORSDOF 8
ENDMDL
MODEL 8
REMARK VINA RESULT:      -8.0      2.736      5.780
REMARK  8 active torsions:
REMARK  status: ('A' for Active; 'I' for Inactive)
REMARK    1  A    between atoms: O2_2  and  C3_3 
REMARK    2  A    between atoms: C5_5  and  C6_6 
REMARK    3  A    between atoms: C11_11  and  O12_12 
REMARK    4  A    between atoms: O12_12  and  C13_13 
REMARK    5  A    between atoms: C13_13  and  C14_14 
REMARK    6  A    between atoms: C14_14  and  C15_15 
REMARK    7  A    between atoms: C15_15  and  N16_16 
REMARK    8  A    between atoms: C19_19  and  C20_20 
ROOT
ATOM      1  N16 ZIN A   1      18.580   2.690  10.346  0.00  0.00     0.088 N 
ATOM      2  C17 ZIN A   1      17.763   3.906  10.238  0.00  0.00     0.273 C 
ATOM      3  C18 ZIN A   1      17.318   4.349  11.634  0.00  0.00     0.041 C 
ATOM      4  C19 ZIN A   1      18.555   4.616  12.497  0.00  0.00     0.044 C 
ATOM      5  C30 ZIN A   1      19.411   3.349  12.554  0.00  0.00     0.041 C 
ATOM      6  C31 ZIN A   1      19.796   2.935  11.131  0.00  0.00     0.273 C 
ENDROOT
BRANCH   1   7
ATOM      7  C15 ZIN A   1      18.909   2.158   9.017  0.00  0.00     0.274 C 
BRANCH   7   8
ATOM      8  C14 ZIN A   1      18.093   0.891   8.758  0.00  0.00     0.057 C 
BRANCH   8   9
ATOM      9  C13 ZIN A   1      18.659  -0.259   9.595  0.00  0.00     0.177 C 
BRANCH   9  10
ATOM     10  O12 ZIN A   1      17.611  -0.846  10.368  0.00  0.00    -0.348 OA
BRANCH  10  11
ATOM     11  C11 ZIN A   1      17.750  -0.814  11.719  0.00  0.00     0.102 A 
ATOM     12  C3  ZIN A   1      18.293  -1.911  12.388  0.00  0.00     0.102 A 
ATOM     13  C4  ZIN A   1      18.435  -1.881  13.760  0.00  0.00     0.054 A 
ATOM     14  C5  ZIN A   1      18.027  -0.750  14.479  0.00  0.00     0.012 A 
ATOM     15  C9  ZIN A   1      17.479   0.345  13.800  0.00  0.00     0.018 A 
ATOM     16  C10 ZIN A   1      17.341   0.306  12.430  0.00  0.00     0.040 A 
BRANCH  12  17
ATOM     17  O2  ZIN A   1      18.687  -3.008  11.688  0.00  0.00    -0.353 OA
ATOM     18  C1  ZIN A   1      20.094  -3.228  11.563  0.00  0.00     0.210 C 
ENDBRANCH  12  17
BRANCH  14  19
ATOM     19  C6  ZIN A   1      18.176  -0.711  15.940  0.00  0.00     0.155 C 
ATOM     20  C7  ZIN A   1      17.090  -0.108  16.793  0.00  0.00     0.096 C 
ATOM     21  O8  ZIN A   1      19.174  -1.165  16.459  0.00  0.00    -0.293 OA
ENDBRANCH  14  19
ENDBRANCH  10  11
ENDBRANCH   9  10
ENDBRANCH   8   9
ENDBRANCH   7   8
ENDBRANCH   1   7
BRANCH   4  22
ATOM     22  C20 ZIN A   1      18.123   4.995  13.891  0.00  0.00     0.079 A 
ATOM     23  C29 ZIN A   1      18.479   4.298  15.129  0.00  0.00     0.027 A 
ATOM     24  C23 ZIN A   1      17.859   5.003  16.174  0.00  0.00     0.116 A 
ATOM     25  C28 ZIN A   1      19.263   3.177  15.415  0.00  0.00     0.019 A 
ATOM     26  O22 ZIN A   1      17.182   6.026  15.615  0.00  0.00    -0.212 OA
ATOM     27  C24 ZIN A   1      18.022   4.568  17.483  0.00  0.00     0.082 A 
ATOM     28  N21 ZIN A   1      17.364   5.996  14.214  0.00  0.00    -0.131 NA
ATOM     29  C25 ZIN A   1      18.798   3.456  17.745  0.00  0.00     0.119 A 
ATOM     30  F26 ZIN A   1      18.956   3.034  19.019  0.00  0.00    -0.206 F 
ATOM     31  C27 ZIN A   1      19.414   2.764  16.708  0.00  0.00     0.043 A 
ENDBRANCH   4  22
TORSDOF 8
ENDMDL
MODEL 9
REMARK VINA RESULT:      -8.0      2.111      4.572
REMARK  8 active torsions:
REMARK  status: ('A' for Active; 'I' for Inactive)
REMARK    1  A    between atoms: O2_2  and  C3_3 
REMARK    2  A    between atoms: C5_5  and  C6_6 
REMARK    3  A    between atoms: C11_11  and  O12_12 
REMARK    4  A    between atoms: O12_12  and  C13_13 
REMARK    5  A    between atoms: C13_13  and  C14_14 
REMARK    6  A    between atoms: C14_14  and  C15_15 
REMARK    7  A    between atoms: C15_15  and  N16_16 
REMARK    8  A    between atoms: C19_19  and  C20_20 
ROOT
ATOM      1  N16 ZIN A   1      18.295   1.682  11.122  0.00  0.00     0.088 N 
ATOM      2  C17 ZIN A   1      19.642   1.139  11.343  0.00  0.00     0.273 C 
ATOM      3  C18 ZIN A   1      19.828   0.821  12.828  0.00  0.00     0.041 C 
ATOM      4  C19 ZIN A   1      18.768  -0.195  13.263  0.00  0.00     0.044 C 
ATOM      5  C30 ZIN A   1      17.377   0.375  12.979  0.00  0.00     0.041 C 
ATOM      6  C31 ZIN A   1      17.262   0.706  11.489  0.00  0.00     0.273 C 
ENDROOT
BRANCH   1   7
ATOM      7  C15 ZIN A   1      18.129   2.128   9.731  0.00  0.00     0.274 C 
BRANCH   7   8
ATOM      8  C14 ZIN A   1      19.173   1.443   8.848  0.00  0.00     0.057 C 
BRANCH   8   9
ATOM      9  C13 ZIN A   1      18.479   0.450   7.913  0.00  0.00     0.177 C 
BRANCH   9  10
ATOM     10  O12 ZIN A   1      19.424  -0.523   7.466  0.00  0.00    -0.348 OA
BRANCH  10  11
ATOM     11  C11 ZIN A   1      19.217  -1.808   7.855  0.00  0.00     0.102 A 
ATOM     12  C3  ZIN A   1      19.343  -2.844   6.929  0.00  0.00     0.102 A 
ATOM     13  C4  ZIN A   1      19.133  -4.150   7.322  0.00  0.00     0.054 A 
ATOM     14  C5  ZIN A   1      18.787  -4.431   8.650  0.00  0.00     0.012 A 
ATOM     15  C9  ZIN A   1      18.657  -3.385   9.571  0.00  0.00     0.018 A 
ATOM     16  C10 ZIN A   1      18.868  -2.084   9.171  0.00  0.00     0.040 A 
BRANCH  12  17
ATOM     17  O2  ZIN A   1      19.679  -2.568   5.641  0.00  0.00    -0.353 OA
ATOM     18  C1  ZIN A   1      18.612  -2.502   4.692  0.00  0.00     0.210 C 
ENDBRANCH  12  17
BRANCH  14  19
ATOM     19  C6  ZIN A   1      18.562  -5.819   9.075  0.00  0.00     0.155 C 
ATOM     20  C7  ZIN A   1      17.505  -6.132  10.102  0.00  0.00     0.096 C 
ATOM     21  O8  ZIN A   1      19.228  -6.714   8.599  0.00  0.00    -0.293 OA
ENDBRANCH  14  19
ENDBRANCH  10  11
ENDBRANCH   9  10
ENDBRANCH   8   9
ENDBRANCH   7   8
ENDBRANCH   1   7
BRANCH   4  22
ATOM     22  C20 ZIN A   1      18.909  -0.468  14.739  0.00  0.00     0.079 A 
ATOM     23  C29 ZIN A   1      18.987   0.537  15.803  0.00  0.00     0.027 A 
ATOM     24  C23 ZIN A   1      19.108  -0.172  17.010  0.00  0.00     0.116 A 
ATOM     25  C28 ZIN A   1      18.948   1.934  15.817  0.00  0.00     0.019 A 
ATOM     26  O22 ZIN A   1      19.113  -1.484  16.700  0.00  0.00    -0.212 OA
ATOM     27  C24 ZIN A   1      19.201   0.527  18.207  0.00  0.00     0.082 A 
ATOM     28  N21 ZIN A   1      18.988  -1.635  15.301  0.00  0.00    -0.131 NA
ATOM     29  C25 ZIN A   1      19.165   1.908  18.199  0.00  0.00     0.119 A 
ATOM     30  F26 ZIN A   1      19.255   2.586  19.364  0.00  0.00    -0.206 F 
ATOM     31  C27 ZIN A   1      19.040   2.604  17.003  0.00  0.00     0.043 A 
ENDBRANCH   4  22
TORSDOF 8
ENDMDL
