MODEL 1
REMARK VINA RESULT:      -7.8      0.000      0.000
REMARK  13 active torsions:
REMARK  status: ('A' for Active; 'I' for Inactive)
REMARK    1  A    between atoms: O2_2  and  C3_3 
REMARK    2  A    between atoms: C6_6  and  C7_7 
REMARK    3  A    between atoms: C7_7  and  C8_8 
REMARK    4  A    between atoms: C8_8  and  N9_9 
REMARK    5  A    between atoms: N9_9  and  C12_12 
REMARK    6  A    between atoms: C12_12  and  C13_13 
REMARK    7  A    between atoms: C13_13  and  C14_14 
REMARK    8  A    between atoms: C14_14  and  C15_15 
REMARK    9  A    between atoms: C15_15  and  C18_18 
REMARK   10  A    between atoms: C15_15  and  C28_28 
REMARK   11  A    between atoms: C21_21  and  O22_22 
REMARK   12  A    between atoms: C24_24  and  O25_25 
REMARK   13  A    between atoms: C32_32  and  O33_33 
ROOT
ATOM      1  C15 ZIN A   1      18.559  -1.080  12.699  0.00  0.00     0.079 C 
ATOM      2  C16 ZIN A   1      17.315  -0.543  12.122  0.00  0.00     0.074 C 
ATOM      3  N17 ZIN A   1      16.356  -0.129  11.677  0.00  0.00    -0.196 NA
ENDROOT
BRANCH   1   4
ATOM      4  C14 ZIN A   1      19.756  -0.571  11.894  0.00  0.00     0.032 C 
BRANCH   4   5
ATOM      5  C13 ZIN A   1      19.271  -0.030  10.547  0.00  0.00     0.030 C 
BRANCH   5   6
ATOM      6  C12 ZIN A   1      19.362   1.497  10.548  0.00  0.00     0.234 C 
BRANCH   6   7
ATOM      7  N9  ZIN A   1      18.656   2.031   9.376  0.00  0.00    -0.075 N 
ATOM      8  H10 ZIN A   1      17.779   1.546   9.261  0.00  0.00     0.279 HD
ATOM      9  C11 ZIN A   1      18.401   3.464   9.569  0.00  0.00     0.269 C 
BRANCH   7  10
ATOM     10  C8  ZIN A   1      19.481   1.838   8.176  0.00  0.00     0.239 C 
BRANCH  10  11
ATOM     11  C7  ZIN A   1      18.578   1.723   6.947  0.00  0.00     0.066 C 
BRANCH  11  12
ATOM     12  C6  ZIN A   1      18.709   0.345   6.353  0.00  0.00    -0.054 A 
ATOM     13  C5  ZIN A   1      19.115   0.197   5.040  0.00  0.00     0.010 A 
ATOM     14  C4  ZIN A   1      19.238  -1.066   4.489  0.00  0.00     0.040 A 
ATOM     15  C3  ZIN A   1      18.955  -2.186   5.254  0.00  0.00     0.101 A 
ATOM     16  C32 ZIN A   1      18.541  -2.036   6.576  0.00  0.00     0.102 A 
ATOM     17  C31 ZIN A   1      18.425  -0.768   7.121  0.00  0.00     0.046 A 
BRANCH  15  18
ATOM     18  O2  ZIN A   1      19.076  -3.428   4.715  0.00  0.00    -0.353 OA
ATOM     19  C1  ZIN A   1      18.002  -3.884   3.888  0.00  0.00     0.210 C 
ENDBRANCH  15  18
BRANCH  16  20
ATOM     20  O33 ZIN A   1      18.261  -3.132   7.330  0.00  0.00    -0.353 OA
ATOM     21  C34 ZIN A   1      18.979  -3.275   8.557  0.00  0.00     0.210 C 
ENDBRANCH  16  20
ENDBRANCH  11  12
ENDBRANCH  10  11
ENDBRANCH   7  10
ENDBRANCH   6   7
ENDBRANCH   5   6
ENDBRANCH   4   5
ENDBRANCH   1   4
BRANCH   1  22
ATOM     22  C18 ZIN A   1      18.686  -0.625  14.130  0.00  0.00    -0.032 A 
ATOM     23  C27 ZIN A   1      19.055   0.678  14.410  0.00  0.00     0.048 A 
ATOM     24  C24 ZIN A   1      19.166   1.100  15.724  0.00  0.00     0.102 A 
ATOM     25  C21 ZIN A   1      18.918   0.206  16.762  0.00  0.00     0.101 A 
ATOM     26  C20 ZIN A   1      18.554  -1.100  16.475  0.00  0.00     0.040 A 
ATOM     27  C19 ZIN A   1      18.440  -1.513  15.161  0.00  0.00     0.012 A 
BRANCH  24  28
ATOM     28  O25 ZIN A   1      19.524   2.382  16.001  0.00  0.00    -0.353 OA
ATOM     29  C26 ZIN A   1      18.519   3.385  15.840  0.00  0.00     0.210 C 
ENDBRANCH  24  28
BRANCH  25  30
ATOM     30  O22 ZIN A   1      19.032   0.612  18.055  0.00  0.00    -0.353 OA
ATOM     31  C23 ZIN A   1      17.832   1.015  18.717  0.00  0.00     0.210 C 
ENDBRANCH  25  30
ENDBRANCH   1  22
BRANCH   1  32
ATOM     32  C28 ZIN A   1      18.525  -2.610  12.652  0.00  0.00     0.004 C 
ATOM     33  C29 ZIN A   1      17.392  -3.066  11.730  0.00  0.00     0.011 C 
ATOM     34  C30 ZIN A   1      19.859  -3.134  12.119  0.00  0.00     0.011 C 
ENDBRANCH   1  32
TORSDOF 13
ENDMDL
MODEL 2
REMARK VINA RESULT:      -7.6      1.732      8.732
REMARK  13 active torsions:
REMARK  status: ('A' for Active; 'I' for Inactive)
REMARK    1  A    between atoms: O2_2  and  C3_3 
REMARK    2  A    between atoms: C6_6  and  C7_7 
REMARK    3  A    between atoms: C7_7  and  C8_8 
REMARK    4  A    between atoms: C8_8  and  N9_9 
REMARK    5  A    between atoms: N9_9  and  C12_12 
REMARK    6  A    between atoms: C12_12  and  C13_13 
REMARK    7  A    between atoms: C13_13  and  C14_14 
REMARK    8  A    between atoms: C14_14  and  C15_15 
REMARK    9  A    between atoms: C15_15  and  C18_18 
REMARK   10  A    between atoms: C15_15  and  C28_28 
REMARK   11  A    between atoms: C21_21  and  O22_22 
REMARK   12  A    between atoms: C24_24  and  O25_25 
REMARK   13  A    between atoms: C32_32  and  O33_33 
ROOT
ATOM      1  C15 ZIN A   1      18.387  -0.378  10.083  0.00  0.00     0.079 C 
ATOM      2  C16 ZIN A   1      19.796  -0.284  10.501  0.00  0.00     0.074 C 
ATOM      3  N17 ZIN A   1      20.882  -0.212  10.825  0.00  0.00    -0.196 NA
ENDROOT
BRANCH   1   4
ATOM      4  C14 ZIN A   1      17.679   0.945  10.377  0.00  0.00     0.032 C 
BRANCH   4   5
ATOM      5  C13 ZIN A   1      18.713   2.068  10.470  0.00  0.00     0.030 C 
BRANCH   5   6
ATOM      6  C12 ZIN A   1      18.087   3.381   9.996  0.00  0.00     0.234 C 
BRANCH   6   7
ATOM      7  N9  ZIN A   1      18.416   4.452  10.945  0.00  0.00    -0.075 N 
ATOM      8  H10 ZIN A   1      18.983   5.148  10.485  0.00  0.00     0.279 HD
ATOM      9  C11 ZIN A   1      17.177   5.074  11.431  0.00  0.00     0.269 C 
BRANCH   7  10
ATOM     10  C8  ZIN A   1      19.158   3.889  12.081  0.00  0.00     0.239 C 
BRANCH  10  11
ATOM     11  C7  ZIN A   1      18.425   4.217  13.384  0.00  0.00     0.066 C 
BRANCH  11  12
ATOM     12  C6  ZIN A   1      18.604   3.084  14.359  0.00  0.00    -0.054 A 
ATOM     13  C5  ZIN A   1      18.283   1.793  13.983  0.00  0.00     0.010 A 
ATOM     14  C4  ZIN A   1      18.446   0.748  14.875  0.00  0.00     0.040 A 
ATOM     15  C3  ZIN A   1      18.930   0.995  16.149  0.00  0.00     0.101 A 
ATOM     16  C32 ZIN A   1      19.248   2.296  16.530  0.00  0.00     0.102 A 
ATOM     17  C31 ZIN A   1      19.087   3.336  15.630  0.00  0.00     0.046 A 
BRANCH  15  18
ATOM     18  O2  ZIN A   1      19.091  -0.031  17.027  0.00  0.00    -0.353 OA
ATOM     19  C1  ZIN A   1      18.319  -1.211  16.795  0.00  0.00     0.210 C 
ENDBRANCH  15  18
BRANCH  16  20
ATOM     20  O33 ZIN A   1      19.724   2.543  17.780  0.00  0.00    -0.353 OA
ATOM     21  C34 ZIN A   1      18.822   3.145  18.710  0.00  0.00     0.210 C 
ENDBRANCH  16  20
ENDBRANCH  11  12
ENDBRANCH  10  11
ENDBRANCH   7  10
ENDBRANCH   6   7
ENDBRANCH   5   6
ENDBRANCH   4   5
ENDBRANCH   1   4
BRANCH   1  22
ATOM     22  C18 ZIN A   1      18.322  -0.665   8.604  0.00  0.00    -0.032 A 
ATOM     23  C27 ZIN A   1      19.180  -1.592   8.043  0.00  0.00     0.048 A 
ATOM     24  C24 ZIN A   1      19.117  -1.862   6.685  0.00  0.00     0.102 A 
ATOM     25  C21 ZIN A   1      18.198  -1.187   5.887  0.00  0.00     0.101 A 
ATOM     26  C20 ZIN A   1      17.345  -0.255   6.455  0.00  0.00     0.040 A 
ATOM     27  C19 ZIN A   1      17.409   0.005   7.811  0.00  0.00     0.012 A 
BRANCH  24  28
ATOM     28  O25 ZIN A   1      19.957  -2.778   6.133  0.00  0.00    -0.353 OA
ATOM     29  C26 ZIN A   1      19.878  -4.114   6.633  0.00  0.00     0.210 C 
ENDBRANCH  24  28
BRANCH  25  30
ATOM     30  O22 ZIN A   1      18.136  -1.443   4.553  0.00  0.00    -0.353 OA
ATOM     31  C23 ZIN A   1      17.042  -2.239   4.094  0.00  0.00     0.210 C 
ENDBRANCH  25  30
ENDBRANCH   1  22
BRANCH   1  32
ATOM     32  C28 ZIN A   1      17.700  -1.508  10.852  0.00  0.00     0.004 C 
ATOM     33  C29 ZIN A   1      18.759  -2.451  11.427  0.00  0.00     0.011 C 
ATOM     34  C30 ZIN A   1      16.869  -0.918  11.992  0.00  0.00     0.011 C 
ENDBRANCH   1  32
TORSDOF 13
ENDMDL
MODEL 3
REMARK VINA RESULT:      -7.5      3.304      5.910
REMARK  13 active torsions:
REMARK  status: ('A' for Active; 'I' for Inactive)
REMARK    1  A    between atoms: O2_2  and  C3_3 
REMARK    2  A    between atoms: C6_6  and  C7_7 
REMARK    3  A    between atoms: C7_7  and  C8_8 
REMARK    4  A    between atoms: C8_8  and  N9_9 
REMARK    5  A    between atoms: N9_9  and  C12_12 
REMARK    6  A    between atoms: C12_12  and  C13_13 
REMARK    7  A    between atoms: C13_13  and  C14_14 
REMARK    8  A    between atoms: C14_14  and  C15_15 
REMARK    9  A    between atoms: C15_15  and  C18_18 
REMARK   10  A    between atoms: C15_15  and  C28_28 
REMARK   11  A    between atoms: C21_21  and  O22_22 
REMARK   12  A    between atoms: C24_24  and  O25_25 
REMARK   13  A    between atoms: C32_32  and  O33_33 
ROOT
ATOM      1  C15 ZIN A   1      18.081  -1.438  11.532  0.00  0.00     0.079 C 
ATOM      2  C16 ZIN A   1      17.552  -2.811  11.582  0.00  0.00     0.074 C 
ATOM      3  N17 ZIN A   1      17.144  -3.870  11.621  0.00  0.00    -0.196 NA
ENDROOT
BRANCH   1   4
ATOM      4  C14 ZIN A   1      17.239  -0.602  10.566  0.00  0.00     0.032 C 
BRANCH   4   5
ATOM      5  C13 ZIN A   1      17.674  -0.893   9.128  0.00  0.00     0.030 C 
BRANCH   5   6
ATOM      6  C12 ZIN A   1      17.622   0.398   8.308  0.00  0.00     0.234 C 
BRANCH   6   7
ATOM      7  N9  ZIN A   1      18.983   0.782   7.913  0.00  0.00    -0.075 N 
ATOM      8  H10 ZIN A   1      19.602  -0.008   8.023  0.00  0.00     0.279 HD
ATOM      9  C11 ZIN A   1      18.982   1.210   6.508  0.00  0.00     0.269 C 
BRANCH   7  10
ATOM     10  C8  ZIN A   1      19.446   1.888   8.761  0.00  0.00     0.239 C 
BRANCH  10  11
ATOM     11  C7  ZIN A   1      18.242   2.703   9.241  0.00  0.00     0.066 C 
BRANCH  11  12
ATOM     12  C6  ZIN A   1      18.525   3.256  10.613  0.00  0.00    -0.054 A 
ATOM     13  C5  ZIN A   1      19.812   3.231  11.114  0.00  0.00     0.010 A 
ATOM     14  C4  ZIN A   1      20.078   3.738  12.374  0.00  0.00     0.040 A 
ATOM     15  C3  ZIN A   1      19.052   4.272  13.135  0.00  0.00     0.101 A 
ATOM     16  C32 ZIN A   1      17.753   4.292  12.632  0.00  0.00     0.102 A 
ATOM     17  C31 ZIN A   1      17.496   3.787  11.368  0.00  0.00     0.046 A 
BRANCH  15  18
ATOM     18  O2  ZIN A   1      19.311   4.771  14.373  0.00  0.00    -0.353 OA
ATOM     19  C1  ZIN A   1      20.215   5.875  14.452  0.00  0.00     0.210 C 
ENDBRANCH  15  18
BRANCH  16  20
ATOM     20  O33 ZIN A   1      16.743   4.815  13.376  0.00  0.00    -0.353 OA
ATOM     21  C34 ZIN A   1      16.521   6.222  13.272  0.00  0.00     0.210 C 
ENDBRANCH  16  20
ENDBRANCH  11  12
ENDBRANCH  10  11
ENDBRANCH   7  10
ENDBRANCH   6   7
ENDBRANCH   5   6
ENDBRANCH   4   5
ENDBRANCH   1   4
BRANCH   1  22
ATOM     22  C18 ZIN A   1      18.021  -0.826  12.908  0.00  0.00    -0.032 A 
ATOM     23  C27 ZIN A   1      18.308  -1.598  14.019  0.00  0.00     0.048 A 
ATOM     24  C24 ZIN A   1      18.260  -1.037  15.285  0.00  0.00     0.102 A 
ATOM     25  C21 ZIN A   1      17.910   0.302  15.436  0.00  0.00     0.101 A 
ATOM     26  C20 ZIN A   1      17.617   1.068  14.319  0.00  0.00     0.040 A 
ATOM     27  C19 ZIN A   1      17.673   0.503  13.059  0.00  0.00     0.012 A 
BRANCH  24  28
ATOM     28  O25 ZIN A   1      18.548  -1.794  16.377  0.00  0.00    -0.353 OA
ATOM     29  C26 ZIN A   1      19.692  -1.415  17.145  0.00  0.00     0.210 C 
ENDBRANCH  24  28
BRANCH  25  30
ATOM     30  O22 ZIN A   1      17.855   0.857  16.676  0.00  0.00    -0.353 OA
ATOM     31  C23 ZIN A   1      18.528   2.103  16.860  0.00  0.00     0.210 C 
ENDBRANCH  25  30
ENDBRANCH   1  22
BRANCH   1  32
ATOM     32  C28 ZIN A   1      19.533  -1.467  11.050  0.00  0.00     0.004 C 
ATOM     33  C29 ZIN A   1      20.297  -0.291  11.661  0.00  0.00     0.011 C 
ATOM     34  C30 ZIN A   1      20.187  -2.781  11.482  0.00  0.00     0.011 C 
ENDBRANCH   1  32
TORSDOF 13
ENDMDL
MODEL 4
REMARK VINA RESULT:      -7.4      3.856      6.660
REMARK  13 active torsions:
REMARK  status: ('A' for Active; 'I' for Inactive)
REMARK    1  A    between atoms: O2_2  and  C3_3 
REMARK    2  A    between atoms: C6_6  and  C7_7 
REMARK    3  A    between atoms: C7_7  and  C8_8 
REMARK    4  A    between atoms: C8_8  and  N9_9 
REMARK    5  A    between atoms: N9_9  and  C12_12 
REMARK    6  A    between atoms: C12_12  and  C13_13 
REMARK    7  A    between atoms: C13_13  and  C14_14 
REMARK    8  A    between atoms: C14_14  and  C15_15 
REMARK    9  A    between atoms: C15_15  and  C18_18 
REMARK   10  A    between atoms: C15_15  and  C28_28 
REMARK   11  A    between atoms: C21_21  and  O22_22 
REMARK   12  A    between atoms: C24_24  and  O25_25 
REMARK   13  A    between atoms: C32_32  and  O33_33 
ROOT
ATOM      1  C15 ZIN A   1      18.398  -0.996  12.646  0.00  0.00     0.079 C 
ATOM      2  C16 ZIN A   1      17.126  -0.447  12.147  0.00  0.00     0.074 C 
ATOM      3  N17 ZIN A   1      16.145  -0.024  11.762  0.00  0.00    -0.196 NA
ENDROOT
BRANCH   1   4
ATOM      4  C14 ZIN A   1      19.557  -0.412  11.838  0.00  0.00     0.032 C 
BRANCH   4   5
ATOM      5  C13 ZIN A   1      19.011   0.566  10.796  0.00  0.00     0.030 C 
BRANCH   5   6
ATOM      6  C12 ZIN A   1      19.563   1.966  11.070  0.00  0.00     0.234 C 
BRANCH   6   7
ATOM      7  N9  ZIN A   1      18.933   2.929  10.158  0.00  0.00    -0.075 N 
ATOM      8  H10 ZIN A   1      19.446   3.797  10.178  0.00  0.00     0.279 HD
ATOM      9  C11 ZIN A   1      18.940   2.387   8.793  0.00  0.00     0.269 C 
BRANCH   7  10
ATOM     10  C8  ZIN A   1      17.547   3.170  10.581  0.00  0.00     0.239 C 
BRANCH  10  11
ATOM     11  C7  ZIN A   1      17.317   4.674  10.747  0.00  0.00     0.066 C 
BRANCH  11  12
ATOM     12  C6  ZIN A   1      17.441   5.044  12.201  0.00  0.00    -0.054 A 
ATOM     13  C5  ZIN A   1      18.691   5.143  12.784  0.00  0.00     0.010 A 
ATOM     14  C4  ZIN A   1      18.811   5.483  14.119  0.00  0.00     0.040 A 
ATOM     15  C3  ZIN A   1      17.676   5.725  14.876  0.00  0.00     0.101 A 
ATOM     16  C32 ZIN A   1      16.417   5.620  14.291  0.00  0.00     0.102 A 
ATOM     17  C31 ZIN A   1      16.305   5.283  12.952  0.00  0.00     0.046 A 
BRANCH  15  18
ATOM     18  O2  ZIN A   1      17.792   6.059  16.189  0.00  0.00    -0.353 OA
ATOM     19  C1  ZIN A   1      19.107   6.334  16.676  0.00  0.00     0.210 C 
ENDBRANCH  15  18
BRANCH  16  20
ATOM     20  O33 ZIN A   1      15.300   5.855  15.031  0.00  0.00    -0.353 OA
ATOM     21  C34 ZIN A   1      14.079   6.053  14.317  0.00  0.00     0.210 C 
ENDBRANCH  16  20
ENDBRANCH  11  12
ENDBRANCH  10  11
ENDBRANCH   7  10
ENDBRANCH   6   7
ENDBRANCH   5   6
ENDBRANCH   4   5
ENDBRANCH   1   4
BRANCH   1  22
ATOM     22  C18 ZIN A   1      18.566  -0.633  14.099  0.00  0.00    -0.032 A 
ATOM     23  C27 ZIN A   1      18.454   0.686  14.498  0.00  0.00     0.048 A 
ATOM     24  C24 ZIN A   1      18.601   1.022  15.834  0.00  0.00     0.102 A 
ATOM     25  C21 ZIN A   1      18.875   0.029  16.771  0.00  0.00     0.101 A 
ATOM     26  C20 ZIN A   1      18.991  -1.290  16.364  0.00  0.00     0.040 A 
ATOM     27  C19 ZIN A   1      18.837  -1.618  15.031  0.00  0.00     0.012 A 
BRANCH  24  28
ATOM     28  O25 ZIN A   1      18.486   2.318  16.229  0.00  0.00    -0.353 OA
ATOM     29  C26 ZIN A   1      19.696   3.007  16.552  0.00  0.00     0.210 C 
ENDBRANCH  24  28
BRANCH  25  30
ATOM     30  O22 ZIN A   1      19.027   0.353  18.083  0.00  0.00    -0.353 OA
ATOM     31  C23 ZIN A   1      17.839   0.631  18.826  0.00  0.00     0.210 C 
ENDBRANCH  25  30
ENDBRANCH   1  22
BRANCH   1  32
ATOM     32  C28 ZIN A   1      18.389  -2.519  12.500  0.00  0.00     0.004 C 
ATOM     33  C29 ZIN A   1      17.305  -2.929  11.501  0.00  0.00     0.011 C 
ATOM     34  C30 ZIN A   1      19.754  -2.992  11.995  0.00  0.00     0.011 C 
ENDBRANCH   1  32
TORSDOF 13
ENDMDL
MODEL 5
REMARK VINA RESULT:      -7.3      2.746      5.683
REMARK  13 active torsions:
REMARK  status: ('A' for Active; 'I' for Inactive)
REMARK    1  A    between atoms: O2_2  and  C3_3 
REMARK    2  A    between atoms: C6_6  and  C7_7 
REMARK    3  A    between atoms: C7_7  and  C8_8 
REMARK    4  A    between atoms: C8_8  and  N9_9 
REMARK    5  A    between atoms: N9_9  and  C12_12 
REMARK    6  A    between atoms: C12_12  and  C13_13 
REMARK    7  A    between atoms: C13_13  and  C14_14 
REMARK    8  A    between atoms: C14_14  and  C15_15 
REMARK    9  A    between atoms: C15_15  and  C18_18 
REMARK   10  A    between atoms: C15_15  and  C28_28 
REMARK   11  A    between atoms: C21_21  and  O22_22 
REMARK   12  A    between atoms: C24_24  and  O25_25 
REMARK   13  A    between atoms: C32_32  and  O33_33 
ROOT
ATOM      1  C15 ZIN A   1      18.185   3.271  12.131  0.00  0.00     0.079 C 
ATOM      2  C16 ZIN A   1      19.629   3.146  11.874  0.00  0.00     0.074 C 
ATOM      3  N17 ZIN A   1      20.743   3.049  11.675  0.00  0.00    -0.196 NA
ENDROOT
BRANCH   1   4
ATOM      4  C14 ZIN A   1      17.689   2.028  12.872  0.00  0.00     0.032 C 
BRANCH   4   5
ATOM      5  C13 ZIN A   1      18.538   1.810  14.126  0.00  0.00     0.030 C 
BRANCH   5   6
ATOM      6  C12 ZIN A   1      17.908   0.712  14.984  0.00  0.00     0.234 C 
BRANCH   6   7
ATOM      7  N9  ZIN A   1      18.951  -0.223  15.428  0.00  0.00    -0.075 N 
ATOM      8  H10 ZIN A   1      19.637   0.274  15.976  0.00  0.00     0.279 HD
ATOM      9  C11 ZIN A   1      18.344  -1.281  16.245  0.00  0.00     0.269 C 
BRANCH   7  10
ATOM     10  C8  ZIN A   1      19.602  -0.822  14.256  0.00  0.00     0.239 C 
BRANCH  10  11
ATOM     11  C7  ZIN A   1      18.595  -1.690  13.499  0.00  0.00     0.066 C 
BRANCH  11  12
ATOM     12  C6  ZIN A   1      18.845  -1.575  12.018  0.00  0.00    -0.054 A 
ATOM     13  C5  ZIN A   1      19.785  -0.679  11.546  0.00  0.00     0.010 A 
ATOM     14  C4  ZIN A   1      20.019  -0.569  10.186  0.00  0.00     0.040 A 
ATOM     15  C3  ZIN A   1      19.311  -1.360   9.296  0.00  0.00     0.101 A 
ATOM     16  C32 ZIN A   1      18.361  -2.259   9.772  0.00  0.00     0.102 A 
ATOM     17  C31 ZIN A   1      18.135  -2.366  11.134  0.00  0.00     0.046 A 
BRANCH  15  18
ATOM     18  O2  ZIN A   1      19.541  -1.254   7.960  0.00  0.00    -0.353 OA
ATOM     19  C1  ZIN A   1      18.934  -0.151   7.283  0.00  0.00     0.210 C 
ENDBRANCH  15  18
BRANCH  16  20
ATOM     20  O33 ZIN A   1      17.663  -3.037   8.902  0.00  0.00    -0.353 OA
ATOM     21  C34 ZIN A   1      17.310  -4.349   9.343  0.00  0.00     0.210 C 
ENDBRANCH  16  20
ENDBRANCH  11  12
ENDBRANCH  10  11
ENDBRANCH   7  10
ENDBRANCH   6   7
ENDBRANCH   5   6
ENDBRANCH   4   5
ENDBRANCH   1   4
BRANCH   1  22
ATOM     22  C18 ZIN A   1      17.929   4.494  12.974  0.00  0.00    -0.032 A 
ATOM     23  C27 ZIN A   1      18.970   5.083  13.669  0.00  0.00     0.048 A 
ATOM     24  C24 ZIN A   1      18.739   6.210  14.439  0.00  0.00     0.102 A 
ATOM     25  C21 ZIN A   1      17.455   6.741  14.523  0.00  0.00     0.101 A 
ATOM     26  C20 ZIN A   1      16.415   6.143  13.829  0.00  0.00     0.040 A 
ATOM     27  C19 ZIN A   1      16.654   5.021  13.057  0.00  0.00     0.012 A 
BRANCH  24  28
ATOM     28  O25 ZIN A   1      19.763   6.794  15.119  0.00  0.00    -0.353 OA
ATOM     29  C26 ZIN A   1      20.898   5.976  15.408  0.00  0.00     0.210 C 
ENDBRANCH  24  28
BRANCH  25  30
ATOM     30  O22 ZIN A   1      17.220   7.844  15.283  0.00  0.00    -0.353 OA
ATOM     31  C23 ZIN A   1      16.169   7.758  16.246  0.00  0.00     0.210 C 
ENDBRANCH  25  30
ENDBRANCH   1  22
BRANCH   1  32
ATOM     32  C28 ZIN A   1      17.439   3.404  10.801  0.00  0.00     0.004 C 
ATOM     33  C29 ZIN A   1      17.944   4.642  10.056  0.00  0.00     0.011 C 
ATOM     34  C30 ZIN A   1      17.688   2.159   9.949  0.00  0.00     0.011 C 
ENDBRANCH   1  32
TORSDOF 13
ENDMDL
MODEL 6
REMARK VINA RESULT:      -7.3      2.198      3.446
REMARK  13 active torsions:
REMARK  status: ('A' for Active; 'I' for Inactive)
REMARK    1  A    between atoms: O2_2  and  C3_3 
REMARK    2  A    between atoms: C6_6  and  C7_7 
REMARK    3  A    between atoms: C7_7  and  C8_8 
REMARK    4  A    between atoms: C8_8  and  N9_9 
REMARK    5  A    between atoms: N9_9  and  C12_12 
REMARK    6  A    between atoms: C12_12  and  C13_13 
REMARK    7  A    between atoms: C13_13  and  C14_14 
REMARK    8  A    between atoms: C14_14  and  C15_15 
REMARK    9  A    between atoms: C15_15  and  C18_18 
REMARK   10  A    between atoms: C15_15  and  C28_28 
REMARK   11  A    between atoms: C21_21  and  O22_22 
REMARK   12  A    between atoms: C24_24  and  O25_25 
REMARK   13  A    between atoms: C32_32  and  O33_33 
ROOT
ATOM      1  C15 ZIN A   1      18.467  -0.956  12.508  0.00  0.00     0.079 C 
ATOM      2  C16 ZIN A   1      17.201  -0.419  11.983  0.00  0.00     0.074 C 
ATOM      3  N17 ZIN A   1      16.224  -0.005  11.577  0.00  0.00    -0.196 NA
ENDROOT
BRANCH   1   4
ATOM      4  C14 ZIN A   1      19.628  -0.462  11.644  0.00  0.00     0.032 C 
BRANCH   4   5
ATOM      5  C13 ZIN A   1      19.076   0.214  10.387  0.00  0.00     0.030 C 
BRANCH   5   6
ATOM      6  C12 ZIN A   1      19.516  -0.571   9.150  0.00  0.00     0.234 C 
BRANCH   6   7
ATOM      7  N9  ZIN A   1      18.388  -1.363   8.645  0.00  0.00    -0.075 N 
ATOM      8  H10 ZIN A   1      17.939  -1.839   9.413  0.00  0.00     0.279 HD
ATOM      9  C11 ZIN A   1      17.420  -0.474   7.988  0.00  0.00     0.269 C 
BRANCH   7  10
ATOM     10  C8  ZIN A   1      18.878  -2.353   7.677  0.00  0.00     0.239 C 
BRANCH  10  11
ATOM     11  C7  ZIN A   1      18.986  -3.721   8.355  0.00  0.00     0.066 C 
BRANCH  11  12
ATOM     12  C6  ZIN A   1      17.890  -4.621   7.848  0.00  0.00    -0.054 A 
ATOM     13  C5  ZIN A   1      16.977  -5.161   8.734  0.00  0.00     0.010 A 
ATOM     14  C4  ZIN A   1      15.968  -5.988   8.275  0.00  0.00     0.040 A 
ATOM     15  C3  ZIN A   1      15.871  -6.277   6.924  0.00  0.00     0.101 A 
ATOM     16  C32 ZIN A   1      16.794  -5.737   6.032  0.00  0.00     0.102 A 
ATOM     17  C31 ZIN A   1      17.799  -4.906   6.499  0.00  0.00     0.046 A 
BRANCH  15  18
ATOM     18  O2  ZIN A   1      14.880  -7.089   6.470  0.00  0.00    -0.353 OA
ATOM     19  C1  ZIN A   1      13.618  -6.480   6.189  0.00  0.00     0.210 C 
ENDBRANCH  15  18
BRANCH  16  20
ATOM     20  O33 ZIN A   1      16.703  -6.018   4.705  0.00  0.00    -0.353 OA
ATOM     21  C34 ZIN A   1      16.242  -4.970   3.849  0.00  0.00     0.210 C 
ENDBRANCH  16  20
ENDBRANCH  11  12
ENDBRANCH  10  11
ENDBRANCH   7  10
ENDBRANCH   6   7
ENDBRANCH   5   6
ENDBRANCH   4   5
ENDBRANCH   1   4
BRANCH   1  22
ATOM     22  C18 ZIN A   1      18.661  -0.485  13.927  0.00  0.00    -0.032 A 
ATOM     23  C27 ZIN A   1      19.013   0.829  14.175  0.00  0.00     0.048 A 
ATOM     24  C24 ZIN A   1      19.186   1.266  15.479  0.00  0.00     0.102 A 
ATOM     25  C21 ZIN A   1      19.018   0.376  16.535  0.00  0.00     0.101 A 
ATOM     26  C20 ZIN A   1      18.671  -0.941  16.280  0.00  0.00     0.040 A 
ATOM     27  C19 ZIN A   1      18.494  -1.368  14.977  0.00  0.00     0.012 A 
BRANCH  24  28
ATOM     28  O25 ZIN A   1      19.527   2.560  15.725  0.00  0.00    -0.353 OA
ATOM     29  C26 ZIN A   1      18.461   3.509  15.792  0.00  0.00     0.210 C 
ENDBRANCH  24  28
BRANCH  25  30
ATOM     30  O22 ZIN A   1      19.192   0.797  17.817  0.00  0.00    -0.353 OA
ATOM     31  C23 ZIN A   1      18.061   0.719  18.686  0.00  0.00     0.210 C 
ENDBRANCH  25  30
ENDBRANCH   1  22
BRANCH   1  32
ATOM     32  C28 ZIN A   1      18.424  -2.485  12.481  0.00  0.00     0.004 C 
ATOM     33  C29 ZIN A   1      17.312  -2.947  11.537  0.00  0.00     0.011 C 
ATOM     34  C30 ZIN A   1      19.768  -3.026  11.990  0.00  0.00     0.011 C 
ENDBRANCH   1  32
TORSDOF 13
ENDMDL
MODEL 7
REMARK VINA RESULT:      -7.3      2.780      8.514
REMARK  13 active torsions:
REMARK  status: ('A' for Active; 'I' for Inactive)
REMARK    1  A    between atoms: O2_2  and  C3_3 
REMARK    2  A    between atoms: C6_6  and  C7_7 
REMARK    3  A    between atoms: C7_7  and  C8_8 
REMARK    4  A    between atoms: C8_8  and  N9_9 
REMARK    5  A    between atoms: N9_9  and  C12_12 
REMARK    6  A    between atoms: C12_12  and  C13_13 
REMARK    7  A    between atoms: C13_13  and  C14_14 
REMARK    8  A    between atoms: C14_14  and  C15_15 
REMARK    9  A    between atoms: C15_15  and  C18_18 
REMARK   10  A    between atoms: C15_15  and  C28_28 
REMARK   11  A    between atoms: C21_21  and  O22_22 
REMARK   12  A    between atoms: C24_24  and  O25_25 
REMARK   13  A    between atoms: C32_32  and  O33_33 
ROOT
ATOM      1  C15 ZIN A   1      18.408  -3.886  10.506  0.00  0.00     0.079 C 
ATOM      2  C16 ZIN A   1      19.668  -3.918  11.267  0.00  0.00     0.074 C 
ATOM      3  N17 ZIN A   1      20.639  -3.944  11.854  0.00  0.00    -0.196 NA
ENDROOT
BRANCH   1   4
ATOM      4  C14 ZIN A   1      17.499  -2.793  11.070  0.00  0.00     0.032 C 
BRANCH   4   5
ATOM      5  C13 ZIN A   1      18.339  -1.793  11.867  0.00  0.00     0.030 C 
BRANCH   5   6
ATOM      6  C12 ZIN A   1      18.042  -0.373  11.381  0.00  0.00     0.234 C 
BRANCH   6   7
ATOM      7  N9  ZIN A   1      19.283   0.411  11.369  0.00  0.00    -0.075 N 
ATOM      8  H10 ZIN A   1      19.572   0.598  12.318  0.00  0.00     0.279 HD
ATOM      9  C11 ZIN A   1      20.334  -0.346  10.677  0.00  0.00     0.269 C 
BRANCH   7  10
ATOM     10  C8  ZIN A   1      19.053   1.681  10.668  0.00  0.00     0.239 C 
BRANCH  10  11
ATOM     11  C7  ZIN A   1      19.844   2.796  11.358  0.00  0.00     0.066 C 
BRANCH  11  12
ATOM     12  C6  ZIN A   1      18.888   3.784  11.972  0.00  0.00    -0.054 A 
ATOM     13  C5  ZIN A   1      17.642   3.980  11.407  0.00  0.00     0.010 A 
ATOM     14  C4  ZIN A   1      16.759   4.886  11.967  0.00  0.00     0.040 A 
ATOM     15  C3  ZIN A   1      17.123   5.599  13.097  0.00  0.00     0.101 A 
ATOM     16  C32 ZIN A   1      18.380   5.405  13.664  0.00  0.00     0.102 A 
ATOM     17  C31 ZIN A   1      19.257   4.493  13.100  0.00  0.00     0.046 A 
BRANCH  15  18
ATOM     18  O2  ZIN A   1      16.257   6.490  13.649  0.00  0.00    -0.353 OA
ATOM     19  C1  ZIN A   1      15.260   5.966  14.528  0.00  0.00     0.210 C 
ENDBRANCH  15  18
BRANCH  16  20
ATOM     20  O33 ZIN A   1      18.743   6.103  14.773  0.00  0.00    -0.353 OA
ATOM     21  C34 ZIN A   1      19.929   5.680  15.448  0.00  0.00     0.210 C 
ENDBRANCH  16  20
ENDBRANCH  11  12
ENDBRANCH  10  11
ENDBRANCH   7  10
ENDBRANCH   6   7
ENDBRANCH   5   6
ENDBRANCH   4   5
ENDBRANCH   1   4
BRANCH   1  22
ATOM     22  C18 ZIN A   1      18.705  -3.595   9.057  0.00  0.00    -0.032 A 
ATOM     23  C27 ZIN A   1      18.236  -2.430   8.477  0.00  0.00     0.048 A 
ATOM     24  C24 ZIN A   1      18.512  -2.157   7.147  0.00  0.00     0.102 A 
ATOM     25  C21 ZIN A   1      19.252  -3.064   6.394  0.00  0.00     0.101 A 
ATOM     26  C20 ZIN A   1      19.715  -4.232   6.979  0.00  0.00     0.040 A 
ATOM     27  C19 ZIN A   1      19.439  -4.495   8.308  0.00  0.00     0.012 A 
BRANCH  24  28
ATOM     28  O25 ZIN A   1      18.056  -1.010   6.577  0.00  0.00    -0.353 OA
ATOM     29  C26 ZIN A   1      18.704   0.205   6.958  0.00  0.00     0.210 C 
ENDBRANCH  24  28
BRANCH  25  30
ATOM     30  O22 ZIN A   1      19.522  -2.805   5.086  0.00  0.00    -0.353 OA
ATOM     31  C23 ZIN A   1      18.613  -3.332   4.119  0.00  0.00     0.210 C 
ENDBRANCH  25  30
ENDBRANCH   1  22
BRANCH   1  32
ATOM     32  C28 ZIN A   1      17.707  -5.242  10.619  0.00  0.00     0.004 C 
ATOM     33  C29 ZIN A   1      17.485  -5.578  12.095  0.00  0.00     0.011 C 
ATOM     34  C30 ZIN A   1      16.359  -5.182   9.900  0.00  0.00     0.011 C 
ENDBRANCH   1  32
TORSDOF 13
ENDMDL
MODEL 8
REMARK VINA RESULT:      -7.2      3.519      8.259
REMARK  13 active torsions:
REMARK  status: ('A' for Active; 'I' for Inactive)
REMARK    1  A    between atoms: O2_2  and  C3_3 
REMARK    2  A    between atoms: C6_6  and  C7_7 
REMARK    3  A    between atoms: C7_7  and  C8_8 
REMARK    4  A    between atoms: C8_8  and  N9_9 
REMARK    5  A    between atoms: N9_9  and  C12_12 
REMARK    6  A    between atoms: C12_12  and  C13_13 
REMARK    7  A    between atoms: C13_13  and  C14_14 
REMARK    8  A    between atoms: C14_14  and  C15_15 
REMARK    9  A    between atoms: C15_15  and  C18_18 
REMARK   10  A    between atoms: C15_15  and  C28_28 
REMARK   11  A    between atoms: C21_21  and  O22_22 
REMARK   12  A    between atoms: C24_24  and  O25_25 
REMARK   13  A    between atoms: C32_32  and  O33_33 
ROOT
ATOM      1  C15 ZIN A   1      17.831  -4.406   9.710  0.00  0.00     0.079 C 
ATOM      2  C16 ZIN A   1      19.235  -4.760   9.979  0.00  0.00     0.074 C 
ATOM      3  N17 ZIN A   1      20.317  -5.034  10.187  0.00  0.00    -0.196 NA
ENDROOT
BRANCH   1   4
ATOM      4  C14 ZIN A   1      17.778  -3.085   8.940  0.00  0.00     0.032 C 
BRANCH   4   5
ATOM      5  C13 ZIN A   1      18.920  -3.040   7.924  0.00  0.00     0.030 C 
BRANCH   5   6
ATOM      6  C12 ZIN A   1      18.437  -2.361   6.641  0.00  0.00     0.234 C 
BRANCH   6   7
ATOM      7  N9  ZIN A   1      19.149  -1.090   6.461  0.00  0.00    -0.075 N 
ATOM      8  H10 ZIN A   1      20.024  -1.120   6.963  0.00  0.00     0.279 HD
ATOM      9  C11 ZIN A   1      19.412  -0.873   5.032  0.00  0.00     0.269 C 
BRANCH   7  10
ATOM     10  C8  ZIN A   1      18.326   0.011   6.980  0.00  0.00     0.239 C 
BRANCH  10  11
ATOM     11  C7  ZIN A   1      19.227   1.052   7.648  0.00  0.00     0.066 C 
BRANCH  11  12
ATOM     12  C6  ZIN A   1      18.880   1.153   9.110  0.00  0.00    -0.054 A 
ATOM     13  C5  ZIN A   1      19.344   0.199   9.996  0.00  0.00     0.010 A 
ATOM     14  C4  ZIN A   1      19.028   0.286  11.340  0.00  0.00     0.040 A 
ATOM     15  C3  ZIN A   1      18.245   1.332  11.801  0.00  0.00     0.101 A 
ATOM     16  C32 ZIN A   1      17.773   2.290  10.907  0.00  0.00     0.102 A 
ATOM     17  C31 ZIN A   1      18.097   2.198   9.564  0.00  0.00     0.046 A 
BRANCH  15  18
ATOM     18  O2  ZIN A   1      17.933   1.420  13.121  0.00  0.00    -0.353 OA
ATOM     19  C1  ZIN A   1      18.926   1.975  13.987  0.00  0.00     0.210 C 
ENDBRANCH  15  18
BRANCH  16  20
ATOM     20  O33 ZIN A   1      17.003   3.318  11.354  0.00  0.00    -0.353 OA
ATOM     21  C34 ZIN A   1      17.591   4.620  11.345  0.00  0.00     0.210 C 
ENDBRANCH  16  20
ENDBRANCH  11  12
ENDBRANCH  10  11
ENDBRANCH   7  10
ENDBRANCH   6   7
ENDBRANCH   5   6
ENDBRANCH   4   5
ENDBRANCH   1   4
BRANCH   1  22
ATOM     22  C18 ZIN A   1      17.188  -5.493   8.887  0.00  0.00    -0.032 A 
ATOM     23  C27 ZIN A   1      15.886  -5.346   8.447  0.00  0.00     0.048 A 
ATOM     24  C24 ZIN A   1      15.295  -6.341   7.685  0.00  0.00     0.102 A 
ATOM     25  C21 ZIN A   1      16.011  -7.493   7.375  0.00  0.00     0.101 A 
ATOM     26  C20 ZIN A   1      17.314  -7.637   7.824  0.00  0.00     0.040 A 
ATOM     27  C19 ZIN A   1      17.899  -6.638   8.579  0.00  0.00     0.012 A 
BRANCH  24  28
ATOM     28  O25 ZIN A   1      14.015  -6.195   7.247  0.00  0.00    -0.353 OA
ATOM     29  C26 ZIN A   1      12.977  -6.355   8.216  0.00  0.00     0.210 C 
ENDBRANCH  24  28
BRANCH  25  30
ATOM     30  O22 ZIN A   1      15.435  -8.477   6.633  0.00  0.00    -0.353 OA
ATOM     31  C23 ZIN A   1      14.982  -9.637   7.332  0.00  0.00     0.210 C 
ENDBRANCH  25  30
ENDBRANCH   1  22
BRANCH   1  32
ATOM     32  C28 ZIN A   1      17.079  -4.257  11.034  0.00  0.00     0.004 C 
ATOM     33  C29 ZIN A   1      17.411  -5.441  11.944  0.00  0.00     0.011 C 
ATOM     34  C30 ZIN A   1      17.500  -2.954  11.716  0.00  0.00     0.011 C 
ENDBRANCH   1  32
TORSDOF 13
ENDMDL
MODEL 9
REMARK VINA RESULT:      -7.2      2.253      4.887
REMARK  13 active torsions:
REMARK  status: ('A' for Active; 'I' for Inactive)
REMARK    1  A    between atoms: O2_2  and  C3_3 
REMARK    2  A    between atoms: C6_6  and  C7_7 
REMARK    3  A    between atoms: C7_7  and  C8_8 
REMARK    4  A    between atoms: C8_8  and  N9_9 
REMARK    5  A    between atoms: N9_9  and  C12_12 
REMARK    6  A    between atoms: C12_12  and  C13_13 
REMARK    7  A    between atoms: C13_13  and  C14_14 
REMARK    8  A    between atoms: C14_14  and  C15_15 
REMARK    9  A    between atoms: C15_15  and  C18_18 
REMARK   10  A    between atoms: C15_15  and  C28_28 
REMARK   11  A    between atoms: C21_21  and  O22_22 
REMARK   12  A    between atoms: C24_24  and  O25_25 
REMARK   13  A    between atoms: C32_32  and  O33_33 
ROOT
ATOM      1  C15 ZIN A   1      18.211   4.166  13.546  0.00  0.00     0.079 C 
ATOM      2  C16 ZIN A   1      19.387   5.026  13.759  0.00  0.00     0.074 C 
ATOM      3  N17 ZIN A   1      20.295   5.689  13.924  0.00  0.00    -0.196 NA
ENDROOT
BRANCH   1   4
ATOM      4  C14 ZIN A   1      18.169   3.713  12.086  0.00  0.00     0.032 C 
BRANCH   4   5
ATOM      5  C13 ZIN A   1      19.574   3.304  11.638  0.00  0.00     0.030 C 
BRANCH   5   6
ATOM      6  C12 ZIN A   1      19.481   2.487  10.348  0.00  0.00     0.234 C 
BRANCH   6   7
ATOM      7  N9  ZIN A   1      18.778   1.226  10.616  0.00  0.00    -0.075 N 
ATOM      8  H10 ZIN A   1      18.299   1.289  11.502  0.00  0.00     0.279 HD
ATOM      9  C11 ZIN A   1      17.800   0.975   9.548  0.00  0.00     0.269 C 
BRANCH   7  10
ATOM     10  C8  ZIN A   1      19.748   0.124  10.660  0.00  0.00     0.239 C 
BRANCH  10  11
ATOM     11  C7  ZIN A   1      19.388  -0.827  11.804  0.00  0.00     0.066 C 
BRANCH  11  12
ATOM     12  C6  ZIN A   1      18.803  -2.094  11.239  0.00  0.00    -0.054 A 
ATOM     13  C5  ZIN A   1      18.034  -2.916  12.042  0.00  0.00     0.010 A 
ATOM     14  C4  ZIN A   1      17.494  -4.081  11.528  0.00  0.00     0.040 A 
ATOM     15  C3  ZIN A   1      17.723  -4.427  10.207  0.00  0.00     0.101 A 
ATOM     16  C32 ZIN A   1      18.502  -3.601   9.400  0.00  0.00     0.102 A 
ATOM     17  C31 ZIN A   1      19.036  -2.434   9.920  0.00  0.00     0.046 A 
BRANCH  15  18
ATOM     18  O2  ZIN A   1      17.193  -5.571   9.700  0.00  0.00    -0.353 OA
ATOM     19  C1  ZIN A   1      15.902  -5.476   9.093  0.00  0.00     0.210 C 
ENDBRANCH  15  18
BRANCH  16  20
ATOM     20  O33 ZIN A   1      18.730  -3.937   8.102  0.00  0.00    -0.353 OA
ATOM     21  C34 ZIN A   1      19.289  -2.928   7.259  0.00  0.00     0.210 C 
ENDBRANCH  16  20
ENDBRANCH  11  12
ENDBRANCH  10  11
ENDBRANCH   7  10
ENDBRANCH   6   7
ENDBRANCH   5   6
ENDBRANCH   4   5
ENDBRANCH   1   4
BRANCH   1  22
ATOM     22  C18 ZIN A   1      18.303   2.959  14.445  0.00  0.00    -0.032 A 
ATOM     23  C27 ZIN A   1      18.955   3.052  15.660  0.00  0.00     0.048 A 
ATOM     24  C24 ZIN A   1      19.035   1.946  16.490  0.00  0.00     0.102 A 
ATOM     25  C21 ZIN A   1      18.468   0.738  16.091  0.00  0.00     0.101 A 
ATOM     26  C20 ZIN A   1      17.821   0.650  14.869  0.00  0.00     0.040 A 
ATOM     27  C19 ZIN A   1      17.740   1.760  14.049  0.00  0.00     0.012 A 
BRANCH  24  28
ATOM     28  O25 ZIN A   1      19.671   2.037  17.689  0.00  0.00    -0.353 OA
ATOM     29  C26 ZIN A   1      19.067   2.867  18.682  0.00  0.00     0.210 C 
ENDBRANCH  24  28
BRANCH  25  30
ATOM     30  O22 ZIN A   1      18.549  -0.353  16.899  0.00  0.00    -0.353 OA
ATOM     31  C23 ZIN A   1      18.168  -1.608  16.334  0.00  0.00     0.210 C 
ENDBRANCH  25  30
ENDBRANCH   1  22
BRANCH   1  32
ATOM     32  C28 ZIN A   1      16.939   4.951  13.875  0.00  0.00     0.004 C 
ATOM     33  C29 ZIN A   1      17.283   6.109  14.813  0.00  0.00     0.011 C 
ATOM     34  C30 ZIN A   1      16.331   5.502  12.584  0.00  0.00     0.011 C 
ENDBRANCH   1  32
TORSDOF 13
ENDMDL
