MODEL 1
REMARK VINA RESULT:      -7.6      0.000      0.000
REMARK  12 active torsions:
REMARK  status: ('A' for Active; 'I' for Inactive)
REMARK    1  A    between atoms: C2_2  and  C3_3 
REMARK    2  A    between atoms: C3_3  and  C4_4 
REMARK    3  A    between atoms: C4_4  and  C5_5 
REMARK    4  A    between atoms: C5_5  and  C6_6 
REMARK    5  A    between atoms: C6_6  and  C7_7 
REMARK    6  A    between atoms: C7_7  and  C8_8 
REMARK       I    between atoms: C8_8  and  N10_10 
REMARK    7  A    between atoms: N10_10  and  C11_11 
REMARK    8  A    between atoms: C11_11  and  C13_12 
REMARK    9  A    between atoms: C11_11  and  C20_19 
REMARK   10  A    between atoms: C13_12  and  N14_13 
REMARK   11  A    between atoms: C20_19  and  O22_20 
REMARK   12  A    between atoms: C20_19  and  C23_21 
ROOT
ATOM      1  C11 ZIN A   1      17.644   0.515   9.362  0.00  0.00     0.143 C 
ENDROOT
BRANCH   1   2
ATOM      2  N10 ZIN A   1      18.093  -0.624  10.166  0.00  0.00    -0.352 N 
ATOM      3  C8  ZIN A   1      17.401  -0.989  11.262  0.00  0.00     0.218 C 
ATOM      4  O9  ZIN A   1      16.448  -0.332  11.625  0.00  0.00    -0.274 OA
ATOM      5  H48 ZIN A   1      18.889  -1.114   9.909  0.00  0.00     0.163 HD
BRANCH   3   6
ATOM      6  C7  ZIN A   1      17.811  -2.214  12.038  0.00  0.00     0.103 C 
BRANCH   6   7
ATOM      7  C6  ZIN A   1      19.293  -2.113  12.405  0.00  0.00     0.009 C 
BRANCH   7   8
ATOM      8  C5  ZIN A   1      19.430  -1.546  13.820  0.00  0.00     0.000 C 
BRANCH   8   9
ATOM      9  C4  ZIN A   1      19.749  -0.052  13.741  0.00  0.00     0.000 C 
BRANCH   9  10
ATOM     10  C3  ZIN A   1      19.146   0.663  14.952  0.00  0.00    -0.000 C 
BRANCH  10  11
ATOM     11  C2  ZIN A   1      17.641   0.396  15.005  0.00  0.00    -0.005 C 
ATOM     12  C1  ZIN A   1      17.259  -0.096  16.402  0.00  0.00     0.005 C 
ENDBRANCH  10  11
ENDBRANCH   9  10
ENDBRANCH   8   9
ENDBRANCH   7   8
ENDBRANCH   6   7
ENDBRANCH   3   6
ENDBRANCH   1   2
BRANCH   1  13
ATOM     13  C13 ZIN A   1      17.241   0.030   7.968  0.00  0.00     0.262 C 
BRANCH  13  14
ATOM     14  N14 ZIN A   1      18.449  -0.243   7.177  0.00  0.00    -0.069 N 
ATOM     15  H15 ZIN A   1      19.274  -0.064   7.729  0.00  0.00     0.280 HD
ATOM     16  C19 ZIN A   1      18.459   0.593   5.957  0.00  0.00     0.235 C 
ATOM     17  C18 ZIN A   1      19.088  -0.255   4.835  0.00  0.00     0.029 C 
ATOM     18  C17 ZIN A   1      19.402  -1.621   5.488  0.00  0.00     0.029 C 
ATOM     19  C16 ZIN A   1      18.443  -1.651   6.704  0.00  0.00     0.235 C 
ENDBRANCH  13  14
ENDBRANCH   1  13
BRANCH   1  20
ATOM     20  C20 ZIN A   1      18.780   1.533   9.238  0.00  0.00     0.175 C 
BRANCH  20  21
ATOM     21  O22 ZIN A   1      20.036   0.855   9.308  0.00  0.00    -0.389 OA
ATOM     22  H59 ZIN A   1      20.054   0.010   8.838  0.00  0.00     0.210 HD
ENDBRANCH  20  21
BRANCH  20  23
ATOM     23  C23 ZIN A   1      18.685   2.531  10.362  0.00  0.00    -0.025 A 
ATOM     24  C32 ZIN A   1      17.515   3.240  10.559  0.00  0.00     0.049 A 
ATOM     25  C31 ZIN A   1      17.422   4.155  11.596  0.00  0.00     0.102 A 
ATOM     26  C26 ZIN A   1      18.512   4.364  12.433  0.00  0.00     0.102 A 
ATOM     27  O30 ZIN A   1      16.262   4.844  11.779  0.00  0.00    -0.346 OA
ATOM     28  C25 ZIN A   1      19.686   3.655  12.226  0.00  0.00     0.040 A 
ATOM     29  O27 ZIN A   1      18.442   5.255  13.461  0.00  0.00    -0.346 OA
ATOM     30  C24 ZIN A   1      19.770   2.742  11.192  0.00  0.00     0.013 A 
ATOM     31  C28 ZIN A   1      17.380   6.213  13.408  0.00  0.00     0.202 C 
ATOM     32  C29 ZIN A   1      16.083   5.476  13.050  0.00  0.00     0.202 C 
ENDBRANCH  20  23
ENDBRANCH   1  20
TORSDOF 12
ENDMDL
MODEL 2
REMARK VINA RESULT:      -7.6      1.448      2.364
REMARK  12 active torsions:
REMARK  status: ('A' for Active; 'I' for Inactive)
REMARK    1  A    between atoms: C2_2  and  C3_3 
REMARK    2  A    between atoms: C3_3  and  C4_4 
REMARK    3  A    between atoms: C4_4  and  C5_5 
REMARK    4  A    between atoms: C5_5  and  C6_6 
REMARK    5  A    between atoms: C6_6  and  C7_7 
REMARK    6  A    between atoms: C7_7  and  C8_8 
REMARK       I    between atoms: C8_8  and  N10_10 
REMARK    7  A    between atoms: N10_10  and  C11_11 
REMARK    8  A    between atoms: C11_11  and  C13_12 
REMARK    9  A    between atoms: C11_11  and  C20_19 
REMARK   10  A    between atoms: C13_12  and  N14_13 
REMARK   11  A    between atoms: C20_19  and  O22_20 
REMARK   12  A    between atoms: C20_19  and  C23_21 
ROOT
ATOM      1  C11 ZIN A   1      18.850   1.511  10.204  0.00  0.00     0.143 C 
ENDROOT
BRANCH   1   2
ATOM      2  N10 ZIN A   1      18.776   0.531  11.290  0.00  0.00    -0.352 N 
ATOM      3  C8  ZIN A   1      17.578   0.077  11.707  0.00  0.00     0.218 C 
ATOM      4  O9  ZIN A   1      16.558   0.532  11.234  0.00  0.00    -0.274 OA
ATOM      5  H48 ZIN A   1      19.589   0.210  11.709  0.00  0.00     0.163 HD
BRANCH   3   6
ATOM      6  C7  ZIN A   1      17.504  -0.997  12.762  0.00  0.00     0.103 C 
BRANCH   6   7
ATOM      7  C6  ZIN A   1      17.964  -0.425  14.105  0.00  0.00     0.009 C 
BRANCH   7   8
ATOM      8  C5  ZIN A   1      18.891  -1.428  14.796  0.00  0.00     0.000 C 
BRANCH   8   9
ATOM      9  C4  ZIN A   1      18.628  -1.411  16.302  0.00  0.00     0.000 C 
BRANCH   9  10
ATOM     10  C3  ZIN A   1      17.453  -0.478  16.604  0.00  0.00    -0.000 C 
BRANCH  10  11
ATOM     11  C2  ZIN A   1      17.788   0.385  17.823  0.00  0.00    -0.005 C 
ATOM     12  C1  ZIN A   1      19.271   0.227  18.167  0.00  0.00     0.005 C 
ENDBRANCH  10  11
ENDBRANCH   9  10
ENDBRANCH   8   9
ENDBRANCH   7   8
ENDBRANCH   6   7
ENDBRANCH   3   6
ENDBRANCH   1   2
BRANCH   1  13
ATOM     13  C13 ZIN A   1      19.661   0.930   9.045  0.00  0.00     0.262 C 
BRANCH  13  14
ATOM     14  N14 ZIN A   1      18.746   0.441   8.004  0.00  0.00    -0.069 N 
ATOM     15  H15 ZIN A   1      17.792   0.487   8.330  0.00  0.00     0.280 HD
ATOM     16  C19 ZIN A   1      19.092  -0.949   7.633  0.00  0.00     0.235 C 
ATOM     17  C18 ZIN A   1      18.833  -1.089   6.121  0.00  0.00     0.029 C 
ATOM     18  C17 ZIN A   1      18.351   0.307   5.662  0.00  0.00     0.029 C 
ATOM     19  C16 ZIN A   1      18.905   1.244   6.765  0.00  0.00     0.235 C 
ENDBRANCH  13  14
ENDBRANCH   1  13
BRANCH   1  20
ATOM     20  C20 ZIN A   1      19.528   2.786  10.712  0.00  0.00     0.175 C 
BRANCH  20  21
ATOM     21  O22 ZIN A   1      20.584   2.437  11.610  0.00  0.00    -0.389 OA
ATOM     22  H59 ZIN A   1      21.128   3.186  11.887  0.00  0.00     0.210 HD
ENDBRANCH  20  21
BRANCH  20  23
ATOM     23  C23 ZIN A   1      18.517   3.640  11.432  0.00  0.00    -0.025 A 
ATOM     24  C32 ZIN A   1      18.592   3.788  12.805  0.00  0.00     0.049 A 
ATOM     25  C31 ZIN A   1      17.667   4.577  13.470  0.00  0.00     0.102 A 
ATOM     26  C26 ZIN A   1      16.659   5.213  12.755  0.00  0.00     0.102 A 
ATOM     27  O30 ZIN A   1      17.755   4.716  14.821  0.00  0.00    -0.346 OA
ATOM     28  C25 ZIN A   1      16.585   5.054  11.378  0.00  0.00     0.040 A 
ATOM     29  O27 ZIN A   1      15.742   5.996  13.387  0.00  0.00    -0.346 OA
ATOM     30  C24 ZIN A   1      17.513   4.268  10.721  0.00  0.00     0.013 A 
ATOM     31  C28 ZIN A   1      15.626   5.833  14.804  0.00  0.00     0.202 C 
ATOM     32  C29 ZIN A   1      17.039   5.810  15.404  0.00  0.00     0.202 C 
ENDBRANCH  20  23
ENDBRANCH   1  20
TORSDOF 12
ENDMDL
MODEL 3
REMARK VINA RESULT:      -7.5      2.371      7.940
REMARK  12 active torsions:
REMARK  status: ('A' for Active; 'I' for Inactive)
REMARK    1  A    between atoms: C2_2  and  C3_3 
REMARK    2  A    between atoms: C3_3  and  C4_4 
REMARK    3  A    between atoms: C4_4  and  C5_5 
REMARK    4  A    between atoms: C5_5  and  C6_6 
REMARK    5  A    between atoms: C6_6  and  C7_7 
REMARK    6  A    between atoms: C7_7  and  C8_8 
REMARK       I    between atoms: C8_8  and  N10_10 
REMARK    7  A    between atoms: N10_10  and  C11_11 
REMARK    8  A    between atoms: C11_11  and  C13_12 
REMARK    9  A    between atoms: C11_11  and  C20_19 
REMARK   10  A    between atoms: C13_12  and  N14_13 
REMARK   11  A    between atoms: C20_19  and  O22_20 
REMARK   12  A    between atoms: C20_19  and  C23_21 
ROOT
ATOM      1  C11 ZIN A   1      18.986   0.864  13.517  0.00  0.00     0.143 C 
ENDROOT
BRANCH   1   2
ATOM      2  N10 ZIN A   1      18.911   1.942  12.528  0.00  0.00    -0.352 N 
ATOM      3  C8  ZIN A   1      17.801   2.092  11.779  0.00  0.00     0.218 C 
ATOM      4  O9  ZIN A   1      16.893   1.294  11.872  0.00  0.00    -0.274 OA
ATOM      5  H48 ZIN A   1      19.659   2.547  12.412  0.00  0.00     0.163 HD
BRANCH   3   6
ATOM      6  C7  ZIN A   1      17.687   3.254  10.826  0.00  0.00     0.103 C 
BRANCH   6   7
ATOM      7  C6  ZIN A   1      18.644   3.045   9.651  0.00  0.00     0.009 C 
BRANCH   7   8
ATOM      8  C5  ZIN A   1      18.269   1.757   8.912  0.00  0.00     0.000 C 
BRANCH   8   9
ATOM      9  C4  ZIN A   1      19.316   1.465   7.835  0.00  0.00     0.000 C 
BRANCH   9  10
ATOM     10  C3  ZIN A   1      18.865   0.268   6.996  0.00  0.00    -0.000 C 
BRANCH  10  11
ATOM     11  C2  ZIN A   1      19.060   0.583   5.512  0.00  0.00    -0.005 C 
ATOM     12  C1  ZIN A   1      19.288  -0.719   4.741  0.00  0.00     0.005 C 
ENDBRANCH  10  11
ENDBRANCH   9  10
ENDBRANCH   8   9
ENDBRANCH   7   8
ENDBRANCH   6   7
ENDBRANCH   3   6
ENDBRANCH   1   2
BRANCH   1  13
ATOM     13  C13 ZIN A   1      19.306   1.454  14.892  0.00  0.00     0.262 C 
BRANCH  13  14
ATOM     14  N14 ZIN A   1      19.025   0.453  15.931  0.00  0.00    -0.069 N 
ATOM     15  H15 ZIN A   1      19.699  -0.297  15.884  0.00  0.00     0.280 HD
ATOM     16  C19 ZIN A   1      17.655  -0.081  15.766  0.00  0.00     0.235 C 
ATOM     17  C18 ZIN A   1      17.098  -0.336  17.179  0.00  0.00     0.029 C 
ATOM     18  C17 ZIN A   1      18.220   0.113  18.144  0.00  0.00     0.029 C 
ATOM     19  C16 ZIN A   1      19.055   1.086  17.274  0.00  0.00     0.235 C 
ENDBRANCH  13  14
ENDBRANCH   1  13
BRANCH   1  20
ATOM     20  C20 ZIN A   1      20.086  -0.121  13.116  0.00  0.00     0.175 C 
BRANCH  20  21
ATOM     21  O22 ZIN A   1      21.167   0.593  12.512  0.00  0.00    -0.389 OA
ATOM     22  H59 ZIN A   1      20.954   0.972  11.648  0.00  0.00     0.210 HD
ENDBRANCH  20  21
BRANCH  20  23
ATOM     23  C23 ZIN A   1      19.532  -1.119  12.133  0.00  0.00    -0.025 A 
ATOM     24  C32 ZIN A   1      18.791  -2.195  12.586  0.00  0.00     0.049 A 
ATOM     25  C31 ZIN A   1      18.275  -3.112  11.683  0.00  0.00     0.102 A 
ATOM     26  C26 ZIN A   1      18.513  -2.953  10.323  0.00  0.00     0.102 A 
ATOM     27  O30 ZIN A   1      17.545  -4.165  12.143  0.00  0.00    -0.346 OA
ATOM     28  C25 ZIN A   1      19.264  -1.875   9.876  0.00  0.00     0.040 A 
ATOM     29  O27 ZIN A   1      18.012  -3.839   9.419  0.00  0.00    -0.346 OA
ATOM     30  C24 ZIN A   1      19.772  -0.963  10.781  0.00  0.00     0.013 A 
ATOM     31  C28 ZIN A   1      17.581  -5.104   9.931  0.00  0.00     0.202 C 
ATOM     32  C29 ZIN A   1      16.734  -4.852  11.186  0.00  0.00     0.202 C 
ENDBRANCH  20  23
ENDBRANCH   1  20
TORSDOF 12
ENDMDL
MODEL 4
REMARK VINA RESULT:      -7.5      2.605      5.507
REMARK  12 active torsions:
REMARK  status: ('A' for Active; 'I' for Inactive)
REMARK    1  A    between atoms: C2_2  and  C3_3 
REMARK    2  A    between atoms: C3_3  and  C4_4 
REMARK    3  A    between atoms: C4_4  and  C5_5 
REMARK    4  A    between atoms: C5_5  and  C6_6 
REMARK    5  A    between atoms: C6_6  and  C7_7 
REMARK    6  A    between atoms: C7_7  and  C8_8 
REMARK       I    between atoms: C8_8  and  N10_10 
REMARK    7  A    between atoms: N10_10  and  C11_11 
REMARK    8  A    between atoms: C11_11  and  C13_12 
REMARK    9  A    between atoms: C11_11  and  C20_19 
REMARK   10  A    between atoms: C13_12  and  N14_13 
REMARK   11  A    between atoms: C20_19  and  O22_20 
REMARK   12  A    between atoms: C20_19  and  C23_21 
ROOT
ATOM      1  C11 ZIN A   1      19.242  -2.211  11.809  0.00  0.00     0.143 C 
ENDROOT
BRANCH   1   2
ATOM      2  N10 ZIN A   1      18.980  -1.658  10.479  0.00  0.00    -0.352 N 
ATOM      3  C8  ZIN A   1      19.860  -0.804   9.919  0.00  0.00     0.218 C 
ATOM      4  O9  ZIN A   1      20.832  -0.438  10.544  0.00  0.00    -0.274 OA
ATOM      5  H48 ZIN A   1      18.173  -1.905  10.001  0.00  0.00     0.163 HD
BRANCH   3   6
ATOM      6  C7  ZIN A   1      19.636  -0.305   8.515  0.00  0.00     0.103 C 
BRANCH   6   7
ATOM      7  C6  ZIN A   1      18.522   0.744   8.519  0.00  0.00     0.009 C 
BRANCH   7   8
ATOM      8  C5  ZIN A   1      19.139   2.143   8.606  0.00  0.00     0.000 C 
BRANCH   8   9
ATOM      9  C4  ZIN A   1      19.102   2.626  10.057  0.00  0.00     0.000 C 
BRANCH   9  10
ATOM     10  C3  ZIN A   1      17.648   2.771  10.509  0.00  0.00    -0.000 C 
BRANCH  10  11
ATOM     11  C2  ZIN A   1      17.588   3.651  11.760  0.00  0.00    -0.005 C 
ATOM     12  C1  ZIN A   1      18.931   4.359  11.949  0.00  0.00     0.005 C 
ENDBRANCH  10  11
ENDBRANCH   9  10
ENDBRANCH   8   9
ENDBRANCH   7   8
ENDBRANCH   6   7
ENDBRANCH   3   6
ENDBRANCH   1   2
BRANCH   1  13
ATOM     13  C13 ZIN A   1      19.486  -3.717  11.697  0.00  0.00     0.262 C 
BRANCH  13  14
ATOM     14  N14 ZIN A   1      18.719  -4.254  10.564  0.00  0.00    -0.069 N 
ATOM     15  H15 ZIN A   1      18.364  -3.500   9.996  0.00  0.00     0.280 HD
ATOM     16  C19 ZIN A   1      17.605  -5.094  11.055  0.00  0.00     0.235 C 
ATOM     17  C18 ZIN A   1      17.442  -6.255  10.057  0.00  0.00     0.029 C 
ATOM     18  C17 ZIN A   1      18.546  -6.035   8.997  0.00  0.00     0.029 C 
ATOM     19  C16 ZIN A   1      19.575  -5.152   9.747  0.00  0.00     0.235 C 
ENDBRANCH  13  14
ENDBRANCH   1  13
BRANCH   1  20
ATOM     20  C20 ZIN A   1      18.035  -1.957  12.715  0.00  0.00     0.175 C 
BRANCH  20  21
ATOM     21  O22 ZIN A   1      16.941  -1.481  11.928  0.00  0.00    -0.389 OA
ATOM     22  H59 ZIN A   1      16.838  -1.936  11.081  0.00  0.00     0.210 HD
ENDBRANCH  20  21
BRANCH  20  23
ATOM     23  C23 ZIN A   1      18.394  -0.924  13.752  0.00  0.00    -0.025 A 
ATOM     24  C32 ZIN A   1      18.394  -1.263  15.092  0.00  0.00     0.049 A 
ATOM     25  C31 ZIN A   1      18.730  -0.317  16.048  0.00  0.00     0.102 A 
ATOM     26  C26 ZIN A   1      19.058   0.976  15.656  0.00  0.00     0.102 A 
ATOM     27  O30 ZIN A   1      18.728  -0.665  17.364  0.00  0.00    -0.346 OA
ATOM     28  C25 ZIN A   1      19.048   1.312  14.310  0.00  0.00     0.040 A 
ATOM     29  O27 ZIN A   1      19.394   1.920  16.577  0.00  0.00    -0.346 OA
ATOM     30  C24 ZIN A   1      18.716   0.362  13.362  0.00  0.00     0.013 A 
ATOM     31  C28 ZIN A   1      19.033   1.650  17.935  0.00  0.00     0.202 C 
ATOM     32  C29 ZIN A   1      19.428   0.202  18.260  0.00  0.00     0.202 C 
ENDBRANCH  20  23
ENDBRANCH   1  20
TORSDOF 12
ENDMDL
MODEL 5
REMARK VINA RESULT:      -7.4      2.656      4.048
REMARK  12 active torsions:
REMARK  status: ('A' for Active; 'I' for Inactive)
REMARK    1  A    between atoms: C2_2  and  C3_3 
REMARK    2  A    between atoms: C3_3  and  C4_4 
REMARK    3  A    between atoms: C4_4  and  C5_5 
REMARK    4  A    between atoms: C5_5  and  C6_6 
REMARK    5  A    between atoms: C6_6  and  C7_7 
REMARK    6  A    between atoms: C7_7  and  C8_8 
REMARK       I    between atoms: C8_8  and  N10_10 
REMARK    7  A    between atoms: N10_10  and  C11_11 
REMARK    8  A    between atoms: C11_11  and  C13_12 
REMARK    9  A    between atoms: C11_11  and  C20_19 
REMARK   10  A    between atoms: C13_12  and  N14_13 
REMARK   11  A    between atoms: C20_19  and  O22_20 
REMARK   12  A    between atoms: C20_19  and  C23_21 
ROOT
ATOM      1  C11 ZIN A   1      19.587  -0.927  11.891  0.00  0.00     0.143 C 
ENDROOT
BRANCH   1   2
ATOM      2  N10 ZIN A   1      19.818  -1.030  13.334  0.00  0.00    -0.352 N 
ATOM      3  C8  ZIN A   1      18.781  -0.938  14.190  0.00  0.00     0.218 C 
ATOM      4  O9  ZIN A   1      17.668  -0.700  13.772  0.00  0.00    -0.274 OA
ATOM      5  H48 ZIN A   1      20.716  -1.162  13.672  0.00  0.00     0.163 HD
BRANCH   3   6
ATOM      6  C7  ZIN A   1      19.005  -1.133  15.667  0.00  0.00     0.103 C 
BRANCH   6   7
ATOM      7  C6  ZIN A   1      18.149  -0.134  16.449  0.00  0.00     0.009 C 
BRANCH   7   8
ATOM      8  C5  ZIN A   1      18.539  -0.177  17.929  0.00  0.00     0.000 C 
BRANCH   8   9
ATOM      9  C4  ZIN A   1      18.039   1.090  18.624  0.00  0.00     0.000 C 
BRANCH   9  10
ATOM     10  C3  ZIN A   1      19.121   2.169  18.559  0.00  0.00    -0.000 C 
BRANCH  10  11
ATOM     11  C2  ZIN A   1      18.654   3.306  17.648  0.00  0.00    -0.005 C 
ATOM     12  C1  ZIN A   1      19.601   3.422  16.452  0.00  0.00     0.005 C 
ENDBRANCH  10  11
ENDBRANCH   9  10
ENDBRANCH   8   9
ENDBRANCH   7   8
ENDBRANCH   6   7
ENDBRANCH   3   6
ENDBRANCH   1   2
BRANCH   1  13
ATOM     13  C13 ZIN A   1      19.998  -2.236  11.213  0.00  0.00     0.262 C 
BRANCH  13  14
ATOM     14  N14 ZIN A   1      19.072  -3.305  11.613  0.00  0.00    -0.069 N 
ATOM     15  H15 ZIN A   1      19.079  -3.414  12.616  0.00  0.00     0.280 HD
ATOM     16  C19 ZIN A   1      19.450  -4.577  10.958  0.00  0.00     0.235 C 
ATOM     17  C18 ZIN A   1      18.142  -5.323  10.635  0.00  0.00     0.029 C 
ATOM     18  C17 ZIN A   1      17.011  -4.385  11.118  0.00  0.00     0.029 C 
ATOM     19  C16 ZIN A   1      17.699  -2.997  11.140  0.00  0.00     0.235 C 
ENDBRANCH  13  14
ENDBRANCH   1  13
BRANCH   1  20
ATOM     20  C20 ZIN A   1      20.417   0.225  11.321  0.00  0.00     0.175 C 
BRANCH  20  21
ATOM     21  O22 ZIN A   1      21.506   0.507  12.202  0.00  0.00    -0.389 OA
ATOM     22  H59 ZIN A   1      22.087   1.216  11.895  0.00  0.00     0.210 HD
ENDBRANCH  20  21
BRANCH  20  23
ATOM     23  C23 ZIN A   1      19.551   1.450  11.185  0.00  0.00    -0.025 A 
ATOM     24  C32 ZIN A   1      19.175   2.157  12.312  0.00  0.00     0.049 A 
ATOM     25  C31 ZIN A   1      18.382   3.288  12.190  0.00  0.00     0.102 A 
ATOM     26  C26 ZIN A   1      17.959   3.704  10.933  0.00  0.00     0.102 A 
ATOM     27  O30 ZIN A   1      18.022   3.976  13.308  0.00  0.00    -0.346 OA
ATOM     28  C25 ZIN A   1      18.333   2.985   9.807  0.00  0.00     0.040 A 
ATOM     29  O27 ZIN A   1      17.184   4.814  10.789  0.00  0.00    -0.346 OA
ATOM     30  C24 ZIN A   1      19.127   1.860   9.936  0.00  0.00     0.013 A 
ATOM     31  C28 ZIN A   1      16.523   5.292  11.965  0.00  0.00     0.202 C 
ATOM     32  C29 ZIN A   1      17.540   5.310  13.115  0.00  0.00     0.202 C 
ENDBRANCH  20  23
ENDBRANCH   1  20
TORSDOF 12
ENDMDL
MODEL 6
REMARK VINA RESULT:      -7.2      2.861      8.250
REMARK  12 active torsions:
REMARK  status: ('A' for Active; 'I' for Inactive)
REMARK    1  A    between atoms: C2_2  and  C3_3 
REMARK    2  A    between atoms: C3_3  and  C4_4 
REMARK    3  A    between atoms: C4_4  and  C5_5 
REMARK    4  A    between atoms: C5_5  and  C6_6 
REMARK    5  A    between atoms: C6_6  and  C7_7 
REMARK    6  A    between atoms: C7_7  and  C8_8 
REMARK       I    between atoms: C8_8  and  N10_10 
REMARK    7  A    between atoms: N10_10  and  C11_11 
REMARK    8  A    between atoms: C11_11  and  C13_12 
REMARK    9  A    between atoms: C11_11  and  C20_19 
REMARK   10  A    between atoms: C13_12  and  N14_13 
REMARK   11  A    between atoms: C20_19  and  O22_20 
REMARK   12  A    between atoms: C20_19  and  C23_21 
ROOT
ATOM      1  C11 ZIN A   1      18.738  -1.676  12.659  0.00  0.00     0.143 C 
ENDROOT
BRANCH   1   2
ATOM      2  N10 ZIN A   1      18.757  -0.484  11.806  0.00  0.00    -0.352 N 
ATOM      3  C8  ZIN A   1      17.617   0.193  11.570  0.00  0.00     0.218 C 
ATOM      4  O9  ZIN A   1      16.563  -0.221  12.003  0.00  0.00    -0.274 OA
ATOM      5  H48 ZIN A   1      19.590  -0.185  11.411  0.00  0.00     0.163 HD
BRANCH   3   6
ATOM      6  C7  ZIN A   1      17.651   1.469  10.768  0.00  0.00     0.103 C 
BRANCH   6   7
ATOM      7  C6  ZIN A   1      19.007   1.595  10.069  0.00  0.00     0.009 C 
BRANCH   7   8
ATOM      8  C5  ZIN A   1      18.826   2.317   8.731  0.00  0.00     0.000 C 
BRANCH   8   9
ATOM      9  C4  ZIN A   1      19.134   1.351   7.586  0.00  0.00     0.000 C 
BRANCH   9  10
ATOM     10  C3  ZIN A   1      19.102  -0.087   8.108  0.00  0.00    -0.000 C 
BRANCH  10  11
ATOM     11  C2  ZIN A   1      17.833  -0.781   7.610  0.00  0.00    -0.005 C 
ATOM     12  C1  ZIN A   1      17.308  -0.056   6.370  0.00  0.00     0.005 C 
ENDBRANCH  10  11
ENDBRANCH   9  10
ENDBRANCH   8   9
ENDBRANCH   7   8
ENDBRANCH   6   7
ENDBRANCH   3   6
ENDBRANCH   1   2
BRANCH   1  13
ATOM     13  C13 ZIN A   1      19.326  -1.333  14.028  0.00  0.00     0.262 C 
BRANCH  13  14
ATOM     14  N14 ZIN A   1      18.276  -0.759  14.882  0.00  0.00    -0.069 N 
ATOM     15  H15 ZIN A   1      17.396  -0.746  14.389  0.00  0.00     0.280 HD
ATOM     16  C19 ZIN A   1      18.649   0.611  15.296  0.00  0.00     0.235 C 
ATOM     17  C18 ZIN A   1      18.134   0.803  16.735  0.00  0.00     0.029 C 
ATOM     18  C17 ZIN A   1      17.477  -0.545  17.112  0.00  0.00     0.029 C 
ATOM     19  C16 ZIN A   1      18.151  -1.543  16.137  0.00  0.00     0.235 C 
ENDBRANCH  13  14
ENDBRANCH   1  13
BRANCH   1  20
ATOM     20  C20 ZIN A   1      19.571  -2.782  12.008  0.00  0.00     0.175 C 
BRANCH  20  21
ATOM     21  O22 ZIN A   1      20.538  -2.198  11.134  0.00  0.00    -0.389 OA
ATOM     22  H59 ZIN A   1      20.729  -2.728  10.348  0.00  0.00     0.210 HD
ENDBRANCH  20  21
BRANCH  20  23
ATOM     23  C23 ZIN A   1      18.667  -3.694  11.220  0.00  0.00    -0.025 A 
ATOM     24  C32 ZIN A   1      18.730  -3.703   9.839  0.00  0.00     0.049 A 
ATOM     25  C31 ZIN A   1      17.904  -4.545   9.111  0.00  0.00     0.102 A 
ATOM     26  C26 ZIN A   1      17.005  -5.374   9.773  0.00  0.00     0.102 A 
ATOM     27  O30 ZIN A   1      17.979  -4.545   7.752  0.00  0.00    -0.346 OA
ATOM     28  C25 ZIN A   1      16.941  -5.354  11.159  0.00  0.00     0.040 A 
ATOM     29  O27 ZIN A   1      16.186  -6.211   9.078  0.00  0.00    -0.346 OA
ATOM     30  C24 ZIN A   1      17.770  -4.514  11.878  0.00  0.00     0.013 A 
ATOM     31  C28 ZIN A   1      16.018  -5.934   7.684  0.00  0.00     0.202 C 
ATOM     32  C29 ZIN A   1      17.402  -5.666   7.076  0.00  0.00     0.202 C 
ENDBRANCH  20  23
ENDBRANCH   1  20
TORSDOF 12
ENDMDL
MODEL 7
REMARK VINA RESULT:      -7.2      2.440      5.947
REMARK  12 active torsions:
REMARK  status: ('A' for Active; 'I' for Inactive)
REMARK    1  A    between atoms: C2_2  and  C3_3 
REMARK    2  A    between atoms: C3_3  and  C4_4 
REMARK    3  A    between atoms: C4_4  and  C5_5 
REMARK    4  A    between atoms: C5_5  and  C6_6 
REMARK    5  A    between atoms: C6_6  and  C7_7 
REMARK    6  A    between atoms: C7_7  and  C8_8 
REMARK       I    between atoms: C8_8  and  N10_10 
REMARK    7  A    between atoms: N10_10  and  C11_11 
REMARK    8  A    between atoms: C11_11  and  C13_12 
REMARK    9  A    between atoms: C11_11  and  C20_19 
REMARK   10  A    between atoms: C13_12  and  N14_13 
REMARK   11  A    between atoms: C20_19  and  O22_20 
REMARK   12  A    between atoms: C20_19  and  C23_21 
ROOT
ATOM      1  C11 ZIN A   1      19.376  -2.395  11.846  0.00  0.00     0.143 C 
ENDROOT
BRANCH   1   2
ATOM      2  N10 ZIN A   1      19.242  -1.716  10.555  0.00  0.00    -0.352 N 
ATOM      3  C8  ZIN A   1      20.048  -0.680  10.251  0.00  0.00     0.218 C 
ATOM      4  O9  ZIN A   1      20.836  -0.262  11.073  0.00  0.00    -0.274 OA
ATOM      5  H48 ZIN A   1      18.573  -2.013   9.919  0.00  0.00     0.163 HD
BRANCH   3   6
ATOM      6  C7  ZIN A   1      19.972  -0.040   8.889  0.00  0.00     0.103 C 
BRANCH   6   7
ATOM      7  C6  ZIN A   1      18.799   0.943   8.852  0.00  0.00     0.009 C 
BRANCH   7   8
ATOM      8  C5  ZIN A   1      17.534   0.211   8.397  0.00  0.00     0.000 C 
BRANCH   8   9
ATOM      9  C4  ZIN A   1      17.806  -0.497   7.068  0.00  0.00     0.000 C 
BRANCH   9  10
ATOM     10  C3  ZIN A   1      17.958   0.545   5.958  0.00  0.00    -0.000 C 
BRANCH  10  11
ATOM     11  C2  ZIN A   1      19.206   0.230   5.131  0.00  0.00    -0.005 C 
ATOM     12  C1  ZIN A   1      19.137  -1.216   4.634  0.00  0.00     0.005 C 
ENDBRANCH  10  11
ENDBRANCH   9  10
ENDBRANCH   8   9
ENDBRANCH   7   8
ENDBRANCH   6   7
ENDBRANCH   3   6
ENDBRANCH   1   2
BRANCH   1  13
ATOM     13  C13 ZIN A   1      19.562  -3.896  11.618  0.00  0.00     0.262 C 
BRANCH  13  14
ATOM     14  N14 ZIN A   1      18.586  -4.364  10.624  0.00  0.00    -0.069 N 
ATOM     15  H15 ZIN A   1      18.109  -3.578  10.208  0.00  0.00     0.280 HD
ATOM     16  C19 ZIN A   1      17.610  -5.276  11.258  0.00  0.00     0.235 C 
ATOM     17  C18 ZIN A   1      17.262  -6.358  10.218  0.00  0.00     0.029 C 
ATOM     18  C17 ZIN A   1      18.120  -6.016   8.977  0.00  0.00     0.029 C 
ATOM     19  C16 ZIN A   1      19.267  -5.164   9.575  0.00  0.00     0.235 C 
ENDBRANCH  13  14
ENDBRANCH   1  13
BRANCH   1  20
ATOM     20  C20 ZIN A   1      18.116  -2.158  12.681  0.00  0.00     0.175 C 
BRANCH  20  21
ATOM     21  O22 ZIN A   1      17.066  -1.685  11.834  0.00  0.00    -0.389 OA
ATOM     22  H59 ZIN A   1      16.267  -2.229  11.855  0.00  0.00     0.210 HD
ENDBRANCH  20  21
BRANCH  20  23
ATOM     23  C23 ZIN A   1      18.403  -1.130  13.744  0.00  0.00    -0.025 A 
ATOM     24  C32 ZIN A   1      18.306   0.216  13.448  0.00  0.00     0.049 A 
ATOM     25  C31 ZIN A   1      18.565   1.164  14.426  0.00  0.00     0.102 A 
ATOM     26  C26 ZIN A   1      18.931   0.757  15.703  0.00  0.00     0.102 A 
ATOM     27  O30 ZIN A   1      18.462   2.487  14.119  0.00  0.00    -0.346 OA
ATOM     28  C25 ZIN A   1      19.034  -0.596  15.993  0.00  0.00     0.040 A 
ATOM     29  O27 ZIN A   1      19.185   1.671  16.680  0.00  0.00    -0.346 OA
ATOM     30  C24 ZIN A   1      18.771  -1.535  15.013  0.00  0.00     0.013 A 
ATOM     31  C28 ZIN A   1      19.432   3.014  16.255  0.00  0.00     0.202 C 
ATOM     32  C29 ZIN A   1      18.365   3.396  15.220  0.00  0.00     0.202 C 
ENDBRANCH  20  23
ENDBRANCH   1  20
TORSDOF 12
ENDMDL
MODEL 8
REMARK VINA RESULT:      -7.0      2.350      6.453
REMARK  12 active torsions:
REMARK  status: ('A' for Active; 'I' for Inactive)
REMARK    1  A    between atoms: C2_2  and  C3_3 
REMARK    2  A    between atoms: C3_3  and  C4_4 
REMARK    3  A    between atoms: C4_4  and  C5_5 
REMARK    4  A    between atoms: C5_5  and  C6_6 
REMARK    5  A    between atoms: C6_6  and  C7_7 
REMARK    6  A    between atoms: C7_7  and  C8_8 
REMARK       I    between atoms: C8_8  and  N10_10 
REMARK    7  A    between atoms: N10_10  and  C11_11 
REMARK    8  A    between atoms: C11_11  and  C13_12 
REMARK    9  A    between atoms: C11_11  and  C20_19 
REMARK   10  A    between atoms: C13_12  and  N14_13 
REMARK   11  A    between atoms: C20_19  and  O22_20 
REMARK   12  A    between atoms: C20_19  and  C23_21 
ROOT
ATOM      1  C11 ZIN A   1      19.075   2.669  12.066  0.00  0.00     0.143 C 
ENDROOT
BRANCH   1   2
ATOM      2  N10 ZIN A   1      18.285   1.777  12.919  0.00  0.00    -0.352 N 
ATOM      3  C8  ZIN A   1      18.885   0.762  13.570  0.00  0.00     0.218 C 
ATOM      4  O9  ZIN A   1      20.064   0.541  13.396  0.00  0.00    -0.274 OA
ATOM      5  H48 ZIN A   1      17.331   1.918  13.014  0.00  0.00     0.163 HD
BRANCH   3   6
ATOM      6  C7  ZIN A   1      18.090  -0.099  14.517  0.00  0.00     0.103 C 
BRANCH   6   7
ATOM      7  C6  ZIN A   1      18.964  -1.254  15.012  0.00  0.00     0.009 C 
BRANCH   7   8
ATOM      8  C5  ZIN A   1      18.991  -1.254  16.543  0.00  0.00     0.000 C 
BRANCH   8   9
ATOM      9  C4  ZIN A   1      17.652  -0.741  17.076  0.00  0.00     0.000 C 
BRANCH   9  10
ATOM     10  C3  ZIN A   1      17.901   0.232  18.230  0.00  0.00    -0.000 C 
BRANCH  10  11
ATOM     11  C2  ZIN A   1      19.280   0.875  18.066  0.00  0.00    -0.005 C 
ATOM     12  C1  ZIN A   1      19.180   2.374  18.357  0.00  0.00     0.005 C 
ENDBRANCH  10  11
ENDBRANCH   9  10
ENDBRANCH   8   9
ENDBRANCH   7   8
ENDBRANCH   6   7
ENDBRANCH   3   6
ENDBRANCH   1   2
BRANCH   1  13
ATOM     13  C13 ZIN A   1      19.376   3.965  12.821  0.00  0.00     0.262 C 
BRANCH  13  14
ATOM     14  N14 ZIN A   1      18.301   4.227  13.789  0.00  0.00    -0.069 N 
ATOM     15  H15 ZIN A   1      17.636   3.468  13.785  0.00  0.00     0.280 HD
ATOM     16  C19 ZIN A   1      17.624   5.502  13.465  0.00  0.00     0.235 C 
ATOM     17  C18 ZIN A   1      17.242   6.162  14.803  0.00  0.00     0.029 C 
ATOM     18  C17 ZIN A   1      17.768   5.200  15.893  0.00  0.00     0.029 C 
ATOM     19  C16 ZIN A   1      18.870   4.404  15.150  0.00  0.00     0.235 C 
ENDBRANCH  13  14
ENDBRANCH   1  13
BRANCH   1  20
ATOM     20  C20 ZIN A   1      18.287   2.991  10.795  0.00  0.00     0.175 C 
BRANCH  20  21
ATOM     21  O22 ZIN A   1      16.891   3.031  11.098  0.00  0.00    -0.389 OA
ATOM     22  H59 ZIN A   1      16.325   2.684  10.396  0.00  0.00     0.210 HD
ENDBRANCH  20  21
BRANCH  20  23
ATOM     23  C23 ZIN A   1      18.545   1.926   9.760  0.00  0.00    -0.025 A 
ATOM     24  C32 ZIN A   1      18.261   0.604  10.045  0.00  0.00     0.049 A 
ATOM     25  C31 ZIN A   1      18.493  -0.377   9.093  0.00  0.00     0.102 A 
ATOM     26  C26 ZIN A   1      19.019  -0.029   7.855  0.00  0.00     0.102 A 
ATOM     27  O30 ZIN A   1      18.206  -1.675   9.387  0.00  0.00    -0.346 OA
ATOM     28  C25 ZIN A   1      19.309   1.300   7.578  0.00  0.00     0.040 A 
ATOM     29  O27 ZIN A   1      19.251  -0.975   6.904  0.00  0.00    -0.346 OA
ATOM     30  C24 ZIN A   1      19.073   2.273   8.531  0.00  0.00     0.013 A 
ATOM     31  C28 ZIN A   1      19.296  -2.335   7.348  0.00  0.00     0.202 C 
ATOM     32  C29 ZIN A   1      18.102  -2.577   8.281  0.00  0.00     0.202 C 
ENDBRANCH  20  23
ENDBRANCH   1  20
TORSDOF 12
ENDMDL
MODEL 9
REMARK VINA RESULT:      -7.0      2.310      6.342
REMARK  12 active torsions:
REMARK  status: ('A' for Active; 'I' for Inactive)
REMARK    1  A    between atoms: C2_2  and  C3_3 
REMARK    2  A    between atoms: C3_3  and  C4_4 
REMARK    3  A    between atoms: C4_4  and  C5_5 
REMARK    4  A    between atoms: C5_5  and  C6_6 
REMARK    5  A    between atoms: C6_6  and  C7_7 
REMARK    6  A    between atoms: C7_7  and  C8_8 
REMARK       I    between atoms: C8_8  and  N10_10 
REMARK    7  A    between atoms: N10_10  and  C11_11 
REMARK    8  A    between atoms: C11_11  and  C13_12 
REMARK    9  A    between atoms: C11_11  and  C20_19 
REMARK   10  A    between atoms: C13_12  and  N14_13 
REMARK   11  A    between atoms: C20_19  and  O22_20 
REMARK   12  A    between atoms: C20_19  and  C23_21 
ROOT
ATOM      1  C11 ZIN A   1      19.032  -0.179  10.180  0.00  0.00     0.143 C 
ENDROOT
BRANCH   1   2
ATOM      2  N10 ZIN A   1      18.942   1.063  10.952  0.00  0.00    -0.352 N 
ATOM      3  C8  ZIN A   1      17.758   1.455  11.461  0.00  0.00     0.218 C 
ATOM      4  O9  ZIN A   1      16.753   0.820  11.220  0.00  0.00    -0.274 OA
ATOM      5  H48 ZIN A   1      19.735   1.602  11.097  0.00  0.00     0.163 HD
BRANCH   3   6
ATOM      6  C7  ZIN A   1      17.681   2.683  12.331  0.00  0.00     0.103 C 
BRANCH   6   7
ATOM      7  C6  ZIN A   1      18.688   2.560  13.477  0.00  0.00     0.009 C 
BRANCH   7   8
ATOM      8  C5  ZIN A   1      18.244   1.443  14.426  0.00  0.00     0.000 C 
BRANCH   8   9
ATOM      9  C4  ZIN A   1      19.311   0.348  14.459  0.00  0.00     0.000 C 
BRANCH   9  10
ATOM     10  C3  ZIN A   1      18.642  -1.009  14.684  0.00  0.00    -0.000 C 
BRANCH  10  11
ATOM     11  C2  ZIN A   1      18.687  -1.359  16.173  0.00  0.00    -0.005 C 
ATOM     12  C1  ZIN A   1      17.293  -1.187  16.779  0.00  0.00     0.005 C 
ENDBRANCH  10  11
ENDBRANCH   9  10
ENDBRANCH   8   9
ENDBRANCH   7   8
ENDBRANCH   6   7
ENDBRANCH   3   6
ENDBRANCH   1   2
BRANCH   1  13
ATOM     13  C13 ZIN A   1      19.709  -1.259  11.025  0.00  0.00     0.262 C 
BRANCH  13  14
ATOM     14  N14 ZIN A   1      19.140  -2.572  10.688  0.00  0.00    -0.069 N 
ATOM     15  H15 ZIN A   1      19.343  -2.803   9.727  0.00  0.00     0.280 HD
ATOM     16  C19 ZIN A   1      17.679  -2.567  10.915  0.00  0.00     0.235 C 
ATOM     17  C18 ZIN A   1      17.299  -3.967  11.433  0.00  0.00     0.029 C 
ATOM     18  C17 ZIN A   1      18.633  -4.745  11.511  0.00  0.00     0.029 C 
ATOM     19  C16 ZIN A   1      19.688  -3.614  11.593  0.00  0.00     0.235 C 
ENDBRANCH  13  14
ENDBRANCH   1  13
BRANCH   1  20
ATOM     20  C20 ZIN A   1      19.854   0.067   8.913  0.00  0.00     0.175 C 
BRANCH  20  21
ATOM     21  O22 ZIN A   1      20.099   1.467   8.768  0.00  0.00    -0.389 OA
ATOM     22  H59 ZIN A   1      20.122   1.771   7.851  0.00  0.00     0.210 HD
ENDBRANCH  20  21
BRANCH  20  23
ATOM     23  C23 ZIN A   1      19.091  -0.436   7.714  0.00  0.00    -0.025 A 
ATOM     24  C32 ZIN A   1      19.262  -1.738   7.283  0.00  0.00     0.049 A 
ATOM     25  C31 ZIN A   1      18.558  -2.204   6.184  0.00  0.00     0.102 A 
ATOM     26  C26 ZIN A   1      17.684  -1.357   5.512  0.00  0.00     0.102 A 
ATOM     27  O30 ZIN A   1      18.735  -3.490   5.773  0.00  0.00    -0.346 OA
ATOM     28  C25 ZIN A   1      17.522  -0.049   5.945  0.00  0.00     0.040 A 
ATOM     29  O27 ZIN A   1      16.979  -1.796   4.433  0.00  0.00    -0.346 OA
ATOM     30  C24 ZIN A   1      18.226   0.408   7.044  0.00  0.00     0.013 A 
ATOM     31  C28 ZIN A   1      17.445  -2.995   3.806  0.00  0.00     0.202 C 
ATOM     32  C29 ZIN A   1      17.737  -4.030   4.901  0.00  0.00     0.202 C 
ENDBRANCH  20  23
ENDBRANCH   1  20
TORSDOF 12
ENDMDL
