MODEL 1
REMARK VINA RESULT:      -7.1      0.000      0.000
REMARK  2 active torsions:
REMARK  status: ('A' for Active; 'I' for Inactive)
REMARK    1  A    between atoms: C2_2  and  N4_4 
REMARK       I    between atoms: N4_4  and  C5_5 
REMARK       I    between atoms: C5_5  and  N9_9 
REMARK       I    between atoms: N9_9  and  C10_10 
REMARK       I    between atoms: C10_10  and  N12_12 
REMARK    2  A    between atoms: N12_12  and  C13_13 
ROOT
ATOM      1  N4  ZIN A   1      19.252  -0.197   8.621  0.00  0.00    -0.222 N 
ATOM      2  C5  ZIN A   1      18.391  -0.090   9.688  0.00  0.00     0.686 C 
ATOM      3  N6  ZIN A   1      17.117   0.084   9.482  0.00  0.00    -0.234 N 
ATOM      4  H7  ZIN A   1      16.520   0.231  10.232  0.00  0.00     0.174 HD
ATOM      5  H8  ZIN A   1      16.765   0.066   8.578  0.00  0.00     0.174 HD
ATOM      6  N9  ZIN A   1      18.878  -0.167  10.976  0.00  0.00    -0.021 N 
ATOM      7  C10 ZIN A   1      20.238  -0.220  11.198  0.00  0.00     0.712 C 
ATOM      8  N11 ZIN A   1      21.058  -0.346  10.194  0.00  0.00    -0.117 NA
ATOM      9  N12 ZIN A   1      20.729  -0.142  12.482  0.00  0.00    -0.190 N 
ATOM     10  H27 ZIN A   1      20.209  -0.222   8.772  0.00  0.00     0.178 HD
ATOM     11  H28 ZIN A   1      18.263  -0.182  11.727  0.00  0.00     0.203 HD
ATOM     12  H29 ZIN A   1      22.008  -0.457  10.353  0.00  0.00     0.206 HD
ATOM     13  H30 ZIN A   1      21.687  -0.092  12.632  0.00  0.00     0.184 HD
ENDROOT
BRANCH   9  14
ATOM     14  C13 ZIN A   1      19.849  -0.136  13.569  0.00  0.00     0.049 A 
ATOM     15  C19 ZIN A   1      19.395   1.070  14.088  0.00  0.00     0.032 A 
ATOM     16  C18 ZIN A   1      18.522   1.073  15.158  0.00  0.00     0.026 A 
ATOM     17  C16 ZIN A   1      18.107  -0.122  15.719  0.00  0.00     0.034 A 
ATOM     18  C15 ZIN A   1      18.563  -1.324  15.206  0.00  0.00     0.026 A 
ATOM     19 Cl17 ZIN A   1      17.015  -0.114  17.068  0.00  0.00    -0.084 Cl
ATOM     20  C14 ZIN A   1      19.433  -1.333  14.134  0.00  0.00     0.032 A 
ENDBRANCH   9  14
BRANCH   1  21
ATOM     21  C2  ZIN A   1      18.722  -0.275   7.258  0.00  0.00     0.091 C 
ATOM     22  C1  ZIN A   1      19.060   1.014   6.505  0.00  0.00     0.032 C 
ATOM     23  C3  ZIN A   1      19.350  -1.468   6.534  0.00  0.00     0.032 C 
ENDBRANCH   1  21
TORSDOF 2
ENDMDL
MODEL 2
REMARK VINA RESULT:      -6.9      3.502      4.564
REMARK  2 active torsions:
REMARK  status: ('A' for Active; 'I' for Inactive)
REMARK    1  A    between atoms: C2_2  and  N4_4 
REMARK       I    between atoms: N4_4  and  C5_5 
REMARK       I    between atoms: C5_5  and  N9_9 
REMARK       I    between atoms: N9_9  and  C10_10 
REMARK       I    between atoms: C10_10  and  N12_12 
REMARK    2  A    between atoms: N12_12  and  C13_13 
ROOT
ATOM      1  N4  ZIN A   1      19.191  -2.081  10.496  0.00  0.00    -0.222 N 
ATOM      2  C5  ZIN A   1      18.382  -1.146  11.098  0.00  0.00     0.686 C 
ATOM      3  N6  ZIN A   1      17.333  -1.528  11.768  0.00  0.00    -0.234 N 
ATOM      4  H7  ZIN A   1      16.723  -0.868  12.132  0.00  0.00     0.174 HD
ATOM      5  H8  ZIN A   1      17.160  -2.473  11.904  0.00  0.00     0.174 HD
ATOM      6  N9  ZIN A   1      18.683   0.196  10.994  0.00  0.00    -0.021 N 
ATOM      7  C10 ZIN A   1      19.716   0.609  10.179  0.00  0.00     0.712 C 
ATOM      8  N11 ZIN A   1      20.501  -0.270   9.625  0.00  0.00    -0.117 NA
ATOM      9  N12 ZIN A   1      19.919   1.952   9.953  0.00  0.00    -0.190 N 
ATOM     10  H27 ZIN A   1      19.911  -1.795   9.913  0.00  0.00     0.178 HD
ATOM     11  H28 ZIN A   1      18.166   0.849  11.491  0.00  0.00     0.203 HD
ATOM     12  H29 ZIN A   1      21.271   0.021   9.112  0.00  0.00     0.206 HD
ATOM     13  H30 ZIN A   1      20.590   2.240   9.313  0.00  0.00     0.184 HD
ENDROOT
BRANCH   9  14
ATOM     14  C13 ZIN A   1      19.160   2.901  10.646  0.00  0.00     0.049 A 
ATOM     15  C19 ZIN A   1      18.011   3.426  10.070  0.00  0.00     0.032 A 
ATOM     16  C18 ZIN A   1      17.260   4.359  10.759  0.00  0.00     0.026 A 
ATOM     17  C16 ZIN A   1      17.657   4.777  12.017  0.00  0.00     0.034 A 
ATOM     18  C15 ZIN A   1      18.806   4.258  12.590  0.00  0.00     0.026 A 
ATOM     19 Cl17 ZIN A   1      16.715   5.954  12.877  0.00  0.00    -0.084 Cl
ATOM     20  C14 ZIN A   1      19.557   3.322  11.908  0.00  0.00     0.032 A 
ENDBRANCH   9  14
BRANCH   1  21
ATOM     21  C2  ZIN A   1      18.966  -3.508  10.738  0.00  0.00     0.091 C 
ATOM     22  C1  ZIN A   1      18.852  -4.240   9.399  0.00  0.00     0.032 C 
ATOM     23  C3  ZIN A   1      20.140  -4.082  11.534  0.00  0.00     0.032 C 
ENDBRANCH   1  21
TORSDOF 2
ENDMDL
MODEL 3
REMARK VINA RESULT:      -6.7      3.108      6.580
REMARK  2 active torsions:
REMARK  status: ('A' for Active; 'I' for Inactive)
REMARK    1  A    between atoms: C2_2  and  N4_4 
REMARK       I    between atoms: N4_4  and  C5_5 
REMARK       I    between atoms: C5_5  and  N9_9 
REMARK       I    between atoms: N9_9  and  C10_10 
REMARK       I    between atoms: C10_10  and  N12_12 
REMARK    2  A    between atoms: N12_12  and  C13_13 
ROOT
ATOM      1  N4  ZIN A   1      19.265   0.461  14.285  0.00  0.00    -0.222 N 
ATOM      2  C5  ZIN A   1      18.424   0.333  13.205  0.00  0.00     0.686 C 
ATOM      3  N6  ZIN A   1      17.135   0.279  13.386  0.00  0.00    -0.234 N 
ATOM      4  H7  ZIN A   1      16.546   0.117  12.633  0.00  0.00     0.174 HD
ATOM      5  H8  ZIN A   1      16.764   0.400  14.274  0.00  0.00     0.174 HD
ATOM      6  N9  ZIN A   1      18.945   0.264  11.930  0.00  0.00    -0.021 N 
ATOM      7  C10 ZIN A   1      20.310   0.190  11.746  0.00  0.00     0.712 C 
ATOM      8  N11 ZIN A   1      21.113   0.334  12.761  0.00  0.00    -0.117 NA
ATOM      9  N12 ZIN A   1      20.823  -0.034  10.488  0.00  0.00    -0.190 N 
ATOM     10  H27 ZIN A   1      20.225   0.397  14.162  0.00  0.00     0.178 HD
ATOM     11  H28 ZIN A   1      18.351   0.264  11.163  0.00  0.00     0.203 HD
ATOM     12  H29 ZIN A   1      22.073   0.356  12.621  0.00  0.00     0.206 HD
ATOM     13  H30 ZIN A   1      21.777  -0.172  10.372  0.00  0.00     0.184 HD
ENDROOT
BRANCH   9  14
ATOM     14  C13 ZIN A   1      19.972  -0.061   9.379  0.00  0.00     0.049 A 
ATOM     15  C19 ZIN A   1      19.642   1.119   8.726  0.00  0.00     0.032 A 
ATOM     16  C18 ZIN A   1      18.805   1.088   7.628  0.00  0.00     0.026 A 
ATOM     17  C16 ZIN A   1      18.287  -0.116   7.185  0.00  0.00     0.034 A 
ATOM     18  C15 ZIN A   1      18.610  -1.293   7.838  0.00  0.00     0.026 A 
ATOM     19 Cl17 ZIN A   1      17.230  -0.150   5.808  0.00  0.00    -0.084 Cl
ATOM     20  C14 ZIN A   1      19.450  -1.268   8.933  0.00  0.00     0.032 A 
ENDBRANCH   9  14
BRANCH   1  21
ATOM     21  C2  ZIN A   1      18.711   0.694  15.621  0.00  0.00     0.091 C 
ATOM     22  C1  ZIN A   1      19.005  -0.514  16.513  0.00  0.00     0.032 C 
ATOM     23  C3  ZIN A   1      19.353   1.943  16.228  0.00  0.00     0.032 C 
ENDBRANCH   1  21
TORSDOF 2
ENDMDL
MODEL 4
REMARK VINA RESULT:      -6.7      3.530      4.434
REMARK  2 active torsions:
REMARK  status: ('A' for Active; 'I' for Inactive)
REMARK    1  A    between atoms: C2_2  and  N4_4 
REMARK       I    between atoms: N4_4  and  C5_5 
REMARK       I    between atoms: C5_5  and  N9_9 
REMARK       I    between atoms: N9_9  and  C10_10 
REMARK       I    between atoms: C10_10  and  N12_12 
REMARK    2  A    between atoms: N12_12  and  C13_13 
ROOT
ATOM      1  N4  ZIN A   1      19.390  -3.369   9.551  0.00  0.00    -0.222 N 
ATOM      2  C5  ZIN A   1      18.591  -2.274   9.325  0.00  0.00     0.686 C 
ATOM      3  N6  ZIN A   1      17.593  -2.357   8.492  0.00  0.00    -0.234 N 
ATOM      4  H7  ZIN A   1      17.073  -1.566   8.278  0.00  0.00     0.174 HD
ATOM      5  H8  ZIN A   1      17.369  -3.208   8.086  0.00  0.00     0.174 HD
ATOM      6  N9  ZIN A   1      18.845  -1.087   9.980  0.00  0.00    -0.021 N 
ATOM      7  C10 ZIN A   1      19.975  -0.960  10.761  0.00  0.00     0.712 C 
ATOM      8  N11 ZIN A   1      20.724  -1.999  10.999  0.00  0.00    -0.117 NA
ATOM      9  N12 ZIN A   1      20.311   0.266  11.290  0.00  0.00    -0.190 N 
ATOM     10  H27 ZIN A   1      20.191  -3.281  10.089  0.00  0.00     0.178 HD
ATOM     11  H28 ZIN A   1      18.231  -0.342   9.891  0.00  0.00     0.203 HD
ATOM     12  H29 ZIN A   1      21.476  -1.926  11.607  0.00  0.00     0.206 HD
ATOM     13  H30 ZIN A   1      21.150   0.375  11.766  0.00  0.00     0.184 HD
ENDROOT
BRANCH   9  14
ATOM     14  C13 ZIN A   1      19.444   1.353  11.143  0.00  0.00     0.049 A 
ATOM     15  C19 ZIN A   1      19.416   2.063   9.949  0.00  0.00     0.032 A 
ATOM     16  C18 ZIN A   1      18.555   3.134   9.804  0.00  0.00     0.026 A 
ATOM     17  C16 ZIN A   1      17.727   3.504  10.850  0.00  0.00     0.034 A 
ATOM     18  C15 ZIN A   1      17.757   2.801  12.042  0.00  0.00     0.026 A 
ATOM     19 Cl17 ZIN A   1      16.651   4.853  10.666  0.00  0.00    -0.084 Cl
ATOM     20  C14 ZIN A   1      18.613   1.728  12.190  0.00  0.00     0.032 A 
ENDBRANCH   9  14
BRANCH   1  21
ATOM     21  C2  ZIN A   1      19.028  -4.669   8.981  0.00  0.00     0.091 C 
ATOM     22  C1  ZIN A   1      20.300  -5.465   8.679  0.00  0.00     0.032 C 
ATOM     23  C3  ZIN A   1      18.169  -5.444   9.982  0.00  0.00     0.032 C 
ENDBRANCH   1  21
TORSDOF 2
ENDMDL
MODEL 5
REMARK VINA RESULT:      -6.7      3.485      6.843
REMARK  2 active torsions:
REMARK  status: ('A' for Active; 'I' for Inactive)
REMARK    1  A    between atoms: C2_2  and  N4_4 
REMARK       I    between atoms: N4_4  and  C5_5 
REMARK       I    between atoms: C5_5  and  N9_9 
REMARK       I    between atoms: N9_9  and  C10_10 
REMARK       I    between atoms: C10_10  and  N12_12 
REMARK    2  A    between atoms: N12_12  and  C13_13 
ROOT
ATOM      1  N4  ZIN A   1      18.690   0.086  15.368  0.00  0.00    -0.222 N 
ATOM      2  C5  ZIN A   1      19.035  -0.340  14.107  0.00  0.00     0.686 C 
ATOM      3  N6  ZIN A   1      19.722  -1.436  13.955  0.00  0.00    -0.234 N 
ATOM      4  H7  ZIN A   1      20.027  -1.698  13.072  0.00  0.00     0.174 HD
ATOM      5  H8  ZIN A   1      19.929  -1.990  14.724  0.00  0.00     0.174 HD
ATOM      6  N9  ZIN A   1      18.653   0.394  13.003  0.00  0.00    -0.021 N 
ATOM      7  C10 ZIN A   1      18.040   1.618  13.168  0.00  0.00     0.712 C 
ATOM      8  N11 ZIN A   1      17.689   2.017  14.357  0.00  0.00    -0.117 NA
ATOM      9  N12 ZIN A   1      17.799   2.419  12.074  0.00  0.00    -0.190 N 
ATOM     10  H27 ZIN A   1      18.270   0.951  15.489  0.00  0.00     0.178 HD
ATOM     11  H28 ZIN A   1      18.818   0.050  12.111  0.00  0.00     0.203 HD
ATOM     12  H29 ZIN A   1      17.193   2.843  14.465  0.00  0.00     0.206 HD
ATOM     13  H30 ZIN A   1      17.447   3.316  12.198  0.00  0.00     0.184 HD
ENDROOT
BRANCH   9  14
ATOM     14  C13 ZIN A   1      18.058   1.941  10.786  0.00  0.00     0.049 A 
ATOM     15  C19 ZIN A   1      18.994   2.580   9.983  0.00  0.00     0.032 A 
ATOM     16  C18 ZIN A   1      19.252   2.103   8.712  0.00  0.00     0.026 A 
ATOM     17  C16 ZIN A   1      18.573   0.995   8.237  0.00  0.00     0.034 A 
ATOM     18  C15 ZIN A   1      17.636   0.360   9.033  0.00  0.00     0.026 A 
ATOM     19 Cl17 ZIN A   1      18.895   0.401   6.638  0.00  0.00    -0.084 Cl
ATOM     20  C14 ZIN A   1      17.377   0.831  10.306  0.00  0.00     0.032 A 
ENDBRANCH   9  14
BRANCH   1  21
ATOM     21  C2  ZIN A   1      18.955  -0.770  16.527  0.00  0.00     0.091 C 
ATOM     22  C1  ZIN A   1      19.252   0.103  17.748  0.00  0.00     0.032 C 
ATOM     23  C3  ZIN A   1      17.728  -1.640  16.809  0.00  0.00     0.032 C 
ENDBRANCH   1  21
TORSDOF 2
ENDMDL
MODEL 6
REMARK VINA RESULT:      -6.4      3.671      6.770
REMARK  2 active torsions:
REMARK  status: ('A' for Active; 'I' for Inactive)
REMARK    1  A    between atoms: C2_2  and  N4_4 
REMARK       I    between atoms: N4_4  and  C5_5 
REMARK       I    between atoms: C5_5  and  N9_9 
REMARK       I    between atoms: N9_9  and  C10_10 
REMARK       I    between atoms: C10_10  and  N12_12 
REMARK    2  A    between atoms: N12_12  and  C13_13 
ROOT
ATOM      1  N4  ZIN A   1      19.022   0.454  15.855  0.00  0.00    -0.222 N 
ATOM      2  C5  ZIN A   1      18.519  -0.766  15.468  0.00  0.00     0.686 C 
ATOM      3  N6  ZIN A   1      17.819  -1.477  16.306  0.00  0.00    -0.234 N 
ATOM      4  H7  ZIN A   1      17.524  -2.367  16.058  0.00  0.00     0.174 HD
ATOM      5  H8  ZIN A   1      17.592  -1.116  17.177  0.00  0.00     0.174 HD
ATOM      6  N9  ZIN A   1      18.754  -1.236  14.193  0.00  0.00    -0.021 N 
ATOM      7  C10 ZIN A   1      19.600  -0.547  13.350  0.00  0.00     0.712 C 
ATOM      8  N11 ZIN A   1      20.062   0.620  13.700  0.00  0.00    -0.117 NA
ATOM      9  N12 ZIN A   1      19.956  -1.093  12.137  0.00  0.00    -0.190 N 
ATOM     10  H27 ZIN A   1      19.627   0.935  15.271  0.00  0.00     0.178 HD
ATOM     11  H28 ZIN A   1      18.325  -2.052  13.890  0.00  0.00     0.203 HD
ATOM     12  H29 ZIN A   1      20.597   1.136  13.078  0.00  0.00     0.206 HD
ATOM     13  H30 ZIN A   1      20.619  -0.650  11.582  0.00  0.00     0.184 HD
ENDROOT
BRANCH   9  14
ATOM     14  C13 ZIN A   1      19.364  -2.283  11.704  0.00  0.00     0.049 A 
ATOM     15  C19 ZIN A   1      20.051  -3.484  11.821  0.00  0.00     0.032 A 
ATOM     16  C18 ZIN A   1      19.461  -4.659  11.397  0.00  0.00     0.026 A 
ATOM     17  C16 ZIN A   1      18.191  -4.639  10.849  0.00  0.00     0.034 A 
ATOM     18  C15 ZIN A   1      17.507  -3.442  10.726  0.00  0.00     0.026 A 
ATOM     19 Cl17 ZIN A   1      17.456  -6.117  10.311  0.00  0.00    -0.084 Cl
ATOM     20  C14 ZIN A   1      18.090  -2.265  11.152  0.00  0.00     0.032 A 
ENDBRANCH   9  14
BRANCH   1  21
ATOM     21  C2  ZIN A   1      18.642   1.025  17.149  0.00  0.00     0.091 C 
ATOM     22  C1  ZIN A   1      19.636   0.568  18.219  0.00  0.00     0.032 C 
ATOM     23  C3  ZIN A   1      18.659   2.552  17.057  0.00  0.00     0.032 C 
ENDBRANCH   1  21
TORSDOF 2
ENDMDL
MODEL 7
REMARK VINA RESULT:      -6.3      4.009      5.452
REMARK  2 active torsions:
REMARK  status: ('A' for Active; 'I' for Inactive)
REMARK    1  A    between atoms: C2_2  and  N4_4 
REMARK       I    between atoms: N4_4  and  C5_5 
REMARK       I    between atoms: C5_5  and  N9_9 
REMARK       I    between atoms: N9_9  and  C10_10 
REMARK       I    between atoms: C10_10  and  N12_12 
REMARK    2  A    between atoms: N12_12  and  C13_13 
ROOT
ATOM      1  N4  ZIN A   1      18.313   2.296  11.205  0.00  0.00    -0.222 N 
ATOM      2  C5  ZIN A   1      18.912   1.302  10.468  0.00  0.00     0.686 C 
ATOM      3  N6  ZIN A   1      19.683   1.609   9.465  0.00  0.00    -0.234 N 
ATOM      4  H7  ZIN A   1      20.048   0.909   8.902  0.00  0.00     0.174 HD
ATOM      5  H8  ZIN A   1      19.894   2.538   9.281  0.00  0.00     0.174 HD
ATOM      6  N9  ZIN A   1      18.696  -0.021  10.792  0.00  0.00    -0.021 N 
ATOM      7  C10 ZIN A   1      17.780  -0.352  11.769  0.00  0.00     0.712 C 
ATOM      8  N11 ZIN A   1      17.227   0.584  12.487  0.00  0.00    -0.117 NA
ATOM      9  N12 ZIN A   1      17.451  -1.670  11.986  0.00  0.00    -0.190 N 
ATOM     10  H27 ZIN A   1      17.660   2.070  11.884  0.00  0.00     0.178 HD
ATOM     11  H28 ZIN A   1      19.187  -0.720  10.332  0.00  0.00     0.203 HD
ATOM     12  H29 ZIN A   1      16.639   0.349  13.222  0.00  0.00     0.206 HD
ATOM     13  H30 ZIN A   1      16.744  -1.897  12.612  0.00  0.00     0.184 HD
ENDROOT
BRANCH   9  14
ATOM     14  C13 ZIN A   1      18.135  -2.683  11.307  0.00  0.00     0.049 A 
ATOM     15  C19 ZIN A   1      19.297  -3.220  11.846  0.00  0.00     0.032 A 
ATOM     16  C18 ZIN A   1      19.968  -4.224  11.175  0.00  0.00     0.026 A 
ATOM     17  C16 ZIN A   1      19.488  -4.688   9.963  0.00  0.00     0.034 A 
ATOM     18  C15 ZIN A   1      18.333  -4.151   9.421  0.00  0.00     0.026 A 
ATOM     19 Cl17 ZIN A   1      20.337  -5.946   9.119  0.00  0.00    -0.084 Cl
ATOM     20  C14 ZIN A   1      17.657  -3.150  10.090  0.00  0.00     0.032 A 
ENDBRANCH   9  14
BRANCH   1  21
ATOM     21  C2  ZIN A   1      18.665   3.698  10.965  0.00  0.00     0.091 C 
ATOM     22  C1  ZIN A   1      17.398   4.494  10.646  0.00  0.00     0.032 C 
ATOM     23  C3  ZIN A   1      19.330   4.278  12.215  0.00  0.00     0.032 C 
ENDBRANCH   1  21
TORSDOF 2
ENDMDL
MODEL 8
REMARK VINA RESULT:      -6.3      3.366      5.908
REMARK  2 active torsions:
REMARK  status: ('A' for Active; 'I' for Inactive)
REMARK    1  A    between atoms: C2_2  and  N4_4 
REMARK       I    between atoms: N4_4  and  C5_5 
REMARK       I    between atoms: C5_5  and  N9_9 
REMARK       I    between atoms: N9_9  and  C10_10 
REMARK       I    between atoms: C10_10  and  N12_12 
REMARK    2  A    between atoms: N12_12  and  C13_13 
ROOT
ATOM      1  N4  ZIN A   1      19.322   1.921  13.846  0.00  0.00    -0.222 N 
ATOM      2  C5  ZIN A   1      18.584   0.778  13.650  0.00  0.00     0.686 C 
ATOM      3  N6  ZIN A   1      17.501   0.574  14.346  0.00  0.00    -0.234 N 
ATOM      4  H7  ZIN A   1      17.020  -0.263  14.259  0.00  0.00     0.174 HD
ATOM      5  H8  ZIN A   1      17.177   1.260  14.950  0.00  0.00     0.174 HD
ATOM      6  N9  ZIN A   1      18.988  -0.153  12.716  0.00  0.00    -0.021 N 
ATOM      7  C10 ZIN A   1      20.199  -0.002  12.072  0.00  0.00     0.712 C 
ATOM      8  N11 ZIN A   1      20.893   1.088  12.235  0.00  0.00    -0.117 NA
ATOM      9  N12 ZIN A   1      20.674  -1.005  11.256  0.00  0.00    -0.190 N 
ATOM     10  H27 ZIN A   1      20.179   2.025  13.406  0.00  0.00     0.178 HD
ATOM     11  H28 ZIN A   1      18.422  -0.914  12.513  0.00  0.00     0.203 HD
ATOM     12  H29 ZIN A   1      21.707   1.226  11.727  0.00  0.00     0.206 HD
ATOM     13  H30 ZIN A   1      21.563  -0.937  10.873  0.00  0.00     0.184 HD
ENDROOT
BRANCH   9  14
ATOM     14  C13 ZIN A   1      19.875  -2.119  10.980  0.00  0.00     0.049 A 
ATOM     15  C19 ZIN A   1      20.014  -3.278  11.733  0.00  0.00     0.032 A 
ATOM     16  C18 ZIN A   1      19.220  -4.375  11.461  0.00  0.00     0.026 A 
ATOM     17  C16 ZIN A   1      18.294  -4.323  10.433  0.00  0.00     0.034 A 
ATOM     18  C15 ZIN A   1      18.158  -3.171   9.678  0.00  0.00     0.026 A 
ATOM     19 Cl17 ZIN A   1      17.303  -5.706  10.090  0.00  0.00    -0.084 Cl
ATOM     20  C14 ZIN A   1      18.946  -2.070   9.949  0.00  0.00     0.032 A 
ENDBRANCH   9  14
BRANCH   1  21
ATOM     21  C2  ZIN A   1      18.812   2.981  14.719  0.00  0.00     0.091 C 
ATOM     22  C1  ZIN A   1      19.588   2.972  16.038  0.00  0.00     0.032 C 
ATOM     23  C3  ZIN A   1      18.991   4.336  14.032  0.00  0.00     0.032 C 
ENDBRANCH   1  21
TORSDOF 2
ENDMDL
MODEL 9
REMARK VINA RESULT:      -6.3      4.598      7.243
REMARK  2 active torsions:
REMARK  status: ('A' for Active; 'I' for Inactive)
REMARK    1  A    between atoms: C2_2  and  N4_4 
REMARK       I    between atoms: N4_4  and  C5_5 
REMARK       I    between atoms: C5_5  and  N9_9 
REMARK       I    between atoms: N9_9  and  C10_10 
REMARK       I    between atoms: C10_10  and  N12_12 
REMARK    2  A    between atoms: N12_12  and  C13_13 
ROOT
ATOM      1  N4  ZIN A   1      17.225   4.525  12.464  0.00  0.00    -0.222 N 
ATOM      2  C5  ZIN A   1      17.297   4.397  11.097  0.00  0.00     0.686 C 
ATOM      3  N6  ZIN A   1      17.036   5.419  10.333  0.00  0.00    -0.234 N 
ATOM      4  H7  ZIN A   1      17.017   5.312   9.369  0.00  0.00     0.174 HD
ATOM      5  H8  ZIN A   1      16.862   6.288  10.727  0.00  0.00     0.174 HD
ATOM      6  N9  ZIN A   1      17.645   3.187  10.535  0.00  0.00    -0.021 N 
ATOM      7  C10 ZIN A   1      17.795   2.073  11.334  0.00  0.00     0.712 C 
ATOM      8  N11 ZIN A   1      17.752   2.190  12.631  0.00  0.00    -0.117 NA
ATOM      9  N12 ZIN A   1      17.990   0.836  10.762  0.00  0.00    -0.190 N 
ATOM     10  H27 ZIN A   1      17.317   3.743  13.029  0.00  0.00     0.178 HD
ATOM     11  H28 ZIN A   1      17.784   3.119   9.577  0.00  0.00     0.203 HD
ATOM     12  H29 ZIN A   1      17.929   1.421  13.194  0.00  0.00     0.206 HD
ATOM     13  H30 ZIN A   1      18.008   0.041  11.319  0.00  0.00     0.184 HD
ENDROOT
BRANCH   9  14
ATOM     14  C13 ZIN A   1      18.164   0.725   9.378  0.00  0.00     0.049 A 
ATOM     15  C19 ZIN A   1      17.368  -0.146   8.646  0.00  0.00     0.032 A 
ATOM     16  C18 ZIN A   1      17.538  -0.250   7.279  0.00  0.00     0.026 A 
ATOM     17  C16 ZIN A   1      18.506   0.506   6.641  0.00  0.00     0.034 A 
ATOM     18  C15 ZIN A   1      19.304   1.371   7.370  0.00  0.00     0.026 A 
ATOM     19 Cl17 ZIN A   1      18.721   0.369   4.924  0.00  0.00    -0.084 Cl
ATOM     20  C14 ZIN A   1      19.135   1.481   8.736  0.00  0.00     0.032 A 
ENDBRANCH   9  14
BRANCH   1  21
ATOM     21  C2  ZIN A   1      17.012   5.843  13.066  0.00  0.00     0.091 C 
ATOM     22  C1  ZIN A   1      15.664   5.861  13.790  0.00  0.00     0.032 C 
ATOM     23  C3  ZIN A   1      18.132   6.134  14.067  0.00  0.00     0.032 C 
ENDBRANCH   1  21
TORSDOF 2
ENDMDL
