MODEL 1
REMARK VINA RESULT:      -7.4      0.000      0.000
REMARK  11 active torsions:
REMARK  status: ('A' for Active; 'I' for Inactive)
REMARK    1  A    between atoms: C2_2  and  C3_3 
REMARK    2  A    between atoms: C3_3  and  C4_4 
REMARK    3  A    between atoms: C7_6  and  C9_7 
REMARK       I    between atoms: C9_7  and  N11_9 
REMARK    4  A    between atoms: N11_9  and  C12_10 
REMARK    5  A    between atoms: C12_10  and  C14_11 
REMARK    6  A    between atoms: C12_10  and  C18_14 
REMARK    7  A    between atoms: C14_11  and  O17_13 
REMARK    8  A    between atoms: C21_16  and  S23_17 
REMARK    9  A    between atoms: C25_19  and  O27_20 
REMARK   10  A    between atoms: C28_21  and  O30_22 
REMARK   11  A    between atoms: C31_23  and  O33_24 
ROOT
ATOM      1  C12 ZIN A   1      19.277  -1.389   7.225  0.00  0.00     0.144 C 
ENDROOT
BRANCH   1   2
ATOM      2  N11 ZIN A   1      18.688  -0.685   8.367  0.00  0.00    -0.350 N 
ATOM      3  C9  ZIN A   1      19.479  -0.229   9.359  0.00  0.00     0.249 C 
ATOM      4  O10 ZIN A   1      20.679  -0.404   9.306  0.00  0.00    -0.271 OA
ATOM      5  H47 ZIN A   1      17.729  -0.545   8.408  0.00  0.00     0.163 HD
BRANCH   3   6
ATOM      6  C7  ZIN A   1      18.874   0.496  10.532  0.00  0.00     0.279 C 
ATOM      7  C6  ZIN A   1      17.877   1.563  10.034  0.00  0.00     0.049 C 
ATOM      8  C4  ZIN A   1      18.722   2.864  10.049  0.00  0.00     0.014 C 
ATOM      9  C37 ZIN A   1      19.612   2.645  11.297  0.00  0.00     0.240 C 
ATOM     10  N34 ZIN A   1      19.926   1.200  11.288  0.00  0.00    -0.062 N 
ATOM     11  H35 ZIN A   1      20.821   1.050  10.845  0.00  0.00     0.280 HD
ATOM     12  C36 ZIN A   1      19.966   0.697  12.667  0.00  0.00     0.270 C 
BRANCH   8  13
ATOM     13  C3  ZIN A   1      17.829   4.094  10.222  0.00  0.00     0.006 C 
BRANCH  13  14
ATOM     14  C2  ZIN A   1      17.344   4.174  11.670  0.00  0.00    -0.004 C 
ATOM     15  C1  ZIN A   1      16.629   5.507  11.897  0.00  0.00     0.005 C 
ENDBRANCH  13  14
ENDBRANCH   8  13
ENDBRANCH   3   6
ENDBRANCH   1   2
BRANCH   1  16
ATOM     16  C14 ZIN A   1      18.939  -0.641   5.934  0.00  0.00     0.139 C 
ATOM     17  C16 ZIN A   1      19.064   0.865   6.170  0.00  0.00     0.041 C 
BRANCH  16  18
ATOM     18  O17 ZIN A   1      19.844  -1.039   4.902  0.00  0.00    -0.394 OA
ATOM     19  H51 ZIN A   1      19.691  -0.600   4.054  0.00  0.00     0.210 HD
ENDBRANCH  16  18
ENDBRANCH   1  16
BRANCH   1  20
ATOM     20  C18 ZIN A   1      18.712  -2.809   7.155  0.00  0.00     0.179 C 
ATOM     21  C31 ZIN A   1      18.524  -3.354   8.574  0.00  0.00     0.180 C 
ATOM     22  C28 ZIN A   1      18.015  -4.797   8.494  0.00  0.00     0.181 C 
ATOM     23  C25 ZIN A   1      19.007  -5.632   7.677  0.00  0.00     0.188 C 
ATOM     24  C21 ZIN A   1      19.175  -4.999   6.294  0.00  0.00     0.214 C 
ATOM     25  O20 ZIN A   1      19.621  -3.649   6.440  0.00  0.00    -0.363 OA
BRANCH  21  26
ATOM     26  O33 ZIN A   1      19.774  -3.326   9.267  0.00  0.00    -0.390 OA
ATOM     27  H57 ZIN A   1      20.221  -2.470   9.235  0.00  0.00     0.210 HD
ENDBRANCH  21  26
BRANCH  22  28
ATOM     28  O30 ZIN A   1      17.906  -5.340   9.812  0.00  0.00    -0.390 OA
ATOM     29  H56 ZIN A   1      18.541  -4.974  10.442  0.00  0.00     0.210 HD
ENDBRANCH  22  28
BRANCH  23  30
ATOM     30  O27 ZIN A   1      18.507  -6.963   7.535  0.00  0.00    -0.389 OA
ATOM     31  H55 ZIN A   1      17.802  -7.188   8.158  0.00  0.00     0.210 HD
ENDBRANCH  23  30
BRANCH  24  32
ATOM     32  S23 ZIN A   1      17.586  -5.019   5.420  0.00  0.00    -0.139 SA
ATOM     33  C24 ZIN A   1      17.961  -4.155   3.870  0.00  0.00     0.092 C 
ENDBRANCH  24  32
ENDBRANCH   1  20
TORSDOF 11
ENDMDL
MODEL 2
REMARK VINA RESULT:      -7.2      5.087      8.871
REMARK  11 active torsions:
REMARK  status: ('A' for Active; 'I' for Inactive)
REMARK    1  A    between atoms: C2_2  and  C3_3 
REMARK    2  A    between atoms: C3_3  and  C4_4 
REMARK    3  A    between atoms: C7_6  and  C9_7 
REMARK       I    between atoms: C9_7  and  N11_9 
REMARK    4  A    between atoms: N11_9  and  C12_10 
REMARK    5  A    between atoms: C12_10  and  C14_11 
REMARK    6  A    between atoms: C12_10  and  C18_14 
REMARK    7  A    between atoms: C14_11  and  O17_13 
REMARK    8  A    between atoms: C21_16  and  S23_17 
REMARK    9  A    between atoms: C25_19  and  O27_20 
REMARK   10  A    between atoms: C28_21  and  O30_22 
REMARK   11  A    between atoms: C31_23  and  O33_24 
ROOT
ATOM      1  C12 ZIN A   1      17.675   3.253  12.795  0.00  0.00     0.144 C 
ENDROOT
BRANCH   1   2
ATOM      2  N11 ZIN A   1      18.392   2.368  11.873  0.00  0.00    -0.350 N 
ATOM      3  C9  ZIN A   1      17.846   1.193  11.505  0.00  0.00     0.249 C 
ATOM      4  O10 ZIN A   1      16.760   0.866  11.939  0.00  0.00    -0.271 OA
ATOM      5  H47 ZIN A   1      19.260   2.630  11.526  0.00  0.00     0.163 HD
BRANCH   3   6
ATOM      6  C7  ZIN A   1      18.582   0.283  10.557  0.00  0.00     0.279 C 
ATOM      7  C6  ZIN A   1      19.271   1.118   9.457  0.00  0.00     0.049 C 
ATOM      8  C4  ZIN A   1      18.267   1.040   8.278  0.00  0.00     0.014 C 
ATOM      9  C37 ZIN A   1      17.721  -0.402   8.426  0.00  0.00     0.240 C 
ATOM     10  N34 ZIN A   1      17.633  -0.623   9.885  0.00  0.00    -0.062 N 
ATOM     11  H35 ZIN A   1      16.694  -0.427  10.202  0.00  0.00     0.280 HD
ATOM     12  C36 ZIN A   1      17.977  -2.017  10.193  0.00  0.00     0.270 C 
BRANCH   8  13
ATOM     13  C3  ZIN A   1      18.982   1.220   6.937  0.00  0.00     0.006 C 
BRANCH  13  14
ATOM     14  C2  ZIN A   1      18.213   0.474   5.845  0.00  0.00    -0.004 C 
ATOM     15  C1  ZIN A   1      19.194  -0.033   4.786  0.00  0.00     0.005 C 
ENDBRANCH  13  14
ENDBRANCH   8  13
ENDBRANCH   3   6
ENDBRANCH   1   2
BRANCH   1  16
ATOM     16  C14 ZIN A   1      17.508   4.631  12.154  0.00  0.00     0.139 C 
ATOM     17  C16 ZIN A   1      17.439   4.482  10.633  0.00  0.00     0.041 C 
BRANCH  16  18
ATOM     18  O17 ZIN A   1      16.303   5.235  12.629  0.00  0.00    -0.394 OA
ATOM     19  H51 ZIN A   1      15.592   5.263  11.973  0.00  0.00     0.210 HD
ENDBRANCH  16  18
ENDBRANCH   1  16
BRANCH   1  20
ATOM     20  C18 ZIN A   1      18.471   3.387  14.095  0.00  0.00     0.179 C 
ATOM     21  C31 ZIN A   1      18.587   2.016  14.767  0.00  0.00     0.180 C 
ATOM     22  C28 ZIN A   1      19.334   2.170  16.096  0.00  0.00     0.181 C 
ATOM     23  C25 ZIN A   1      18.590   3.185  16.971  0.00  0.00     0.188 C 
ATOM     24  C21 ZIN A   1      18.475   4.511  16.214  0.00  0.00     0.214 C 
ATOM     25  O20 ZIN A   1      17.798   4.292  14.974  0.00  0.00    -0.363 OA
BRANCH  21  26
ATOM     26  O33 ZIN A   1      17.282   1.490  15.010  0.00  0.00    -0.390 OA
ATOM     27  H57 ZIN A   1      16.836   1.880  15.773  0.00  0.00     0.210 HD
ENDBRANCH  21  26
BRANCH  22  28
ATOM     28  O30 ZIN A   1      19.384   0.909  16.766  0.00  0.00    -0.390 OA
ATOM     29  H56 ZIN A   1      20.251   0.482  16.737  0.00  0.00     0.210 HD
ENDBRANCH  22  28
BRANCH  23  30
ATOM     30  O27 ZIN A   1      19.315   3.391  18.185  0.00  0.00    -0.389 OA
ATOM     31  H55 ZIN A   1      20.271   3.267  18.099  0.00  0.00     0.210 HD
ENDBRANCH  23  30
BRANCH  24  32
ATOM     32  S23 ZIN A   1      20.133   5.171  15.891  0.00  0.00    -0.139 SA
ATOM     33  C24 ZIN A   1      19.810   6.541  14.746  0.00  0.00     0.092 C 
ENDBRANCH  24  32
ENDBRANCH   1  20
TORSDOF 11
ENDMDL
MODEL 3
REMARK VINA RESULT:      -7.0      2.929      5.039
REMARK  11 active torsions:
REMARK  status: ('A' for Active; 'I' for Inactive)
REMARK    1  A    between atoms: C2_2  and  C3_3 
REMARK    2  A    between atoms: C3_3  and  C4_4 
REMARK    3  A    between atoms: C7_6  and  C9_7 
REMARK       I    between atoms: C9_7  and  N11_9 
REMARK    4  A    between atoms: N11_9  and  C12_10 
REMARK    5  A    between atoms: C12_10  and  C14_11 
REMARK    6  A    between atoms: C12_10  and  C18_14 
REMARK    7  A    between atoms: C14_11  and  O17_13 
REMARK    8  A    between atoms: C21_16  and  S23_17 
REMARK    9  A    between atoms: C25_19  and  O27_20 
REMARK   10  A    between atoms: C28_21  and  O30_22 
REMARK   11  A    between atoms: C31_23  and  O33_24 
ROOT
ATOM      1  C12 ZIN A   1      17.779  -2.719  10.127  0.00  0.00     0.144 C 
ENDROOT
BRANCH   1   2
ATOM      2  N11 ZIN A   1      18.504  -1.899  11.100  0.00  0.00    -0.350 N 
ATOM      3  C9  ZIN A   1      17.829  -1.070  11.921  0.00  0.00     0.249 C 
ATOM      4  O10 ZIN A   1      16.619  -1.003  11.852  0.00  0.00    -0.271 OA
ATOM      5  H47 ZIN A   1      19.472  -1.953  11.156  0.00  0.00     0.163 HD
BRANCH   3   6
ATOM      6  C7  ZIN A   1      18.574  -0.228  12.923  0.00  0.00     0.279 C 
ATOM      7  C6  ZIN A   1      19.165  -1.127  14.028  0.00  0.00     0.049 C 
ATOM      8  C4  ZIN A   1      18.117  -1.018  15.166  0.00  0.00     0.014 C 
ATOM      9  C37 ZIN A   1      17.661   0.456  15.032  0.00  0.00     0.240 C 
ATOM     10  N34 ZIN A   1      17.650   0.716  13.577  0.00  0.00    -0.062 N 
ATOM     11  H35 ZIN A   1      16.716   0.583  13.216  0.00  0.00     0.280 HD
ATOM     12  C36 ZIN A   1      18.087   2.095  13.320  0.00  0.00     0.270 C 
BRANCH   8  13
ATOM     13  C3  ZIN A   1      18.761  -1.271  16.531  0.00  0.00     0.006 C 
BRANCH  13  14
ATOM     14  C2  ZIN A   1      19.072   0.067  17.204  0.00  0.00    -0.004 C 
ATOM     15  C1  ZIN A   1      18.505   0.067  18.625  0.00  0.00     0.005 C 
ENDBRANCH  13  14
ENDBRANCH   8  13
ENDBRANCH   3   6
ENDBRANCH   1   2
BRANCH   1  16
ATOM     16  C14 ZIN A   1      17.628  -4.141  10.668  0.00  0.00     0.139 C 
ATOM     17  C16 ZIN A   1      18.872  -4.514  11.477  0.00  0.00     0.041 C 
BRANCH  16  18
ATOM     18  O17 ZIN A   1      16.474  -4.210  11.509  0.00  0.00    -0.394 OA
ATOM     19  H51 ZIN A   1      16.638  -4.621  12.369  0.00  0.00     0.210 HD
ENDBRANCH  16  18
ENDBRANCH   1  16
BRANCH   1  20
ATOM     20  C18 ZIN A   1      18.558  -2.754   8.810  0.00  0.00     0.179 C 
ATOM     21  C31 ZIN A   1      18.529  -1.367   8.162  0.00  0.00     0.180 C 
ATOM     22  C28 ZIN A   1      19.260  -1.427   6.816  0.00  0.00     0.181 C 
ATOM     23  C25 ZIN A   1      18.600  -2.493   5.937  0.00  0.00     0.188 C 
ATOM     24  C21 ZIN A   1      18.626  -3.836   6.671  0.00  0.00     0.214 C 
ATOM     25  O20 ZIN A   1      17.957  -3.704   7.927  0.00  0.00    -0.363 OA
BRANCH  21  26
ATOM     26  O33 ZIN A   1      17.174  -0.965   7.953  0.00  0.00    -0.390 OA
ATOM     27  H57 ZIN A   1      16.667  -1.567   7.393  0.00  0.00     0.210 HD
ENDBRANCH  21  26
BRANCH  22  28
ATOM     28  O30 ZIN A   1      19.176  -0.155   6.169  0.00  0.00    -0.390 OA
ATOM     29  H56 ZIN A   1      18.316   0.277   6.261  0.00  0.00     0.210 HD
ENDBRANCH  22  28
BRANCH  23  30
ATOM     30  O27 ZIN A   1      19.316  -2.609   4.706  0.00  0.00    -0.389 OA
ATOM     31  H55 ZIN A   1      20.026  -3.265   4.724  0.00  0.00     0.210 HD
ENDBRANCH  23  30
BRANCH  24  32
ATOM     32  S23 ZIN A   1      20.346  -4.340   6.951  0.00  0.00    -0.139 SA
ATOM     33  C24 ZIN A   1      20.186  -5.681   8.162  0.00  0.00     0.092 C 
ENDBRANCH  24  32
ENDBRANCH   1  20
TORSDOF 11
ENDMDL
MODEL 4
REMARK VINA RESULT:      -7.0      6.031     10.644
REMARK  11 active torsions:
REMARK  status: ('A' for Active; 'I' for Inactive)
REMARK    1  A    between atoms: C2_2  and  C3_3 
REMARK    2  A    between atoms: C3_3  and  C4_4 
REMARK    3  A    between atoms: C7_6  and  C9_7 
REMARK       I    between atoms: C9_7  and  N11_9 
REMARK    4  A    between atoms: N11_9  and  C12_10 
REMARK    5  A    between atoms: C12_10  and  C14_11 
REMARK    6  A    between atoms: C12_10  and  C18_14 
REMARK    7  A    between atoms: C14_11  and  O17_13 
REMARK    8  A    between atoms: C21_16  and  S23_17 
REMARK    9  A    between atoms: C25_19  and  O27_20 
REMARK   10  A    between atoms: C28_21  and  O30_22 
REMARK   11  A    between atoms: C31_23  and  O33_24 
ROOT
ATOM      1  C12 ZIN A   1      18.944   2.101  16.042  0.00  0.00     0.144 C 
ENDROOT
BRANCH   1   2
ATOM      2  N11 ZIN A   1      18.176   1.279  15.103  0.00  0.00    -0.350 N 
ATOM      3  C9  ZIN A   1      18.769   0.782  14.000  0.00  0.00     0.249 C 
ATOM      4  O10 ZIN A   1      19.940   1.016  13.784  0.00  0.00    -0.271 OA
ATOM      5  H47 ZIN A   1      17.239   1.092  15.276  0.00  0.00     0.163 HD
BRANCH   3   6
ATOM      6  C7  ZIN A   1      17.979  -0.063  13.035  0.00  0.00     0.279 C 
ATOM      7  C6  ZIN A   1      18.211  -1.559  13.336  0.00  0.00     0.049 C 
ATOM      8  C4  ZIN A   1      19.310  -1.955  12.316  0.00  0.00     0.014 C 
ATOM      9  C37 ZIN A   1      18.921  -1.096  11.086  0.00  0.00     0.240 C 
ATOM     10  N34 ZIN A   1      18.439   0.181  11.656  0.00  0.00    -0.062 N 
ATOM     11  H35 ZIN A   1      19.192   0.854  11.663  0.00  0.00     0.280 HD
ATOM     12  C36 ZIN A   1      17.326   0.691  10.845  0.00  0.00     0.270 C 
BRANCH   8  13
ATOM     13  C3  ZIN A   1      19.240  -3.447  11.986  0.00  0.00     0.006 C 
BRANCH  13  14
ATOM     14  C2  ZIN A   1      17.794  -3.832  11.667  0.00  0.00    -0.004 C 
ATOM     15  C1  ZIN A   1      17.587  -5.320  11.954  0.00  0.00     0.005 C 
ENDBRANCH  13  14
ENDBRANCH   8  13
ENDBRANCH   3   6
ENDBRANCH   1   2
BRANCH   1  16
ATOM     16  C14 ZIN A   1      18.583   1.711  17.476  0.00  0.00     0.139 C 
ATOM     17  C16 ZIN A   1      18.188   0.233  17.518  0.00  0.00     0.041 C 
BRANCH  16  18
ATOM     18  O17 ZIN A   1      19.710   1.927  18.327  0.00  0.00    -0.394 OA
ATOM     19  H51 ZIN A   1      19.478   2.202  19.225  0.00  0.00     0.210 HD
ENDBRANCH  16  18
ENDBRANCH   1  16
BRANCH   1  20
ATOM     20  C18 ZIN A   1      18.614   3.578  15.816  0.00  0.00     0.179 C 
ATOM     21  C31 ZIN A   1      19.903   4.349  15.520  0.00  0.00     0.180 C 
ATOM     22  C28 ZIN A   1      19.571   5.836  15.353  0.00  0.00     0.181 C 
ATOM     23  C25 ZIN A   1      18.872   6.336  16.622  0.00  0.00     0.188 C 
ATOM     24  C21 ZIN A   1      17.623   5.487  16.875  0.00  0.00     0.214 C 
ATOM     25  O20 ZIN A   1      17.998   4.113  16.989  0.00  0.00    -0.363 OA
BRANCH  21  26
ATOM     26  O33 ZIN A   1      20.820   4.183  16.602  0.00  0.00    -0.390 OA
ATOM     27  H57 ZIN A   1      21.363   3.386  16.538  0.00  0.00     0.210 HD
ENDBRANCH  21  26
BRANCH  22  28
ATOM     28  O30 ZIN A   1      20.776   6.576  15.149  0.00  0.00    -0.390 OA
ATOM     29  H56 ZIN A   1      20.679   7.529  15.278  0.00  0.00     0.210 HD
ENDBRANCH  22  28
BRANCH  23  30
ATOM     30  O27 ZIN A   1      18.493   7.703  16.452  0.00  0.00    -0.389 OA
ATOM     31  H55 ZIN A   1      18.097   7.897  15.591  0.00  0.00     0.210 HD
ENDBRANCH  23  30
BRANCH  24  32
ATOM     32  S23 ZIN A   1      16.465   5.686  15.493  0.00  0.00    -0.139 SA
ATOM     33  C24 ZIN A   1      15.023   6.458  16.276  0.00  0.00     0.092 C 
ENDBRANCH  24  32
ENDBRANCH   1  20
TORSDOF 11
ENDMDL
MODEL 5
REMARK VINA RESULT:      -6.9      5.248      9.119
REMARK  11 active torsions:
REMARK  status: ('A' for Active; 'I' for Inactive)
REMARK    1  A    between atoms: C2_2  and  C3_3 
REMARK    2  A    between atoms: C3_3  and  C4_4 
REMARK    3  A    between atoms: C7_6  and  C9_7 
REMARK       I    between atoms: C9_7  and  N11_9 
REMARK    4  A    between atoms: N11_9  and  C12_10 
REMARK    5  A    between atoms: C12_10  and  C14_11 
REMARK    6  A    between atoms: C12_10  and  C18_14 
REMARK    7  A    between atoms: C14_11  and  O17_13 
REMARK    8  A    between atoms: C21_16  and  S23_17 
REMARK    9  A    between atoms: C25_19  and  O27_20 
REMARK   10  A    between atoms: C28_21  and  O30_22 
REMARK   11  A    between atoms: C31_23  and  O33_24 
ROOT
ATOM      1  C12 ZIN A   1      17.762   2.553  13.150  0.00  0.00     0.144 C 
ENDROOT
BRANCH   1   2
ATOM      2  N11 ZIN A   1      18.431   1.483  12.407  0.00  0.00    -0.350 N 
ATOM      3  C9  ZIN A   1      17.702   0.531  11.791  0.00  0.00     0.249 C 
ATOM      4  O10 ZIN A   1      16.490   0.561  11.853  0.00  0.00    -0.271 OA
ATOM      5  H47 ZIN A   1      19.400   1.459  12.357  0.00  0.00     0.163 HD
BRANCH   3   6
ATOM      6  C7  ZIN A   1      18.390  -0.569  11.026  0.00  0.00     0.279 C 
ATOM      7  C6  ZIN A   1      17.518  -1.842  11.039  0.00  0.00     0.049 C 
ATOM      8  C4  ZIN A   1      18.131  -2.673  12.196  0.00  0.00     0.014 C 
ATOM      9  C37 ZIN A   1      19.637  -2.336  12.062  0.00  0.00     0.240 C 
ATOM     10  N34 ZIN A   1      19.670  -0.910  11.672  0.00  0.00    -0.062 N 
ATOM     11  H35 ZIN A   1      19.799  -0.337  12.494  0.00  0.00     0.280 HD
ATOM     12  C36 ZIN A   1      20.776  -0.683  10.732  0.00  0.00     0.270 C 
BRANCH   8  13
ATOM     13  C3  ZIN A   1      17.884  -4.169  11.987  0.00  0.00     0.006 C 
BRANCH  13  14
ATOM     14  C2  ZIN A   1      18.711  -4.662  10.799  0.00  0.00    -0.004 C 
ATOM     15  C1  ZIN A   1      17.909  -5.703  10.015  0.00  0.00     0.005 C 
ENDBRANCH  13  14
ENDBRANCH   8  13
ENDBRANCH   3   6
ENDBRANCH   1   2
BRANCH   1  16
ATOM     16  C14 ZIN A   1      17.726   3.822  12.297  0.00  0.00     0.139 C 
ATOM     17  C16 ZIN A   1      19.135   4.138  11.793  0.00  0.00     0.041 C 
BRANCH  16  18
ATOM     18  O17 ZIN A   1      16.855   3.621  11.181  0.00  0.00    -0.394 OA
ATOM     19  H51 ZIN A   1      16.365   4.412  10.918  0.00  0.00     0.210 HD
ENDBRANCH  16  18
ENDBRANCH   1  16
BRANCH   1  20
ATOM     20  C18 ZIN A   1      18.529   2.831  14.445  0.00  0.00     0.179 C 
ATOM     21  C31 ZIN A   1      18.629   1.542  15.265  0.00  0.00     0.180 C 
ATOM     22  C28 ZIN A   1      19.345   1.842  16.586  0.00  0.00     0.181 C 
ATOM     23  C25 ZIN A   1      18.583   2.945  17.328  0.00  0.00     0.188 C 
ATOM     24  C21 ZIN A   1      18.485   4.179  16.428  0.00  0.00     0.214 C 
ATOM     25  O20 ZIN A   1      17.837   3.825  15.204  0.00  0.00    -0.363 OA
BRANCH  21  26
ATOM     26  O33 ZIN A   1      17.318   1.042  15.535  0.00  0.00    -0.390 OA
ATOM     27  H57 ZIN A   1      16.651   1.323  14.895  0.00  0.00     0.210 HD
ENDBRANCH  21  26
BRANCH  22  28
ATOM     28  O30 ZIN A   1      19.380   0.661  17.391  0.00  0.00    -0.390 OA
ATOM     29  H56 ZIN A   1      20.248   0.470  17.772  0.00  0.00     0.210 HD
ENDBRANCH  22  28
BRANCH  23  30
ATOM     30  O27 ZIN A   1      19.280   3.284  18.528  0.00  0.00    -0.389 OA
ATOM     31  H55 ZIN A   1      19.468   2.528  19.101  0.00  0.00     0.210 HD
ENDBRANCH  23  30
BRANCH  24  32
ATOM     32  S23 ZIN A   1      20.150   4.804  16.071  0.00  0.00    -0.139 SA
ATOM     33  C24 ZIN A   1      19.831   6.219  14.982  0.00  0.00     0.092 C 
ENDBRANCH  24  32
ENDBRANCH   1  20
TORSDOF 11
ENDMDL
MODEL 6
REMARK VINA RESULT:      -6.8      2.309      3.325
REMARK  11 active torsions:
REMARK  status: ('A' for Active; 'I' for Inactive)
REMARK    1  A    between atoms: C2_2  and  C3_3 
REMARK    2  A    between atoms: C3_3  and  C4_4 
REMARK    3  A    between atoms: C7_6  and  C9_7 
REMARK       I    between atoms: C9_7  and  N11_9 
REMARK    4  A    between atoms: N11_9  and  C12_10 
REMARK    5  A    between atoms: C12_10  and  C14_11 
REMARK    6  A    between atoms: C12_10  and  C18_14 
REMARK    7  A    between atoms: C14_11  and  O17_13 
REMARK    8  A    between atoms: C21_16  and  S23_17 
REMARK    9  A    between atoms: C25_19  and  O27_20 
REMARK   10  A    between atoms: C28_21  and  O30_22 
REMARK   11  A    between atoms: C31_23  and  O33_24 
ROOT
ATOM      1  C12 ZIN A   1      18.446  -3.665   5.545  0.00  0.00     0.144 C 
ENDROOT
BRANCH   1   2
ATOM      2  N11 ZIN A   1      18.054  -2.785   6.649  0.00  0.00    -0.350 N 
ATOM      3  C9  ZIN A   1      18.892  -2.593   7.688  0.00  0.00     0.249 C 
ATOM      4  O10 ZIN A   1      19.970  -3.150   7.708  0.00  0.00    -0.271 OA
ATOM      5  H47 ZIN A   1      17.193  -2.340   6.633  0.00  0.00     0.163 HD
BRANCH   3   6
ATOM      6  C7  ZIN A   1      18.490  -1.688   8.823  0.00  0.00     0.279 C 
ATOM      7  C6  ZIN A   1      18.085  -0.304   8.273  0.00  0.00     0.049 C 
ATOM      8  C4  ZIN A   1      19.375   0.536   8.457  0.00  0.00     0.014 C 
ATOM      9  C37 ZIN A   1      19.934  -0.033   9.785  0.00  0.00     0.240 C 
ATOM     10  N34 ZIN A   1      19.632  -1.479   9.732  0.00  0.00    -0.062 N 
ATOM     11  H35 ZIN A   1      20.437  -1.981   9.386  0.00  0.00     0.280 HD
ATOM     12  C36 ZIN A   1      19.289  -1.960  11.076  0.00  0.00     0.270 C 
BRANCH   8  13
ATOM     13  C3  ZIN A   1      19.045   2.024   8.594  0.00  0.00     0.006 C 
BRANCH  13  14
ATOM     14  C2  ZIN A   1      18.798   2.358  10.066  0.00  0.00    -0.004 C 
ATOM     15  C1  ZIN A   1      18.088   3.709  10.171  0.00  0.00     0.005 C 
ENDBRANCH  13  14
ENDBRANCH   8  13
ENDBRANCH   3   6
ENDBRANCH   1   2
BRANCH   1  16
ATOM     16  C14 ZIN A   1      18.303  -2.915   4.220  0.00  0.00     0.139 C 
ATOM     17  C16 ZIN A   1      17.133  -1.934   4.312  0.00  0.00     0.041 C 
BRANCH  16  18
ATOM     18  O17 ZIN A   1      19.508  -2.195   3.948  0.00  0.00    -0.394 OA
ATOM     19  H51 ZIN A   1      19.501  -1.722   3.104  0.00  0.00     0.210 HD
ENDBRANCH  16  18
ENDBRANCH   1  16
BRANCH   1  20
ATOM     20  C18 ZIN A   1      17.543  -4.900   5.532  0.00  0.00     0.179 C 
ATOM     21  C31 ZIN A   1      18.195  -6.018   6.350  0.00  0.00     0.180 C 
ATOM     22  C28 ZIN A   1      17.313  -7.269   6.283  0.00  0.00     0.181 C 
ATOM     23  C25 ZIN A   1      17.116  -7.662   4.815  0.00  0.00     0.188 C 
ATOM     24  C21 ZIN A   1      16.505  -6.480   4.057  0.00  0.00     0.214 C 
ATOM     25  O20 ZIN A   1      17.358  -5.341   4.185  0.00  0.00    -0.363 OA
BRANCH  21  26
ATOM     26  O33 ZIN A   1      19.486  -6.313   5.813  0.00  0.00    -0.390 OA
ATOM     27  H57 ZIN A   1      19.520  -6.309   4.847  0.00  0.00     0.210 HD
ENDBRANCH  21  26
BRANCH  22  28
ATOM     28  O30 ZIN A   1      17.949  -8.342   6.982  0.00  0.00    -0.390 OA
ATOM     29  H56 ZIN A   1      18.913  -8.284   6.996  0.00  0.00     0.210 HD
ENDBRANCH  22  28
BRANCH  23  30
ATOM     30  O27 ZIN A   1      16.236  -8.785   4.735  0.00  0.00    -0.389 OA
ATOM     31  H55 ZIN A   1      16.611  -9.546   4.269  0.00  0.00     0.210 HD
ENDBRANCH  23  30
BRANCH  24  32
ATOM     32  S23 ZIN A   1      14.873  -6.094   4.749  0.00  0.00    -0.139 SA
ATOM     33  C24 ZIN A   1      13.801  -6.084   3.286  0.00  0.00     0.092 C 
ENDBRANCH  24  32
ENDBRANCH   1  20
TORSDOF 11
ENDMDL
MODEL 7
REMARK VINA RESULT:      -6.6      1.969      3.630
REMARK  11 active torsions:
REMARK  status: ('A' for Active; 'I' for Inactive)
REMARK    1  A    between atoms: C2_2  and  C3_3 
REMARK    2  A    between atoms: C3_3  and  C4_4 
REMARK    3  A    between atoms: C7_6  and  C9_7 
REMARK       I    between atoms: C9_7  and  N11_9 
REMARK    4  A    between atoms: N11_9  and  C12_10 
REMARK    5  A    between atoms: C12_10  and  C14_11 
REMARK    6  A    between atoms: C12_10  and  C18_14 
REMARK    7  A    between atoms: C14_11  and  O17_13 
REMARK    8  A    between atoms: C21_16  and  S23_17 
REMARK    9  A    between atoms: C25_19  and  O27_20 
REMARK   10  A    between atoms: C28_21  and  O30_22 
REMARK   11  A    between atoms: C31_23  and  O33_24 
ROOT
ATOM      1  C12 ZIN A   1      17.811  -2.349   9.897  0.00  0.00     0.144 C 
ENDROOT
BRANCH   1   2
ATOM      2  N11 ZIN A   1      18.423  -1.188  10.548  0.00  0.00    -0.350 N 
ATOM      3  C9  ZIN A   1      17.649  -0.289  11.188  0.00  0.00     0.249 C 
ATOM      4  O10 ZIN A   1      16.446  -0.440  11.222  0.00  0.00    -0.271 OA
ATOM      5  H47 ZIN A   1      19.385  -1.068  10.522  0.00  0.00     0.163 HD
BRANCH   3   6
ATOM      6  C7  ZIN A   1      18.278   0.904  11.859  0.00  0.00     0.279 C 
ATOM      7  C6  ZIN A   1      17.427   2.164  11.596  0.00  0.00     0.049 C 
ATOM      8  C4  ZIN A   1      18.151   2.833  10.400  0.00  0.00     0.014 C 
ATOM      9  C37 ZIN A   1      19.635   2.518  10.715  0.00  0.00     0.240 C 
ATOM     10  N34 ZIN A   1      19.616   1.156  11.292  0.00  0.00    -0.062 N 
ATOM     11  H35 ZIN A   1      19.812   0.479  10.570  0.00  0.00     0.280 HD
ATOM     12  C36 ZIN A   1      20.629   1.057  12.351  0.00  0.00     0.270 C 
BRANCH   8  13
ATOM     13  C3  ZIN A   1      17.904   4.343  10.383  0.00  0.00     0.006 C 
BRANCH  13  14
ATOM     14  C2  ZIN A   1      16.606   4.655  11.130  0.00  0.00    -0.004 C 
ATOM     15  C1  ZIN A   1      16.876   5.713  12.203  0.00  0.00     0.005 C 
ENDBRANCH  13  14
ENDBRANCH   8  13
ENDBRANCH   3   6
ENDBRANCH   1   2
BRANCH   1  16
ATOM     16  C14 ZIN A   1      17.941  -3.572  10.805  0.00  0.00     0.139 C 
ATOM     17  C16 ZIN A   1      19.290  -3.531  11.526  0.00  0.00     0.041 C 
BRANCH  16  18
ATOM     18  O17 ZIN A   1      16.886  -3.565  11.769  0.00  0.00    -0.394 OA
ATOM     19  H51 ZIN A   1      16.680  -2.687  12.120  0.00  0.00     0.210 HD
ENDBRANCH  16  18
ENDBRANCH   1  16
BRANCH   1  20
ATOM     20  C18 ZIN A   1      18.522  -2.622   8.569  0.00  0.00     0.179 C 
ATOM     21  C31 ZIN A   1      18.515  -1.350   7.716  0.00  0.00     0.180 C 
ATOM     22  C28 ZIN A   1      19.175  -1.648   6.366  0.00  0.00     0.181 C 
ATOM     23  C25 ZIN A   1      18.432  -2.805   5.691  0.00  0.00     0.188 C 
ATOM     24  C21 ZIN A   1      18.443  -4.020   6.623  0.00  0.00     0.214 C 
ATOM     25  O20 ZIN A   1      17.842  -3.667   7.871  0.00  0.00    -0.363 OA
BRANCH  21  26
ATOM     26  O33 ZIN A   1      17.168  -0.923   7.505  0.00  0.00    -0.390 OA
ATOM     27  H57 ZIN A   1      17.056   0.037   7.504  0.00  0.00     0.210 HD
ENDBRANCH  21  26
BRANCH  22  28
ATOM     28  O30 ZIN A   1      19.109  -0.488   5.533  0.00  0.00    -0.390 OA
ATOM     29  H56 ZIN A   1      18.403   0.128   5.773  0.00  0.00     0.210 HD
ENDBRANCH  22  28
BRANCH  23  30
ATOM     30  O27 ZIN A   1      19.082  -3.140   4.464  0.00  0.00    -0.389 OA
ATOM     31  H55 ZIN A   1      19.825  -3.752   4.565  0.00  0.00     0.210 HD
ENDBRANCH  23  30
BRANCH  24  32
ATOM     32  S23 ZIN A   1      20.154  -4.553   6.904  0.00  0.00    -0.139 SA
ATOM     33  C24 ZIN A   1      20.002  -5.686   8.312  0.00  0.00     0.092 C 
ENDBRANCH  24  32
ENDBRANCH   1  20
TORSDOF 11
ENDMDL
MODEL 8
REMARK VINA RESULT:      -6.6      2.222      4.100
REMARK  11 active torsions:
REMARK  status: ('A' for Active; 'I' for Inactive)
REMARK    1  A    between atoms: C2_2  and  C3_3 
REMARK    2  A    between atoms: C3_3  and  C4_4 
REMARK    3  A    between atoms: C7_6  and  C9_7 
REMARK       I    between atoms: C9_7  and  N11_9 
REMARK    4  A    between atoms: N11_9  and  C12_10 
REMARK    5  A    between atoms: C12_10  and  C14_11 
REMARK    6  A    between atoms: C12_10  and  C18_14 
REMARK    7  A    between atoms: C14_11  and  O17_13 
REMARK    8  A    between atoms: C21_16  and  S23_17 
REMARK    9  A    between atoms: C25_19  and  O27_20 
REMARK   10  A    between atoms: C28_21  and  O30_22 
REMARK   11  A    between atoms: C31_23  and  O33_24 
ROOT
ATOM      1  C12 ZIN A   1      18.357  -0.956   9.504  0.00  0.00     0.144 C 
ENDROOT
BRANCH   1   2
ATOM      2  N11 ZIN A   1      18.880   0.385   9.777  0.00  0.00    -0.350 N 
ATOM      3  C9  ZIN A   1      18.123   1.283  10.437  0.00  0.00     0.249 C 
ATOM      4  O10 ZIN A   1      17.007   0.982  10.805  0.00  0.00    -0.271 OA
ATOM      5  H47 ZIN A   1      19.773   0.626   9.483  0.00  0.00     0.163 HD
BRANCH   3   6
ATOM      6  C7  ZIN A   1      18.662   2.661  10.719  0.00  0.00     0.279 C 
ATOM      7  C6  ZIN A   1      19.406   2.668  12.071  0.00  0.00     0.049 C 
ATOM      8  C4  ZIN A   1      18.338   3.212  13.055  0.00  0.00     0.014 C 
ATOM      9  C37 ZIN A   1      17.591   4.242  12.171  0.00  0.00     0.240 C 
ATOM     10  N34 ZIN A   1      17.552   3.626  10.827  0.00  0.00    -0.062 N 
ATOM     11  H35 ZIN A   1      16.673   3.147  10.698  0.00  0.00     0.280 HD
ATOM     12  C36 ZIN A   1      17.702   4.669   9.803  0.00  0.00     0.270 C 
BRANCH   8  13
ATOM     13  C3  ZIN A   1      18.995   3.895  14.255  0.00  0.00     0.006 C 
BRANCH  13  14
ATOM     14  C2  ZIN A   1      19.248   5.368  13.929  0.00  0.00    -0.004 C 
ATOM     15  C1  ZIN A   1      20.424   5.882  14.762  0.00  0.00     0.005 C 
ENDBRANCH  13  14
ENDBRANCH   8  13
ENDBRANCH   3   6
ENDBRANCH   1   2
BRANCH   1  16
ATOM     16  C14 ZIN A   1      18.812  -1.916  10.603  0.00  0.00     0.139 C 
ATOM     17  C16 ZIN A   1      17.587  -2.550  11.266  0.00  0.00     0.041 C 
BRANCH  16  18
ATOM     18  O17 ZIN A   1      19.630  -2.940  10.034  0.00  0.00    -0.394 OA
ATOM     19  H51 ZIN A   1      20.037  -3.527  10.686  0.00  0.00     0.210 HD
ENDBRANCH  16  18
ENDBRANCH   1  16
BRANCH   1  20
ATOM     20  C18 ZIN A   1      18.882  -1.443   8.151  0.00  0.00     0.179 C 
ATOM     21  C31 ZIN A   1      18.990  -0.257   7.189  0.00  0.00     0.180 C 
ATOM     22  C28 ZIN A   1      19.460  -0.762   5.820  0.00  0.00     0.181 C 
ATOM     23  C25 ZIN A   1      18.481  -1.829   5.320  0.00  0.00     0.188 C 
ATOM     24  C21 ZIN A   1      18.393  -2.954   6.355  0.00  0.00     0.214 C 
ATOM     25  O20 ZIN A   1      17.981  -2.412   7.612  0.00  0.00    -0.363 OA
BRANCH  21  26
ATOM     26  O33 ZIN A   1      17.713   0.369   7.055  0.00  0.00    -0.390 OA
ATOM     27  H57 ZIN A   1      17.112   0.198   7.791  0.00  0.00     0.210 HD
ENDBRANCH  21  26
BRANCH  22  28
ATOM     28  O30 ZIN A   1      19.495   0.326   4.894  0.00  0.00    -0.390 OA
ATOM     29  H56 ZIN A   1      19.860   0.095   4.030  0.00  0.00     0.210 HD
ENDBRANCH  22  28
BRANCH  23  30
ATOM     30  O27 ZIN A   1      18.947  -2.360   4.078  0.00  0.00    -0.389 OA
ATOM     31  H55 ZIN A   1      18.327  -2.247   3.344  0.00  0.00     0.210 HD
ENDBRANCH  23  30
BRANCH  24  32
ATOM     32  S23 ZIN A   1      20.018  -3.739   6.538  0.00  0.00    -0.139 SA
ATOM     33  C24 ZIN A   1      19.601  -5.482   6.813  0.00  0.00     0.092 C 
ENDBRANCH  24  32
ENDBRANCH   1  20
TORSDOF 11
ENDMDL
MODEL 9
REMARK VINA RESULT:      -6.6      5.499      9.967
REMARK  11 active torsions:
REMARK  status: ('A' for Active; 'I' for Inactive)
REMARK    1  A    between atoms: C2_2  and  C3_3 
REMARK    2  A    between atoms: C3_3  and  C4_4 
REMARK    3  A    between atoms: C7_6  and  C9_7 
REMARK       I    between atoms: C9_7  and  N11_9 
REMARK    4  A    between atoms: N11_9  and  C12_10 
REMARK    5  A    between atoms: C12_10  and  C14_11 
REMARK    6  A    between atoms: C12_10  and  C18_14 
REMARK    7  A    between atoms: C14_11  and  O17_13 
REMARK    8  A    between atoms: C21_16  and  S23_17 
REMARK    9  A    between atoms: C25_19  and  O27_20 
REMARK   10  A    between atoms: C28_21  and  O30_22 
REMARK   11  A    between atoms: C31_23  and  O33_24 
ROOT
ATOM      1  C12 ZIN A   1      18.921   0.764  15.578  0.00  0.00     0.144 C 
ENDROOT
BRANCH   1   2
ATOM      2  N11 ZIN A   1      18.170   0.190  14.459  0.00  0.00    -0.350 N 
ATOM      3  C9  ZIN A   1      18.728  -0.768  13.693  0.00  0.00     0.249 C 
ATOM      4  O10 ZIN A   1      19.854  -1.154  13.929  0.00  0.00    -0.271 OA
ATOM      5  H47 ZIN A   1      17.269   0.497  14.271  0.00  0.00     0.163 HD
BRANCH   3   6
ATOM      6  C7  ZIN A   1      17.955  -1.360  12.544  0.00  0.00     0.279 C 
ATOM      7  C6  ZIN A   1      18.094  -2.897  12.553  0.00  0.00     0.049 C 
ATOM      8  C4  ZIN A   1      19.230  -3.151  11.528  0.00  0.00     0.014 C 
ATOM      9  C37 ZIN A   1      18.956  -2.048  10.476  0.00  0.00     0.240 C 
ATOM     10  N34 ZIN A   1      18.505  -0.880  11.263  0.00  0.00    -0.062 N 
ATOM     11  H35 ZIN A   1      19.288  -0.267  11.439  0.00  0.00     0.280 HD
ATOM     12  C36 ZIN A   1      17.467  -0.155  10.518  0.00  0.00     0.270 C 
BRANCH   8  13
ATOM     13  C3  ZIN A   1      19.106  -4.544  10.906  0.00  0.00     0.006 C 
BRANCH  13  14
ATOM     14  C2  ZIN A   1      17.850  -5.232  11.443  0.00  0.00    -0.004 C 
ATOM     15  C1  ZIN A   1      17.255  -6.130  10.356  0.00  0.00     0.005 C 
ENDBRANCH  13  14
ENDBRANCH   8  13
ENDBRANCH   3   6
ENDBRANCH   1   2
BRANCH   1  16
ATOM     16  C14 ZIN A   1      18.500   0.083  16.880  0.00  0.00     0.139 C 
ATOM     17  C16 ZIN A   1      17.001  -0.218  16.836  0.00  0.00     0.041 C 
BRANCH  16  18
ATOM     18  O17 ZIN A   1      19.227  -1.138  17.036  0.00  0.00    -0.394 OA
ATOM     19  H51 ZIN A   1      19.098  -1.566  17.894  0.00  0.00     0.210 HD
ENDBRANCH  16  18
ENDBRANCH   1  16
BRANCH   1  20
ATOM     20  C18 ZIN A   1      18.631   2.264  15.669  0.00  0.00     0.179 C 
ATOM     21  C31 ZIN A   1      18.494   2.845  14.259  0.00  0.00     0.180 C 
ATOM     22  C28 ZIN A   1      18.263   4.356  14.358  0.00  0.00     0.181 C 
ATOM     23  C25 ZIN A   1      19.422   4.987  15.137  0.00  0.00     0.188 C 
ATOM     24  C21 ZIN A   1      19.523   4.324  16.513  0.00  0.00     0.214 C 
ATOM     25  O20 ZIN A   1      19.706   2.916  16.349  0.00  0.00    -0.363 OA
BRANCH  21  26
ATOM     26  O33 ZIN A   1      19.689   2.591  13.518  0.00  0.00    -0.390 OA
ATOM     27  H57 ZIN A   1      19.723   1.714  13.115  0.00  0.00     0.210 HD
ENDBRANCH  21  26
BRANCH  22  28
ATOM     28  O30 ZIN A   1      18.206   4.920  13.046  0.00  0.00    -0.390 OA
ATOM     29  H56 ZIN A   1      17.333   5.253  12.799  0.00  0.00     0.210 HD
ENDBRANCH  22  28
BRANCH  23  30
ATOM     30  O27 ZIN A   1      19.183   6.387  15.298  0.00  0.00    -0.389 OA
ATOM     31  H55 ZIN A   1      19.983   6.929  15.269  0.00  0.00     0.210 HD
ENDBRANCH  23  30
BRANCH  24  32
ATOM     32  S23 ZIN A   1      17.999   4.631  17.447  0.00  0.00    -0.139 SA
ATOM     33  C24 ZIN A   1      18.220   3.615  18.933  0.00  0.00     0.092 C 
ENDBRANCH  24  32
ENDBRANCH   1  20
TORSDOF 11
ENDMDL
