MODEL 1
REMARK VINA RESULT:      -7.6      0.000      0.000
REMARK  10 active torsions:
REMARK  status: ('A' for Active; 'I' for Inactive)
REMARK    1  A    between atoms: O2_2  and  C3_3 
REMARK    2  A    between atoms: C8_8  and  O9_9 
REMARK    3  A    between atoms: N14_14  and  C15_15 
REMARK    4  A    between atoms: C15_15  and  C16_16 
REMARK    5  A    between atoms: C16_16  and  C17_17 
REMARK    6  A    between atoms: C17_17  and  N18_18 
REMARK    7  A    between atoms: N18_18  and  C21_21 
REMARK    8  A    between atoms: C21_21  and  C22_22 
REMARK    9  A    between atoms: C27_26  and  O28_27 
REMARK   10  A    between atoms: C30_29  and  O31_30 
ROOT
ATOM      1  C16 <0> d   1      18.234  -0.059   9.665  0.00  0.00     0.047 C 
ENDROOT
BRANCH   1   2
ATOM      2  C15 <0> d   1      18.637   0.580   8.334  0.00  0.00     0.127 C 
BRANCH   2   3
ATOM      3  N14 <0> d   1      18.846  -0.468   7.333  0.00  0.00    -0.352 N 
ATOM      4  C12 <0> d   1      18.712  -0.054   6.098  0.00  0.00     0.224 C 
ATOM      5  C11 <0> d   1      18.914  -0.838   4.847  0.00  0.00     0.142 C 
ATOM      6  O13 <0> d   1      18.383   1.104   5.956  0.00  0.00    -0.273 OA
ATOM      7  C6  <0> d   1      18.223  -2.177   4.919  0.00  0.00    -0.040 A 
ATOM      8  C5  <0> d   1      18.631  -3.082   5.852  0.00  0.00    -0.047 A 
ATOM      9  C7  <0> d   1      17.217  -2.478   4.017  0.00  0.00     0.047 A 
ATOM     10  C4  <0> d   1      18.053  -4.347   5.882  0.00  0.00     0.047 A 
ATOM     11  C36 <0> d   1      19.679  -2.748   6.873  0.00  0.00     0.059 C 
ATOM     12  C3  <0> d   1      17.059  -4.673   4.975  0.00  0.00     0.102 A 
ATOM     13  C8  <0> d   1      16.634  -3.735   4.039  0.00  0.00     0.102 A 
ATOM     14  C35 <0> d   1      19.160  -1.764   7.902  0.00  0.00     0.130 C 
BRANCH  12  15
ATOM     15  O2  <0> d   1      16.500  -5.912   4.998  0.00  0.00    -0.353 OA
ATOM     16  C1  <0> d   1      17.315  -6.983   5.481  0.00  0.00     0.210 C 
ENDBRANCH  12  15
BRANCH  13  17
ATOM     17  O9  <0> d   1      15.648  -4.048   3.156  0.00  0.00    -0.353 OA
ATOM     18  C10 <0> d   1      16.052  -4.406   1.832  0.00  0.00     0.210 C 
ENDBRANCH  13  17
ENDBRANCH   2   3
ENDBRANCH   1   2
BRANCH   1  19
ATOM     19  C17 <0> d   1      18.809   0.764  10.820  0.00  0.00     0.236 C 
BRANCH  19  20
ATOM     20  N18 <0> d   1      19.052  -0.114  11.972  0.00  0.00    -0.074 N 
ATOM     21  H19 <0> d   1      18.172  -0.464  12.321  0.00  0.00     0.279 HD
ATOM     22  C20 <0> d   1      19.731   0.645  13.031  0.00  0.00     0.269 C 
BRANCH  20  23
ATOM     23  C21 <0> d   1      19.899  -1.242  11.559  0.00  0.00     0.243 C 
BRANCH  23  24
ATOM     24  C22 <0> d   1      19.370  -2.533  12.187  0.00  0.00     0.049 A 
ATOM     25  C34 <0> d   1      19.206  -3.653  11.191  0.00  0.00    -0.043 A 
ATOM     26  C25 <0> d   1      17.835  -3.638  11.393  0.00  0.00    -0.048 A 
ATOM     27  C33 <0> d   1      19.775  -4.543  10.301  0.00  0.00     0.047 A 
ATOM     28  C24 <0> d   1      17.858  -2.516  12.411  0.00  0.00     0.050 A 
ATOM     29  C26 <0> d   1      17.034  -4.530  10.691  0.00  0.00     0.047 A 
ATOM     30  C27 <0> d   1      17.599  -5.424   9.799  0.00  0.00     0.102 A 
ATOM     31  C30 <0> d   1      18.977  -5.433   9.600  0.00  0.00     0.102 A 
BRANCH  30  32
ATOM     32  O28 <0> d   1      16.809  -6.294   9.116  0.00  0.00    -0.353 OA
ATOM     33  C29 <0> d   1      15.594  -5.776   8.569  0.00  0.00     0.210 C 
ENDBRANCH  30  32
BRANCH  31  34
ATOM     34  O31 <0> d   1      19.536  -6.311   8.725  0.00  0.00    -0.353 OA
ATOM     35  C32 <0> d   1      20.776  -5.930   8.128  0.00  0.00     0.210 C 
ENDBRANCH  31  34
ENDBRANCH  23  24
ENDBRANCH  20  23
ENDBRANCH  19  20
ENDBRANCH   1  19
TORSDOF 10
ENDMDL
MODEL 2
REMARK VINA RESULT:      -7.2      5.717     10.101
REMARK  10 active torsions:
REMARK  status: ('A' for Active; 'I' for Inactive)
REMARK    1  A    between atoms: O2_2  and  C3_3 
REMARK    2  A    between atoms: C8_8  and  O9_9 
REMARK    3  A    between atoms: N14_14  and  C15_15 
REMARK    4  A    between atoms: C15_15  and  C16_16 
REMARK    5  A    between atoms: C16_16  and  C17_17 
REMARK    6  A    between atoms: C17_17  and  N18_18 
REMARK    7  A    between atoms: N18_18  and  C21_21 
REMARK    8  A    between atoms: C21_21  and  C22_22 
REMARK    9  A    between atoms: C27_26  and  O28_27 
REMARK   10  A    between atoms: C30_29  and  O31_30 
ROOT
ATOM      1  C16 <0> d   1      17.480   1.406  10.155  0.00  0.00     0.047 C 
ENDROOT
BRANCH   1   2
ATOM      2  C15 <0> d   1      18.711   2.314  10.102  0.00  0.00     0.127 C 
BRANCH   2   3
ATOM      3  N14 <0> d   1      18.459   3.523  10.890  0.00  0.00    -0.352 N 
ATOM      4  C12 <0> d   1      19.436   3.834  11.705  0.00  0.00     0.224 C 
ATOM      5  C11 <0> d   1      19.533   5.024  12.598  0.00  0.00     0.142 C 
ATOM      6  O13 <0> d   1      20.371   3.064  11.738  0.00  0.00    -0.273 OA
ATOM      7  C6  <0> d   1      18.256   5.237  13.371  0.00  0.00    -0.040 A 
ATOM      8  C5  <0> d   1      17.112   5.526  12.690  0.00  0.00    -0.047 A 
ATOM      9  C7  <0> d   1      18.273   5.173  14.754  0.00  0.00     0.047 A 
ATOM     10  C4  <0> d   1      15.942   5.797  13.395  0.00  0.00     0.047 A 
ATOM     11  C36 <0> d   1      17.065   5.541  11.191  0.00  0.00     0.059 C 
ATOM     12  C3  <0> d   1      15.945   5.757  14.778  0.00  0.00     0.102 A 
ATOM     13  C8  <0> d   1      17.114   5.441  15.465  0.00  0.00     0.102 A 
ATOM     14  C35 <0> d   1      17.178   4.142  10.617  0.00  0.00     0.130 C 
BRANCH  12  15
ATOM     15  O2  <0> d   1      14.805   6.031  15.467  0.00  0.00    -0.353 OA
ATOM     16  C1  <0> d   1      13.609   6.198  14.702  0.00  0.00     0.210 C 
ENDBRANCH  12  15
BRANCH  13  17
ATOM     17  O9  <0> d   1      17.115   5.388  16.824  0.00  0.00    -0.353 OA
ATOM     18  C10 <0> d   1      17.804   6.433  17.513  0.00  0.00     0.210 C 
ENDBRANCH  13  17
ENDBRANCH   2   3
ENDBRANCH   1   2
BRANCH   1  19
ATOM     19  C17 <0> d   1      17.896   0.012  10.628  0.00  0.00     0.236 C 
BRANCH  19  20
ATOM     20  N18 <0> d   1      19.358  -0.108  10.571  0.00  0.00    -0.074 N 
ATOM     21  H19 <0> d   1      19.754   0.754  10.227  0.00  0.00     0.279 HD
ATOM     22  C20 <0> d   1      19.725  -1.209   9.671  0.00  0.00     0.269 C 
BRANCH  20  23
ATOM     23  C21 <0> d   1      19.881  -0.383  11.917  0.00  0.00     0.243 C 
BRANCH  23  24
ATOM     24  C22 <0> d   1      18.725  -0.758  12.846  0.00  0.00     0.049 A 
ATOM     25  C34 <0> d   1      18.737   0.006  14.147  0.00  0.00    -0.043 A 
ATOM     26  C25 <0> d   1      18.959  -1.172  14.842  0.00  0.00    -0.048 A 
ATOM     27  C33 <0> d   1      18.636   1.209  14.819  0.00  0.00     0.047 A 
ATOM     28  C24 <0> d   1      18.969  -2.058  13.613  0.00  0.00     0.050 A 
ATOM     29  C26 <0> d   1      19.078  -1.134  16.225  0.00  0.00     0.047 A 
ATOM     30  C27 <0> d   1      18.976   0.069  16.903  0.00  0.00     0.102 A 
ATOM     31  C30 <0> d   1      18.755   1.248  16.198  0.00  0.00     0.102 A 
BRANCH  30  32
ATOM     32  O28 <0> d   1      19.093   0.098  18.257  0.00  0.00    -0.353 OA
ATOM     33  C29 <0> d   1      17.894   0.305  19.007  0.00  0.00     0.210 C 
ENDBRANCH  30  32
BRANCH  31  34
ATOM     34  O31 <0> d   1      18.654   2.432  16.861  0.00  0.00    -0.353 OA
ATOM     35  C32 <0> d   1      19.846   3.208  16.985  0.00  0.00     0.210 C 
ENDBRANCH  31  34
ENDBRANCH  23  24
ENDBRANCH  20  23
ENDBRANCH  19  20
ENDBRANCH   1  19
TORSDOF 10
ENDMDL
MODEL 3
REMARK VINA RESULT:      -7.0      3.593      8.894
REMARK  10 active torsions:
REMARK  status: ('A' for Active; 'I' for Inactive)
REMARK    1  A    between atoms: O2_2  and  C3_3 
REMARK    2  A    between atoms: C8_8  and  O9_9 
REMARK    3  A    between atoms: N14_14  and  C15_15 
REMARK    4  A    between atoms: C15_15  and  C16_16 
REMARK    5  A    between atoms: C16_16  and  C17_17 
REMARK    6  A    between atoms: C17_17  and  N18_18 
REMARK    7  A    between atoms: N18_18  and  C21_21 
REMARK    8  A    between atoms: C21_21  and  C22_22 
REMARK    9  A    between atoms: C27_26  and  O28_27 
REMARK   10  A    between atoms: C30_29  and  O31_30 
ROOT
ATOM      1  C16 <0> d   1      19.774  -3.598  11.914  0.00  0.00     0.047 C 
ENDROOT
BRANCH   1   2
ATOM      2  C15 <0> d   1      19.606  -2.139  11.481  0.00  0.00     0.127 C 
BRANCH   2   3
ATOM      3  N14 <0> d   1      18.927  -1.391  12.541  0.00  0.00    -0.352 N 
ATOM      4  C12 <0> d   1      18.040  -0.535  12.099  0.00  0.00     0.224 C 
ATOM      5  C11 <0> d   1      17.134   0.335  12.902  0.00  0.00     0.142 C 
ATOM      6  O13 <0> d   1      17.944  -0.439  10.894  0.00  0.00    -0.273 OA
ATOM      7  C6  <0> d   1      17.883   1.038  14.006  0.00  0.00    -0.040 A 
ATOM      8  C5  <0> d   1      18.457   0.294  14.992  0.00  0.00    -0.047 A 
ATOM      9  C7  <0> d   1      17.944   2.421  14.020  0.00  0.00     0.047 A 
ATOM     10  C4  <0> d   1      19.088   0.933  16.056  0.00  0.00     0.047 A 
ATOM     11  C36 <0> d   1      18.450  -1.206  14.959  0.00  0.00     0.059 C 
ATOM     12  C3  <0> d   1      19.142   2.315  16.097  0.00  0.00     0.102 A 
ATOM     13  C8  <0> d   1      18.570   3.066  15.074  0.00  0.00     0.102 A 
ATOM     14  C35 <0> d   1      19.367  -1.742  13.877  0.00  0.00     0.130 C 
BRANCH  12  15
ATOM     15  O2  <0> d   1      19.750   2.939  17.141  0.00  0.00    -0.353 OA
ATOM     16  C1  <0> d   1      18.995   3.072  18.347  0.00  0.00     0.210 C 
ENDBRANCH  12  15
BRANCH  13  17
ATOM     17  O9  <0> d   1      18.633   4.425  15.106  0.00  0.00    -0.353 OA
ATOM     18  C10 <0> d   1      17.436   5.121  15.460  0.00  0.00     0.210 C 
ENDBRANCH  13  17
ENDBRANCH   2   3
ENDBRANCH   1   2
BRANCH   1  19
ATOM     19  C17 <0> d   1      19.442  -4.519  10.738  0.00  0.00     0.236 C 
BRANCH  19  20
ATOM     20  N18 <0> d   1      18.114  -4.182  10.211  0.00  0.00    -0.074 N 
ATOM     21  H19 <0> d   1      17.968  -3.186  10.279  0.00  0.00     0.279 HD
ATOM     22  C20 <0> d   1      17.085  -4.882  10.991  0.00  0.00     0.269 C 
BRANCH  20  23
ATOM     23  C21 <0> d   1      18.026  -4.594   8.803  0.00  0.00     0.243 C 
BRANCH  23  24
ATOM     24  C22 <0> d   1      19.306  -4.187   8.071  0.00  0.00     0.049 A 
ATOM     25  C34 <0> d   1      19.267  -2.774   7.548  0.00  0.00    -0.043 A 
ATOM     26  C25 <0> d   1      19.324  -3.248   6.247  0.00  0.00    -0.048 A 
ATOM     27  C33 <0> d   1      19.205  -1.416   7.797  0.00  0.00     0.047 A 
ATOM     28  C24 <0> d   1      19.369  -4.711   6.636  0.00  0.00     0.050 A 
ATOM     29  C26 <0> d   1      19.319  -2.345   5.192  0.00  0.00     0.047 A 
ATOM     30  C27 <0> d   1      19.258  -0.984   5.437  0.00  0.00     0.102 A 
ATOM     31  C30 <0> d   1      19.200  -0.514   6.746  0.00  0.00     0.102 A 
BRANCH  30  32
ATOM     32  O28 <0> d   1      19.255  -0.106   4.399  0.00  0.00    -0.353 OA
ATOM     33  C29 <0> d   1      18.064  -0.036   3.612  0.00  0.00     0.210 C 
ENDBRANCH  30  32
BRANCH  31  34
ATOM     34  O31 <0> d   1      19.141   0.823   6.991  0.00  0.00    -0.353 OA
ATOM     35  C32 <0> d   1      19.453   1.253   8.316  0.00  0.00     0.210 C 
ENDBRANCH  31  34
ENDBRANCH  23  24
ENDBRANCH  20  23
ENDBRANCH  19  20
ENDBRANCH   1  19
TORSDOF 10
ENDMDL
MODEL 4
REMARK VINA RESULT:      -7.0      3.412      5.754
REMARK  10 active torsions:
REMARK  status: ('A' for Active; 'I' for Inactive)
REMARK    1  A    between atoms: O2_2  and  C3_3 
REMARK    2  A    between atoms: C8_8  and  O9_9 
REMARK    3  A    between atoms: N14_14  and  C15_15 
REMARK    4  A    between atoms: C15_15  and  C16_16 
REMARK    5  A    between atoms: C16_16  and  C17_17 
REMARK    6  A    between atoms: C17_17  and  N18_18 
REMARK    7  A    between atoms: N18_18  and  C21_21 
REMARK    8  A    between atoms: C21_21  and  C22_22 
REMARK    9  A    between atoms: C27_26  and  O28_27 
REMARK   10  A    between atoms: C30_29  and  O31_30 
ROOT
ATOM      1  C16 <0> d   1      19.723  -0.312   9.549  0.00  0.00     0.047 C 
ENDROOT
BRANCH   1   2
ATOM      2  C15 <0> d   1      18.712   0.033   8.453  0.00  0.00     0.127 C 
BRANCH   2   3
ATOM      3  N14 <0> d   1      18.871  -0.898   7.333  0.00  0.00    -0.352 N 
ATOM      4  C12 <0> d   1      18.656  -0.355   6.161  0.00  0.00     0.224 C 
ATOM      5  C11 <0> d   1      18.792  -0.996   4.822  0.00  0.00     0.142 C 
ATOM      6  O13 <0> d   1      18.306   0.806   6.165  0.00  0.00    -0.273 OA
ATOM      7  C6  <0> d   1      18.122  -2.347   4.788  0.00  0.00    -0.040 A 
ATOM      8  C5  <0> d   1      18.597  -3.339   5.592  0.00  0.00    -0.047 A 
ATOM      9  C7  <0> d   1      17.066  -2.567   3.921  0.00  0.00     0.047 A 
ATOM     10  C4  <0> d   1      18.036  -4.611   5.517  0.00  0.00     0.047 A 
ATOM     11  C36 <0> d   1      19.702  -3.099   6.578  0.00  0.00     0.059 C 
ATOM     12  C3  <0> d   1      16.993  -4.855   4.642  0.00  0.00     0.102 A 
ATOM     13  C8  <0> d   1      16.501  -3.830   3.840  0.00  0.00     0.102 A 
ATOM     14  C35 <0> d   1      19.235  -2.241   7.738  0.00  0.00     0.130 C 
BRANCH  12  15
ATOM     15  O2  <0> d   1      16.451  -6.100   4.563  0.00  0.00    -0.353 OA
ATOM     16  C1  <0> d   1      17.355  -7.189   4.363  0.00  0.00     0.210 C 
ENDBRANCH  12  15
BRANCH  13  17
ATOM     17  O9  <0> d   1      15.467  -4.064   2.988  0.00  0.00    -0.353 OA
ATOM     18  C10 <0> d   1      15.792  -4.261   1.611  0.00  0.00     0.210 C 
ENDBRANCH  13  17
ENDBRANCH   2   3
ENDBRANCH   1   2
BRANCH   1  19
ATOM     19  C17 <0> d   1      19.135   0.048  10.915  0.00  0.00     0.236 C 
BRANCH  19  20
ATOM     20  N18 <0> d   1      18.816  -1.183  11.650  0.00  0.00    -0.074 N 
ATOM     21  H19 <0> d   1      19.196  -1.977  11.158  0.00  0.00     0.279 HD
ATOM     22  C20 <0> d   1      17.357  -1.325  11.756  0.00  0.00     0.269 C 
BRANCH  20  23
ATOM     23  C21 <0> d   1      19.400  -1.116  12.997  0.00  0.00     0.243 C 
BRANCH  23  24
ATOM     24  C22 <0> d   1      18.333  -0.661  13.994  0.00  0.00     0.049 A 
ATOM     25  C34 <0> d   1      18.627   0.686  14.605  0.00  0.00    -0.043 A 
ATOM     26  C25 <0> d   1      18.761   0.097  15.852  0.00  0.00    -0.048 A 
ATOM     27  C33 <0> d   1      18.792   2.049  14.451  0.00  0.00     0.047 A 
ATOM     28  C24 <0> d   1      18.481  -1.312  15.370  0.00  0.00     0.050 A 
ATOM     29  C26 <0> d   1      19.064   0.891  16.951  0.00  0.00     0.047 A 
ATOM     30  C27 <0> d   1      19.230   2.257  16.802  0.00  0.00     0.102 A 
ATOM     31  C30 <0> d   1      19.094   2.842  15.547  0.00  0.00     0.102 A 
BRANCH  30  32
ATOM     32  O28 <0> d   1      19.525   3.027  17.882  0.00  0.00    -0.353 OA
ATOM     33  C29 <0> d   1      18.447   3.352  18.762  0.00  0.00     0.210 C 
ENDBRANCH  30  32
BRANCH  31  34
ATOM     34  O31 <0> d   1      19.256   4.184  15.396  0.00  0.00    -0.353 OA
ATOM     35  C32 <0> d   1      19.224   4.695  14.063  0.00  0.00     0.210 C 
ENDBRANCH  31  34
ENDBRANCH  23  24
ENDBRANCH  20  23
ENDBRANCH  19  20
ENDBRANCH   1  19
TORSDOF 10
ENDMDL
MODEL 5
REMARK VINA RESULT:      -7.0      2.077      5.237
REMARK  10 active torsions:
REMARK  status: ('A' for Active; 'I' for Inactive)
REMARK    1  A    between atoms: O2_2  and  C3_3 
REMARK    2  A    between atoms: C8_8  and  O9_9 
REMARK    3  A    between atoms: N14_14  and  C15_15 
REMARK    4  A    between atoms: C15_15  and  C16_16 
REMARK    5  A    between atoms: C16_16  and  C17_17 
REMARK    6  A    between atoms: C17_17  and  N18_18 
REMARK    7  A    between atoms: N18_18  and  C21_21 
REMARK    8  A    between atoms: C21_21  and  C22_22 
REMARK    9  A    between atoms: C27_26  and  O28_27 
REMARK   10  A    between atoms: C30_29  and  O31_30 
ROOT
ATOM      1  C16 <0> d   1      17.692  -1.224  12.503  0.00  0.00     0.047 C 
ENDROOT
BRANCH   1   2
ATOM      2  C15 <0> d   1      18.922  -1.911  11.905  0.00  0.00     0.127 C 
BRANCH   2   3
ATOM      3  N14 <0> d   1      18.580  -3.286  11.531  0.00  0.00    -0.352 N 
ATOM      4  C12 <0> d   1      19.617  -4.024  11.225  0.00  0.00     0.224 C 
ATOM      5  C11 <0> d   1      19.631  -5.470  10.865  0.00  0.00     0.142 C 
ATOM      6  O13 <0> d   1      20.693  -3.465  11.236  0.00  0.00    -0.273 OA
ATOM      7  C6  <0> d   1      18.570  -5.792   9.843  0.00  0.00    -0.040 A 
ATOM      8  C5  <0> d   1      17.259  -5.630  10.179  0.00  0.00    -0.047 A 
ATOM      9  C7  <0> d   1      18.939  -6.282   8.602  0.00  0.00     0.047 A 
ATOM     10  C4  <0> d   1      16.268  -5.993   9.272  0.00  0.00     0.047 A 
ATOM     11  C36 <0> d   1      16.847  -5.046  11.498  0.00  0.00     0.059 C 
ATOM     12  C3  <0> d   1      16.617  -6.502   8.034  0.00  0.00     0.102 A 
ATOM     13  C8  <0> d   1      17.959  -6.646   7.692  0.00  0.00     0.102 A 
ATOM     14  C35 <0> d   1      17.158  -3.564  11.572  0.00  0.00     0.130 C 
BRANCH  12  15
ATOM     15  O2  <0> d   1      15.648  -6.866   7.152  0.00  0.00    -0.353 OA
ATOM     16  C1  <0> d   1      14.398  -7.289   7.700  0.00  0.00     0.210 C 
ENDBRANCH  12  15
BRANCH  13  17
ATOM     17  O9  <0> d   1      18.305  -7.133   6.471  0.00  0.00    -0.353 OA
ATOM     18  C10 <0> d   1      18.322  -6.206   5.383  0.00  0.00     0.210 C 
ENDBRANCH  13  17
ENDBRANCH   2   3
ENDBRANCH   1   2
BRANCH   1  19
ATOM     19  C17 <0> d   1      17.918   0.289  12.533  0.00  0.00     0.236 C 
BRANCH  19  20
ATOM     20  N18 <0> d   1      19.337   0.577  12.291  0.00  0.00    -0.074 N 
ATOM     21  H19 <0> d   1      19.770  -0.216  11.839  0.00  0.00     0.279 HD
ATOM     22  C20 <0> d   1      20.010   0.838  13.571  0.00  0.00     0.269 C 
BRANCH  20  23
ATOM     23  C21 <0> d   1      19.458   1.758  11.425  0.00  0.00     0.243 C 
BRANCH  23  24
ATOM     24  C22 <0> d   1      18.373   1.715  10.348  0.00  0.00     0.049 A 
ATOM     25  C34 <0> d   1      18.696   0.770   9.218  0.00  0.00    -0.043 A 
ATOM     26  C25 <0> d   1      18.760   1.838   8.337  0.00  0.00    -0.048 A 
ATOM     27  C33 <0> d   1      18.920  -0.519   8.775  0.00  0.00     0.047 A 
ATOM     28  C24 <0> d   1      18.443   2.894   9.377  0.00  0.00     0.050 A 
ATOM     29  C26 <0> d   1      19.053   1.601   7.000  0.00  0.00     0.047 A 
ATOM     30  C27 <0> d   1      19.277   0.311   6.552  0.00  0.00     0.102 A 
ATOM     31  C30 <0> d   1      19.212  -0.757   7.442  0.00  0.00     0.102 A 
BRANCH  30  32
ATOM     32  O28 <0> d   1      19.562   0.087   5.241  0.00  0.00    -0.353 OA
ATOM     33  C29 <0> d   1      18.466  -0.249   4.388  0.00  0.00     0.210 C 
ENDBRANCH  30  32
BRANCH  31  34
ATOM     34  O31 <0> d   1      19.431  -2.026   7.005  0.00  0.00    -0.353 OA
ATOM     35  C32 <0> d   1      18.443  -3.003   7.331  0.00  0.00     0.210 C 
ENDBRANCH  31  34
ENDBRANCH  23  24
ENDBRANCH  20  23
ENDBRANCH  19  20
ENDBRANCH   1  19
TORSDOF 10
ENDMDL
MODEL 6
REMARK VINA RESULT:      -7.0      3.097      8.323
REMARK  10 active torsions:
REMARK  status: ('A' for Active; 'I' for Inactive)
REMARK    1  A    between atoms: O2_2  and  C3_3 
REMARK    2  A    between atoms: C8_8  and  O9_9 
REMARK    3  A    between atoms: N14_14  and  C15_15 
REMARK    4  A    between atoms: C15_15  and  C16_16 
REMARK    5  A    between atoms: C16_16  and  C17_17 
REMARK    6  A    between atoms: C17_17  and  N18_18 
REMARK    7  A    between atoms: N18_18  and  C21_21 
REMARK    8  A    between atoms: C21_21  and  C22_22 
REMARK    9  A    between atoms: C27_26  and  O28_27 
REMARK   10  A    between atoms: C30_29  and  O31_30 
ROOT
ATOM      1  C16 <0> d   1      19.675  -3.333  11.768  0.00  0.00     0.047 C 
ENDROOT
BRANCH   1   2
ATOM      2  C15 <0> d   1      18.690  -2.588  12.672  0.00  0.00     0.127 C 
BRANCH   2   3
ATOM      3  N14 <0> d   1      19.173  -1.224  12.901  0.00  0.00    -0.352 N 
ATOM      4  C12 <0> d   1      18.982  -0.794  14.123  0.00  0.00     0.224 C 
ATOM      5  C11 <0> d   1      19.404   0.511  14.705  0.00  0.00     0.142 C 
ATOM      6  O13 <0> d   1      18.391  -1.546  14.868  0.00  0.00    -0.273 OA
ATOM      7  C6  <0> d   1      19.050   1.660  13.794  0.00  0.00    -0.040 A 
ATOM      8  C5  <0> d   1      19.634   1.733  12.565  0.00  0.00    -0.047 A 
ATOM      9  C7  <0> d   1      18.173   2.638  14.233  0.00  0.00     0.047 A 
ATOM     10  C4  <0> d   1      19.373   2.826  11.744  0.00  0.00     0.047 A 
ATOM     11  C36 <0> d   1      20.540   0.652  12.055  0.00  0.00     0.059 C 
ATOM     12  C3  <0> d   1      18.514   3.822  12.173  0.00  0.00     0.102 A 
ATOM     13  C8  <0> d   1      17.907   3.729  13.422  0.00  0.00     0.102 A 
ATOM     14  C35 <0> d   1      19.770  -0.613  11.730  0.00  0.00     0.130 C 
BRANCH  12  15
ATOM     15  O2  <0> d   1      18.267   4.895  11.375  0.00  0.00    -0.353 OA
ATOM     16  C1  <0> d   1      17.629   4.639  10.122  0.00  0.00     0.210 C 
ENDBRANCH  12  15
BRANCH  13  17
ATOM     17  O9  <0> d   1      17.052   4.701  13.841  0.00  0.00    -0.353 OA
ATOM     18  C10 <0> d   1      17.308   5.284  15.120  0.00  0.00     0.210 C 
ENDBRANCH  13  17
ENDBRANCH   2   3
ENDBRANCH   1   2
BRANCH   1  19
ATOM     19  C17 <0> d   1      19.026  -4.622  11.260  0.00  0.00     0.236 C 
BRANCH  19  20
ATOM     20  N18 <0> d   1      17.811  -4.293  10.504  0.00  0.00    -0.074 N 
ATOM     21  H19 <0> d   1      17.719  -3.290  10.433  0.00  0.00     0.279 HD
ATOM     22  C20 <0> d   1      16.638  -4.843  11.196  0.00  0.00     0.269 C 
BRANCH  20  23
ATOM     23  C21 <0> d   1      17.900  -4.873   9.156  0.00  0.00     0.243 C 
BRANCH  23  24
ATOM     24  C22 <0> d   1      19.234  -4.481   8.519  0.00  0.00     0.049 A 
ATOM     25  C34 <0> d   1      19.217  -3.103   7.907  0.00  0.00    -0.043 A 
ATOM     26  C25 <0> d   1      19.402  -3.654   6.649  0.00  0.00    -0.048 A 
ATOM     27  C33 <0> d   1      19.107  -1.734   8.065  0.00  0.00     0.047 A 
ATOM     28  C24 <0> d   1      19.438  -5.089   7.131  0.00  0.00     0.050 A 
ATOM     29  C26 <0> d   1      19.477  -2.816   5.544  0.00  0.00     0.047 A 
ATOM     30  C27 <0> d   1      19.369  -1.445   5.697  0.00  0.00     0.102 A 
ATOM     31  C30 <0> d   1      19.183  -0.898   6.963  0.00  0.00     0.102 A 
BRANCH  30  32
ATOM     32  O28 <0> d   1      19.445  -0.631   4.610  0.00  0.00    -0.353 OA
ATOM     33  C29 <0> d   1      18.211  -0.251   3.997  0.00  0.00     0.210 C 
ENDBRANCH  30  32
BRANCH  31  34
ATOM     34  O31 <0> d   1      19.076   0.449   7.117  0.00  0.00    -0.353 OA
ATOM     35  C32 <0> d   1      19.021   0.945   8.455  0.00  0.00     0.210 C 
ENDBRANCH  31  34
ENDBRANCH  23  24
ENDBRANCH  20  23
ENDBRANCH  19  20
ENDBRANCH   1  19
TORSDOF 10
ENDMDL
MODEL 7
REMARK VINA RESULT:      -7.0      4.820      9.740
REMARK  10 active torsions:
REMARK  status: ('A' for Active; 'I' for Inactive)
REMARK    1  A    between atoms: O2_2  and  C3_3 
REMARK    2  A    between atoms: C8_8  and  O9_9 
REMARK    3  A    between atoms: N14_14  and  C15_15 
REMARK    4  A    between atoms: C15_15  and  C16_16 
REMARK    5  A    between atoms: C16_16  and  C17_17 
REMARK    6  A    between atoms: C17_17  and  N18_18 
REMARK    7  A    between atoms: N18_18  and  C21_21 
REMARK    8  A    between atoms: C21_21  and  C22_22 
REMARK    9  A    between atoms: C27_26  and  O28_27 
REMARK   10  A    between atoms: C30_29  and  O31_30 
ROOT
ATOM      1  C16 <0> d   1      18.870   0.005   8.383  0.00  0.00     0.047 C 
ENDROOT
BRANCH   1   2
ATOM      2  C15 <0> d   1      19.287  -1.362   8.931  0.00  0.00     0.127 C 
BRANCH   2   3
ATOM      3  N14 <0> d   1      19.623  -1.236  10.351  0.00  0.00    -0.352 N 
ATOM      4  C12 <0> d   1      19.212  -2.241  11.083  0.00  0.00     0.224 C 
ATOM      5  C11 <0> d   1      19.438  -2.459  12.540  0.00  0.00     0.142 C 
ATOM      6  O13 <0> d   1      18.571  -3.094  10.507  0.00  0.00    -0.273 OA
ATOM      7  C6  <0> d   1      19.143  -1.212  13.335  0.00  0.00    -0.040 A 
ATOM      8  C5  <0> d   1      19.904  -0.101  13.126  0.00  0.00    -0.047 A 
ATOM      9  C7  <0> d   1      18.137  -1.226  14.285  0.00  0.00     0.047 A 
ATOM     10  C4  <0> d   1      19.692   1.033  13.905  0.00  0.00     0.047 A 
ATOM     11  C36 <0> d   1      20.959  -0.053  12.060  0.00  0.00     0.059 C 
ATOM     12  C3  <0> d   1      18.703   1.031  14.873  0.00  0.00     0.102 A 
ATOM     13  C8  <0> d   1      17.917  -0.102  15.065  0.00  0.00     0.102 A 
ATOM     14  C35 <0> d   1      20.347  -0.022  10.673  0.00  0.00     0.130 C 
BRANCH  12  15
ATOM     15  O2  <0> d   1      18.502   2.136  15.639  0.00  0.00    -0.353 OA
ATOM     16  C1  <0> d   1      19.258   2.233  16.848  0.00  0.00     0.210 C 
ENDBRANCH  12  15
BRANCH  13  17
ATOM     17  O9  <0> d   1      16.936  -0.102  16.007  0.00  0.00    -0.353 OA
ATOM     18  C10 <0> d   1      17.074  -1.027  17.087  0.00  0.00     0.210 C 
ENDBRANCH  13  17
ENDBRANCH   2   3
ENDBRANCH   1   2
BRANCH   1  19
ATOM     19  C17 <0> d   1      17.721   0.563   9.225  0.00  0.00     0.236 C 
BRANCH  19  20
ATOM     20  N18 <0> d   1      17.812   2.028   9.267  0.00  0.00    -0.074 N 
ATOM     21  H19 <0> d   1      17.022   2.428   8.783  0.00  0.00     0.279 HD
ATOM     22  C20 <0> d   1      19.055   2.461   8.615  0.00  0.00     0.269 C 
BRANCH  20  23
ATOM     23  C21 <0> d   1      17.809   2.480  10.665  0.00  0.00     0.243 C 
BRANCH  23  24
ATOM     24  C22 <0> d   1      18.029   3.993  10.713  0.00  0.00     0.049 A 
ATOM     25  C34 <0> d   1      18.379   4.498  12.089  0.00  0.00    -0.043 A 
ATOM     26  C25 <0> d   1      17.195   5.219  12.131  0.00  0.00    -0.048 A 
ATOM     27  C33 <0> d   1      19.256   4.529  13.156  0.00  0.00     0.047 A 
ATOM     28  C24 <0> d   1      16.723   4.788  10.758  0.00  0.00     0.050 A 
ATOM     29  C26 <0> d   1      16.899   5.976  13.257  0.00  0.00     0.047 A 
ATOM     30  C27 <0> d   1      17.775   6.010  14.327  0.00  0.00     0.102 A 
ATOM     31  C30 <0> d   1      18.961   5.284  14.280  0.00  0.00     0.102 A 
BRANCH  30  32
ATOM     32  O28 <0> d   1      17.478   6.754  15.426  0.00  0.00    -0.353 OA
ATOM     33  C29 <0> d   1      16.620   6.157  16.401  0.00  0.00     0.210 C 
ENDBRANCH  30  32
BRANCH  31  34
ATOM     34  O31 <0> d   1      19.826   5.316  15.329  0.00  0.00    -0.353 OA
ATOM     35  C32 <0> d   1      21.037   6.050  15.149  0.00  0.00     0.210 C 
ENDBRANCH  31  34
ENDBRANCH  23  24
ENDBRANCH  20  23
ENDBRANCH  19  20
ENDBRANCH   1  19
TORSDOF 10
ENDMDL
MODEL 8
REMARK VINA RESULT:      -7.0      5.711      9.066
REMARK  10 active torsions:
REMARK  status: ('A' for Active; 'I' for Inactive)
REMARK    1  A    between atoms: O2_2  and  C3_3 
REMARK    2  A    between atoms: C8_8  and  O9_9 
REMARK    3  A    between atoms: N14_14  and  C15_15 
REMARK    4  A    between atoms: C15_15  and  C16_16 
REMARK    5  A    between atoms: C16_16  and  C17_17 
REMARK    6  A    between atoms: C17_17  and  N18_18 
REMARK    7  A    between atoms: N18_18  and  C21_21 
REMARK    8  A    between atoms: C21_21  and  C22_22 
REMARK    9  A    between atoms: C27_26  and  O28_27 
REMARK   10  A    between atoms: C30_29  and  O31_30 
ROOT
ATOM      1  C16 <0> d   1      17.268   6.592  13.978  0.00  0.00     0.047 C 
ENDROOT
BRANCH   1   2
ATOM      2  C15 <0> d   1      16.561   5.487  13.190  0.00  0.00     0.127 C 
BRANCH   2   3
ATOM      3  N14 <0> d   1      17.532   4.800  12.335  0.00  0.00    -0.352 N 
ATOM      4  C12 <0> d   1      17.160   4.708  11.082  0.00  0.00     0.224 C 
ATOM      5  C11 <0> d   1      17.930   4.131   9.944  0.00  0.00     0.142 C 
ATOM      6  O13 <0> d   1      16.060   5.143  10.818  0.00  0.00    -0.273 OA
ATOM      7  C6  <0> d   1      18.526   2.793  10.305  0.00  0.00    -0.040 A 
ATOM      8  C5  <0> d   1      19.459   2.732  11.297  0.00  0.00    -0.047 A 
ATOM      9  C7  <0> d   1      18.147   1.662   9.603  0.00  0.00     0.047 A 
ATOM     10  C4  <0> d   1      20.071   1.517  11.590  0.00  0.00     0.047 A 
ATOM     11  C36 <0> d   1      19.836   3.939  12.104  0.00  0.00     0.059 C 
ATOM     12  C3  <0> d   1      19.719   0.379  10.886  0.00  0.00     0.102 A 
ATOM     13  C8  <0> d   1      18.751   0.447   9.889  0.00  0.00     0.102 A 
ATOM     14  C35 <0> d   1      18.717   4.354  13.039  0.00  0.00     0.130 C 
BRANCH  12  15
ATOM     15  O2  <0> d   1      20.324  -0.806  11.167  0.00  0.00    -0.353 OA
ATOM     16  C1  <0> d   1      19.704  -1.634  12.153  0.00  0.00     0.210 C 
ENDBRANCH  12  15
BRANCH  13  17
ATOM     17  O9  <0> d   1      18.394  -0.673   9.205  0.00  0.00    -0.353 OA
ATOM     18  C10 <0> d   1      17.328  -0.545   8.261  0.00  0.00     0.210 C 
ENDBRANCH  13  17
ENDBRANCH   2   3
ENDBRANCH   1   2
BRANCH   1  19
ATOM     19  C17 <0> d   1      16.339   7.105  15.080  0.00  0.00     0.236 C 
BRANCH  19  20
ATOM     20  N18 <0> d   1      15.547   5.989  15.612  0.00  0.00    -0.074 N 
ATOM     21  H19 <0> d   1      15.887   5.121  15.227  0.00  0.00     0.279 HD
ATOM     22  C20 <0> d   1      14.136   6.169  15.243  0.00  0.00     0.269 C 
BRANCH  20  23
ATOM     23  C21 <0> d   1      15.669   5.955  17.076  0.00  0.00     0.243 C 
BRANCH  23  24
ATOM     24  C22 <0> d   1      17.148   5.939  17.465  0.00  0.00     0.049 A 
ATOM     25  C34 <0> d   1      17.838   4.643  17.122  0.00  0.00    -0.043 A 
ATOM     26  C25 <0> d   1      18.044   4.390  18.469  0.00  0.00    -0.048 A 
ATOM     27  C33 <0> d   1      18.276   3.748  16.165  0.00  0.00     0.047 A 
ATOM     28  C24 <0> d   1      17.375   5.661  18.952  0.00  0.00     0.050 A 
ATOM     29  C26 <0> d   1      18.697   3.226  18.851  0.00  0.00     0.047 A 
ATOM     30  C27 <0> d   1      19.138   2.326  17.896  0.00  0.00     0.102 A 
ATOM     31  C30 <0> d   1      18.928   2.586  16.545  0.00  0.00     0.102 A 
BRANCH  30  32
ATOM     32  O28 <0> d   1      19.778   1.189  18.278  0.00  0.00    -0.353 OA
ATOM     33  C29 <0> d   1      18.965   0.038  18.521  0.00  0.00     0.210 C 
ENDBRANCH  30  32
BRANCH  31  34
ATOM     34  O31 <0> d   1      19.360   1.704  15.604  0.00  0.00    -0.353 OA
ATOM     35  C32 <0> d   1      18.360   0.974  14.893  0.00  0.00     0.210 C 
ENDBRANCH  31  34
ENDBRANCH  23  24
ENDBRANCH  20  23
ENDBRANCH  19  20
ENDBRANCH   1  19
TORSDOF 10
ENDMDL
MODEL 9
REMARK VINA RESULT:      -6.9      4.994      8.016
REMARK  10 active torsions:
REMARK  status: ('A' for Active; 'I' for Inactive)
REMARK    1  A    between atoms: O2_2  and  C3_3 
REMARK    2  A    between atoms: C8_8  and  O9_9 
REMARK    3  A    between atoms: N14_14  and  C15_15 
REMARK    4  A    between atoms: C15_15  and  C16_16 
REMARK    5  A    between atoms: C16_16  and  C17_17 
REMARK    6  A    between atoms: C17_17  and  N18_18 
REMARK    7  A    between atoms: N18_18  and  C21_21 
REMARK    8  A    between atoms: C21_21  and  C22_22 
REMARK    9  A    between atoms: C27_26  and  O28_27 
REMARK   10  A    between atoms: C30_29  and  O31_30 
ROOT
ATOM      1  C16 <0> d   1      19.431   2.279  12.608  0.00  0.00     0.047 C 
ENDROOT
BRANCH   1   2
ATOM      2  C15 <0> d   1      19.595   0.760  12.506  0.00  0.00     0.127 C 
BRANCH   2   3
ATOM      3  N14 <0> d   1      18.926   0.278  11.295  0.00  0.00    -0.352 N 
ATOM      4  C12 <0> d   1      18.589  -0.986  11.346  0.00  0.00     0.224 C 
ATOM      5  C11 <0> d   1      17.846  -1.773  10.321  0.00  0.00     0.142 C 
ATOM      6  O13 <0> d   1      18.920  -1.588  12.345  0.00  0.00    -0.273 OA
ATOM      7  C6  <0> d   1      18.405  -1.543   8.940  0.00  0.00    -0.040 A 
ATOM      8  C5  <0> d   1      18.335  -0.294   8.399  0.00  0.00    -0.047 A 
ATOM      9  C7  <0> d   1      18.943  -2.604   8.232  0.00  0.00     0.047 A 
ATOM     10  C4  <0> d   1      18.780  -0.083   7.097  0.00  0.00     0.047 A 
ATOM     11  C36 <0> d   1      17.808   0.877   9.175  0.00  0.00     0.059 C 
ATOM     12  C3  <0> d   1      19.303  -1.136   6.367  0.00  0.00     0.102 A 
ATOM     13  C8  <0> d   1      19.389  -2.404   6.936  0.00  0.00     0.102 A 
ATOM     14  C35 <0> d   1      18.767   1.293  10.273  0.00  0.00     0.130 C 
BRANCH  12  15
ATOM     15  O2  <0> d   1      19.729  -0.932   5.092  0.00  0.00    -0.353 OA
ATOM     16  C1  <0> d   1      18.860  -0.197   4.227  0.00  0.00     0.210 C 
ENDBRANCH  12  15
BRANCH  13  17
ATOM     17  O9  <0> d   1      19.915  -3.437   6.225  0.00  0.00    -0.353 OA
ATOM     18  C10 <0> d   1      19.099  -4.600   6.069  0.00  0.00     0.210 C 
ENDBRANCH  13  17
ENDBRANCH   2   3
ENDBRANCH   1   2
BRANCH   1  19
ATOM     19  C17 <0> d   1      18.212   2.603  13.473  0.00  0.00     0.236 C 
BRANCH  19  20
ATOM     20  N18 <0> d   1      18.000   4.056  13.495  0.00  0.00    -0.074 N 
ATOM     21  H19 <0> d   1      17.540   4.316  14.355  0.00  0.00     0.279 HD
ATOM     22  C20 <0> d   1      17.161   4.446  12.354  0.00  0.00     0.269 C 
BRANCH  20  23
ATOM     23  C21 <0> d   1      19.296   4.742  13.407  0.00  0.00     0.243 C 
BRANCH  23  24
ATOM     24  C22 <0> d   1      19.566   5.493  14.712  0.00  0.00     0.049 A 
ATOM     25  C34 <0> d   1      19.428   4.623  15.936  0.00  0.00    -0.043 A 
ATOM     26  C25 <0> d   1      18.349   5.382  16.361  0.00  0.00    -0.048 A 
ATOM     27  C33 <0> d   1      19.868   3.548  16.685  0.00  0.00     0.047 A 
ATOM     28  C24 <0> d   1      18.376   6.331  15.180  0.00  0.00     0.050 A 
ATOM     29  C26 <0> d   1      17.712   5.053  17.550  0.00  0.00     0.047 A 
ATOM     30  C27 <0> d   1      18.149   3.978  18.304  0.00  0.00     0.102 A 
ATOM     31  C30 <0> d   1      19.233   3.219  17.872  0.00  0.00     0.102 A 
BRANCH  30  32
ATOM     32  O28 <0> d   1      17.520   3.663  19.467  0.00  0.00    -0.353 OA
ATOM     33  C29 <0> d   1      16.141   4.021  19.576  0.00  0.00     0.210 C 
ENDBRANCH  30  32
BRANCH  31  34
ATOM     34  O31 <0> d   1      19.666   2.163  18.610  0.00  0.00    -0.353 OA
ATOM     35  C32 <0> d   1      19.329   0.859  18.135  0.00  0.00     0.210 C 
ENDBRANCH  31  34
ENDBRANCH  23  24
ENDBRANCH  20  23
ENDBRANCH  19  20
ENDBRANCH   1  19
TORSDOF 10
ENDMDL
