MODEL 1
REMARK VINA RESULT:      -6.5      0.000      0.000
REMARK  5 active torsions:
REMARK  status: ('A' for Active; 'I' for Inactive)
REMARK    1  A    between atoms: C2_2  and  C3_3 
REMARK    2  A    between atoms: C3_3  and  C4_4 
REMARK    3  A    between atoms: C4_4  and  C5_5 
REMARK    4  A    between atoms: C5_5  and  C8_7 
REMARK    5  A    between atoms: C9_8  and  C10_9 
ROOT
ATOM      1  C4  ZIN A   1      18.396  -0.769  10.393  0.00  0.00     0.139 A 
ATOM      2  C12 ZIN A   1      19.819  -0.269  10.241  0.00  0.00     0.245 A 
ATOM      3  O13 ZIN A   1      20.344  -0.188   9.151  0.00  0.00    -0.272 OA
ATOM      4  N14 ZIN A   1      20.481   0.083  11.364  0.00  0.00    -0.278 N 
ATOM      5  C15 ZIN A   1      19.916   0.001  12.574  0.00  0.00     0.331 A 
ATOM      6  O16 ZIN A   1      20.584   0.339  13.531  0.00  0.00    -0.246 OA
ATOM      7  N17 ZIN A   1      18.671  -0.427  12.808  0.00  0.00    -0.273 N 
ATOM      8  C18 ZIN A   1      18.179  -0.467  14.187  0.00  0.00     0.164 C 
ATOM      9  C19 ZIN A   1      17.853  -0.824  11.810  0.00  0.00     0.247 A 
ATOM     10  O20 ZIN A   1      16.726  -1.210  12.036  0.00  0.00    -0.271 OA
ATOM     11  H34 ZIN A   1      21.393   0.406  11.291  0.00  0.00     0.173 HD
ENDROOT
BRANCH   1  12
ATOM     12  C3  ZIN A   1      18.319  -2.177   9.800  0.00  0.00     0.057 C 
BRANCH  12  13
ATOM     13  C2  ZIN A   1      19.248  -3.093  10.557  0.00  0.00    -0.035 C 
ATOM     14  C1  ZIN A   1      18.817  -4.253  10.986  0.00  0.00     0.007 C 
ENDBRANCH  12  13
ENDBRANCH   1  12
BRANCH   1  15
ATOM     15  C5  ZIN A   1      17.484   0.142   9.570  0.00  0.00     0.088 C 
ATOM     16  C7  ZIN A   1      17.774  -0.057   8.081  0.00  0.00     0.025 C 
BRANCH  15  17
ATOM     17  C8  ZIN A   1      17.734   1.546   9.935  0.00  0.00    -0.100 C 
ATOM     18  C9  ZIN A   1      17.934   2.666  10.227  0.00  0.00    -0.106 C 
BRANCH  18  19
ATOM     19  C10 ZIN A   1      18.183   4.070  10.593  0.00  0.00     0.089 C 
ATOM     20  C11 ZIN A   1      16.849   4.788  10.799  0.00  0.00     0.018 C 
ENDBRANCH  18  19
ENDBRANCH  15  17
ENDBRANCH   1  15
TORSDOF 5
ENDMDL
MODEL 2
REMARK VINA RESULT:      -6.4      1.699      4.205
REMARK  5 active torsions:
REMARK  status: ('A' for Active; 'I' for Inactive)
REMARK    1  A    between atoms: C2_2  and  C3_3 
REMARK    2  A    between atoms: C3_3  and  C4_4 
REMARK    3  A    between atoms: C4_4  and  C5_5 
REMARK    4  A    between atoms: C5_5  and  C8_7 
REMARK    5  A    between atoms: C9_8  and  C10_9 
ROOT
ATOM      1  C4  ZIN A   1      19.060   0.799  11.180  0.00  0.00     0.139 A 
ATOM      2  C12 ZIN A   1      17.562   0.745  11.416  0.00  0.00     0.245 A 
ATOM      3  O13 ZIN A   1      16.906   1.759  11.523  0.00  0.00    -0.272 OA
ATOM      4  N14 ZIN A   1      16.987  -0.474  11.500  0.00  0.00    -0.278 N 
ATOM      5  C15 ZIN A   1      17.697  -1.602  11.383  0.00  0.00     0.331 A 
ATOM      6  O16 ZIN A   1      17.099  -2.655  11.472  0.00  0.00    -0.246 OA
ATOM      7  N17 ZIN A   1      19.017  -1.654  11.175  0.00  0.00    -0.273 N 
ATOM      8  C18 ZIN A   1      19.669  -2.962  11.066  0.00  0.00     0.164 C 
ATOM      9  C19 ZIN A   1      19.768  -0.538  11.063  0.00  0.00     0.247 A 
ATOM     10  O20 ZIN A   1      20.964  -0.600  10.875  0.00  0.00    -0.271 OA
ATOM     11  H34 ZIN A   1      16.031  -0.533  11.651  0.00  0.00     0.173 HD
ENDROOT
BRANCH   1  12
ATOM     12  C3  ZIN A   1      19.696   1.574  12.336  0.00  0.00     0.057 C 
BRANCH  12  13
ATOM     13  C2  ZIN A   1      19.581   0.770  13.605  0.00  0.00    -0.035 C 
ATOM     14  C1  ZIN A   1      19.157   1.340  14.706  0.00  0.00     0.007 C 
ENDBRANCH  12  13
ENDBRANCH   1  12
BRANCH   1  15
ATOM     15  C5  ZIN A   1      19.307   1.583   9.891  0.00  0.00     0.088 C 
ATOM     16  C7  ZIN A   1      18.819   3.023  10.067  0.00  0.00     0.025 C 
BRANCH  15  17
ATOM     17  C8  ZIN A   1      18.574   0.949   8.783  0.00  0.00    -0.100 C 
ATOM     18  C9  ZIN A   1      17.990   0.442   7.899  0.00  0.00    -0.106 C 
BRANCH  18  19
ATOM     19  C10 ZIN A   1      17.257  -0.192   6.791  0.00  0.00     0.089 C 
ATOM     20  C11 ZIN A   1      18.016   0.034   5.483  0.00  0.00     0.018 C 
ENDBRANCH  18  19
ENDBRANCH  15  17
ENDBRANCH   1  15
TORSDOF 5
ENDMDL
MODEL 3
REMARK VINA RESULT:      -6.4      1.917      4.523
REMARK  5 active torsions:
REMARK  status: ('A' for Active; 'I' for Inactive)
REMARK    1  A    between atoms: C2_2  and  C3_3 
REMARK    2  A    between atoms: C3_3  and  C4_4 
REMARK    3  A    between atoms: C4_4  and  C5_5 
REMARK    4  A    between atoms: C5_5  and  C8_7 
REMARK    5  A    between atoms: C9_8  and  C10_9 
ROOT
ATOM      1  C4  ZIN A   1      18.410   0.529  11.925  0.00  0.00     0.139 A 
ATOM      2  C12 ZIN A   1      19.909   0.308  11.992  0.00  0.00     0.245 A 
ATOM      3  O13 ZIN A   1      20.673   1.230  12.186  0.00  0.00    -0.272 OA
ATOM      4  N14 ZIN A   1      20.362  -0.953  11.829  0.00  0.00    -0.278 N 
ATOM      5  C15 ZIN A   1      19.533  -1.981  11.616  0.00  0.00     0.331 A 
ATOM      6  O16 ZIN A   1      20.027  -3.083  11.480  0.00  0.00    -0.246 OA
ATOM      7  N17 ZIN A   1      18.202  -1.885  11.540  0.00  0.00    -0.273 N 
ATOM      8  C18 ZIN A   1      17.413  -3.096  11.301  0.00  0.00     0.164 C 
ATOM      9  C19 ZIN A   1      17.562  -0.704  11.678  0.00  0.00     0.247 A 
ATOM     10  O20 ZIN A   1      16.353  -0.631  11.607  0.00  0.00    -0.271 OA
ATOM     11  H34 ZIN A   1      21.317  -1.118  11.868  0.00  0.00     0.173 HD
ENDROOT
BRANCH   1  12
ATOM     12  C3  ZIN A   1      18.126   1.534  10.807  0.00  0.00     0.057 C 
BRANCH  12  13
ATOM     13  C2  ZIN A   1      18.623   0.980   9.496  0.00  0.00    -0.035 C 
ATOM     14  C1  ZIN A   1      19.070   1.791   8.570  0.00  0.00     0.007 C 
ENDBRANCH  12  13
ENDBRANCH   1  12
BRANCH   1  15
ATOM     15  C5  ZIN A   1      17.966   1.155  13.248  0.00  0.00     0.088 C 
ATOM     16  C7  ZIN A   1      18.668   2.501  13.438  0.00  0.00     0.025 C 
BRANCH  15  17
ATOM     17  C8  ZIN A   1      18.318   0.256  14.359  0.00  0.00    -0.100 C 
ATOM     18  C9  ZIN A   1      18.597  -0.462  15.245  0.00  0.00    -0.106 C 
BRANCH  18  19
ATOM     19  C10 ZIN A   1      18.949  -1.361  16.357  0.00  0.00     0.089 C 
ATOM     20  C11 ZIN A   1      19.112  -0.545  17.640  0.00  0.00     0.018 C 
ENDBRANCH  18  19
ENDBRANCH  15  17
ENDBRANCH   1  15
TORSDOF 5
ENDMDL
MODEL 4
REMARK VINA RESULT:      -6.3      1.630      5.241
REMARK  5 active torsions:
REMARK  status: ('A' for Active; 'I' for Inactive)
REMARK    1  A    between atoms: C2_2  and  C3_3 
REMARK    2  A    between atoms: C3_3  and  C4_4 
REMARK    3  A    between atoms: C4_4  and  C5_5 
REMARK    4  A    between atoms: C5_5  and  C8_7 
REMARK    5  A    between atoms: C9_8  and  C10_9 
ROOT
ATOM      1  C4  ZIN A   1      18.334   0.184  12.467  0.00  0.00     0.139 A 
ATOM      2  C12 ZIN A   1      19.822   0.366  12.239  0.00  0.00     0.245 A 
ATOM      3  O13 ZIN A   1      20.595   0.444  13.170  0.00  0.00    -0.272 OA
ATOM      4  N14 ZIN A   1      20.254   0.439  10.963  0.00  0.00    -0.278 N 
ATOM      5  C15 ZIN A   1      19.415   0.354   9.924  0.00  0.00     0.331 A 
ATOM      6  O16 ZIN A   1      19.890   0.429   8.809  0.00  0.00    -0.246 OA
ATOM      7  N17 ZIN A   1      18.091   0.194  10.025  0.00  0.00    -0.273 N 
ATOM      8  C18 ZIN A   1      17.289   0.117   8.801  0.00  0.00     0.164 C 
ATOM      9  C19 ZIN A   1      17.472   0.100  11.221  0.00  0.00     0.247 A 
ATOM     10  O20 ZIN A   1      16.270  -0.045  11.297  0.00  0.00    -0.271 OA
ATOM     11  H34 ZIN A   1      21.203   0.556  10.793  0.00  0.00     0.173 HD
ENDROOT
BRANCH   1  12
ATOM     12  C3  ZIN A   1      17.833   1.355  13.314  0.00  0.00     0.057 C 
BRANCH  12  13
ATOM     13  C2  ZIN A   1      17.932   2.630  12.516  0.00  0.00    -0.035 C 
ATOM     14  C1  ZIN A   1      18.422   3.712  13.069  0.00  0.00     0.007 C 
ENDBRANCH  12  13
ENDBRANCH   1  12
BRANCH   1  15
ATOM     15  C5  ZIN A   1      18.133  -1.102  13.271  0.00  0.00     0.088 C 
ATOM     16  C7  ZIN A   1      18.692  -0.914  14.682  0.00  0.00     0.025 C 
BRANCH  15  17
ATOM     17  C8  ZIN A   1      18.838  -2.211  12.607  0.00  0.00    -0.100 C 
ATOM     18  C9  ZIN A   1      19.401  -3.096  12.078  0.00  0.00    -0.106 C 
BRANCH  18  19
ATOM     19  C10 ZIN A   1      20.105  -4.205  11.415  0.00  0.00     0.089 C 
ATOM     20  C11 ZIN A   1      19.241  -4.750  10.277  0.00  0.00     0.018 C 
ENDBRANCH  18  19
ENDBRANCH  15  17
ENDBRANCH   1  15
TORSDOF 5
ENDMDL
MODEL 5
REMARK VINA RESULT:      -6.3      1.767      3.274
REMARK  5 active torsions:
REMARK  status: ('A' for Active; 'I' for Inactive)
REMARK    1  A    between atoms: C2_2  and  C3_3 
REMARK    2  A    between atoms: C3_3  and  C4_4 
REMARK    3  A    between atoms: C4_4  and  C5_5 
REMARK    4  A    between atoms: C5_5  and  C8_7 
REMARK    5  A    between atoms: C9_8  and  C10_9 
ROOT
ATOM      1  C4  ZIN A   1      18.508  -0.420  11.300  0.00  0.00     0.139 A 
ATOM      2  C12 ZIN A   1      19.996  -0.199  11.099  0.00  0.00     0.245 A 
ATOM      3  O13 ZIN A   1      20.739  -1.121  10.838  0.00  0.00    -0.272 OA
ATOM      4  N14 ZIN A   1      20.461   1.062  11.222  0.00  0.00    -0.278 N 
ATOM      5  C15 ZIN A   1      19.654   2.090  11.509  0.00  0.00     0.331 A 
ATOM      6  O16 ZIN A   1      20.158   3.192  11.600  0.00  0.00    -0.246 OA
ATOM      7  N17 ZIN A   1      18.335   1.994  11.702  0.00  0.00    -0.273 N 
ATOM      8  C18 ZIN A   1      17.570   3.205  12.011  0.00  0.00     0.164 C 
ATOM      9  C19 ZIN A   1      17.685   0.813  11.622  0.00  0.00     0.247 A 
ATOM     10  O20 ZIN A   1      16.488   0.740  11.801  0.00  0.00    -0.271 OA
ATOM     11  H34 ZIN A   1      21.409   1.228  11.098  0.00  0.00     0.173 HD
ENDROOT
BRANCH   1  12
ATOM     12  C3  ZIN A   1      18.326  -1.425  12.439  0.00  0.00     0.057 C 
BRANCH  12  13
ATOM     13  C2  ZIN A   1      18.955  -0.880  13.696  0.00  0.00    -0.035 C 
ATOM     14  C1  ZIN A   1      18.513  -1.262  14.868  0.00  0.00     0.007 C 
ENDBRANCH  12  13
ENDBRANCH   1  12
BRANCH   1  15
ATOM     15  C5  ZIN A   1      17.948  -1.046  10.022  0.00  0.00     0.088 C 
ATOM     16  C7  ZIN A   1      18.536  -2.446   9.838  0.00  0.00     0.025 C 
BRANCH  15  17
ATOM     17  C8  ZIN A   1      18.306  -0.207   8.867  0.00  0.00    -0.100 C 
ATOM     18  C9  ZIN A   1      18.591   0.462   7.944  0.00  0.00    -0.106 C 
BRANCH  18  19
ATOM     19  C10 ZIN A   1      18.949   1.300   6.789  0.00  0.00     0.089 C 
ATOM     20  C11 ZIN A   1      19.053   0.427   5.538  0.00  0.00     0.018 C 
ENDBRANCH  18  19
ENDBRANCH  15  17
ENDBRANCH   1  15
TORSDOF 5
ENDMDL
MODEL 6
REMARK VINA RESULT:      -6.2      2.532      3.971
REMARK  5 active torsions:
REMARK  status: ('A' for Active; 'I' for Inactive)
REMARK    1  A    between atoms: C2_2  and  C3_3 
REMARK    2  A    between atoms: C3_3  and  C4_4 
REMARK    3  A    between atoms: C4_4  and  C5_5 
REMARK    4  A    between atoms: C5_5  and  C8_7 
REMARK    5  A    between atoms: C9_8  and  C10_9 
ROOT
ATOM      1  C4  ZIN A   1      18.338   2.647  11.135  0.00  0.00     0.139 A 
ATOM      2  C12 ZIN A   1      19.691   2.908  11.768  0.00  0.00     0.245 A 
ATOM      3  O13 ZIN A   1      20.277   3.955  11.590  0.00  0.00    -0.272 OA
ATOM      4  N14 ZIN A   1      20.219   1.932  12.537  0.00  0.00    -0.278 N 
ATOM      5  C15 ZIN A   1      19.586   0.772  12.744  0.00  0.00     0.331 A 
ATOM      6  O16 ZIN A   1      20.134  -0.050  13.450  0.00  0.00    -0.246 OA
ATOM      7  N17 ZIN A   1      18.394   0.451  12.230  0.00  0.00    -0.273 N 
ATOM      8  C18 ZIN A   1      17.814  -0.858  12.539  0.00  0.00     0.164 C 
ATOM      9  C19 ZIN A   1      17.708   1.299  11.433  0.00  0.00     0.247 A 
ATOM     10  O20 ZIN A   1      16.627   0.995  10.973  0.00  0.00    -0.271 OA
ATOM     11  H34 ZIN A   1      21.084   2.077  12.952  0.00  0.00     0.173 HD
ENDROOT
BRANCH   1  12
ATOM     12  C3  ZIN A   1      18.489   2.775   9.618  0.00  0.00     0.057 C 
BRANCH  12  13
ATOM     13  C2  ZIN A   1      19.354   1.654   9.102  0.00  0.00    -0.035 C 
ATOM     14  C1  ZIN A   1      19.241   1.259   7.858  0.00  0.00     0.007 C 
ENDBRANCH  12  13
ENDBRANCH   1  12
BRANCH   1  15
ATOM     15  C5  ZIN A   1      17.376   3.737  11.609  0.00  0.00     0.088 C 
ATOM     16  C7  ZIN A   1      17.579   4.998  10.768  0.00  0.00     0.025 C 
BRANCH  15  17
ATOM     17  C8  ZIN A   1      17.641   4.043  13.025  0.00  0.00    -0.100 C 
ATOM     18  C9  ZIN A   1      17.853   4.286  14.154  0.00  0.00    -0.106 C 
BRANCH  18  19
ATOM     19  C10 ZIN A   1      18.117   4.592  15.569  0.00  0.00     0.089 C 
ATOM     20  C11 ZIN A   1      19.626   4.700  15.794  0.00  0.00     0.018 C 
ENDBRANCH  18  19
ENDBRANCH  15  17
ENDBRANCH   1  15
TORSDOF 5
ENDMDL
MODEL 7
REMARK VINA RESULT:      -6.2      1.877      4.389
REMARK  5 active torsions:
REMARK  status: ('A' for Active; 'I' for Inactive)
REMARK    1  A    between atoms: C2_2  and  C3_3 
REMARK    2  A    between atoms: C3_3  and  C4_4 
REMARK    3  A    between atoms: C4_4  and  C5_5 
REMARK    4  A    between atoms: C5_5  and  C8_7 
REMARK    5  A    between atoms: C9_8  and  C10_9 
ROOT
ATOM      1  C4  ZIN A   1      18.922  -1.681  10.706  0.00  0.00     0.139 A 
ATOM      2  C12 ZIN A   1      17.524  -1.665  11.295  0.00  0.00     0.245 A 
ATOM      3  O13 ZIN A   1      16.958  -2.694  11.597  0.00  0.00    -0.272 OA
ATOM      4  N14 ZIN A   1      16.933  -0.463  11.469  0.00  0.00    -0.278 N 
ATOM      5  C15 ZIN A   1      17.545   0.681  11.142  0.00  0.00     0.331 A 
ATOM      6  O16 ZIN A   1      16.940   1.716  11.334  0.00  0.00    -0.246 OA
ATOM      7  N17 ZIN A   1      18.773   0.767  10.619  0.00  0.00    -0.273 N 
ATOM      8  C18 ZIN A   1      19.322   2.089  10.307  0.00  0.00     0.164 C 
ATOM      9  C19 ZIN A   1      19.522  -0.328  10.370  0.00  0.00     0.247 A 
ATOM     10  O20 ZIN A   1      20.634  -0.235   9.895  0.00  0.00    -0.271 OA
ATOM     11  H34 ZIN A   1      16.039  -0.429  11.844  0.00  0.00     0.173 HD
ENDROOT
BRANCH   1  12
ATOM     12  C3  ZIN A   1      18.891  -2.519   9.427  0.00  0.00     0.057 C 
BRANCH  12  13
ATOM     13  C2  ZIN A   1      18.057  -1.816   8.386  0.00  0.00    -0.035 C 
ATOM     14  C1  ZIN A   1      18.468  -1.766   7.143  0.00  0.00     0.007 C 
ENDBRANCH  12  13
ENDBRANCH   1  12
BRANCH   1  15
ATOM     15  C5  ZIN A   1      19.847  -2.376  11.706  0.00  0.00     0.088 C 
ATOM     16  C7  ZIN A   1      19.675  -3.892  11.592  0.00  0.00     0.025 C 
BRANCH  15  17
ATOM     17  C8  ZIN A   1      19.506  -1.945  13.072  0.00  0.00    -0.100 C 
ATOM     18  C9  ZIN A   1      19.234  -1.601  14.161  0.00  0.00    -0.106 C 
BRANCH  18  19
ATOM     19  C10 ZIN A   1      18.894  -1.170  15.527  0.00  0.00     0.089 C 
ATOM     20  C11 ZIN A   1      17.736  -0.173  15.473  0.00  0.00     0.018 C 
ENDBRANCH  18  19
ENDBRANCH  15  17
ENDBRANCH   1  15
TORSDOF 5
ENDMDL
MODEL 8
REMARK VINA RESULT:      -6.0      2.030      4.793
REMARK  5 active torsions:
REMARK  status: ('A' for Active; 'I' for Inactive)
REMARK    1  A    between atoms: C2_2  and  C3_3 
REMARK    2  A    between atoms: C3_3  and  C4_4 
REMARK    3  A    between atoms: C4_4  and  C5_5 
REMARK    4  A    between atoms: C5_5  and  C8_7 
REMARK    5  A    between atoms: C9_8  and  C10_9 
ROOT
ATOM      1  C4  ZIN A   1      18.278  -2.390  11.617  0.00  0.00     0.139 A 
ATOM      2  C12 ZIN A   1      19.681  -2.655  11.104  0.00  0.00     0.245 A 
ATOM      3  O13 ZIN A   1      20.265  -3.683  11.373  0.00  0.00    -0.272 OA
ATOM      4  N14 ZIN A   1      20.255  -1.704  10.337  0.00  0.00    -0.278 N 
ATOM      5  C15 ZIN A   1      19.624  -0.564  10.031  0.00  0.00     0.331 A 
ATOM      6  O16 ZIN A   1      20.216   0.236   9.334  0.00  0.00    -0.246 OA
ATOM      7  N17 ZIN A   1      18.391  -0.243  10.435  0.00  0.00    -0.273 N 
ATOM      8  C18 ZIN A   1      17.820   1.043  10.024  0.00  0.00     0.164 C 
ATOM      9  C19 ZIN A   1      17.656  -1.067  11.211  0.00  0.00     0.247 A 
ATOM     10  O20 ZIN A   1      16.538  -0.762  11.570  0.00  0.00    -0.271 OA
ATOM     11  H34 ZIN A   1      21.152  -1.851   9.998  0.00  0.00     0.173 HD
ENDROOT
BRANCH   1  12
ATOM     12  C3  ZIN A   1      18.310  -2.451  13.145  0.00  0.00     0.057 C 
BRANCH  12  13
ATOM     13  C2  ZIN A   1      19.236  -1.385  13.672  0.00  0.00    -0.035 C 
ATOM     14  C1  ZIN A   1      19.308  -1.160  14.961  0.00  0.00     0.007 C 
ENDBRANCH  12  13
ENDBRANCH   1  12
BRANCH   1  15
ATOM     15  C5  ZIN A   1      17.373  -3.516  11.116  0.00  0.00     0.088 C 
ATOM     16  C7  ZIN A   1      17.619  -4.777  11.945  0.00  0.00     0.025 C 
BRANCH  15  17
ATOM     17  C8  ZIN A   1      17.670  -3.792   9.701  0.00  0.00    -0.100 C 
ATOM     18  C9  ZIN A   1      17.906  -4.014   8.572  0.00  0.00    -0.106 C 
BRANCH  18  19
ATOM     19  C10 ZIN A   1      18.203  -4.290   7.157  0.00  0.00     0.089 C 
ATOM     20  C11 ZIN A   1      19.499  -3.582   6.760  0.00  0.00     0.018 C 
ENDBRANCH  18  19
ENDBRANCH  15  17
ENDBRANCH   1  15
TORSDOF 5
ENDMDL
MODEL 9
REMARK VINA RESULT:      -5.9      1.705      3.000
REMARK  5 active torsions:
REMARK  status: ('A' for Active; 'I' for Inactive)
REMARK    1  A    between atoms: C2_2  and  C3_3 
REMARK    2  A    between atoms: C3_3  and  C4_4 
REMARK    3  A    between atoms: C4_4  and  C5_5 
REMARK    4  A    between atoms: C5_5  and  C8_7 
REMARK    5  A    between atoms: C9_8  and  C10_9 
ROOT
ATOM      1  C4  ZIN A   1      18.899   0.766  10.656  0.00  0.00     0.139 A 
ATOM      2  C12 ZIN A   1      20.152   0.030  11.090  0.00  0.00     0.245 A 
ATOM      3  O13 ZIN A   1      20.876  -0.509  10.280  0.00  0.00    -0.272 OA
ATOM      4  N14 ZIN A   1      20.432  -0.003  12.410  0.00  0.00    -0.278 N 
ATOM      5  C15 ZIN A   1      19.644   0.587  13.316  0.00  0.00     0.331 A 
ATOM      6  O16 ZIN A   1      19.972   0.508  14.483  0.00  0.00    -0.246 OA
ATOM      7  N17 ZIN A   1      18.522   1.256  13.031  0.00  0.00    -0.273 N 
ATOM      8  C18 ZIN A   1      17.753   1.854  14.125  0.00  0.00     0.164 C 
ATOM      9  C19 ZIN A   1      18.077   1.398  11.765  0.00  0.00     0.247 A 
ATOM     10  O20 ZIN A   1      17.057   2.007  11.520  0.00  0.00    -0.271 OA
ATOM     11  H34 ZIN A   1      21.229  -0.468  12.710  0.00  0.00     0.173 HD
ENDROOT
BRANCH   1  12
ATOM     12  C3  ZIN A   1      18.003  -0.220   9.903  0.00  0.00     0.057 C 
BRANCH  12  13
ATOM     13  C2  ZIN A   1      17.683  -1.391  10.796  0.00  0.00    -0.035 C 
ATOM     14  C1  ZIN A   1      17.753  -2.612  10.325  0.00  0.00     0.007 C 
ENDBRANCH  12  13
ENDBRANCH   1  12
BRANCH   1  15
ATOM     15  C5  ZIN A   1      19.312   1.870   9.682  0.00  0.00     0.088 C 
ATOM     16  C7  ZIN A   1      18.495   3.132   9.963  0.00  0.00     0.025 C 
BRANCH  15  17
ATOM     17  C8  ZIN A   1      19.067   1.423   8.301  0.00  0.00    -0.100 C 
ATOM     18  C9  ZIN A   1      18.871   1.067   7.199  0.00  0.00    -0.106 C 
BRANCH  18  19
ATOM     19  C10 ZIN A   1      18.626   0.621   5.818  0.00  0.00     0.089 C 
ATOM     20  C11 ZIN A   1      17.473  -0.384   5.804  0.00  0.00     0.018 C 
ENDBRANCH  18  19
ENDBRANCH  15  17
ENDBRANCH   1  15
TORSDOF 5
ENDMDL
