MODEL 1
REMARK VINA RESULT:      -6.2      0.000      0.000
REMARK  3 active torsions:
REMARK  status: ('A' for Active; 'I' for Inactive)
REMARK    1  A    between atoms: N1_1  and  S2_2 
REMARK    2  A    between atoms: S2_2  and  C5_5 
REMARK    3  A    between atoms: C5_5  and  C6_6 
ROOT
ATOM      1  C6  ZIN A   1      18.955  -2.997   6.495  0.00  0.00     0.090 A 
ATOM      2  N7  ZIN A   1      19.424  -3.224   5.307  0.00  0.00    -0.131 NA
ATOM      3  O8  ZIN A   1      19.658  -1.998   4.643  0.00  0.00    -0.212 OA
ATOM      4  C9  ZIN A   1      19.319  -0.979   5.457  0.00  0.00     0.113 A 
ATOM      5  C10 ZIN A   1      19.344   0.404   5.319  0.00  0.00     0.040 A 
ATOM      6  C11 ZIN A   1      18.922   1.204   6.358  0.00  0.00     0.003 A 
ATOM      7  C12 ZIN A   1      18.471   0.642   7.544  0.00  0.00     0.001 A 
ATOM      8  C13 ZIN A   1      18.438  -0.716   7.700  0.00  0.00     0.016 A 
ATOM      9  C14 ZIN A   1      18.856  -1.544   6.656  0.00  0.00     0.028 A 
ENDROOT
BRANCH   1  10
ATOM     10  C5  ZIN A   1      18.577  -4.037   7.518  0.00  0.00     0.225 C 
BRANCH  10  11
ATOM     11  S2  ZIN A   1      19.728  -5.435   7.412  0.00  0.00     0.230 S 
ATOM     12  O3  ZIN A   1      19.430  -6.243   6.281  0.00  0.00    -0.206 OA
ATOM     13  O4  ZIN A   1      19.927  -6.015   8.694  0.00  0.00    -0.206 OA
BRANCH  11  14
ATOM     14  N1  ZIN A   1      21.187  -4.743   7.047  0.00  0.00    -0.328 N 
ATOM     15  H15 ZIN A   1      21.727  -4.351   7.750  0.00  0.00     0.168 HD
ATOM     16  H16 ZIN A   1      21.502  -4.733   6.129  0.00  0.00     0.168 HD
ENDBRANCH  11  14
ENDBRANCH  10  11
ENDBRANCH   1  10
TORSDOF 3
ENDMDL
MODEL 2
REMARK VINA RESULT:      -6.0      2.497      2.832
REMARK  3 active torsions:
REMARK  status: ('A' for Active; 'I' for Inactive)
REMARK    1  A    between atoms: N1_1  and  S2_2 
REMARK    2  A    between atoms: S2_2  and  C5_5 
REMARK    3  A    between atoms: C5_5  and  C6_6 
ROOT
ATOM      1  C6  ZIN A   1      18.931  -2.405   5.358  0.00  0.00     0.090 A 
ATOM      2  N7  ZIN A   1      19.620  -1.912   4.376  0.00  0.00    -0.131 NA
ATOM      3  O8  ZIN A   1      19.837  -0.531   4.591  0.00  0.00    -0.212 OA
ATOM      4  C9  ZIN A   1      19.257  -0.164   5.751  0.00  0.00     0.113 A 
ATOM      5  C10 ZIN A   1      19.162   1.044   6.432  0.00  0.00     0.040 A 
ATOM      6  C11 ZIN A   1      18.484   1.103   7.630  0.00  0.00     0.003 A 
ATOM      7  C12 ZIN A   1      17.895  -0.033   8.166  0.00  0.00     0.001 A 
ATOM      8  C13 ZIN A   1      17.977  -1.231   7.512  0.00  0.00     0.016 A 
ATOM      9  C14 ZIN A   1      18.654  -1.311   6.293  0.00  0.00     0.028 A 
ENDROOT
BRANCH   1  10
ATOM     10  C5  ZIN A   1      18.491  -3.838   5.507  0.00  0.00     0.225 C 
BRANCH  10  11
ATOM     11  S2  ZIN A   1      17.417  -4.289   4.115  0.00  0.00     0.230 S 
ATOM     12  O3  ZIN A   1      16.506  -3.236   3.827  0.00  0.00    -0.206 OA
ATOM     13  O4  ZIN A   1      16.968  -5.630   4.246  0.00  0.00    -0.206 OA
BRANCH  11  14
ATOM     14  N1  ZIN A   1      18.430  -4.322   2.806  0.00  0.00    -0.328 N 
ATOM     15  H15 ZIN A   1      18.064  -4.291   1.908  0.00  0.00     0.168 HD
ATOM     16  H16 ZIN A   1      19.390  -4.370   2.937  0.00  0.00     0.168 HD
ENDBRANCH  11  14
ENDBRANCH  10  11
ENDBRANCH   1  10
TORSDOF 3
ENDMDL
MODEL 3
REMARK VINA RESULT:      -5.9      6.476      7.496
REMARK  3 active torsions:
REMARK  status: ('A' for Active; 'I' for Inactive)
REMARK    1  A    between atoms: N1_1  and  S2_2 
REMARK    2  A    between atoms: S2_2  and  C5_5 
REMARK    3  A    between atoms: C5_5  and  C6_6 
ROOT
ATOM      1  C6  ZIN A   1      17.764   2.532  10.782  0.00  0.00     0.090 A 
ATOM      2  N7  ZIN A   1      16.984   1.737  11.447  0.00  0.00    -0.131 NA
ATOM      3  O8  ZIN A   1      16.829   0.521  10.744  0.00  0.00    -0.212 OA
ATOM      4  C9  ZIN A   1      17.543   0.573   9.601  0.00  0.00     0.113 A 
ATOM      5  C10 ZIN A   1      17.744  -0.323   8.559  0.00  0.00     0.040 A 
ATOM      6  C11 ZIN A   1      18.552   0.028   7.499  0.00  0.00     0.003 A 
ATOM      7  C12 ZIN A   1      19.167   1.271   7.462  0.00  0.00     0.001 A 
ATOM      8  C13 ZIN A   1      18.981   2.168   8.478  0.00  0.00     0.016 A 
ATOM      9  C14 ZIN A   1      18.162   1.833   9.558  0.00  0.00     0.028 A 
ENDROOT
BRANCH   1  10
ATOM     10  C5  ZIN A   1      18.179   3.922  11.191  0.00  0.00     0.225 C 
BRANCH  10  11
ATOM     11  S2  ZIN A   1      19.481   3.818  12.450  0.00  0.00     0.230 S 
ATOM     12  O3  ZIN A   1      19.092   2.943  13.500  0.00  0.00    -0.206 OA
ATOM     13  O4  ZIN A   1      20.009   5.108  12.728  0.00  0.00    -0.206 OA
BRANCH  11  14
ATOM     14  N1  ZIN A   1      20.723   3.023  11.695  0.00  0.00    -0.328 N 
ATOM     15  H15 ZIN A   1      20.535   2.262  11.125  0.00  0.00     0.168 HD
ATOM     16  H16 ZIN A   1      21.637   3.322  11.821  0.00  0.00     0.168 HD
ENDBRANCH  11  14
ENDBRANCH  10  11
ENDBRANCH   1  10
TORSDOF 3
ENDMDL
MODEL 4
REMARK VINA RESULT:      -5.9      3.966      4.579
REMARK  3 active torsions:
REMARK  status: ('A' for Active; 'I' for Inactive)
REMARK    1  A    between atoms: N1_1  and  S2_2 
REMARK    2  A    between atoms: S2_2  and  C5_5 
REMARK    3  A    between atoms: C5_5  and  C6_6 
ROOT
ATOM      1  C6  ZIN A   1      18.997  -0.630   9.181  0.00  0.00     0.090 A 
ATOM      2  N7  ZIN A   1      19.082  -1.922   9.259  0.00  0.00    -0.131 NA
ATOM      3  O8  ZIN A   1      19.208  -2.472   7.962  0.00  0.00    -0.212 OA
ATOM      4  C9  ZIN A   1      19.198  -1.476   7.053  0.00  0.00     0.113 A 
ATOM      5  C10 ZIN A   1      19.289  -1.447   5.667  0.00  0.00     0.040 A 
ATOM      6  C11 ZIN A   1      19.249  -0.240   5.003  0.00  0.00     0.003 A 
ATOM      7  C12 ZIN A   1      19.119   0.948   5.706  0.00  0.00     0.001 A 
ATOM      8  C13 ZIN A   1      19.028   0.942   7.070  0.00  0.00     0.016 A 
ATOM      9  C14 ZIN A   1      19.060  -0.271   7.761  0.00  0.00     0.028 A 
ENDROOT
BRANCH   1  10
ATOM     10  C5  ZIN A   1      18.852   0.326  10.337  0.00  0.00     0.225 C 
BRANCH  10  11
ATOM     11  S2  ZIN A   1      20.098  -0.058  11.598  0.00  0.00     0.230 S 
ATOM     12  O3  ZIN A   1      19.685  -1.166  12.387  0.00  0.00    -0.206 OA
ATOM     13  O4  ZIN A   1      20.578   1.134  12.204  0.00  0.00    -0.206 OA
BRANCH  11  14
ATOM     14  N1  ZIN A   1      21.393  -0.630  10.738  0.00  0.00    -0.328 N 
ATOM     15  H15 ZIN A   1      22.088  -1.136  11.187  0.00  0.00     0.168 HD
ATOM     16  H16 ZIN A   1      21.455  -0.460   9.785  0.00  0.00     0.168 HD
ENDBRANCH  11  14
ENDBRANCH  10  11
ENDBRANCH   1  10
TORSDOF 3
ENDMDL
MODEL 5
REMARK VINA RESULT:      -5.9      4.491      5.200
REMARK  3 active torsions:
REMARK  status: ('A' for Active; 'I' for Inactive)
REMARK    1  A    between atoms: N1_1  and  S2_2 
REMARK    2  A    between atoms: S2_2  and  C5_5 
REMARK    3  A    between atoms: C5_5  and  C6_6 
ROOT
ATOM      1  C6  ZIN A   1      17.641  -1.012  10.861  0.00  0.00     0.090 A 
ATOM      2  N7  ZIN A   1      16.744  -0.655  11.728  0.00  0.00    -0.131 NA
ATOM      3  O8  ZIN A   1      16.611   0.753  11.724  0.00  0.00    -0.212 OA
ATOM      4  C9  ZIN A   1      17.462   1.279  10.820  0.00  0.00     0.113 A 
ATOM      5  C10 ZIN A   1      17.741   2.577  10.413  0.00  0.00     0.040 A 
ATOM      6  C11 ZIN A   1      18.689   2.802   9.438  0.00  0.00     0.003 A 
ATOM      7  C12 ZIN A   1      19.368   1.741   8.857  0.00  0.00     0.001 A 
ATOM      8  C13 ZIN A   1      19.108   0.455   9.243  0.00  0.00     0.016 A 
ATOM      9  C14 ZIN A   1      18.156   0.208  10.234  0.00  0.00     0.028 A 
ENDROOT
BRANCH   1  10
ATOM     10  C5  ZIN A   1      18.076  -2.423  10.560  0.00  0.00     0.225 C 
BRANCH  10  11
ATOM     11  S2  ZIN A   1      19.403  -2.903  11.702  0.00  0.00     0.230 S 
ATOM     12  O3  ZIN A   1      19.669  -4.296  11.600  0.00  0.00    -0.206 OA
ATOM     13  O4  ZIN A   1      19.220  -2.282  12.967  0.00  0.00    -0.206 OA
BRANCH  11  14
ATOM     14  N1  ZIN A   1      20.760  -2.182  11.084  0.00  0.00    -0.328 N 
ATOM     15  H15 ZIN A   1      21.601  -2.664  11.069  0.00  0.00     0.168 HD
ATOM     16  H16 ZIN A   1      20.712  -1.278  10.736  0.00  0.00     0.168 HD
ENDBRANCH  11  14
ENDBRANCH  10  11
ENDBRANCH   1  10
TORSDOF 3
ENDMDL
MODEL 6
REMARK VINA RESULT:      -5.9     11.326     12.476
REMARK  3 active torsions:
REMARK  status: ('A' for Active; 'I' for Inactive)
REMARK    1  A    between atoms: N1_1  and  S2_2 
REMARK    2  A    between atoms: S2_2  and  C5_5 
REMARK    3  A    between atoms: C5_5  and  C6_6 
ROOT
ATOM      1  C6  ZIN A   1      19.318   2.889  16.658  0.00  0.00     0.090 A 
ATOM      2  N7  ZIN A   1      19.726   2.997  17.885  0.00  0.00    -0.131 NA
ATOM      3  O8  ZIN A   1      19.705   1.728  18.508  0.00  0.00    -0.212 OA
ATOM      4  C9  ZIN A   1      19.266   0.806  17.628  0.00  0.00     0.113 A 
ATOM      5  C10 ZIN A   1      19.054  -0.565  17.706  0.00  0.00     0.040 A 
ATOM      6  C11 ZIN A   1      18.587  -1.250  16.605  0.00  0.00     0.003 A 
ATOM      7  C12 ZIN A   1      18.325  -0.583  15.417  0.00  0.00     0.001 A 
ATOM      8  C13 ZIN A   1      18.527   0.766  15.319  0.00  0.00     0.016 A 
ATOM      9  C14 ZIN A   1      18.995   1.479  16.426  0.00  0.00     0.028 A 
ENDROOT
BRANCH   1  10
ATOM     10  C5  ZIN A   1      19.195   4.010  15.659  0.00  0.00     0.225 C 
BRANCH  10  11
ATOM     11  S2  ZIN A   1      18.115   5.304  16.332  0.00  0.00     0.230 S 
ATOM     12  O3  ZIN A   1      17.099   5.642  15.397  0.00  0.00    -0.206 OA
ATOM     13  O4  ZIN A   1      18.884   6.311  16.975  0.00  0.00    -0.206 OA
BRANCH  11  14
ATOM     14  N1  ZIN A   1      17.300   4.560  17.568  0.00  0.00    -0.328 N 
ATOM     15  H15 ZIN A   1      16.705   3.819  17.379  0.00  0.00     0.168 HD
ATOM     16  H16 ZIN A   1      17.422   4.866  18.481  0.00  0.00     0.168 HD
ENDBRANCH  11  14
ENDBRANCH  10  11
ENDBRANCH   1  10
TORSDOF 3
ENDMDL
MODEL 7
REMARK VINA RESULT:      -5.8      6.564      7.418
REMARK  3 active torsions:
REMARK  status: ('A' for Active; 'I' for Inactive)
REMARK    1  A    between atoms: N1_1  and  S2_2 
REMARK    2  A    between atoms: S2_2  and  C5_5 
REMARK    3  A    between atoms: C5_5  and  C6_6 
ROOT
ATOM      1  C6  ZIN A   1      17.548   1.606  11.774  0.00  0.00     0.090 A 
ATOM      2  N7  ZIN A   1      16.733   0.623  12.002  0.00  0.00    -0.131 NA
ATOM      3  O8  ZIN A   1      16.612  -0.176  10.842  0.00  0.00    -0.212 OA
ATOM      4  C9  ZIN A   1      17.382   0.339   9.863  0.00  0.00     0.113 A 
ATOM      5  C10 ZIN A   1      17.634  -0.035   8.549  0.00  0.00     0.040 A 
ATOM      6  C11 ZIN A   1      18.495   0.714   7.776  0.00  0.00     0.003 A 
ATOM      7  C12 ZIN A   1      19.114   1.841   8.299  0.00  0.00     0.001 A 
ATOM      8  C13 ZIN A   1      18.879   2.226   9.590  0.00  0.00     0.016 A 
ATOM      9  C14 ZIN A   1      18.005   1.483  10.387  0.00  0.00     0.028 A 
ENDROOT
BRANCH   1  10
ATOM     10  C5  ZIN A   1      17.944   2.681  12.752  0.00  0.00     0.225 C 
BRANCH  10  11
ATOM     11  S2  ZIN A   1      18.699   1.918  14.215  0.00  0.00     0.230 S 
ATOM     12  O3  ZIN A   1      19.078   2.912  15.158  0.00  0.00    -0.206 OA
ATOM     13  O4  ZIN A   1      19.602   0.890  13.831  0.00  0.00    -0.206 OA
BRANCH  11  14
ATOM     14  N1  ZIN A   1      17.453   1.112  14.951  0.00  0.00    -0.328 N 
ATOM     15  H15 ZIN A   1      17.338   0.161  14.805  0.00  0.00     0.168 HD
ATOM     16  H16 ZIN A   1      16.840   1.593  15.529  0.00  0.00     0.168 HD
ENDBRANCH  11  14
ENDBRANCH  10  11
ENDBRANCH   1  10
TORSDOF 3
ENDMDL
MODEL 8
REMARK VINA RESULT:      -5.7      3.598      4.158
REMARK  3 active torsions:
REMARK  status: ('A' for Active; 'I' for Inactive)
REMARK    1  A    between atoms: N1_1  and  S2_2 
REMARK    2  A    between atoms: S2_2  and  C5_5 
REMARK    3  A    between atoms: C5_5  and  C6_6 
ROOT
ATOM      1  C6  ZIN A   1      18.453  -1.402   9.607  0.00  0.00     0.090 A 
ATOM      2  N7  ZIN A   1      19.150  -1.635   8.538  0.00  0.00    -0.131 NA
ATOM      3  O8  ZIN A   1      19.540  -0.411   7.947  0.00  0.00    -0.212 OA
ATOM      4  C9  ZIN A   1      19.063   0.612   8.683  0.00  0.00     0.113 A 
ATOM      5  C10 ZIN A   1      19.145   1.994   8.565  0.00  0.00     0.040 A 
ATOM      6  C11 ZIN A   1      18.536   2.799   9.503  0.00  0.00     0.003 A 
ATOM      7  C12 ZIN A   1      17.841   2.242  10.567  0.00  0.00     0.001 A 
ATOM      8  C13 ZIN A   1      17.748   0.885  10.701  0.00  0.00     0.016 A 
ATOM      9  C14 ZIN A   1      18.353   0.052   9.757  0.00  0.00     0.028 A 
ENDROOT
BRANCH   1  10
ATOM     10  C5  ZIN A   1      17.852  -2.438  10.522  0.00  0.00     0.225 C 
BRANCH  10  11
ATOM     11  S2  ZIN A   1      19.083  -2.943  11.755  0.00  0.00     0.230 S 
ATOM     12  O3  ZIN A   1      19.252  -4.354  11.742  0.00  0.00    -0.206 OA
ATOM     13  O4  ZIN A   1      18.885  -2.241  12.974  0.00  0.00    -0.206 OA
BRANCH  11  14
ATOM     14  N1  ZIN A   1      20.517  -2.354  11.172  0.00  0.00    -0.328 N 
ATOM     15  H15 ZIN A   1      21.043  -2.884  10.554  0.00  0.00     0.168 HD
ATOM     16  H16 ZIN A   1      20.828  -1.478  11.447  0.00  0.00     0.168 HD
ENDBRANCH  11  14
ENDBRANCH  10  11
ENDBRANCH   1  10
TORSDOF 3
ENDMDL
MODEL 9
REMARK VINA RESULT:      -5.7      7.347      8.342
REMARK  3 active torsions:
REMARK  status: ('A' for Active; 'I' for Inactive)
REMARK    1  A    between atoms: N1_1  and  S2_2 
REMARK    2  A    between atoms: S2_2  and  C5_5 
REMARK    3  A    between atoms: C5_5  and  C6_6 
ROOT
ATOM      1  C6  ZIN A   1      18.829   0.783  12.925  0.00  0.00     0.090 A 
ATOM      2  N7  ZIN A   1      19.115   2.025  13.168  0.00  0.00    -0.131 NA
ATOM      3  O8  ZIN A   1      19.231   2.225  14.562  0.00  0.00    -0.212 OA
ATOM      4  C9  ZIN A   1      19.006   1.059  15.200  0.00  0.00     0.113 A 
ATOM      5  C10 ZIN A   1      18.993   0.690  16.540  0.00  0.00     0.040 A 
ATOM      6  C11 ZIN A   1      18.724  -0.616  16.888  0.00  0.00     0.003 A 
ATOM      7  C12 ZIN A   1      18.464  -1.568  15.912  0.00  0.00     0.001 A 
ATOM      8  C13 ZIN A   1      18.472  -1.225  14.588  0.00  0.00     0.016 A 
ATOM      9  C14 ZIN A   1      18.737   0.095  14.216  0.00  0.00     0.028 A 
ENDROOT
BRANCH   1  10
ATOM     10  C5  ZIN A   1      18.622   0.165  11.567  0.00  0.00     0.225 C 
BRANCH  10  11
ATOM     11  S2  ZIN A   1      20.174  -0.587  11.003  0.00  0.00     0.230 S 
ATOM     12  O3  ZIN A   1      20.407  -0.284   9.634  0.00  0.00    -0.206 OA
ATOM     13  O4  ZIN A   1      20.288  -1.918  11.488  0.00  0.00    -0.206 OA
BRANCH  11  14
ATOM     14  N1  ZIN A   1      21.355   0.246  11.812  0.00  0.00    -0.328 N 
ATOM     15  H15 ZIN A   1      21.669  -0.072  12.672  0.00  0.00     0.168 HD
ATOM     16  H16 ZIN A   1      21.734   1.049  11.423  0.00  0.00     0.168 HD
ENDBRANCH  11  14
ENDBRANCH  10  11
ENDBRANCH   1  10
TORSDOF 3
ENDMDL
