MODEL 1
REMARK VINA RESULT:      -6.0      0.000      0.000
REMARK  0 active torsions:
REMARK  status: ('A' for Active; 'I' for Inactive)
ROOT
ATOM      1  C1  <0> d   1      16.694  -0.180  11.823  0.00  0.00     0.016 C 
ATOM      2  C2  <0> d   1      17.468   1.109  11.541  0.00  0.00     0.041 C 
ATOM      3  C4  <0> d   1      18.667   1.209  12.490  0.00  0.00     0.241 C 
ATOM      4  N5  <0> d   1      19.065   2.592  12.683  0.00  0.00    -0.074 N 
ATOM      5  H6  <0> d   1      18.247   3.125  12.937  0.00  0.00     0.277 HD
ATOM      6  H7  <0> d   1      19.717   2.629  13.451  0.00  0.00     0.277 HD
ATOM      7  C8  <0> d   1      19.685   3.232  11.535  0.00  0.00     0.237 C 
ATOM      8  C9  <0> d   1      18.661   3.481  10.424  0.00  0.00     0.066 C 
ATOM      9  C10 <0> d   1      18.559   2.222   9.585  0.00  0.00    -0.050 A 
ATOM     10  C11 <0> d   1      19.036   2.219   8.289  0.00  0.00     0.009 A 
ATOM     11  C12 <0> d   1      18.940   1.067   7.527  0.00  0.00     0.024 A 
ATOM     12  C13 <0> d   1      18.369  -0.072   8.065  0.00  0.00     0.034 A 
ATOM     13 Cl14 <0> d   1      18.251  -1.516   7.108  0.00  0.00    -0.084 Cl
ATOM     14  C15 <0> d   1      17.892  -0.063   9.365  0.00  0.00     0.031 A 
ATOM     15  C16 <0> d   1      17.990   1.092  10.118  0.00  0.00    -0.045 A 
ENDROOT
TORSDOF 0
ENDMDL
MODEL 2
REMARK VINA RESULT:      -5.9      2.749      4.401
REMARK  0 active torsions:
REMARK  status: ('A' for Active; 'I' for Inactive)
ROOT
ATOM      1  C1  <0> d   1      17.845   3.858  10.841  0.00  0.00     0.016 C 
ATOM      2  C2  <0> d   1      17.887   2.590   9.985  0.00  0.00     0.041 C 
ATOM      3  C4  <0> d   1      19.258   2.466   9.312  0.00  0.00     0.241 C 
ATOM      4  N5  <0> d   1      19.172   1.679   8.096  0.00  0.00    -0.074 N 
ATOM      5  H6  <0> d   1      18.427   2.052   7.528  0.00  0.00     0.277 HD
ATOM      6  H7  <0> d   1      20.038   1.784   7.589  0.00  0.00     0.277 HD
ATOM      7  C8  <0> d   1      18.932   0.258   8.283  0.00  0.00     0.237 C 
ATOM      8  C9  <0> d   1      17.505   0.002   8.778  0.00  0.00     0.066 C 
ATOM      9  C10 <0> d   1      17.496   0.138  10.288  0.00  0.00    -0.050 A 
ATOM     10  C11 <0> d   1      17.303  -0.979  11.077  0.00  0.00     0.009 A 
ATOM     11  C12 <0> d   1      17.296  -0.849  12.456  0.00  0.00     0.024 A 
ATOM     12  C13 <0> d   1      17.482   0.394  13.035  0.00  0.00     0.034 A 
ATOM     13 Cl14 <0> d   1      17.474   0.553  14.763  0.00  0.00    -0.084 Cl
ATOM     14  C15 <0> d   1      17.674   1.509  12.238  0.00  0.00     0.031 A 
ATOM     15  C16 <0> d   1      17.678   1.373  10.863  0.00  0.00    -0.045 A 
ENDROOT
TORSDOF 0
ENDMDL
MODEL 3
REMARK VINA RESULT:      -5.8      2.779      4.322
REMARK  0 active torsions:
REMARK  status: ('A' for Active; 'I' for Inactive)
ROOT
ATOM      1  C1  <0> d   1      18.859   1.142   7.371  0.00  0.00     0.016 C 
ATOM      2  C2  <0> d   1      18.739   0.366   8.684  0.00  0.00     0.041 C 
ATOM      3  C4  <0> d   1      20.105  -0.212   9.068  0.00  0.00     0.241 C 
ATOM      4  N5  <0> d   1      19.956  -1.384   9.913  0.00  0.00    -0.074 N 
ATOM      5  H6  <0> d   1      19.311  -2.017   9.465  0.00  0.00     0.277 HD
ATOM      6  H7  <0> d   1      20.852  -1.842   9.980  0.00  0.00     0.277 HD
ATOM      7  C8  <0> d   1      19.479  -1.129  11.261  0.00  0.00     0.237 C 
ATOM      8  C9  <0> d   1      18.006  -0.709  11.254  0.00  0.00     0.066 C 
ATOM      9  C10 <0> d   1      17.941   0.787  11.017  0.00  0.00    -0.050 A 
ATOM     10  C11 <0> d   1      17.530   1.627  12.033  0.00  0.00     0.009 A 
ATOM     11  C12 <0> d   1      17.473   2.992  11.811  0.00  0.00     0.024 A 
ATOM     12  C13 <0> d   1      17.827   3.508  10.577  0.00  0.00     0.034 A 
ATOM     13 Cl14 <0> d   1      17.756   5.221  10.302  0.00  0.00    -0.084 Cl
ATOM     14  C15 <0> d   1      18.238   2.661   9.562  0.00  0.00     0.031 A 
ATOM     15  C16 <0> d   1      18.291   1.299   9.791  0.00  0.00    -0.045 A 
ENDROOT
TORSDOF 0
ENDMDL
MODEL 4
REMARK VINA RESULT:      -5.7      3.225      4.419
REMARK  0 active torsions:
REMARK  status: ('A' for Active; 'I' for Inactive)
ROOT
ATOM      1  C1  <0> d   1      19.171   1.402  13.577  0.00  0.00     0.016 C 
ATOM      2  C2  <0> d   1      19.126   1.523  12.052  0.00  0.00     0.041 C 
ATOM      3  C4  <0> d   1      18.358   0.337  11.462  0.00  0.00     0.241 C 
ATOM      4  N5  <0> d   1      18.769   0.078  10.093  0.00  0.00    -0.074 N 
ATOM      5  H6  <0> d   1      19.775   0.015  10.072  0.00  0.00     0.277 HD
ATOM      6  H7  <0> d   1      18.391  -0.814   9.813  0.00  0.00     0.277 HD
ATOM      7  C8  <0> d   1      18.355   1.070   9.116  0.00  0.00     0.237 C 
ATOM      8  C9  <0> d   1      19.124   2.381   9.302  0.00  0.00     0.066 C 
ATOM      9  C10 <0> d   1      18.404   3.207  10.350  0.00  0.00    -0.050 A 
ATOM     10  C11 <0> d   1      17.751   4.367   9.981  0.00  0.00     0.009 A 
ATOM     11  C12 <0> d   1      17.095   5.118  10.941  0.00  0.00     0.024 A 
ATOM     12  C13 <0> d   1      17.095   4.704  12.261  0.00  0.00     0.034 A 
ATOM     13 Cl14 <0> d   1      16.270   5.647  13.464  0.00  0.00    -0.084 Cl
ATOM     14  C15 <0> d   1      17.751   3.541  12.625  0.00  0.00     0.031 A 
ATOM     15  C16 <0> d   1      18.405   2.798  11.661  0.00  0.00    -0.045 A 
ENDROOT
TORSDOF 0
ENDMDL
MODEL 5
REMARK VINA RESULT:      -5.6      2.861      3.725
REMARK  0 active torsions:
REMARK  status: ('A' for Active; 'I' for Inactive)
ROOT
ATOM      1  C1  <0> d   1      17.591   0.163  13.388  0.00  0.00     0.016 C 
ATOM      2  C2  <0> d   1      18.332  -0.215  12.105  0.00  0.00     0.041 C 
ATOM      3  C4  <0> d   1      17.584  -1.345  11.390  0.00  0.00     0.241 C 
ATOM      4  N5  <0> d   1      18.483  -2.117  10.551  0.00  0.00    -0.074 N 
ATOM      5  H6  <0> d   1      19.280  -2.389  11.107  0.00  0.00     0.277 HD
ATOM      6  H7  <0> d   1      18.002  -2.954  10.259  0.00  0.00     0.277 HD
ATOM      7  C8  <0> d   1      18.969  -1.439   9.362  0.00  0.00     0.237 C 
ATOM      8  C9  <0> d   1      19.955  -0.326   9.728  0.00  0.00     0.066 C 
ATOM      9  C10 <0> d   1      19.161   0.927  10.040  0.00  0.00    -0.050 A 
ATOM     10  C11 <0> d   1      19.221   2.010   9.185  0.00  0.00     0.009 A 
ATOM     11  C12 <0> d   1      18.494   3.152   9.475  0.00  0.00     0.024 A 
ATOM     12  C13 <0> d   1      17.713   3.203  10.615  0.00  0.00     0.034 A 
ATOM     13 Cl14 <0> d   1      16.801   4.636  10.976  0.00  0.00    -0.084 Cl
ATOM     14  C15 <0> d   1      17.657   2.115  11.469  0.00  0.00     0.031 A 
ATOM     15  C16 <0> d   1      18.388   0.979  11.174  0.00  0.00    -0.045 A 
ENDROOT
TORSDOF 0
ENDMDL
MODEL 6
REMARK VINA RESULT:      -5.6      4.138      6.157
REMARK  0 active torsions:
REMARK  status: ('A' for Active; 'I' for Inactive)
ROOT
ATOM      1  C1  <0> d   1      19.627   1.925  11.825  0.00  0.00     0.016 C 
ATOM      2  C2  <0> d   1      19.419   0.414  11.938  0.00  0.00     0.041 C 
ATOM      3  C4  <0> d   1      20.686  -0.317  11.483  0.00  0.00     0.241 C 
ATOM      4  N5  <0> d   1      20.377  -1.656  11.016  0.00  0.00    -0.074 N 
ATOM      5  H6  <0> d   1      19.631  -1.591  10.340  0.00  0.00     0.277 HD
ATOM      6  H7  <0> d   1      21.192  -2.025  10.550  0.00  0.00     0.277 HD
ATOM      7  C8  <0> d   1      19.978  -2.603  12.043  0.00  0.00     0.237 C 
ATOM      8  C9  <0> d   1      18.589  -2.266  12.593  0.00  0.00     0.066 C 
ATOM      9  C10 <0> d   1      18.753  -1.237  13.695  0.00  0.00    -0.050 A 
ATOM     10  C11 <0> d   1      18.502  -1.590  15.006  0.00  0.00     0.009 A 
ATOM     11  C12 <0> d   1      18.654  -0.646  16.009  0.00  0.00     0.024 A 
ATOM     12  C13 <0> d   1      19.054   0.640  15.694  0.00  0.00     0.034 A 
ATOM     13 Cl14 <0> d   1      19.244   1.820  16.952  0.00  0.00    -0.084 Cl
ATOM     14  C15 <0> d   1      19.304   0.986  14.377  0.00  0.00     0.031 A 
ATOM     15  C16 <0> d   1      19.149   0.040  13.382  0.00  0.00    -0.045 A 
ENDROOT
TORSDOF 0
ENDMDL
MODEL 7
REMARK VINA RESULT:      -5.6      3.055      4.234
REMARK  0 active torsions:
REMARK  status: ('A' for Active; 'I' for Inactive)
ROOT
ATOM      1  C1  <0> d   1      19.981  -1.569  10.744  0.00  0.00     0.016 C 
ATOM      2  C2  <0> d   1      19.418  -0.935   9.471  0.00  0.00     0.041 C 
ATOM      3  C4  <0> d   1      18.075  -1.584   9.121  0.00  0.00     0.241 C 
ATOM      4  N5  <0> d   1      17.797  -1.473   7.700  0.00  0.00    -0.074 N 
ATOM      5  H6  <0> d   1      18.601  -1.809   7.193  0.00  0.00     0.277 HD
ATOM      6  H7  <0> d   1      17.015  -2.073   7.484  0.00  0.00     0.277 HD
ATOM      7  C8  <0> d   1      17.484  -0.137   7.224  0.00  0.00     0.237 C 
ATOM      8  C9  <0> d   1      18.726   0.760   7.247  0.00  0.00     0.066 C 
ATOM      9  C10 <0> d   1      18.855   1.354   8.635  0.00  0.00    -0.050 A 
ATOM     10  C11 <0> d   1      18.642   2.705   8.826  0.00  0.00     0.009 A 
ATOM     11  C12 <0> d   1      18.762   3.243  10.097  0.00  0.00     0.024 A 
ATOM     12  C13 <0> d   1      19.092   2.429  11.165  0.00  0.00     0.034 A 
ATOM     13 Cl14 <0> d   1      19.240   3.105  12.756  0.00  0.00    -0.084 Cl
ATOM     14  C15 <0> d   1      19.305   1.075  10.966  0.00  0.00     0.031 A 
ATOM     15  C16 <0> d   1      19.185   0.546   9.695  0.00  0.00    -0.045 A 
ENDROOT
TORSDOF 0
ENDMDL
MODEL 8
REMARK VINA RESULT:      -5.5      3.918      5.065
REMARK  0 active torsions:
REMARK  status: ('A' for Active; 'I' for Inactive)
ROOT
ATOM      1  C1  <0> d   1      17.314  -1.313  16.801  0.00  0.00     0.016 C 
ATOM      2  C2  <0> d   1      17.796   0.087  16.414  0.00  0.00     0.041 C 
ATOM      3  C4  <0> d   1      18.847   0.567  17.420  0.00  0.00     0.241 C 
ATOM      4  N5  <0> d   1      18.899   2.017  17.468  0.00  0.00    -0.074 N 
ATOM      5  H6  <0> d   1      17.961   2.363  17.602  0.00  0.00     0.277 HD
ATOM      6  H7  <0> d   1      19.451   2.288  18.268  0.00  0.00     0.277 HD
ATOM      7  C8  <0> d   1      19.459   2.664  16.294  0.00  0.00     0.237 C 
ATOM      8  C9  <0> d   1      18.513   2.546  15.096  0.00  0.00     0.066 C 
ATOM      9  C10 <0> d   1      18.779   1.219  14.412  0.00  0.00    -0.050 A 
ATOM     10  C11 <0> d   1      19.362   1.196  13.160  0.00  0.00     0.009 A 
ATOM     11  C12 <0> d   1      19.603  -0.019  12.541  0.00  0.00     0.024 A 
ATOM     12  C13 <0> d   1      19.260  -1.199  13.175  0.00  0.00     0.034 A 
ATOM     13 Cl14 <0> d   1      19.564  -2.721  12.397  0.00  0.00    -0.084 Cl
ATOM     14  C15 <0> d   1      18.675  -1.169  14.430  0.00  0.00     0.031 A 
ATOM     15  C16 <0> d   1      18.436   0.047  15.042  0.00  0.00    -0.045 A 
ENDROOT
TORSDOF 0
ENDMDL
MODEL 9
REMARK VINA RESULT:      -5.4      1.653      2.264
REMARK  0 active torsions:
REMARK  status: ('A' for Active; 'I' for Inactive)
ROOT
ATOM      1  C1  <0> d   1      17.294  -0.716  12.322  0.00  0.00     0.016 C 
ATOM      2  C2  <0> d   1      17.495   0.725  12.798  0.00  0.00     0.041 C 
ATOM      3  C4  <0> d   1      18.648   0.780  13.804  0.00  0.00     0.241 C 
ATOM      4  N5  <0> d   1      18.510   1.919  14.693  0.00  0.00    -0.074 N 
ATOM      5  H6  <0> d   1      17.579   1.908  15.081  0.00  0.00     0.277 HD
ATOM      6  H7  <0> d   1      19.168   1.811  15.450  0.00  0.00     0.277 HD
ATOM      7  C8  <0> d   1      18.734   3.220  14.086  0.00  0.00     0.237 C 
ATOM      8  C9  <0> d   1      17.594   3.584  13.130  0.00  0.00     0.066 C 
ATOM      9  C10 <0> d   1      17.898   2.972  11.777  0.00  0.00    -0.050 A 
ATOM     10  C11 <0> d   1      18.219   3.788  10.710  0.00  0.00     0.009 A 
ATOM     11  C12 <0> d   1      18.496   3.224   9.476  0.00  0.00     0.024 A 
ATOM     12  C13 <0> d   1      18.450   1.850   9.318  0.00  0.00     0.034 A 
ATOM     13 Cl14 <0> d   1      18.799   1.145   7.770  0.00  0.00    -0.084 Cl
ATOM     14  C15 <0> d   1      18.127   1.038  10.391  0.00  0.00     0.031 A 
ATOM     15  C16 <0> d   1      17.850   1.608  11.619  0.00  0.00    -0.045 A 
ENDROOT
TORSDOF 0
ENDMDL
