MODEL 1
REMARK VINA RESULT:      -8.7      0.000      0.000
REMARK  8 active torsions:
REMARK  status: ('A' for Active; 'I' for Inactive)
REMARK    1  A    between atoms: C2_2  and  C3_3 
REMARK    2  A    between atoms: C3_3  and  C4_4 
REMARK    3  A    between atoms: C12_12  and  C13_13 
REMARK    4  A    between atoms: C15_15  and  S16_16 
REMARK    5  A    between atoms: S16_16  and  N19_19 
REMARK    6  A    between atoms: N22_22  and  C23_23 
REMARK    7  A    between atoms: C29_29  and  O30_30 
REMARK    8  A    between atoms: O30_30  and  C31_31 
ROOT
ATOM      1  C13 ZIN A   1      18.613   0.996  14.170  0.00  0.00     0.046 A 
ATOM      2  C14 ZIN A   1      19.120   0.619  12.925  0.00  0.00     0.043 A 
ATOM      3  C15 ZIN A   1      19.345  -0.714  12.650  0.00  0.00     0.080 A 
ATOM      4  C27 ZIN A   1      19.073  -1.679  13.603  0.00  0.00     0.028 A 
ATOM      5  C28 ZIN A   1      18.572  -1.319  14.839  0.00  0.00     0.039 A 
ATOM      6  C29 ZIN A   1      18.344   0.016  15.135  0.00  0.00     0.083 A 
ENDROOT
BRANCH   1   7
ATOM      7  C12 ZIN A   1      18.369   2.421  14.471  0.00  0.00     0.164 A 
ATOM      8  N11 ZIN A   1      18.800   2.928  15.680  0.00  0.00    -0.304 N 
ATOM      9  C9  ZIN A   1      18.595   4.228  15.992  0.00  0.00     0.278 A 
ATOM     10  H45 ZIN A   1      19.254   2.349  16.312  0.00  0.00     0.171 HD
ATOM     11  C8  ZIN A   1      17.907   5.072  15.015  0.00  0.00     0.152 A 
ATOM     12  O10 ZIN A   1      18.972   4.684  17.056  0.00  0.00    -0.265 OA
ATOM     13  C6  ZIN A   1      17.530   6.392  14.972  0.00  0.00     0.067 A 
ATOM     14  N34 ZIN A   1      17.493   4.505  13.822  0.00  0.00    -0.210 N 
ATOM     15  N5  ZIN A   1      16.926   6.595  13.801  0.00  0.00    -0.236 NA
ATOM     16  C7  ZIN A   1      17.759   7.421  16.049  0.00  0.00     0.073 C 
ATOM     17  C4  ZIN A   1      16.903   5.479  13.112  0.00  0.00     0.128 A 
ATOM     18  N33 ZIN A   1      17.754   3.152  13.587  0.00  0.00    -0.146 NA
BRANCH  17  19
ATOM     19  C3  ZIN A   1      16.302   5.313  11.740  0.00  0.00     0.080 C 
BRANCH  19  20
ATOM     20  C2  ZIN A   1      17.399   5.457  10.683  0.00  0.00     0.003 C 
ATOM     21  C1  ZIN A   1      17.818   4.070  10.190  0.00  0.00     0.005 C 
ENDBRANCH  19  20
ENDBRANCH  17  19
ENDBRANCH   1   7
BRANCH   6  22
ATOM     22  O30 ZIN A   1      17.852   0.372  16.348  0.00  0.00    -0.351 OA
BRANCH  22  23
ATOM     23  C31 ZIN A   1      18.281  -0.398  17.473  0.00  0.00     0.171 C 
ATOM     24  C32 ZIN A   1      19.408   0.340  18.197  0.00  0.00     0.034 C 
ENDBRANCH  22  23
ENDBRANCH   6  22
BRANCH   3  25
ATOM     25  S16 ZIN A   1      19.984  -1.188  11.078  0.00  0.00     0.261 S 
ATOM     26  O17 ZIN A   1      21.246  -0.548  10.948  0.00  0.00    -0.200 OA
ATOM     27  O18 ZIN A   1      19.812  -2.595  10.982  0.00  0.00    -0.200 OA
BRANCH  25  28
ATOM     28  N19 ZIN A   1      19.000  -0.517   9.926  0.00  0.00    -0.303 N 
ATOM     29  C26 ZIN A   1      17.788  -1.214   9.470  0.00  0.00     0.165 C 
ATOM     30  C25 ZIN A   1      17.799  -1.271   7.943  0.00  0.00     0.293 C 
ATOM     31  N22 ZIN A   1      17.978   0.084   7.404  0.00  0.00     0.091 N 
ATOM     32  C21 ZIN A   1      19.273   0.649   7.803  0.00  0.00     0.293 C 
ATOM     33  C20 ZIN A   1      19.320   0.789   9.328  0.00  0.00     0.165 C 
BRANCH  31  34
ATOM     34  C23 ZIN A   1      17.825   0.094   5.943  0.00  0.00     0.268 C 
ATOM     35  C24 ZIN A   1      19.195   0.279   5.287  0.00  0.00     0.037 C 
ENDBRANCH  31  34
ENDBRANCH  25  28
ENDBRANCH   3  25
TORSDOF 8
ENDMDL
MODEL 2
REMARK VINA RESULT:      -8.7      3.343      9.598
REMARK  8 active torsions:
REMARK  status: ('A' for Active; 'I' for Inactive)
REMARK    1  A    between atoms: C2_2  and  C3_3 
REMARK    2  A    between atoms: C3_3  and  C4_4 
REMARK    3  A    between atoms: C12_12  and  C13_13 
REMARK    4  A    between atoms: C15_15  and  S16_16 
REMARK    5  A    between atoms: S16_16  and  N19_19 
REMARK    6  A    between atoms: N22_22  and  C23_23 
REMARK    7  A    between atoms: C29_29  and  O30_30 
REMARK    8  A    between atoms: O30_30  and  C31_31 
ROOT
ATOM      1  C13 ZIN A   1      18.787  -0.551   8.684  0.00  0.00     0.046 A 
ATOM      2  C14 ZIN A   1      19.209  -0.353  10.000  0.00  0.00     0.043 A 
ATOM      3  C15 ZIN A   1      19.425   0.927  10.467  0.00  0.00     0.080 A 
ATOM      4  C27 ZIN A   1      19.229   2.016   9.637  0.00  0.00     0.028 A 
ATOM      5  C28 ZIN A   1      18.813   1.833   8.332  0.00  0.00     0.039 A 
ATOM      6  C29 ZIN A   1      18.595   0.555   7.844  0.00  0.00     0.083 A 
ENDROOT
BRANCH   1   7
ATOM      7  C12 ZIN A   1      18.553  -1.918   8.177  0.00  0.00     0.164 A 
ATOM      8  N11 ZIN A   1      19.039  -2.257   6.930  0.00  0.00    -0.304 N 
ATOM      9  C9  ZIN A   1      18.844  -3.500   6.433  0.00  0.00     0.278 A 
ATOM     10  H45 ZIN A   1      19.523  -1.600   6.407  0.00  0.00     0.171 HD
ATOM     11  C8  ZIN A   1      18.109  -4.464   7.251  0.00  0.00     0.152 A 
ATOM     12  O10 ZIN A   1      19.269  -3.807   5.334  0.00  0.00    -0.265 OA
ATOM     13  C6  ZIN A   1      17.726  -5.773   7.093  0.00  0.00     0.067 A 
ATOM     14  N34 ZIN A   1      17.641  -4.063   8.490  0.00  0.00    -0.210 N 
ATOM     15  N5  ZIN A   1      17.067  -6.131   8.195  0.00  0.00    -0.236 NA
ATOM     16  C7  ZIN A   1      18.001  -6.645   5.895  0.00  0.00     0.073 C 
ATOM     17  C4  ZIN A   1      17.015  -5.120   9.030  0.00  0.00     0.128 A 
ATOM     18  N33 ZIN A   1      17.895  -2.759   8.922  0.00  0.00    -0.146 NA
BRANCH  17  19
ATOM     19  C3  ZIN A   1      16.351  -5.140  10.383  0.00  0.00     0.080 C 
BRANCH  19  20
ATOM     20  C2  ZIN A   1      17.373  -5.549  11.446  0.00  0.00     0.003 C 
ATOM     21  C1  ZIN A   1      17.998  -4.295  12.062  0.00  0.00     0.005 C 
ENDBRANCH  19  20
ENDBRANCH  17  19
ENDBRANCH   1   7
BRANCH   6  22
ATOM     22  O30 ZIN A   1      18.187   0.373   6.563  0.00  0.00    -0.351 OA
BRANCH  22  23
ATOM     23  C31 ZIN A   1      19.082   0.794   5.531  0.00  0.00     0.171 C 
ATOM     24  C32 ZIN A   1      18.898  -0.098   4.301  0.00  0.00     0.034 C 
ENDBRANCH  22  23
ENDBRANCH   6  22
BRANCH   3  25
ATOM     25  S16 ZIN A   1      19.955   1.175  12.129  0.00  0.00     0.261 S 
ATOM     26  O17 ZIN A   1      21.248   0.592  12.229  0.00  0.00    -0.200 OA
ATOM     27  O18 ZIN A   1      19.690   2.536  12.437  0.00  0.00    -0.200 OA
BRANCH  25  28
ATOM     28  N19 ZIN A   1      18.962   0.273  13.101  0.00  0.00    -0.303 N 
ATOM     29  C26 ZIN A   1      17.644   0.781  13.511  0.00  0.00     0.165 C 
ATOM     30  C25 ZIN A   1      17.520   0.658  15.029  0.00  0.00     0.293 C 
ATOM     31  N22 ZIN A   1      17.807  -0.725  15.432  0.00  0.00     0.091 N 
ATOM     32  C21 ZIN A   1      19.187  -1.101  15.102  0.00  0.00     0.293 C 
ATOM     33  C20 ZIN A   1      19.378  -1.054  13.582  0.00  0.00     0.165 C 
BRANCH  31  34
ATOM     34  C23 ZIN A   1      17.534  -0.925  16.861  0.00  0.00     0.268 C 
ATOM     35  C24 ZIN A   1      18.699  -0.374  17.686  0.00  0.00     0.037 C 
ENDBRANCH  31  34
ENDBRANCH  25  28
ENDBRANCH   3  25
TORSDOF 8
ENDMDL
MODEL 3
REMARK VINA RESULT:      -8.5      2.216      5.084
REMARK  8 active torsions:
REMARK  status: ('A' for Active; 'I' for Inactive)
REMARK    1  A    between atoms: C2_2  and  C3_3 
REMARK    2  A    between atoms: C3_3  and  C4_4 
REMARK    3  A    between atoms: C12_12  and  C13_13 
REMARK    4  A    between atoms: C15_15  and  S16_16 
REMARK    5  A    between atoms: S16_16  and  N19_19 
REMARK    6  A    between atoms: N22_22  and  C23_23 
REMARK    7  A    between atoms: C29_29  and  O30_30 
REMARK    8  A    between atoms: O30_30  and  C31_31 
ROOT
ATOM      1  C13 ZIN A   1      18.717   2.652  12.235  0.00  0.00     0.046 A 
ATOM      2  C14 ZIN A   1      19.127   1.497  11.567  0.00  0.00     0.043 A 
ATOM      3  C15 ZIN A   1      19.128   1.464  10.188  0.00  0.00     0.080 A 
ATOM      4  C27 ZIN A   1      18.722   2.570   9.463  0.00  0.00     0.028 A 
ATOM      5  C28 ZIN A   1      18.313   3.720  10.113  0.00  0.00     0.039 A 
ATOM      6  C29 ZIN A   1      18.302   3.768  11.498  0.00  0.00     0.083 A 
ENDROOT
BRANCH   1   7
ATOM      7  C12 ZIN A   1      18.715   2.694  13.711  0.00  0.00     0.164 A 
ATOM      8  N11 ZIN A   1      19.146   3.842  14.344  0.00  0.00    -0.304 N 
ATOM      9  C9  ZIN A   1      19.157   3.918  15.695  0.00  0.00     0.278 A 
ATOM     10  H45 ZIN A   1      19.442   4.600  13.817  0.00  0.00     0.171 HD
ATOM     11  C8  ZIN A   1      18.703   2.755  16.456  0.00  0.00     0.152 A 
ATOM     12  O10 ZIN A   1      19.536   4.927  16.261  0.00  0.00    -0.265 OA
ATOM     13  C6  ZIN A   1      18.574   2.463  17.792  0.00  0.00     0.067 A 
ATOM     14  N34 ZIN A   1      18.288   1.630  15.765  0.00  0.00    -0.210 N 
ATOM     15  N5  ZIN A   1      18.098   1.222  17.884  0.00  0.00    -0.236 NA
ATOM     16  C7  ZIN A   1      18.909   3.378  18.941  0.00  0.00     0.073 C 
ATOM     17  C4  ZIN A   1      17.923   0.722  16.683  0.00  0.00     0.128 A 
ATOM     18  N33 ZIN A   1      18.307   1.646  14.368  0.00  0.00    -0.146 NA
BRANCH  17  19
ATOM     19  C3  ZIN A   1      17.400  -0.659  16.381  0.00  0.00     0.080 C 
BRANCH  19  20
ATOM     20  C2  ZIN A   1      18.571  -1.639  16.291  0.00  0.00     0.003 C 
ATOM     21  C1  ZIN A   1      19.088  -1.684  14.852  0.00  0.00     0.005 C 
ENDBRANCH  19  20
ENDBRANCH  17  19
ENDBRANCH   1   7
BRANCH   6  22
ATOM     22  O30 ZIN A   1      17.900   4.896  12.138  0.00  0.00    -0.351 OA
BRANCH  22  23
ATOM     23  C31 ZIN A   1      16.504   5.197  12.106  0.00  0.00     0.171 C 
ATOM     24  C32 ZIN A   1      16.051   5.665  13.491  0.00  0.00     0.034 C 
ENDBRANCH  22  23
ENDBRANCH   6  22
BRANCH   3  25
ATOM     25  S16 ZIN A   1      19.647   0.005   9.346  0.00  0.00     0.261 S 
ATOM     26  O17 ZIN A   1      19.516   0.276   7.957  0.00  0.00    -0.200 OA
ATOM     27  O18 ZIN A   1      20.871  -0.392   9.949  0.00  0.00    -0.200 OA
BRANCH  25  28
ATOM     28  N19 ZIN A   1      18.546  -1.181   9.697  0.00  0.00    -0.303 N 
ATOM     29  C26 ZIN A   1      18.211  -1.512  11.090  0.00  0.00     0.165 C 
ATOM     30  C25 ZIN A   1      18.348  -3.022  11.283  0.00  0.00     0.293 C 
ATOM     31  N22 ZIN A   1      17.547  -3.719  10.269  0.00  0.00     0.091 N 
ATOM     32  C21 ZIN A   1      18.038  -3.434   8.914  0.00  0.00     0.293 C 
ATOM     33  C20 ZIN A   1      17.883  -1.937   8.623  0.00  0.00     0.165 C 
BRANCH  31  34
ATOM     34  C23 ZIN A   1      17.517  -5.165  10.524  0.00  0.00     0.268 C 
ATOM     35  C24 ZIN A   1      17.394  -5.416  12.029  0.00  0.00     0.037 C 
ENDBRANCH  31  34
ENDBRANCH  25  28
ENDBRANCH   3  25
TORSDOF 8
ENDMDL
MODEL 4
REMARK VINA RESULT:      -8.3      3.608     10.062
REMARK  8 active torsions:
REMARK  status: ('A' for Active; 'I' for Inactive)
REMARK    1  A    between atoms: C2_2  and  C3_3 
REMARK    2  A    between atoms: C3_3  and  C4_4 
REMARK    3  A    between atoms: C12_12  and  C13_13 
REMARK    4  A    between atoms: C15_15  and  S16_16 
REMARK    5  A    between atoms: S16_16  and  N19_19 
REMARK    6  A    between atoms: N22_22  and  C23_23 
REMARK    7  A    between atoms: C29_29  and  O30_30 
REMARK    8  A    between atoms: O30_30  and  C31_31 
ROOT
ATOM      1  C13 ZIN A   1      18.341  -1.013   8.115  0.00  0.00     0.046 A 
ATOM      2  C14 ZIN A   1      17.756  -0.702   9.344  0.00  0.00     0.043 A 
ATOM      3  C15 ZIN A   1      17.857   0.578   9.849  0.00  0.00     0.080 A 
ATOM      4  C27 ZIN A   1      18.539   1.554   9.146  0.00  0.00     0.028 A 
ATOM      5  C28 ZIN A   1      19.124   1.259   7.929  0.00  0.00     0.039 A 
ATOM      6  C29 ZIN A   1      19.036  -0.022   7.408  0.00  0.00     0.083 A 
ENDROOT
BRANCH   1   7
ATOM      7  C12 ZIN A   1      18.236  -2.380   7.567  0.00  0.00     0.164 A 
ATOM      8  N11 ZIN A   1      18.005  -2.538   6.216  0.00  0.00    -0.304 N 
ATOM      9  C9  ZIN A   1      17.903  -3.775   5.678  0.00  0.00     0.278 A 
ATOM     10  H45 ZIN A   1      17.915  -1.758   5.648  0.00  0.00     0.171 HD
ATOM     11  C8  ZIN A   1      18.044  -4.929   6.566  0.00  0.00     0.152 A 
ATOM     12  O10 ZIN A   1      17.699  -3.924   4.487  0.00  0.00    -0.265 OA
ATOM     13  C6  ZIN A   1      18.004  -6.291   6.396  0.00  0.00     0.067 A 
ATOM     14  N34 ZIN A   1      18.269  -4.706   7.913  0.00  0.00    -0.210 N 
ATOM     15  N5  ZIN A   1      18.203  -6.847   7.591  0.00  0.00    -0.236 NA
ATOM     16  C7  ZIN A   1      17.777  -7.022   5.098  0.00  0.00     0.073 C 
ATOM     17  C4  ZIN A   1      18.364  -5.911   8.496  0.00  0.00     0.128 A 
ATOM     18  N33 ZIN A   1      18.364  -3.391   8.377  0.00  0.00    -0.146 NA
BRANCH  17  19
ATOM     19  C3  ZIN A   1      18.611  -6.150   9.964  0.00  0.00     0.080 C 
BRANCH  19  20
ATOM     20  C2  ZIN A   1      17.280  -6.107  10.718  0.00  0.00     0.003 C 
ATOM     21  C1  ZIN A   1      17.385  -5.117  11.880  0.00  0.00     0.005 C 
ENDBRANCH  19  20
ENDBRANCH  17  19
ENDBRANCH   1   7
BRANCH   6  22
ATOM     22  O30 ZIN A   1      19.609  -0.314   6.213  0.00  0.00    -0.351 OA
BRANCH  22  23
ATOM     23  C31 ZIN A   1      19.345   0.582   5.131  0.00  0.00     0.171 C 
ATOM     24  C32 ZIN A   1      18.511  -0.134   4.068  0.00  0.00     0.034 C 
ENDBRANCH  22  23
ENDBRANCH   6  22
BRANCH   3  25
ATOM     25  S16 ZIN A   1      17.116   0.968  11.400  0.00  0.00     0.261 S 
ATOM     26  O17 ZIN A   1      17.097   2.386  11.489  0.00  0.00    -0.200 OA
ATOM     27  O18 ZIN A   1      15.947   0.166  11.499  0.00  0.00    -0.200 OA
BRANCH  25  28
ATOM     28  N19 ZIN A   1      18.148   0.440  12.583  0.00  0.00    -0.303 N 
ATOM     29  C26 ZIN A   1      18.142  -0.965  13.018  0.00  0.00     0.165 C 
ATOM     30  C25 ZIN A   1      18.028  -1.008  14.541  0.00  0.00     0.293 C 
ATOM     31  N22 ZIN A   1      19.086  -0.178  15.134  0.00  0.00     0.091 N 
ATOM     32  C21 ZIN A   1      18.934   1.232  14.751  0.00  0.00     0.293 C 
ATOM     33  C20 ZIN A   1      19.089   1.366  13.233  0.00  0.00     0.165 C 
BRANCH  31  34
ATOM     34  C23 ZIN A   1      19.116  -0.327  16.595  0.00  0.00     0.268 C 
ATOM     35  C24 ZIN A   1      17.724  -0.714  17.098  0.00  0.00     0.037 C 
ENDBRANCH  31  34
ENDBRANCH  25  28
ENDBRANCH   3  25
TORSDOF 8
ENDMDL
MODEL 5
REMARK VINA RESULT:      -8.0      2.374      7.711
REMARK  8 active torsions:
REMARK  status: ('A' for Active; 'I' for Inactive)
REMARK    1  A    between atoms: C2_2  and  C3_3 
REMARK    2  A    between atoms: C3_3  and  C4_4 
REMARK    3  A    between atoms: C12_12  and  C13_13 
REMARK    4  A    between atoms: C15_15  and  S16_16 
REMARK    5  A    between atoms: S16_16  and  N19_19 
REMARK    6  A    between atoms: N22_22  and  C23_23 
REMARK    7  A    between atoms: C29_29  and  O30_30 
REMARK    8  A    between atoms: O30_30  and  C31_31 
ROOT
ATOM      1  C13 ZIN A   1      18.502   0.777  12.930  0.00  0.00     0.046 A 
ATOM      2  C14 ZIN A   1      18.749   2.087  12.515  0.00  0.00     0.043 A 
ATOM      3  C15 ZIN A   1      18.616   3.128  13.411  0.00  0.00     0.080 A 
ATOM      4  C27 ZIN A   1      18.236   2.880  14.718  0.00  0.00     0.028 A 
ATOM      5  C28 ZIN A   1      17.987   1.588  15.140  0.00  0.00     0.039 A 
ATOM      6  C29 ZIN A   1      18.112   0.531  14.253  0.00  0.00     0.083 A 
ENDROOT
BRANCH   1   7
ATOM      7  C12 ZIN A   1      18.643  -0.342  11.977  0.00  0.00     0.164 A 
ATOM      8  N11 ZIN A   1      19.252  -1.505  12.404  0.00  0.00    -0.304 N 
ATOM      9  C9  ZIN A   1      19.399  -2.552  11.560  0.00  0.00     0.278 A 
ATOM     10  H45 ZIN A   1      19.577  -1.573  13.315  0.00  0.00     0.171 HD
ATOM     11  C8  ZIN A   1      18.896  -2.413  10.193  0.00  0.00     0.152 A 
ATOM     12  O10 ZIN A   1      19.935  -3.581  11.928  0.00  0.00    -0.265 OA
ATOM     13  C6  ZIN A   1      18.863  -3.227   9.087  0.00  0.00     0.067 A 
ATOM     14  N34 ZIN A   1      18.300  -1.221   9.823  0.00  0.00    -0.210 N 
ATOM     15  N5  ZIN A   1      18.267  -2.545   8.109  0.00  0.00    -0.236 NA
ATOM     16  C7  ZIN A   1      19.401  -4.632   8.997  0.00  0.00     0.073 C 
ATOM     17  C4  ZIN A   1      17.928  -1.353   8.540  0.00  0.00     0.128 A 
ATOM     18  N33 ZIN A   1      18.189  -0.196  10.766  0.00  0.00    -0.146 NA
BRANCH  17  19
ATOM     19  C3  ZIN A   1      17.234  -0.295   7.722  0.00  0.00     0.080 C 
BRANCH  19  20
ATOM     20  C2  ZIN A   1      18.241   0.358   6.773  0.00  0.00     0.003 C 
ATOM     21  C1  ZIN A   1      19.031   1.429   7.527  0.00  0.00     0.005 C 
ENDBRANCH  19  20
ENDBRANCH  17  19
ENDBRANCH   1   7
BRANCH   6  22
ATOM     22  O30 ZIN A   1      17.867  -0.739  14.666  0.00  0.00    -0.351 OA
BRANCH  22  23
ATOM     23  C31 ZIN A   1      17.831  -0.966  16.076  0.00  0.00     0.171 C 
ATOM     24  C32 ZIN A   1      19.141  -1.619  16.522  0.00  0.00     0.034 C 
ENDBRANCH  22  23
ENDBRANCH   6  22
BRANCH   3  25
ATOM     25  S16 ZIN A   1      18.931   4.780  12.886  0.00  0.00     0.261 S 
ATOM     26  O17 ZIN A   1      20.199   5.136  13.420  0.00  0.00    -0.200 OA
ATOM     27  O18 ZIN A   1      18.631   4.825  11.498  0.00  0.00    -0.200 OA
BRANCH  25  28
ATOM     28  N19 ZIN A   1      17.820   5.753  13.636  0.00  0.00    -0.303 N 
ATOM     29  C26 ZIN A   1      18.163   6.485  14.864  0.00  0.00     0.165 C 
ATOM     30  C25 ZIN A   1      17.093   6.206  15.918  0.00  0.00     0.293 C 
ATOM     31  N22 ZIN A   1      15.769   6.511  15.363  0.00  0.00     0.091 N 
ATOM     32  C21 ZIN A   1      15.456   5.642  14.222  0.00  0.00     0.293 C 
ATOM     33  C20 ZIN A   1      16.460   5.902  13.094  0.00  0.00     0.165 C 
BRANCH  31  34
ATOM     34  C23 ZIN A   1      14.729   6.418  16.397  0.00  0.00     0.268 C 
ATOM     35  C24 ZIN A   1      13.356   6.648  15.763  0.00  0.00     0.037 C 
ENDBRANCH  31  34
ENDBRANCH  25  28
ENDBRANCH   3  25
TORSDOF 8
ENDMDL
MODEL 6
REMARK VINA RESULT:      -8.0      2.222      2.843
REMARK  8 active torsions:
REMARK  status: ('A' for Active; 'I' for Inactive)
REMARK    1  A    between atoms: C2_2  and  C3_3 
REMARK    2  A    between atoms: C3_3  and  C4_4 
REMARK    3  A    between atoms: C12_12  and  C13_13 
REMARK    4  A    between atoms: C15_15  and  S16_16 
REMARK    5  A    between atoms: S16_16  and  N19_19 
REMARK    6  A    between atoms: N22_22  and  C23_23 
REMARK    7  A    between atoms: C29_29  and  O30_30 
REMARK    8  A    between atoms: O30_30  and  C31_31 
ROOT
ATOM      1  C13 ZIN A   1      18.842   1.091  14.277  0.00  0.00     0.046 A 
ATOM      2  C14 ZIN A   1      18.992   0.628  12.968  0.00  0.00     0.043 A 
ATOM      3  C15 ZIN A   1      19.236  -0.710  12.736  0.00  0.00     0.080 A 
ATOM      4  C27 ZIN A   1      19.336  -1.595  13.794  0.00  0.00     0.028 A 
ATOM      5  C28 ZIN A   1      19.190  -1.149  15.094  0.00  0.00     0.039 A 
ATOM      6  C29 ZIN A   1      18.949   0.192  15.346  0.00  0.00     0.083 A 
ENDROOT
BRANCH   1   7
ATOM      7  C12 ZIN A   1      18.581   2.521  14.533  0.00  0.00     0.164 A 
ATOM      8  N11 ZIN A   1      19.067   3.089  15.693  0.00  0.00    -0.304 N 
ATOM      9  C9  ZIN A   1      18.848   4.396  15.961  0.00  0.00     0.278 A 
ATOM     10  H45 ZIN A   1      19.571   2.547  16.320  0.00  0.00     0.171 HD
ATOM     11  C8  ZIN A   1      18.085   5.182  14.992  0.00  0.00     0.152 A 
ATOM     12  O10 ZIN A   1      19.274   4.905  16.982  0.00  0.00    -0.265 OA
ATOM     13  C6  ZIN A   1      17.673   6.491  14.917  0.00  0.00     0.067 A 
ATOM     14  N34 ZIN A   1      17.618   4.556  13.850  0.00  0.00    -0.210 N 
ATOM     15  N5  ZIN A   1      16.998   6.630  13.776  0.00  0.00    -0.236 NA
ATOM     16  C7  ZIN A   1      17.937   7.569  15.936  0.00  0.00     0.073 C 
ATOM     17  C4  ZIN A   1      16.964   5.485  13.136  0.00  0.00     0.128 A 
ATOM     18  N33 ZIN A   1      17.898   3.200  13.656  0.00  0.00    -0.146 NA
BRANCH  17  19
ATOM     19  C3  ZIN A   1      16.290   5.247  11.809  0.00  0.00     0.080 C 
BRANCH  19  20
ATOM     20  C2  ZIN A   1      17.319   5.376  10.684  0.00  0.00     0.003 C 
ATOM     21  C1  ZIN A   1      17.783   3.982  10.256  0.00  0.00     0.005 C 
ENDBRANCH  19  20
ENDBRANCH  17  19
ENDBRANCH   1   7
BRANCH   6  22
ATOM     22  O30 ZIN A   1      18.806   0.632  16.622  0.00  0.00    -0.351 OA
BRANCH  22  23
ATOM     23  C31 ZIN A   1      17.614   0.248  17.310  0.00  0.00     0.171 C 
ATOM     24  C32 ZIN A   1      17.451   1.106  18.566  0.00  0.00     0.034 C 
ENDBRANCH  22  23
ENDBRANCH   6  22
BRANCH   3  25
ATOM     25  S16 ZIN A   1      19.424  -1.292  11.083  0.00  0.00     0.261 S 
ATOM     26  O17 ZIN A   1      18.464  -0.594  10.301  0.00  0.00    -0.200 OA
ATOM     27  O18 ZIN A   1      20.817  -1.271  10.806  0.00  0.00    -0.200 OA
BRANCH  25  28
ATOM     28  N19 ZIN A   1      18.968  -2.885  11.070  0.00  0.00    -0.303 N 
ATOM     29  C26 ZIN A   1      19.970  -3.957  11.147  0.00  0.00     0.165 C 
ATOM     30  C25 ZIN A   1      19.718  -4.948  10.012  0.00  0.00     0.293 C 
ATOM     31  N22 ZIN A   1      18.321  -5.399  10.057  0.00  0.00     0.091 N 
ATOM     32  C21 ZIN A   1      17.394  -4.281   9.838  0.00  0.00     0.293 C 
ATOM     33  C20 ZIN A   1      17.549  -3.263  10.972  0.00  0.00     0.165 C 
BRANCH  31  34
ATOM     34  C23 ZIN A   1      18.084  -6.478   9.089  0.00  0.00     0.268 C 
ATOM     35  C24 ZIN A   1      16.581  -6.624   8.844  0.00  0.00     0.037 C 
ENDBRANCH  31  34
ENDBRANCH  25  28
ENDBRANCH   3  25
TORSDOF 8
ENDMDL
MODEL 7
REMARK VINA RESULT:      -7.9      3.650      6.978
REMARK  8 active torsions:
REMARK  status: ('A' for Active; 'I' for Inactive)
REMARK    1  A    between atoms: C2_2  and  C3_3 
REMARK    2  A    between atoms: C3_3  and  C4_4 
REMARK    3  A    between atoms: C12_12  and  C13_13 
REMARK    4  A    between atoms: C15_15  and  S16_16 
REMARK    5  A    between atoms: S16_16  and  N19_19 
REMARK    6  A    between atoms: N22_22  and  C23_23 
REMARK    7  A    between atoms: C29_29  and  O30_30 
REMARK    8  A    between atoms: O30_30  and  C31_31 
ROOT
ATOM      1  C13 ZIN A   1      19.161  -1.488   8.739  0.00  0.00     0.046 A 
ATOM      2  C14 ZIN A   1      19.207  -2.779   9.267  0.00  0.00     0.043 A 
ATOM      3  C15 ZIN A   1      19.288  -3.866   8.421  0.00  0.00     0.080 A 
ATOM      4  C27 ZIN A   1      19.321  -3.682   7.050  0.00  0.00     0.028 A 
ATOM      5  C28 ZIN A   1      19.275  -2.409   6.514  0.00  0.00     0.039 A 
ATOM      6  C29 ZIN A   1      19.190  -1.307   7.349  0.00  0.00     0.083 A 
ENDROOT
BRANCH   1   7
ATOM      7  C12 ZIN A   1      19.076  -0.320   9.639  0.00  0.00     0.164 A 
ATOM      8  N11 ZIN A   1      18.840   0.924   9.091  0.00  0.00    -0.304 N 
ATOM      9  C9  ZIN A   1      18.755   2.017   9.884  0.00  0.00     0.278 A 
ATOM     10  H45 ZIN A   1      18.734   1.017   8.132  0.00  0.00     0.171 HD
ATOM     11  C8  ZIN A   1      18.919   1.839  11.326  0.00  0.00     0.152 A 
ATOM     12  O10 ZIN A   1      18.547   3.119   9.409  0.00  0.00    -0.265 OA
ATOM     13  C6  ZIN A   1      18.900   2.679  12.413  0.00  0.00     0.067 A 
ATOM     14  N34 ZIN A   1      19.160   0.567  11.815  0.00  0.00    -0.210 N 
ATOM     15  N5  ZIN A   1      19.113   1.932  13.496  0.00  0.00    -0.236 NA
ATOM     16  C7  ZIN A   1      18.677   4.169  12.385  0.00  0.00     0.073 C 
ATOM     17  C4  ZIN A   1      19.266   0.676  13.148  0.00  0.00     0.128 A 
ATOM     18  N33 ZIN A   1      19.227  -0.503  10.919  0.00  0.00    -0.146 NA
BRANCH  17  19
ATOM     19  C3  ZIN A   1      19.526  -0.466  14.096  0.00  0.00     0.080 C 
BRANCH  19  20
ATOM     20  C2  ZIN A   1      18.215  -0.878  14.770  0.00  0.00     0.003 C 
ATOM     21  C1  ZIN A   1      18.476  -1.183  16.247  0.00  0.00     0.005 C 
ENDBRANCH  19  20
ENDBRANCH  17  19
ENDBRANCH   1   7
BRANCH   6  22
ATOM     22  O30 ZIN A   1      19.145  -0.056   6.825  0.00  0.00    -0.351 OA
BRANCH  22  23
ATOM     23  C31 ZIN A   1      18.259   0.154   5.724  0.00  0.00     0.171 C 
ATOM     24  C32 ZIN A   1      16.811   0.052   6.206  0.00  0.00     0.034 C 
ENDBRANCH  22  23
ENDBRANCH   6  22
BRANCH   3  25
ATOM     25  S16 ZIN A   1      19.347  -5.495   9.090  0.00  0.00     0.261 S 
ATOM     26  O17 ZIN A   1      20.370  -6.182   8.383  0.00  0.00    -0.200 OA
ATOM     27  O18 ZIN A   1      19.341  -5.349  10.504  0.00  0.00    -0.200 OA
BRANCH  25  28
ATOM     28  N19 ZIN A   1      17.923  -6.241   8.692  0.00  0.00    -0.303 N 
ATOM     29  C26 ZIN A   1      17.797  -7.011   7.445  0.00  0.00     0.165 C 
ATOM     30  C25 ZIN A   1      16.556  -6.531   6.694  0.00  0.00     0.293 C 
ATOM     31  N22 ZIN A   1      15.390  -6.595   7.584  0.00  0.00     0.091 N 
ATOM     32  C21 ZIN A   1      15.547  -5.694   8.733  0.00  0.00     0.293 C 
ATOM     33  C20 ZIN A   1      16.748  -6.144   9.572  0.00  0.00     0.165 C 
BRANCH  31  34
ATOM     34  C23 ZIN A   1      14.151  -6.304   6.851  0.00  0.00     0.268 C 
ATOM     35  C24 ZIN A   1      12.978  -6.247   7.832  0.00  0.00     0.037 C 
ENDBRANCH  31  34
ENDBRANCH  25  28
ENDBRANCH   3  25
TORSDOF 8
ENDMDL
MODEL 8
REMARK VINA RESULT:      -7.6      2.254      2.839
REMARK  8 active torsions:
REMARK  status: ('A' for Active; 'I' for Inactive)
REMARK    1  A    between atoms: C2_2  and  C3_3 
REMARK    2  A    between atoms: C3_3  and  C4_4 
REMARK    3  A    between atoms: C12_12  and  C13_13 
REMARK    4  A    between atoms: C15_15  and  S16_16 
REMARK    5  A    between atoms: S16_16  and  N19_19 
REMARK    6  A    between atoms: N22_22  and  C23_23 
REMARK    7  A    between atoms: C29_29  and  O30_30 
REMARK    8  A    between atoms: O30_30  and  C31_31 
ROOT
ATOM      1  C13 ZIN A   1      18.296   2.386  14.188  0.00  0.00     0.046 A 
ATOM      2  C14 ZIN A   1      17.709   1.727  13.106  0.00  0.00     0.043 A 
ATOM      3  C15 ZIN A   1      17.862   0.363  12.967  0.00  0.00     0.080 A 
ATOM      4  C27 ZIN A   1      18.597  -0.355  13.892  0.00  0.00     0.028 A 
ATOM      5  C28 ZIN A   1      19.183   0.285  14.968  0.00  0.00     0.039 A 
ATOM      6  C29 ZIN A   1      19.044   1.655  15.121  0.00  0.00     0.083 A 
ENDROOT
BRANCH   1   7
ATOM      7  C12 ZIN A   1      18.135   3.845  14.343  0.00  0.00     0.164 A 
ATOM      8  N11 ZIN A   1      19.263   4.642  14.339  0.00  0.00    -0.304 N 
ATOM      9  C9  ZIN A   1      19.155   5.983  14.479  0.00  0.00     0.278 A 
ATOM     10  H45 ZIN A   1      20.138   4.238  14.235  0.00  0.00     0.171 HD
ATOM     11  C8  ZIN A   1      17.819   6.557  14.634  0.00  0.00     0.152 A 
ATOM     12  O10 ZIN A   1      20.144   6.693  14.476  0.00  0.00    -0.265 OA
ATOM     13  C6  ZIN A   1      17.325   7.828  14.795  0.00  0.00     0.067 A 
ATOM     14  N34 ZIN A   1      16.727   5.706  14.636  0.00  0.00    -0.210 N 
ATOM     15  N5  ZIN A   1      15.998   7.731  14.883  0.00  0.00    -0.236 NA
ATOM     16  C7  ZIN A   1      18.133   9.098  14.861  0.00  0.00     0.073 C 
ATOM     17  C4  ZIN A   1      15.636   6.473  14.786  0.00  0.00     0.128 A 
ATOM     18  N33 ZIN A   1      16.936   4.333  14.481  0.00  0.00    -0.146 NA
BRANCH  17  19
ATOM     19  C3  ZIN A   1      14.218   5.967  14.841  0.00  0.00     0.080 C 
BRANCH  19  20
ATOM     20  C2  ZIN A   1      13.256   7.154  14.927  0.00  0.00     0.003 C 
ATOM     21  C1  ZIN A   1      11.820   6.638  15.046  0.00  0.00     0.005 C 
ENDBRANCH  19  20
ENDBRANCH  17  19
ENDBRANCH   1   7
BRANCH   6  22
ATOM     22  O30 ZIN A   1      19.619   2.287  16.175  0.00  0.00    -0.351 OA
BRANCH  22  23
ATOM     23  C31 ZIN A   1      18.835   2.410  17.363  0.00  0.00     0.171 C 
ATOM     24  C32 ZIN A   1      19.260   1.339  18.369  0.00  0.00     0.034 C 
ENDBRANCH  22  23
ENDBRANCH   6  22
BRANCH   3  25
ATOM     25  S16 ZIN A   1      17.119  -0.467  11.601  0.00  0.00     0.261 S 
ATOM     26  O17 ZIN A   1      17.153  -1.854  11.908  0.00  0.00    -0.200 OA
ATOM     27  O18 ZIN A   1      15.920   0.236  11.308  0.00  0.00    -0.200 OA
BRANCH  25  28
ATOM     28  N19 ZIN A   1      18.117  -0.253  10.296  0.00  0.00    -0.303 N 
ATOM     29  C26 ZIN A   1      17.883   0.837   9.337  0.00  0.00     0.165 C 
ATOM     30  C25 ZIN A   1      17.871   0.255   7.924  0.00  0.00     0.293 C 
ATOM     31  N22 ZIN A   1      19.102  -0.514   7.702  0.00  0.00     0.091 N 
ATOM     32  C21 ZIN A   1      19.187  -1.660   8.616  0.00  0.00     0.293 C 
ATOM     33  C20 ZIN A   1      19.256  -1.154  10.061  0.00  0.00     0.165 C 
BRANCH  31  34
ATOM     34  C23 ZIN A   1      19.208  -0.947   6.303  0.00  0.00     0.268 C 
ATOM     35  C24 ZIN A   1      18.915   0.236   5.378  0.00  0.00     0.037 C 
ENDBRANCH  31  34
ENDBRANCH  25  28
ENDBRANCH   3  25
TORSDOF 8
ENDMDL
MODEL 9
REMARK VINA RESULT:      -7.5      2.950      5.258
REMARK  8 active torsions:
REMARK  status: ('A' for Active; 'I' for Inactive)
REMARK    1  A    between atoms: C2_2  and  C3_3 
REMARK    2  A    between atoms: C3_3  and  C4_4 
REMARK    3  A    between atoms: C12_12  and  C13_13 
REMARK    4  A    between atoms: C15_15  and  S16_16 
REMARK    5  A    between atoms: S16_16  and  N19_19 
REMARK    6  A    between atoms: N22_22  and  C23_23 
REMARK    7  A    between atoms: C29_29  and  O30_30 
REMARK    8  A    between atoms: O30_30  and  C31_31 
ROOT
ATOM      1  C13 ZIN A   1      18.195   0.580  12.256  0.00  0.00     0.046 A 
ATOM      2  C14 ZIN A   1      18.542  -0.766  12.379  0.00  0.00     0.043 A 
ATOM      3  C15 ZIN A   1      18.396  -1.615  11.301  0.00  0.00     0.080 A 
ATOM      4  C27 ZIN A   1      17.904  -1.138  10.099  0.00  0.00     0.028 A 
ATOM      5  C28 ZIN A   1      17.556   0.192   9.965  0.00  0.00     0.039 A 
ATOM      6  C29 ZIN A   1      17.692   1.058  11.038  0.00  0.00     0.083 A 
ENDROOT
BRANCH   1   7
ATOM      7  C12 ZIN A   1      18.350   1.494  13.405  0.00  0.00     0.164 A 
ATOM      8  N11 ZIN A   1      18.638   2.823  13.163  0.00  0.00    -0.304 N 
ATOM      9  C9  ZIN A   1      18.787   3.690  14.191  0.00  0.00     0.278 A 
ATOM     10  H45 ZIN A   1      18.735   3.136  12.251  0.00  0.00     0.171 HD
ATOM     11  C8  ZIN A   1      18.634   3.180  15.553  0.00  0.00     0.152 A 
ATOM     12  O10 ZIN A   1      19.041   4.863  13.987  0.00  0.00    -0.265 OA
ATOM     13  C6  ZIN A   1      18.709   3.735  16.807  0.00  0.00     0.067 A 
ATOM     14  N34 ZIN A   1      18.351   1.837  15.732  0.00  0.00    -0.210 N 
ATOM     15  N5  ZIN A   1      18.474   2.761  17.687  0.00  0.00    -0.236 NA
ATOM     16  C7  ZIN A   1      19.003   5.177  17.129  0.00  0.00     0.073 C 
ATOM     17  C4  ZIN A   1      18.258   1.632  17.054  0.00  0.00     0.128 A 
ATOM     18  N33 ZIN A   1      18.211   1.018  14.608  0.00  0.00    -0.146 NA
BRANCH  17  19
ATOM     19  C3  ZIN A   1      17.958   0.308  17.710  0.00  0.00     0.080 C 
BRANCH  19  20
ATOM     20  C2  ZIN A   1      19.245  -0.510  17.819  0.00  0.00     0.003 C 
ATOM     21  C1  ZIN A   1      19.237  -1.616  16.761  0.00  0.00     0.005 C 
ENDBRANCH  19  20
ENDBRANCH  17  19
ENDBRANCH   1   7
BRANCH   6  22
ATOM     22  O30 ZIN A   1      17.351   2.365  10.909  0.00  0.00    -0.351 OA
BRANCH  22  23
ATOM     23  C31 ZIN A   1      18.128   3.151  10.003  0.00  0.00     0.171 C 
ATOM     24  C32 ZIN A   1      17.754   4.627  10.158  0.00  0.00     0.034 C 
ENDBRANCH  22  23
ENDBRANCH   6  22
BRANCH   3  25
ATOM     25  S16 ZIN A   1      18.836  -3.314  11.457  0.00  0.00     0.261 S 
ATOM     26  O17 ZIN A   1      20.256  -3.359  11.486  0.00  0.00    -0.200 OA
ATOM     27  O18 ZIN A   1      18.020  -3.846  12.492  0.00  0.00    -0.200 OA
BRANCH  25  28
ATOM     28  N19 ZIN A   1      18.373  -4.072  10.059  0.00  0.00    -0.303 N 
ATOM     29  C26 ZIN A   1      16.980  -4.499   9.858  0.00  0.00     0.165 C 
ATOM     30  C25 ZIN A   1      16.973  -5.967   9.434  0.00  0.00     0.293 C 
ATOM     31  N22 ZIN A   1      17.852  -6.145   8.271  0.00  0.00     0.091 N 
ATOM     32  C21 ZIN A   1      19.245  -5.821   8.602  0.00  0.00     0.293 C 
ATOM     33  C20 ZIN A   1      19.346  -4.342   8.989  0.00  0.00     0.165 C 
BRANCH  31  34
ATOM     34  C23 ZIN A   1      17.741  -7.506   7.730  0.00  0.00     0.268 C 
ATOM     35  C24 ZIN A   1      16.295  -7.989   7.854  0.00  0.00     0.037 C 
ENDBRANCH  31  34
ENDBRANCH  25  28
ENDBRANCH   3  25
TORSDOF 8
ENDMDL
