MODEL 1
REMARK VINA RESULT:      -5.5      0.000      0.000
REMARK  18 active torsions:
REMARK  status: ('A' for Active; 'I' for Inactive)
REMARK    1  A    between atoms: C2_2  and  C3_3 
REMARK    2  A    between atoms: C3_3  and  C4_4 
REMARK    3  A    between atoms: C4_4  and  C5_5 
REMARK    4  A    between atoms: C5_5  and  C6_6 
REMARK    5  A    between atoms: C6_6  and  C7_7 
REMARK    6  A    between atoms: C7_7  and  C8_8 
REMARK    7  A    between atoms: C8_8  and  C9_9 
REMARK    8  A    between atoms: C9_9  and  C10_10 
REMARK    9  A    between atoms: C10_10  and  N11_11 
REMARK   10  A    between atoms: N11_11  and  C14_14 
REMARK   11  A    between atoms: C14_14  and  C15_15 
REMARK   12  A    between atoms: C15_15  and  C16_16 
REMARK   13  A    between atoms: C16_16  and  C17_17 
REMARK   14  A    between atoms: C17_17  and  C18_18 
REMARK   15  A    between atoms: C18_18  and  C19_19 
REMARK   16  A    between atoms: C19_19  and  C20_20 
REMARK   17  A    between atoms: C20_20  and  C21_21 
REMARK   18  A    between atoms: C21_21  and  C22_22 
ROOT
ATOM      1  N11 ZIN A   1      18.904   1.561  13.639  0.00  0.00    -0.075 N 
ATOM      2  C12 ZIN A   1      18.998   2.282  14.915  0.00  0.00     0.272 C 
ATOM      3  C13 ZIN A   1      19.950   0.531  13.580  0.00  0.00     0.272 C 
ENDROOT
BRANCH   1   4
ATOM      4  C10 ZIN A   1      17.584   0.925  13.533  0.00  0.00     0.236 C 
BRANCH   4   5
ATOM      5  C9  ZIN A   1      17.757  -0.561  13.212  0.00  0.00     0.028 C 
BRANCH   5   6
ATOM      6  C8  ZIN A   1      17.071  -0.881  11.883  0.00  0.00     0.002 C 
BRANCH   6   7
ATOM      7  C7  ZIN A   1      17.761  -2.079  11.228  0.00  0.00     0.000 C 
BRANCH   7   8
ATOM      8  C6  ZIN A   1      18.584  -2.829  12.278  0.00  0.00     0.000 C 
BRANCH   8   9
ATOM      9  C5  ZIN A   1      19.758  -3.534  11.595  0.00  0.00     0.000 C 
BRANCH   9  10
ATOM     10  C4  ZIN A   1      19.428  -3.764  10.119  0.00  0.00     0.000 C 
BRANCH  10  11
ATOM     11  C3  ZIN A   1      19.405  -5.265   9.829  0.00  0.00    -0.000 C 
BRANCH  11  12
ATOM     12  C2  ZIN A   1      17.978  -5.696   9.484  0.00  0.00    -0.005 C 
ATOM     13  C1  ZIN A   1      17.237  -6.081  10.766  0.00  0.00     0.005 C 
ENDBRANCH  11  12
ENDBRANCH  10  11
ENDBRANCH   9  10
ENDBRANCH   8   9
ENDBRANCH   7   8
ENDBRANCH   6   7
ENDBRANCH   5   6
ENDBRANCH   4   5
ENDBRANCH   1   4
BRANCH   1  14
ATOM     14  C14 ZIN A   1      19.084   2.505  12.529  0.00  0.00     0.236 C 
BRANCH  14  15
ATOM     15  C15 ZIN A   1      17.717   2.888  11.958  0.00  0.00     0.028 C 
BRANCH  15  16
ATOM     16  C16 ZIN A   1      17.729   2.705  10.440  0.00  0.00     0.002 C 
BRANCH  16  17
ATOM     17  C17 ZIN A   1      19.154   2.394   9.975  0.00  0.00     0.000 C 
BRANCH  17  18
ATOM     18  C18 ZIN A   1      19.109   1.747   8.589  0.00  0.00     0.000 C 
BRANCH  18  19
ATOM     19  C19 ZIN A   1      18.036   0.657   8.572  0.00  0.00     0.000 C 
BRANCH  19  20
ATOM     20  C20 ZIN A   1      17.932   0.065   7.165  0.00  0.00     0.000 C 
BRANCH  20  21
ATOM     21  C21 ZIN A   1      18.997   0.696   6.265  0.00  0.00    -0.000 C 
BRANCH  21  22
ATOM     22  C22 ZIN A   1      18.819   0.190   4.832  0.00  0.00    -0.005 C 
ATOM     23  C23 ZIN A   1      19.142  -1.305   4.776  0.00  0.00     0.005 C 
ENDBRANCH  21  22
ENDBRANCH  20  21
ENDBRANCH  19  20
ENDBRANCH  18  19
ENDBRANCH  17  18
ENDBRANCH  16  17
ENDBRANCH  15  16
ENDBRANCH  14  15
ENDBRANCH   1  14
TORSDOF 18
ENDMDL
MODEL 2
REMARK VINA RESULT:      -5.5      2.445      7.663
REMARK  18 active torsions:
REMARK  status: ('A' for Active; 'I' for Inactive)
REMARK    1  A    between atoms: C2_2  and  C3_3 
REMARK    2  A    between atoms: C3_3  and  C4_4 
REMARK    3  A    between atoms: C4_4  and  C5_5 
REMARK    4  A    between atoms: C5_5  and  C6_6 
REMARK    5  A    between atoms: C6_6  and  C7_7 
REMARK    6  A    between atoms: C7_7  and  C8_8 
REMARK    7  A    between atoms: C8_8  and  C9_9 
REMARK    8  A    between atoms: C9_9  and  C10_10 
REMARK    9  A    between atoms: C10_10  and  N11_11 
REMARK   10  A    between atoms: N11_11  and  C14_14 
REMARK   11  A    between atoms: C14_14  and  C15_15 
REMARK   12  A    between atoms: C15_15  and  C16_16 
REMARK   13  A    between atoms: C16_16  and  C17_17 
REMARK   14  A    between atoms: C17_17  and  C18_18 
REMARK   15  A    between atoms: C18_18  and  C19_19 
REMARK   16  A    between atoms: C19_19  and  C20_20 
REMARK   17  A    between atoms: C20_20  and  C21_21 
REMARK   18  A    between atoms: C21_21  and  C22_22 
ROOT
ATOM      1  N11 ZIN A   1      18.402  -4.854   9.135  0.00  0.00    -0.075 N 
ATOM      2  C12 ZIN A   1      17.351  -5.515   9.920  0.00  0.00     0.272 C 
ATOM      3  C13 ZIN A   1      18.737  -5.681   7.969  0.00  0.00     0.272 C 
ENDROOT
BRANCH   1   4
ATOM      4  C10 ZIN A   1      17.922  -3.541   8.684  0.00  0.00     0.236 C 
BRANCH   4   5
ATOM      5  C9  ZIN A   1      19.057  -2.799   7.975  0.00  0.00     0.028 C 
BRANCH   5   6
ATOM      6  C8  ZIN A   1      19.218  -1.406   8.586  0.00  0.00     0.002 C 
BRANCH   6   7
ATOM      7  C7  ZIN A   1      17.907  -0.630   8.439  0.00  0.00     0.000 C 
BRANCH   7   8
ATOM      8  C6  ZIN A   1      18.199   0.872   8.475  0.00  0.00     0.000 C 
BRANCH   8   9
ATOM      9  C5  ZIN A   1      18.977   1.270   7.219  0.00  0.00     0.000 C 
BRANCH   9  10
ATOM     10  C4  ZIN A   1      18.288   0.684   5.985  0.00  0.00     0.000 C 
BRANCH  10  11
ATOM     11  C3  ZIN A   1      19.345   0.175   5.004  0.00  0.00    -0.000 C 
BRANCH  11  12
ATOM     12  C2  ZIN A   1      18.984  -1.242   4.554  0.00  0.00    -0.005 C 
ATOM     13  C1  ZIN A   1      17.466  -1.428   4.624  0.00  0.00     0.005 C 
ENDBRANCH  11  12
ENDBRANCH  10  11
ENDBRANCH   9  10
ENDBRANCH   8   9
ENDBRANCH   7   8
ENDBRANCH   6   7
ENDBRANCH   5   6
ENDBRANCH   4   5
ENDBRANCH   1   4
BRANCH   1  14
ATOM     14  C14 ZIN A   1      19.598  -4.677   9.970  0.00  0.00     0.236 C 
BRANCH  14  15
ATOM     15  C15 ZIN A   1      19.182  -4.541  11.435  0.00  0.00     0.028 C 
BRANCH  15  16
ATOM     16  C16 ZIN A   1      19.482  -3.122  11.921  0.00  0.00     0.002 C 
BRANCH  16  17
ATOM     17  C17 ZIN A   1      18.168  -2.400  12.230  0.00  0.00     0.000 C 
BRANCH  17  18
ATOM     18  C18 ZIN A   1      18.467  -0.969  12.682  0.00  0.00     0.000 C 
BRANCH  18  19
ATOM     19  C19 ZIN A   1      19.448  -1.000  13.855  0.00  0.00     0.000 C 
BRANCH  19  20
ATOM     20  C20 ZIN A   1      18.689  -1.301  15.148  0.00  0.00     0.000 C 
BRANCH  20  21
ATOM     21  C21 ZIN A   1      18.792  -0.102  16.093  0.00  0.00    -0.000 C 
BRANCH  21  22
ATOM     22  C22 ZIN A   1      19.060  -0.595  17.516  0.00  0.00    -0.005 C 
ATOM     23  C23 ZIN A   1      18.611   0.472  18.518  0.00  0.00     0.005 C 
ENDBRANCH  21  22
ENDBRANCH  20  21
ENDBRANCH  19  20
ENDBRANCH  18  19
ENDBRANCH  17  18
ENDBRANCH  16  17
ENDBRANCH  15  16
ENDBRANCH  14  15
ENDBRANCH   1  14
TORSDOF 18
ENDMDL
MODEL 3
REMARK VINA RESULT:      -5.4      1.979      6.175
REMARK  18 active torsions:
REMARK  status: ('A' for Active; 'I' for Inactive)
REMARK    1  A    between atoms: C2_2  and  C3_3 
REMARK    2  A    between atoms: C3_3  and  C4_4 
REMARK    3  A    between atoms: C4_4  and  C5_5 
REMARK    4  A    between atoms: C5_5  and  C6_6 
REMARK    5  A    between atoms: C6_6  and  C7_7 
REMARK    6  A    between atoms: C7_7  and  C8_8 
REMARK    7  A    between atoms: C8_8  and  C9_9 
REMARK    8  A    between atoms: C9_9  and  C10_10 
REMARK    9  A    between atoms: C10_10  and  N11_11 
REMARK   10  A    between atoms: N11_11  and  C14_14 
REMARK   11  A    between atoms: C14_14  and  C15_15 
REMARK   12  A    between atoms: C15_15  and  C16_16 
REMARK   13  A    between atoms: C16_16  and  C17_17 
REMARK   14  A    between atoms: C17_17  and  C18_18 
REMARK   15  A    between atoms: C18_18  and  C19_19 
REMARK   16  A    between atoms: C19_19  and  C20_20 
REMARK   17  A    between atoms: C20_20  and  C21_21 
REMARK   18  A    between atoms: C21_21  and  C22_22 
ROOT
ATOM      1  N11 ZIN A   1      18.091   3.136  11.667  0.00  0.00    -0.075 N 
ATOM      2  C12 ZIN A   1      19.485   3.599  11.708  0.00  0.00     0.272 C 
ATOM      3  C13 ZIN A   1      17.190   4.271  11.901  0.00  0.00     0.272 C 
ENDROOT
BRANCH   1   4
ATOM      4  C10 ZIN A   1      17.809   2.549  10.350  0.00  0.00     0.236 C 
BRANCH   4   5
ATOM      5  C9  ZIN A   1      19.081   2.567   9.500  0.00  0.00     0.028 C 
BRANCH   5   6
ATOM      6  C8  ZIN A   1      19.330   1.172   8.924  0.00  0.00     0.002 C 
BRANCH   6   7
ATOM      7  C7  ZIN A   1      18.509   0.994   7.646  0.00  0.00     0.000 C 
BRANCH   7   8
ATOM      8  C6  ZIN A   1      18.308  -0.499   7.373  0.00  0.00     0.000 C 
BRANCH   8   9
ATOM      9  C5  ZIN A   1      17.691  -1.163   8.606  0.00  0.00     0.000 C 
BRANCH   9  10
ATOM     10  C4  ZIN A   1      18.370  -2.512   8.852  0.00  0.00     0.000 C 
BRANCH  10  11
ATOM     11  C3  ZIN A   1      19.231  -2.428  10.113  0.00  0.00    -0.000 C 
BRANCH  11  12
ATOM     12  C2  ZIN A   1      18.786  -3.501  11.108  0.00  0.00    -0.005 C 
ATOM     13  C1  ZIN A   1      19.914  -4.515  11.304  0.00  0.00     0.005 C 
ENDBRANCH  11  12
ENDBRANCH  10  11
ENDBRANCH   9  10
ENDBRANCH   8   9
ENDBRANCH   7   8
ENDBRANCH   6   7
ENDBRANCH   5   6
ENDBRANCH   4   5
ENDBRANCH   1   4
BRANCH   1  14
ATOM     14  C14 ZIN A   1      17.883   2.122  12.709  0.00  0.00     0.236 C 
BRANCH  14  15
ATOM     15  C15 ZIN A   1      17.161   0.914  12.109  0.00  0.00     0.028 C 
BRANCH  15  16
ATOM     16  C16 ZIN A   1      17.800  -0.374  12.632  0.00  0.00     0.002 C 
BRANCH  16  17
ATOM     17  C17 ZIN A   1      19.247  -0.094  13.044  0.00  0.00     0.000 C 
BRANCH  17  18
ATOM     18  C18 ZIN A   1      19.637  -1.019  14.199  0.00  0.00     0.000 C 
BRANCH  18  19
ATOM     19  C19 ZIN A   1      18.372  -1.594  14.839  0.00  0.00     0.000 C 
BRANCH  19  20
ATOM     20  C20 ZIN A   1      18.436  -1.402  16.356  0.00  0.00     0.000 C 
BRANCH  20  21
ATOM     21  C21 ZIN A   1      17.230  -0.583  16.819  0.00  0.00    -0.000 C 
BRANCH  21  22
ATOM     22  C22 ZIN A   1      17.702   0.543  17.741  0.00  0.00    -0.005 C 
ATOM     23  C23 ZIN A   1      19.091   0.207  18.286  0.00  0.00     0.005 C 
ENDBRANCH  21  22
ENDBRANCH  20  21
ENDBRANCH  19  20
ENDBRANCH  18  19
ENDBRANCH  17  18
ENDBRANCH  16  17
ENDBRANCH  15  16
ENDBRANCH  14  15
ENDBRANCH   1  14
TORSDOF 18
ENDMDL
MODEL 4
REMARK VINA RESULT:      -5.4      2.029      5.766
REMARK  18 active torsions:
REMARK  status: ('A' for Active; 'I' for Inactive)
REMARK    1  A    between atoms: C2_2  and  C3_3 
REMARK    2  A    between atoms: C3_3  and  C4_4 
REMARK    3  A    between atoms: C4_4  and  C5_5 
REMARK    4  A    between atoms: C5_5  and  C6_6 
REMARK    5  A    between atoms: C6_6  and  C7_7 
REMARK    6  A    between atoms: C7_7  and  C8_8 
REMARK    7  A    between atoms: C8_8  and  C9_9 
REMARK    8  A    between atoms: C9_9  and  C10_10 
REMARK    9  A    between atoms: C10_10  and  N11_11 
REMARK   10  A    between atoms: N11_11  and  C14_14 
REMARK   11  A    between atoms: C14_14  and  C15_15 
REMARK   12  A    between atoms: C15_15  and  C16_16 
REMARK   13  A    between atoms: C16_16  and  C17_17 
REMARK   14  A    between atoms: C17_17  and  C18_18 
REMARK   15  A    between atoms: C18_18  and  C19_19 
REMARK   16  A    between atoms: C19_19  and  C20_20 
REMARK   17  A    between atoms: C20_20  and  C21_21 
REMARK   18  A    between atoms: C21_21  and  C22_22 
ROOT
ATOM      1  N11 ZIN A   1      18.777  -2.488  10.978  0.00  0.00    -0.075 N 
ATOM      2  C12 ZIN A   1      19.971  -1.641  11.095  0.00  0.00     0.272 C 
ATOM      3  C13 ZIN A   1      19.156  -3.897  11.146  0.00  0.00     0.272 C 
ENDROOT
BRANCH   1   4
ATOM      4  C10 ZIN A   1      17.808  -2.113  12.016  0.00  0.00     0.236 C 
BRANCH   4   5
ATOM      5  C9  ZIN A   1      18.282  -0.842  12.722  0.00  0.00     0.028 C 
BRANCH   5   6
ATOM      6  C8  ZIN A   1      17.165   0.203  12.699  0.00  0.00     0.002 C 
BRANCH   6   7
ATOM      7  C7  ZIN A   1      17.545   1.377  13.604  0.00  0.00     0.000 C 
BRANCH   7   8
ATOM      8  C6  ZIN A   1      18.978   1.188  14.108  0.00  0.00     0.000 C 
BRANCH   8   9
ATOM      9  C5  ZIN A   1      19.113   1.808  15.501  0.00  0.00     0.000 C 
BRANCH   9  10
ATOM     10  C4  ZIN A   1      19.096   0.701  16.556  0.00  0.00     0.000 C 
BRANCH  10  11
ATOM     11  C3  ZIN A   1      17.692   0.583  17.150  0.00  0.00    -0.000 C 
BRANCH  11  12
ATOM     12  C2  ZIN A   1      17.104  -0.787  16.808  0.00  0.00    -0.005 C 
ATOM     13  C1  ZIN A   1      18.208  -1.692  16.256  0.00  0.00     0.005 C 
ENDBRANCH  11  12
ENDBRANCH  10  11
ENDBRANCH   9  10
ENDBRANCH   8   9
ENDBRANCH   7   8
ENDBRANCH   6   7
ENDBRANCH   5   6
ENDBRANCH   4   5
ENDBRANCH   1   4
BRANCH   1  14
ATOM     14  C14 ZIN A   1      18.172  -2.299   9.652  0.00  0.00     0.236 C 
BRANCH  14  15
ATOM     15  C15 ZIN A   1      19.208  -1.704   8.698  0.00  0.00     0.028 C 
BRANCH  15  16
ATOM     16  C16 ZIN A   1      18.495  -0.930   7.589  0.00  0.00     0.002 C 
BRANCH  16  17
ATOM     17  C17 ZIN A   1      17.906   0.360   8.165  0.00  0.00     0.000 C 
BRANCH  17  18
ATOM     18  C18 ZIN A   1      18.929   1.490   8.037  0.00  0.00     0.000 C 
BRANCH  18  19
ATOM     19  C19 ZIN A   1      19.278   2.021   9.429  0.00  0.00     0.000 C 
BRANCH  19  20
ATOM     20  C20 ZIN A   1      18.005   2.509  10.123  0.00  0.00     0.000 C 
BRANCH  20  21
ATOM     21  C21 ZIN A   1      17.990   4.039  10.146  0.00  0.00    -0.000 C 
BRANCH  21  22
ATOM     22  C22 ZIN A   1      17.966   4.527  11.596  0.00  0.00    -0.005 C 
ATOM     23  C23 ZIN A   1      16.582   5.097  11.918  0.00  0.00     0.005 C 
ENDBRANCH  21  22
ENDBRANCH  20  21
ENDBRANCH  19  20
ENDBRANCH  18  19
ENDBRANCH  17  18
ENDBRANCH  16  17
ENDBRANCH  15  16
ENDBRANCH  14  15
ENDBRANCH   1  14
TORSDOF 18
ENDMDL
MODEL 5
REMARK VINA RESULT:      -5.4      2.623      6.856
REMARK  18 active torsions:
REMARK  status: ('A' for Active; 'I' for Inactive)
REMARK    1  A    between atoms: C2_2  and  C3_3 
REMARK    2  A    between atoms: C3_3  and  C4_4 
REMARK    3  A    between atoms: C4_4  and  C5_5 
REMARK    4  A    between atoms: C5_5  and  C6_6 
REMARK    5  A    between atoms: C6_6  and  C7_7 
REMARK    6  A    between atoms: C7_7  and  C8_8 
REMARK    7  A    between atoms: C8_8  and  C9_9 
REMARK    8  A    between atoms: C9_9  and  C10_10 
REMARK    9  A    between atoms: C10_10  and  N11_11 
REMARK   10  A    between atoms: N11_11  and  C14_14 
REMARK   11  A    between atoms: C14_14  and  C15_15 
REMARK   12  A    between atoms: C15_15  and  C16_16 
REMARK   13  A    between atoms: C16_16  and  C17_17 
REMARK   14  A    between atoms: C17_17  and  C18_18 
REMARK   15  A    between atoms: C18_18  and  C19_19 
REMARK   16  A    between atoms: C19_19  and  C20_20 
REMARK   17  A    between atoms: C20_20  and  C21_21 
REMARK   18  A    between atoms: C21_21  and  C22_22 
ROOT
ATOM      1  N11 ZIN A   1      18.199   2.830  11.669  0.00  0.00    -0.075 N 
ATOM      2  C12 ZIN A   1      19.587   3.294  11.551  0.00  0.00     0.272 C 
ATOM      3  C13 ZIN A   1      17.339   3.951  12.071  0.00  0.00     0.272 C 
ENDROOT
BRANCH   1   4
ATOM      4  C10 ZIN A   1      17.746   2.305  10.374  0.00  0.00     0.236 C 
BRANCH   4   5
ATOM      5  C9  ZIN A   1      18.859   2.475   9.338  0.00  0.00     0.028 C 
BRANCH   5   6
ATOM      6  C8  ZIN A   1      19.224   1.111   8.751  0.00  0.00     0.002 C 
BRANCH   6   7
ATOM      7  C7  ZIN A   1      17.946   0.329   8.443  0.00  0.00     0.000 C 
BRANCH   7   8
ATOM      8  C6  ZIN A   1      17.689   0.346   6.934  0.00  0.00     0.000 C 
BRANCH   8   9
ATOM      9  C5  ZIN A   1      19.012   0.559   6.196  0.00  0.00     0.000 C 
BRANCH   9  10
ATOM     10  C4  ZIN A   1      18.900  -0.002   4.777  0.00  0.00     0.000 C 
BRANCH  10  11
ATOM     11  C3  ZIN A   1      18.639  -1.507   4.842  0.00  0.00    -0.000 C 
BRANCH  11  12
ATOM     12  C2  ZIN A   1      17.343  -1.833   4.097  0.00  0.00    -0.005 C 
ATOM     13  C1  ZIN A   1      17.188  -3.351   3.983  0.00  0.00     0.005 C 
ENDBRANCH  11  12
ENDBRANCH  10  11
ENDBRANCH   9  10
ENDBRANCH   8   9
ENDBRANCH   7   8
ENDBRANCH   6   7
ENDBRANCH   5   6
ENDBRANCH   4   5
ENDBRANCH   1   4
BRANCH   1  14
ATOM     14  C14 ZIN A   1      18.123   1.768  12.681  0.00  0.00     0.236 C 
BRANCH  14  15
ATOM     15  C15 ZIN A   1      17.205   0.651  12.181  0.00  0.00     0.028 C 
BRANCH  15  16
ATOM     16  C16 ZIN A   1      17.773  -0.704  12.603  0.00  0.00     0.002 C 
BRANCH  16  17
ATOM     17  C17 ZIN A   1      19.264  -0.557  12.915  0.00  0.00     0.000 C 
BRANCH  17  18
ATOM     18  C18 ZIN A   1      19.594  -1.318  14.201  0.00  0.00     0.000 C 
BRANCH  18  19
ATOM     19  C19 ZIN A   1      18.365  -1.335  15.112  0.00  0.00     0.000 C 
BRANCH  19  20
ATOM     20  C20 ZIN A   1      18.686  -0.602  16.416  0.00  0.00     0.000 C 
BRANCH  20  21
ATOM     21  C21 ZIN A   1      17.384  -0.243  17.134  0.00  0.00    -0.000 C 
BRANCH  21  22
ATOM     22  C22 ZIN A   1      17.654   0.862  18.158  0.00  0.00    -0.005 C 
ATOM     23  C23 ZIN A   1      19.163   1.009  18.362  0.00  0.00     0.005 C 
ENDBRANCH  21  22
ENDBRANCH  20  21
ENDBRANCH  19  20
ENDBRANCH  18  19
ENDBRANCH  17  18
ENDBRANCH  16  17
ENDBRANCH  15  16
ENDBRANCH  14  15
ENDBRANCH   1  14
TORSDOF 18
ENDMDL
MODEL 6
REMARK VINA RESULT:      -5.4      2.035      6.188
REMARK  18 active torsions:
REMARK  status: ('A' for Active; 'I' for Inactive)
REMARK    1  A    between atoms: C2_2  and  C3_3 
REMARK    2  A    between atoms: C3_3  and  C4_4 
REMARK    3  A    between atoms: C4_4  and  C5_5 
REMARK    4  A    between atoms: C5_5  and  C6_6 
REMARK    5  A    between atoms: C6_6  and  C7_7 
REMARK    6  A    between atoms: C7_7  and  C8_8 
REMARK    7  A    between atoms: C8_8  and  C9_9 
REMARK    8  A    between atoms: C9_9  and  C10_10 
REMARK    9  A    between atoms: C10_10  and  N11_11 
REMARK   10  A    between atoms: N11_11  and  C14_14 
REMARK   11  A    between atoms: C14_14  and  C15_15 
REMARK   12  A    between atoms: C15_15  and  C16_16 
REMARK   13  A    between atoms: C16_16  and  C17_17 
REMARK   14  A    between atoms: C17_17  and  C18_18 
REMARK   15  A    between atoms: C18_18  and  C19_19 
REMARK   16  A    between atoms: C19_19  and  C20_20 
REMARK   17  A    between atoms: C20_20  and  C21_21 
REMARK   18  A    between atoms: C21_21  and  C22_22 
ROOT
ATOM      1  N11 ZIN A   1      18.500  -0.936   7.640  0.00  0.00    -0.075 N 
ATOM      2  C12 ZIN A   1      17.209  -0.266   7.435  0.00  0.00     0.272 C 
ATOM      3  C13 ZIN A   1      19.118  -1.218   6.338  0.00  0.00     0.272 C 
ENDROOT
BRANCH   1   4
ATOM      4  C10 ZIN A   1      19.384  -0.064   8.424  0.00  0.00     0.236 C 
BRANCH   4   5
ATOM      5  C9  ZIN A   1      18.821   1.359   8.434  0.00  0.00     0.028 C 
BRANCH   5   6
ATOM      6  C8  ZIN A   1      18.852   1.910   9.860  0.00  0.00     0.002 C 
BRANCH   6   7
ATOM      7  C7  ZIN A   1      17.730   1.269  10.680  0.00  0.00     0.000 C 
BRANCH   7   8
ATOM      8  C6  ZIN A   1      17.734   1.855  12.094  0.00  0.00     0.000 C 
BRANCH   8   9
ATOM      9  C5  ZIN A   1      17.831   0.719  13.115  0.00  0.00     0.000 C 
BRANCH   9  10
ATOM     10  C4  ZIN A   1      19.276   0.225  13.194  0.00  0.00     0.000 C 
BRANCH  10  11
ATOM     11  C3  ZIN A   1      19.333  -1.061  14.019  0.00  0.00    -0.000 C 
BRANCH  11  12
ATOM     12  C2  ZIN A   1      18.244  -1.027  15.093  0.00  0.00    -0.005 C 
ATOM     13  C1  ZIN A   1      18.841  -1.449  16.437  0.00  0.00     0.005 C 
ENDBRANCH  11  12
ENDBRANCH  10  11
ENDBRANCH   9  10
ENDBRANCH   8   9
ENDBRANCH   7   8
ENDBRANCH   6   7
ENDBRANCH   5   6
ENDBRANCH   4   5
ENDBRANCH   1   4
BRANCH   1  14
ATOM     14  C14 ZIN A   1      18.287  -2.196   8.364  0.00  0.00     0.236 C 
BRANCH  14  15
ATOM     15  C15 ZIN A   1      18.829  -2.063   9.789  0.00  0.00     0.028 C 
BRANCH  15  16
ATOM     16  C16 ZIN A   1      17.760  -2.514  10.785  0.00  0.00     0.002 C 
BRANCH  16  17
ATOM     17  C17 ZIN A   1      18.333  -3.610  11.687  0.00  0.00     0.000 C 
BRANCH  17  18
ATOM     18  C18 ZIN A   1      17.246  -4.645  11.986  0.00  0.00     0.000 C 
BRANCH  18  19
ATOM     19  C19 ZIN A   1      16.572  -5.068  10.680  0.00  0.00     0.000 C 
BRANCH  19  20
ATOM     20  C20 ZIN A   1      17.287  -6.295  10.111  0.00  0.00     0.000 C 
BRANCH  20  21
ATOM     21  C21 ZIN A   1      17.993  -5.916   8.808  0.00  0.00    -0.000 C 
BRANCH  21  22
ATOM     22  C22 ZIN A   1      19.504  -5.860   9.045  0.00  0.00    -0.005 C 
ATOM     23  C23 ZIN A   1      20.200  -5.359   7.777  0.00  0.00     0.005 C 
ENDBRANCH  21  22
ENDBRANCH  20  21
ENDBRANCH  19  20
ENDBRANCH  18  19
ENDBRANCH  17  18
ENDBRANCH  16  17
ENDBRANCH  15  16
ENDBRANCH  14  15
ENDBRANCH   1  14
TORSDOF 18
ENDMDL
MODEL 7
REMARK VINA RESULT:      -5.3      2.402      4.192
REMARK  18 active torsions:
REMARK  status: ('A' for Active; 'I' for Inactive)
REMARK    1  A    between atoms: C2_2  and  C3_3 
REMARK    2  A    between atoms: C3_3  and  C4_4 
REMARK    3  A    between atoms: C4_4  and  C5_5 
REMARK    4  A    between atoms: C5_5  and  C6_6 
REMARK    5  A    between atoms: C6_6  and  C7_7 
REMARK    6  A    between atoms: C7_7  and  C8_8 
REMARK    7  A    between atoms: C8_8  and  C9_9 
REMARK    8  A    between atoms: C9_9  and  C10_10 
REMARK    9  A    between atoms: C10_10  and  N11_11 
REMARK   10  A    between atoms: N11_11  and  C14_14 
REMARK   11  A    between atoms: C14_14  and  C15_15 
REMARK   12  A    between atoms: C15_15  and  C16_16 
REMARK   13  A    between atoms: C16_16  and  C17_17 
REMARK   14  A    between atoms: C17_17  and  C18_18 
REMARK   15  A    between atoms: C18_18  and  C19_19 
REMARK   16  A    between atoms: C19_19  and  C20_20 
REMARK   17  A    between atoms: C20_20  and  C21_21 
REMARK   18  A    between atoms: C21_21  and  C22_22 
ROOT
ATOM      1  N11 ZIN A   1      18.949   4.457  15.069  0.00  0.00    -0.075 N 
ATOM      2  C12 ZIN A   1      17.690   5.059  15.528  0.00  0.00     0.272 C 
ATOM      3  C13 ZIN A   1      20.078   5.088  15.765  0.00  0.00     0.272 C 
ENDROOT
BRANCH   1   4
ATOM      4  C10 ZIN A   1      18.937   3.017  15.360  0.00  0.00     0.236 C 
BRANCH   4   5
ATOM      5  C9  ZIN A   1      19.114   2.799  16.864  0.00  0.00     0.028 C 
BRANCH   5   6
ATOM      6  C8  ZIN A   1      18.355   1.541  17.290  0.00  0.00     0.002 C 
BRANCH   6   7
ATOM      7  C7  ZIN A   1      19.345   0.506  17.829  0.00  0.00     0.000 C 
BRANCH   7   8
ATOM      8  C6  ZIN A   1      18.965  -0.882  17.308  0.00  0.00     0.000 C 
BRANCH   8   9
ATOM      9  C5  ZIN A   1      18.259  -0.743  15.958  0.00  0.00     0.000 C 
BRANCH   9  10
ATOM     10  C4  ZIN A   1      19.216  -1.153  14.837  0.00  0.00     0.000 C 
BRANCH  10  11
ATOM     11  C3  ZIN A   1      19.100  -0.161  13.679  0.00  0.00    -0.000 C 
BRANCH  11  12
ATOM     12  C2  ZIN A   1      17.654  -0.122  13.182  0.00  0.00    -0.005 C 
ATOM     13  C1  ZIN A   1      17.449  -1.204  12.119  0.00  0.00     0.005 C 
ENDBRANCH  11  12
ENDBRANCH  10  11
ENDBRANCH   9  10
ENDBRANCH   8   9
ENDBRANCH   7   8
ENDBRANCH   6   7
ENDBRANCH   5   6
ENDBRANCH   4   5
ENDBRANCH   1   4
BRANCH   1  14
ATOM     14  C14 ZIN A   1      19.090   4.663  13.621  0.00  0.00     0.236 C 
BRANCH  14  15
ATOM     15  C15 ZIN A   1      18.544   3.443  12.877  0.00  0.00     0.028 C 
BRANCH  15  16
ATOM     16  C16 ZIN A   1      17.421   3.880  11.936  0.00  0.00     0.002 C 
BRANCH  16  17
ATOM     17  C17 ZIN A   1      17.855   3.660  10.485  0.00  0.00     0.000 C 
BRANCH  17  18
ATOM     18  C18 ZIN A   1      18.110   2.169  10.250  0.00  0.00     0.000 C 
BRANCH  18  19
ATOM     19  C19 ZIN A   1      19.094   1.997   9.092  0.00  0.00     0.000 C 
BRANCH  19  20
ATOM     20  C20 ZIN A   1      19.138   0.526   8.674  0.00  0.00     0.000 C 
BRANCH  20  21
ATOM     21  C21 ZIN A   1      18.229   0.311   7.463  0.00  0.00    -0.000 C 
BRANCH  21  22
ATOM     22  C22 ZIN A   1      18.727   1.163   6.293  0.00  0.00    -0.005 C 
ATOM     23  C23 ZIN A   1      19.272   0.248   5.194  0.00  0.00     0.005 C 
ENDBRANCH  21  22
ENDBRANCH  20  21
ENDBRANCH  19  20
ENDBRANCH  18  19
ENDBRANCH  17  18
ENDBRANCH  16  17
ENDBRANCH  15  16
ENDBRANCH  14  15
ENDBRANCH   1  14
TORSDOF 18
ENDMDL
MODEL 8
REMARK VINA RESULT:      -5.3      2.632      8.185
REMARK  18 active torsions:
REMARK  status: ('A' for Active; 'I' for Inactive)
REMARK    1  A    between atoms: C2_2  and  C3_3 
REMARK    2  A    between atoms: C3_3  and  C4_4 
REMARK    3  A    between atoms: C4_4  and  C5_5 
REMARK    4  A    between atoms: C5_5  and  C6_6 
REMARK    5  A    between atoms: C6_6  and  C7_7 
REMARK    6  A    between atoms: C7_7  and  C8_8 
REMARK    7  A    between atoms: C8_8  and  C9_9 
REMARK    8  A    between atoms: C9_9  and  C10_10 
REMARK    9  A    between atoms: C10_10  and  N11_11 
REMARK   10  A    between atoms: N11_11  and  C14_14 
REMARK   11  A    between atoms: C14_14  and  C15_15 
REMARK   12  A    between atoms: C15_15  and  C16_16 
REMARK   13  A    between atoms: C16_16  and  C17_17 
REMARK   14  A    between atoms: C17_17  and  C18_18 
REMARK   15  A    between atoms: C18_18  and  C19_19 
REMARK   16  A    between atoms: C19_19  and  C20_20 
REMARK   17  A    between atoms: C20_20  and  C21_21 
REMARK   18  A    between atoms: C21_21  and  C22_22 
ROOT
ATOM      1  N11 ZIN A   1      18.402  -0.496   9.029  0.00  0.00    -0.075 N 
ATOM      2  C12 ZIN A   1      18.063  -1.128   7.747  0.00  0.00     0.272 C 
ATOM      3  C13 ZIN A   1      19.859  -0.516   9.216  0.00  0.00     0.272 C 
ENDROOT
BRANCH   1   4
ATOM      4  C10 ZIN A   1      17.927   0.894   9.031  0.00  0.00     0.236 C 
BRANCH   4   5
ATOM      5  C9  ZIN A   1      19.126   1.843   8.964  0.00  0.00     0.028 C 
BRANCH   5   6
ATOM      6  C8  ZIN A   1      19.120   2.760  10.188  0.00  0.00     0.002 C 
BRANCH   6   7
ATOM      7  C7  ZIN A   1      17.679   3.146  10.530  0.00  0.00     0.000 C 
BRANCH   7   8
ATOM      8  C6  ZIN A   1      17.680   4.133  11.699  0.00  0.00     0.000 C 
BRANCH   8   9
ATOM      9  C5  ZIN A   1      19.121   4.394  12.145  0.00  0.00     0.000 C 
BRANCH   9  10
ATOM     10  C4  ZIN A   1      19.127   4.874  13.597  0.00  0.00     0.000 C 
BRANCH  10  11
ATOM     11  C3  ZIN A   1      17.913   4.301  14.330  0.00  0.00    -0.000 C 
BRANCH  11  12
ATOM     12  C2  ZIN A   1      18.254   4.104  15.808  0.00  0.00    -0.005 C 
ATOM     13  C1  ZIN A   1      19.743   4.378  16.029  0.00  0.00     0.005 C 
ENDBRANCH  11  12
ENDBRANCH  10  11
ENDBRANCH   9  10
ENDBRANCH   8   9
ENDBRANCH   7   8
ENDBRANCH   6   7
ENDBRANCH   5   6
ENDBRANCH   4   5
ENDBRANCH   1   4
BRANCH   1  14
ATOM     14  C14 ZIN A   1      17.759  -1.234  10.124  0.00  0.00     0.236 C 
BRANCH  14  15
ATOM     15  C15 ZIN A   1      18.428  -0.867  11.450  0.00  0.00     0.028 C 
BRANCH  15  16
ATOM     16  C16 ZIN A   1      17.390  -0.255  12.392  0.00  0.00     0.002 C 
BRANCH  16  17
ATOM     17  C17 ZIN A   1      18.071   0.769  13.304  0.00  0.00     0.000 C 
BRANCH  17  18
ATOM     18  C18 ZIN A   1      17.797   0.412  14.766  0.00  0.00     0.000 C 
BRANCH  18  19
ATOM     19  C19 ZIN A   1      18.139  -1.060  15.004  0.00  0.00     0.000 C 
BRANCH  19  20
ATOM     20  C20 ZIN A   1      18.530  -1.263  16.469  0.00  0.00     0.000 C 
BRANCH  20  21
ATOM     21  C21 ZIN A   1      17.693  -0.338  17.354  0.00  0.00    -0.000 C 
BRANCH  21  22
ATOM     22  C22 ZIN A   1      18.513   0.079  18.577  0.00  0.00    -0.005 C 
ATOM     23  C23 ZIN A   1      19.211   1.410  18.292  0.00  0.00     0.005 C 
ENDBRANCH  21  22
ENDBRANCH  20  21
ENDBRANCH  19  20
ENDBRANCH  18  19
ENDBRANCH  17  18
ENDBRANCH  16  17
ENDBRANCH  15  16
ENDBRANCH  14  15
ENDBRANCH   1  14
TORSDOF 18
ENDMDL
MODEL 9
REMARK VINA RESULT:      -5.3      2.788      6.439
REMARK  18 active torsions:
REMARK  status: ('A' for Active; 'I' for Inactive)
REMARK    1  A    between atoms: C2_2  and  C3_3 
REMARK    2  A    between atoms: C3_3  and  C4_4 
REMARK    3  A    between atoms: C4_4  and  C5_5 
REMARK    4  A    between atoms: C5_5  and  C6_6 
REMARK    5  A    between atoms: C6_6  and  C7_7 
REMARK    6  A    between atoms: C7_7  and  C8_8 
REMARK    7  A    between atoms: C8_8  and  C9_9 
REMARK    8  A    between atoms: C9_9  and  C10_10 
REMARK    9  A    between atoms: C10_10  and  N11_11 
REMARK   10  A    between atoms: N11_11  and  C14_14 
REMARK   11  A    between atoms: C14_14  and  C15_15 
REMARK   12  A    between atoms: C15_15  and  C16_16 
REMARK   13  A    between atoms: C16_16  and  C17_17 
REMARK   14  A    between atoms: C17_17  and  C18_18 
REMARK   15  A    between atoms: C18_18  and  C19_19 
REMARK   16  A    between atoms: C19_19  and  C20_20 
REMARK   17  A    between atoms: C20_20  and  C21_21 
REMARK   18  A    between atoms: C21_21  and  C22_22 
ROOT
ATOM      1  N11 ZIN A   1      18.575   4.484  14.771  0.00  0.00    -0.075 N 
ATOM      2  C12 ZIN A   1      19.487   5.493  14.216  0.00  0.00     0.272 C 
ATOM      3  C13 ZIN A   1      17.696   5.111  15.766  0.00  0.00     0.272 C 
ENDROOT
BRANCH   1   4
ATOM      4  C10 ZIN A   1      17.763   3.912  13.690  0.00  0.00     0.236 C 
BRANCH   4   5
ATOM      5  C9  ZIN A   1      18.556   3.946  12.382  0.00  0.00     0.028 C 
BRANCH   5   6
ATOM      6  C8  ZIN A   1      17.707   3.357  11.253  0.00  0.00     0.002 C 
BRANCH   6   7
ATOM      7  C7  ZIN A   1      18.528   3.322   9.962  0.00  0.00     0.000 C 
BRANCH   7   8
ATOM      8  C6  ZIN A   1      19.074   1.909   9.745  0.00  0.00     0.000 C 
BRANCH   8   9
ATOM      9  C5  ZIN A   1      18.815   1.480   8.299  0.00  0.00     0.000 C 
BRANCH   9  10
ATOM     10  C4  ZIN A   1      17.832   0.308   8.283  0.00  0.00     0.000 C 
BRANCH  10  11
ATOM     11  C3  ZIN A   1      17.727  -0.252   6.864  0.00  0.00    -0.000 C 
BRANCH  11  12
ATOM     12  C2  ZIN A   1      18.419   0.700   5.887  0.00  0.00    -0.005 C 
ATOM     13  C1  ZIN A   1      19.393  -0.089   5.009  0.00  0.00     0.005 C 
ENDBRANCH  11  12
ENDBRANCH  10  11
ENDBRANCH   9  10
ENDBRANCH   8   9
ENDBRANCH   7   8
ENDBRANCH   6   7
ENDBRANCH   5   6
ENDBRANCH   4   5
ENDBRANCH   1   4
BRANCH   1  14
ATOM     14  C14 ZIN A   1      19.358   3.418  15.411  0.00  0.00     0.236 C 
BRANCH  14  15
ATOM     15  C15 ZIN A   1      18.429   2.534  16.246  0.00  0.00     0.028 C 
BRANCH  15  16
ATOM     16  C16 ZIN A   1      19.149   2.100  17.523  0.00  0.00     0.002 C 
BRANCH  16  17
ATOM     17  C17 ZIN A   1      19.150   0.572  17.614  0.00  0.00     0.000 C 
BRANCH  17  18
ATOM     18  C18 ZIN A   1      17.726   0.048  17.415  0.00  0.00     0.000 C 
BRANCH  18  19
ATOM     19  C19 ZIN A   1      17.755  -1.166  16.486  0.00  0.00     0.000 C 
BRANCH  19  20
ATOM     20  C20 ZIN A   1      18.970  -1.072  15.560  0.00  0.00     0.000 C 
BRANCH  20  21
ATOM     21  C21 ZIN A   1      18.527  -1.289  14.112  0.00  0.00    -0.000 C 
BRANCH  21  22
ATOM     22  C22 ZIN A   1      18.095   0.047  13.504  0.00  0.00    -0.005 C 
ATOM     23  C23 ZIN A   1      17.129  -0.209  12.346  0.00  0.00     0.005 C 
ENDBRANCH  21  22
ENDBRANCH  20  21
ENDBRANCH  19  20
ENDBRANCH  18  19
ENDBRANCH  17  18
ENDBRANCH  16  17
ENDBRANCH  15  16
ENDBRANCH  14  15
ENDBRANCH   1  14
TORSDOF 18
ENDMDL
