MODEL 1
REMARK VINA RESULT:      -8.1      0.000      0.000
REMARK  1 active torsions:
REMARK  status: ('A' for Active; 'I' for Inactive)
REMARK    1  A    between atoms: C10_10  and  C11_11 
ROOT
ATOM      1  C1  ZIN A   1      18.078   0.262  18.516  0.00  0.00     0.309 C 
ATOM      2  N2  ZIN A   1      18.777   0.134  17.230  0.00  0.00     0.084 N 
ATOM      3  C3  ZIN A   1      18.597   1.338  16.411  0.00  0.00     0.276 C 
ATOM      4  C4  ZIN A   1      19.529   1.271  15.196  0.00  0.00     0.065 C 
ATOM      5  C5  ZIN A   1      19.280  -0.039  14.478  0.00  0.00    -0.062 C 
ATOM      6  C6  ZIN A   1      19.081  -0.076  13.151  0.00  0.00     0.023 C 
ATOM      7  C7  ZIN A   1      19.107   1.166  12.346  0.00  0.00     0.141 A 
ATOM      8  N8  ZIN A   1      19.959   2.161  12.543  0.00  0.00    -0.240 NA
ATOM      9  C9  ZIN A   1      19.760   3.109  11.639  0.00  0.00     0.151 A 
ATOM     10  C10 ZIN A   1      18.719   2.707  10.825  0.00  0.00     0.091 A 
ATOM     11  N13 ZIN A   1      18.294   1.470  11.309  0.00  0.00    -0.327 N 
ATOM     12  C14 ZIN A   1      17.151   0.750  10.746  0.00  0.00     0.136 C 
ATOM     13  C15 ZIN A   1      16.675  -0.386  11.621  0.00  0.00     0.060 C 
ATOM     14  C16 ZIN A   1      17.664  -1.503  11.732  0.00  0.00    -0.045 A 
ATOM     15  C17 ZIN A   1      17.403  -2.706  11.091  0.00  0.00     0.008 A 
ATOM     16  C18 ZIN A   1      18.311  -3.746  11.178  0.00  0.00     0.001 A 
ATOM     17  C19 ZIN A   1      19.481  -3.601  11.898  0.00  0.00     0.001 A 
ATOM     18  C20 ZIN A   1      19.749  -2.408  12.542  0.00  0.00     0.013 A 
ATOM     19  C21 ZIN A   1      18.837  -1.368  12.454  0.00  0.00    -0.016 A 
ATOM     20  C22 ZIN A   1      19.262  -1.305  15.307  0.00  0.00     0.065 C 
ATOM     21  C23 ZIN A   1      18.346  -1.075  16.516  0.00  0.00     0.276 C 
ENDROOT
BRANCH  10  22
ATOM     22  C11 ZIN A   1      18.191   3.408   9.718  0.00  0.00     0.289 C 
ATOM     23  O12 ZIN A   1      17.809   4.553   9.851  0.00  0.00    -0.300 OA
ENDBRANCH  10  22
TORSDOF 1
ENDMDL
MODEL 2
REMARK VINA RESULT:      -7.9      3.382      4.994
REMARK  1 active torsions:
REMARK  status: ('A' for Active; 'I' for Inactive)
REMARK    1  A    between atoms: C10_10  and  C11_11 
ROOT
ATOM      1  C1  ZIN A   1      17.401  -1.191  16.737  0.00  0.00     0.309 C 
ATOM      2  N2  ZIN A   1      18.199  -0.149  16.077  0.00  0.00     0.084 N 
ATOM      3  C3  ZIN A   1      18.044   1.143  16.758  0.00  0.00     0.276 C 
ATOM      4  C4  ZIN A   1      19.067   2.139  16.199  0.00  0.00     0.065 C 
ATOM      5  C5  ZIN A   1      18.913   2.182  14.694  0.00  0.00    -0.062 C 
ATOM      6  C6  ZIN A   1      18.817   3.351  14.040  0.00  0.00     0.023 C 
ATOM      7  C7  ZIN A   1      18.865   4.636  14.774  0.00  0.00     0.141 A 
ATOM      8  N8  ZIN A   1      19.668   4.876  15.799  0.00  0.00    -0.240 NA
ATOM      9  C9  ZIN A   1      19.508   6.125  16.212  0.00  0.00     0.151 A 
ATOM     10  C10 ZIN A   1      18.545   6.714  15.417  0.00  0.00     0.091 A 
ATOM     11  N13 ZIN A   1      18.124   5.737  14.516  0.00  0.00    -0.327 N 
ATOM     12  C14 ZIN A   1      17.049   5.963  13.549  0.00  0.00     0.136 C 
ATOM     13  C15 ZIN A   1      16.544   4.689  12.913  0.00  0.00     0.060 C 
ATOM     14  C16 ZIN A   1      17.556   4.023  12.036  0.00  0.00    -0.045 A 
ATOM     15  C17 ZIN A   1      17.382   4.049  10.659  0.00  0.00     0.008 A 
ATOM     16  C18 ZIN A   1      18.312   3.444   9.834  0.00  0.00     0.001 A 
ATOM     17  C19 ZIN A   1      19.420   2.811  10.365  0.00  0.00     0.001 A 
ATOM     18  C20 ZIN A   1      19.601   2.778  11.735  0.00  0.00     0.013 A 
ATOM     19  C21 ZIN A   1      18.666   3.384  12.559  0.00  0.00    -0.016 A 
ATOM     20  C22 ZIN A   1      18.873   0.864  13.951  0.00  0.00     0.065 C 
ATOM     21  C23 ZIN A   1      17.861  -0.051  14.651  0.00  0.00     0.276 C 
ENDROOT
BRANCH  10  22
ATOM     22  C11 ZIN A   1      18.080   8.046  15.499  0.00  0.00     0.289 C 
ATOM     23  O12 ZIN A   1      18.092   8.629  16.563  0.00  0.00    -0.300 OA
ENDBRANCH  10  22
TORSDOF 1
ENDMDL
MODEL 3
REMARK VINA RESULT:      -7.8      2.976      5.775
REMARK  1 active torsions:
REMARK  status: ('A' for Active; 'I' for Inactive)
REMARK    1  A    between atoms: C10_10  and  C11_11 
ROOT
ATOM      1  C1  ZIN A   1      17.161  -6.482   9.544  0.00  0.00     0.309 C 
ATOM      2  N2  ZIN A   1      18.016  -5.367   9.973  0.00  0.00     0.084 N 
ATOM      3  C3  ZIN A   1      17.778  -5.033  11.383  0.00  0.00     0.276 C 
ATOM      4  C4  ZIN A   1      18.847  -4.042  11.859  0.00  0.00     0.065 C 
ATOM      5  C5  ZIN A   1      18.856  -2.862  10.910  0.00  0.00    -0.062 C 
ATOM      6  C6  ZIN A   1      18.821  -1.601  11.370  0.00  0.00     0.023 C 
ATOM      7  C7  ZIN A   1      18.779  -1.327  12.825  0.00  0.00     0.141 A 
ATOM      8  N8  ZIN A   1      19.465  -2.010  13.729  0.00  0.00    -0.240 NA
ATOM      9  C9  ZIN A   1      19.251  -1.500  14.934  0.00  0.00     0.151 A 
ATOM     10  C10 ZIN A   1      18.374  -0.442  14.797  0.00  0.00     0.091 A 
ATOM     11  N13 ZIN A   1      18.060  -0.361  13.441  0.00  0.00    -0.327 N 
ATOM     12  C14 ZIN A   1      17.094   0.600  12.907  0.00  0.00     0.136 C 
ATOM     13  C15 ZIN A   1      16.671   0.294  11.490  0.00  0.00     0.060 C 
ATOM     14  C16 ZIN A   1      17.777   0.449  10.495  0.00  0.00    -0.045 A 
ATOM     15  C17 ZIN A   1      17.752   1.521   9.615  0.00  0.00     0.008 A 
ATOM     16  C18 ZIN A   1      18.771   1.683   8.693  0.00  0.00     0.001 A 
ATOM     17  C19 ZIN A   1      19.821   0.785   8.639  0.00  0.00     0.001 A 
ATOM     18  C20 ZIN A   1      19.854  -0.288   9.510  0.00  0.00     0.013 A 
ATOM     19  C21 ZIN A   1      18.830  -0.447  10.431  0.00  0.00    -0.016 A 
ATOM     20  C22 ZIN A   1      18.906  -3.151   9.425  0.00  0.00     0.065 C 
ATOM     21  C23 ZIN A   1      17.833  -4.198   9.103  0.00  0.00     0.276 C 
ENDROOT
BRANCH  10  22
ATOM     22  C11 ZIN A   1      17.892   0.396  15.827  0.00  0.00     0.289 C 
ATOM     23  O12 ZIN A   1      17.089  -0.032  16.632  0.00  0.00    -0.300 OA
ENDBRANCH  10  22
TORSDOF 1
ENDMDL
MODEL 4
REMARK VINA RESULT:      -7.8      2.818      4.253
REMARK  1 active torsions:
REMARK  status: ('A' for Active; 'I' for Inactive)
REMARK    1  A    between atoms: C10_10  and  C11_11 
ROOT
ATOM      1  C1  ZIN A   1      16.413   6.322  13.483  0.00  0.00     0.309 C 
ATOM      2  N2  ZIN A   1      17.411   5.352  13.013  0.00  0.00     0.084 N 
ATOM      3  C3  ZIN A   1      17.209   5.035  11.594  0.00  0.00     0.276 C 
ATOM      4  C4  ZIN A   1      18.400   4.218  11.080  0.00  0.00     0.065 C 
ATOM      5  C5  ZIN A   1      18.582   3.021  11.987  0.00  0.00    -0.062 C 
ATOM      6  C6  ZIN A   1      18.718   1.783  11.485  0.00  0.00     0.023 C 
ATOM      7  C7  ZIN A   1      18.701   1.554  10.022  0.00  0.00     0.141 A 
ATOM      8  N8  ZIN A   1      19.277   2.355   9.138  0.00  0.00    -0.240 NA
ATOM      9  C9  ZIN A   1      19.125   1.860   7.918  0.00  0.00     0.151 A 
ATOM     10  C10 ZIN A   1      18.405   0.687   8.023  0.00  0.00     0.091 A 
ATOM     11  N13 ZIN A   1      18.118   0.518   9.377  0.00  0.00    -0.327 N 
ATOM     12  C14 ZIN A   1      17.299  -0.586   9.882  0.00  0.00     0.136 C 
ATOM     13  C15 ZIN A   1      16.851  -0.387  11.311  0.00  0.00     0.060 C 
ATOM     14  C16 ZIN A   1      17.977  -0.420  12.295  0.00  0.00    -0.045 A 
ATOM     15  C17 ZIN A   1      18.110  -1.514  13.139  0.00  0.00     0.008 A 
ATOM     16  C18 ZIN A   1      19.150  -1.562  14.049  0.00  0.00     0.001 A 
ATOM     17  C19 ZIN A   1      20.065  -0.530  14.130  0.00  0.00     0.001 A 
ATOM     18  C20 ZIN A   1      19.940   0.566  13.295  0.00  0.00     0.013 A 
ATOM     19  C21 ZIN A   1      18.896   0.611  12.385  0.00  0.00    -0.016 A 
ATOM     20  C22 ZIN A   1      18.606   3.265  13.481  0.00  0.00     0.065 C 
ATOM     21  C23 ZIN A   1      17.400   4.141  13.844  0.00  0.00     0.276 C 
ENDROOT
BRANCH  10  22
ATOM     22  C11 ZIN A   1      18.034  -0.176   6.967  0.00  0.00     0.289 C 
ATOM     23  O12 ZIN A   1      16.997   0.013   6.364  0.00  0.00    -0.300 OA
ENDBRANCH  10  22
TORSDOF 1
ENDMDL
MODEL 5
REMARK VINA RESULT:      -7.8      3.369      5.517
REMARK  1 active torsions:
REMARK  status: ('A' for Active; 'I' for Inactive)
REMARK    1  A    between atoms: C10_10  and  C11_11 
ROOT
ATOM      1  C1  ZIN A   1      17.377  -6.425  11.034  0.00  0.00     0.309 C 
ATOM      2  N2  ZIN A   1      18.260  -5.380  10.498  0.00  0.00     0.084 N 
ATOM      3  C3  ZIN A   1      18.435  -4.291  11.468  0.00  0.00     0.276 C 
ATOM      4  C4  ZIN A   1      19.543  -3.349  10.981  0.00  0.00     0.065 C 
ATOM      5  C5  ZIN A   1      19.205  -2.909   9.572  0.00  0.00    -0.062 C 
ATOM      6  C6  ZIN A   1      19.241  -1.613   9.223  0.00  0.00     0.023 C 
ATOM      7  C7  ZIN A   1      19.620  -0.574  10.207  0.00  0.00     0.141 A 
ATOM      8  N8  ZIN A   1      20.580  -0.719  11.108  0.00  0.00    -0.240 NA
ATOM      9  C9  ZIN A   1      20.708   0.397  11.812  0.00  0.00     0.151 A 
ATOM     10  C10 ZIN A   1      19.774   1.301  11.346  0.00  0.00     0.091 A 
ATOM     11  N13 ZIN A   1      19.066   0.654  10.334  0.00  0.00    -0.327 N 
ATOM     12  C14 ZIN A   1      17.935   1.270   9.639  0.00  0.00     0.136 C 
ATOM     13  C15 ZIN A   1      17.126   0.284   8.830  0.00  0.00     0.060 C 
ATOM     14  C16 ZIN A   1      17.875  -0.282   7.666  0.00  0.00    -0.045 A 
ATOM     15  C17 ZIN A   1      17.532   0.112   6.381  0.00  0.00     0.008 A 
ATOM     16  C18 ZIN A   1      18.220  -0.398   5.294  0.00  0.00     0.001 A 
ATOM     17  C19 ZIN A   1      19.252  -1.299   5.473  0.00  0.00     0.001 A 
ATOM     18  C20 ZIN A   1      19.600  -1.701   6.750  0.00  0.00     0.013 A 
ATOM     19  C21 ZIN A   1      18.908  -1.189   7.836  0.00  0.00    -0.016 A 
ATOM     20  C22 ZIN A   1      18.826  -3.978   8.570  0.00  0.00     0.065 C 
ATOM     21  C23 ZIN A   1      17.763  -4.881   9.209  0.00  0.00     0.276 C 
ENDROOT
BRANCH  10  22
ATOM     22  C11 ZIN A   1      19.577   2.624  11.802  0.00  0.00     0.289 C 
ATOM     23  O12 ZIN A   1      20.378   3.491  11.517  0.00  0.00    -0.300 OA
ENDBRANCH  10  22
TORSDOF 1
ENDMDL
MODEL 6
REMARK VINA RESULT:      -7.8      2.610      4.740
REMARK  1 active torsions:
REMARK  status: ('A' for Active; 'I' for Inactive)
REMARK    1  A    between atoms: C10_10  and  C11_11 
ROOT
ATOM      1  C1  ZIN A   1      19.355   0.301  18.208  0.00  0.00     0.309 C 
ATOM      2  N2  ZIN A   1      18.629   0.216  16.933  0.00  0.00     0.084 N 
ATOM      3  C3  ZIN A   1      18.888  -1.066  16.265  0.00  0.00     0.276 C 
ATOM      4  C4  ZIN A   1      17.935  -1.220  15.074  0.00  0.00     0.065 C 
ATOM      5  C5  ZIN A   1      18.075   0.004  14.194  0.00  0.00    -0.062 C 
ATOM      6  C6  ZIN A   1      18.250  -0.111  12.867  0.00  0.00     0.023 C 
ATOM      7  C7  ZIN A   1      18.306  -1.443  12.224  0.00  0.00     0.141 A 
ATOM      8  N8  ZIN A   1      17.535  -2.465  12.563  0.00  0.00    -0.240 NA
ATOM      9  C9  ZIN A   1      17.792  -3.502  11.779  0.00  0.00     0.151 A 
ATOM     10  C10 ZIN A   1      18.787  -3.129  10.897  0.00  0.00     0.091 A 
ATOM     11  N13 ZIN A   1      19.125  -1.814  11.213  0.00  0.00    -0.327 N 
ATOM     12  C14 ZIN A   1      20.202  -1.088  10.538  0.00  0.00     0.136 C 
ATOM     13  C15 ZIN A   1      20.603   0.180  11.254  0.00  0.00     0.060 C 
ATOM     14  C16 ZIN A   1      19.534   1.227  11.249  0.00  0.00    -0.045 A 
ATOM     15  C17 ZIN A   1      19.694   2.355  10.458  0.00  0.00     0.008 A 
ATOM     16  C18 ZIN A   1      18.711   3.329  10.436  0.00  0.00     0.001 A 
ATOM     17  C19 ZIN A   1      17.566   3.190  11.197  0.00  0.00     0.001 A 
ATOM     18  C20 ZIN A   1      17.398   2.071  11.991  0.00  0.00     0.013 A 
ATOM     19  C21 ZIN A   1      18.386   1.098  12.010  0.00  0.00    -0.016 A 
ATOM     20  C22 ZIN A   1      18.008   1.362  14.859  0.00  0.00     0.065 C 
ATOM     21  C23 ZIN A   1      18.957   1.354  16.064  0.00  0.00     0.276 C 
ENDROOT
BRANCH  10  22
ATOM     22  C11 ZIN A   1      19.351  -3.923   9.873  0.00  0.00     0.289 C 
ATOM     23  O12 ZIN A   1      19.896  -4.973  10.149  0.00  0.00    -0.300 OA
ENDBRANCH  10  22
TORSDOF 1
ENDMDL
MODEL 7
REMARK VINA RESULT:      -7.8      2.807      5.843
REMARK  1 active torsions:
REMARK  status: ('A' for Active; 'I' for Inactive)
REMARK    1  A    between atoms: C10_10  and  C11_11 
ROOT
ATOM      1  C1  ZIN A   1      19.460  -0.546   4.664  0.00  0.00     0.309 C 
ATOM      2  N2  ZIN A   1      18.735  -0.295   5.917  0.00  0.00     0.084 N 
ATOM      3  C3  ZIN A   1      19.075   1.024   6.466  0.00  0.00     0.276 C 
ATOM      4  C4  ZIN A   1      18.129   1.351   7.627  0.00  0.00     0.065 C 
ATOM      5  C5  ZIN A   1      18.183   0.208   8.619  0.00  0.00    -0.062 C 
ATOM      6  C6  ZIN A   1      18.359   0.435   9.930  0.00  0.00     0.023 C 
ATOM      7  C7  ZIN A   1      18.501   1.815  10.448  0.00  0.00     0.141 A 
ATOM      8  N8  ZIN A   1      17.800   2.849  10.006  0.00  0.00    -0.240 NA
ATOM      9  C9  ZIN A   1      18.122   3.935  10.694  0.00  0.00     0.151 A 
ATOM     10  C10 ZIN A   1      19.086   3.583  11.617  0.00  0.00     0.091 A 
ATOM     11  N13 ZIN A   1      19.337   2.224  11.428  0.00  0.00    -0.327 N 
ATOM     12  C14 ZIN A   1      20.360   1.496  12.180  0.00  0.00     0.136 C 
ATOM     13  C15 ZIN A   1      20.680   0.143  11.590  0.00  0.00     0.060 C 
ATOM     14  C16 ZIN A   1      19.545  -0.826  11.681  0.00  0.00    -0.045 A 
ATOM     15  C17 ZIN A   1      19.625  -1.884  12.575  0.00  0.00     0.008 A 
ATOM     16  C18 ZIN A   1      18.581  -2.785  12.676  0.00  0.00     0.001 A 
ATOM     17  C19 ZIN A   1      17.450  -2.644  11.893  0.00  0.00     0.001 A 
ATOM     18  C20 ZIN A   1      17.361  -1.595  10.997  0.00  0.00     0.013 A 
ATOM     19  C21 ZIN A   1      18.411  -0.695  10.898  0.00  0.00    -0.016 A 
ATOM     20  C22 ZIN A   1      18.030  -1.199   8.082  0.00  0.00     0.065 C 
ATOM     21  C23 ZIN A   1      18.983  -1.365   6.892  0.00  0.00     0.276 C 
ENDROOT
BRANCH  10  22
ATOM     22  C11 ZIN A   1      19.696   4.431  12.569  0.00  0.00     0.289 C 
ATOM     23  O12 ZIN A   1      19.022   4.968  13.424  0.00  0.00    -0.300 OA
ENDBRANCH  10  22
TORSDOF 1
ENDMDL
MODEL 8
REMARK VINA RESULT:      -7.6      4.864      7.191
REMARK  1 active torsions:
REMARK  status: ('A' for Active; 'I' for Inactive)
REMARK    1  A    between atoms: C10_10  and  C11_11 
ROOT
ATOM      1  C1  ZIN A   1      19.622  -1.451  13.796  0.00  0.00     0.309 C 
ATOM      2  N2  ZIN A   1      18.751  -1.612  12.624  0.00  0.00     0.084 N 
ATOM      3  C3  ZIN A   1      18.650  -3.024  12.233  0.00  0.00     0.276 C 
ATOM      4  C4  ZIN A   1      17.554  -3.181  11.172  0.00  0.00     0.065 C 
ATOM      5  C5  ZIN A   1      17.847  -2.219  10.041  0.00  0.00    -0.062 C 
ATOM      6  C6  ZIN A   1      17.838  -2.628   8.762  0.00  0.00     0.023 C 
ATOM      7  C7  ZIN A   1      17.533  -4.035   8.420  0.00  0.00     0.141 A 
ATOM      8  N8  ZIN A   1      16.606  -4.763   9.025  0.00  0.00    -0.240 NA
ATOM      9  C9  ZIN A   1      16.542  -5.963   8.468  0.00  0.00     0.151 A 
ATOM     10  C10 ZIN A   1      17.484  -6.013   7.459  0.00  0.00     0.091 A 
ATOM     11  N13 ZIN A   1      18.129  -4.777   7.459  0.00  0.00    -0.327 N 
ATOM     12  C14 ZIN A   1      19.250  -4.468   6.569  0.00  0.00     0.136 C 
ATOM     13  C15 ZIN A   1      19.993  -3.214   6.964  0.00  0.00     0.060 C 
ATOM     14  C16 ZIN A   1      19.180  -1.969   6.806  0.00  0.00    -0.045 A 
ATOM     15  C17 ZIN A   1      19.483  -1.085   5.781  0.00  0.00     0.008 A 
ATOM     16  C18 ZIN A   1      18.736   0.067   5.618  0.00  0.00     0.001 A 
ATOM     17  C19 ZIN A   1      17.684   0.351   6.468  0.00  0.00     0.001 A 
ATOM     18  C20 ZIN A   1      17.375  -0.522   7.495  0.00  0.00     0.013 A 
ATOM     19  C21 ZIN A   1      18.127  -1.675   7.656  0.00  0.00    -0.016 A 
ATOM     20  C22 ZIN A   1      18.151  -0.780  10.399  0.00  0.00     0.065 C 
ATOM     21  C23 ZIN A   1      19.210  -0.774  11.508  0.00  0.00     0.276 C 
ENDROOT
BRANCH  10  22
ATOM     22  C11 ZIN A   1      17.742  -7.101   6.595  0.00  0.00     0.289 C 
ATOM     23  O12 ZIN A   1      18.128  -8.158   7.048  0.00  0.00    -0.300 OA
ENDBRANCH  10  22
TORSDOF 1
ENDMDL
MODEL 9
REMARK VINA RESULT:      -7.4      5.891      9.345
REMARK  1 active torsions:
REMARK  status: ('A' for Active; 'I' for Inactive)
REMARK    1  A    between atoms: C10_10  and  C11_11 
ROOT
ATOM      1  C1  ZIN A   1      14.973  -5.708   3.089  0.00  0.00     0.309 C 
ATOM      2  N2  ZIN A   1      16.240  -5.202   3.633  0.00  0.00     0.084 N 
ATOM      3  C3  ZIN A   1      16.514  -5.782   4.954  0.00  0.00     0.276 C 
ATOM      4  C4  ZIN A   1      17.944  -5.427   5.379  0.00  0.00     0.065 C 
ATOM      5  C5  ZIN A   1      18.106  -3.924   5.289  0.00  0.00    -0.062 C 
ATOM      6  C6  ZIN A   1      18.630  -3.220   6.305  0.00  0.00     0.023 C 
ATOM      7  C7  ZIN A   1      19.072  -3.897   7.546  0.00  0.00     0.141 A 
ATOM      8  N8  ZIN A   1      19.695  -5.065   7.573  0.00  0.00    -0.240 NA
ATOM      9  C9  ZIN A   1      19.997  -5.384   8.823  0.00  0.00     0.151 A 
ATOM     10  C10 ZIN A   1      19.535  -4.373   9.642  0.00  0.00     0.091 A 
ATOM     11  N13 ZIN A   1      18.920  -3.439   8.809  0.00  0.00    -0.327 N 
ATOM     12  C14 ZIN A   1      18.239  -2.249   9.321  0.00  0.00     0.136 C 
ATOM     13  C15 ZIN A   1      17.377  -1.567   8.285  0.00  0.00     0.060 C 
ATOM     14  C16 ZIN A   1      18.163  -0.962   7.165  0.00  0.00    -0.045 A 
ATOM     15  C17 ZIN A   1      18.276   0.419   7.083  0.00  0.00     0.008 A 
ATOM     16  C18 ZIN A   1      19.005   0.993   6.058  0.00  0.00     0.001 A 
ATOM     17  C19 ZIN A   1      19.627   0.205   5.108  0.00  0.00     0.001 A 
ATOM     18  C20 ZIN A   1      19.519  -1.172   5.179  0.00  0.00     0.013 A 
ATOM     19  C21 ZIN A   1      18.786  -1.744   6.208  0.00  0.00    -0.016 A 
ATOM     20  C22 ZIN A   1      17.659  -3.241   4.014  0.00  0.00     0.065 C 
ATOM     21  C23 ZIN A   1      16.246  -3.734   3.675  0.00  0.00     0.276 C 
ENDROOT
BRANCH  10  22
ATOM     22  C11 ZIN A   1      19.662  -4.298  11.047  0.00  0.00     0.289 C 
ATOM     23  O12 ZIN A   1      20.541  -3.623  11.542  0.00  0.00    -0.300 OA
ENDBRANCH  10  22
TORSDOF 1
ENDMDL
