MODEL 1
REMARK VINA RESULT:      -7.2      0.000      0.000
REMARK  6 active torsions:
REMARK  status: ('A' for Active; 'I' for Inactive)
REMARK    1  A    between atoms: O2_2  and  C3_3 
REMARK    2  A    between atoms: C3_3  and  C5_5 
REMARK    3  A    between atoms: C14_11  and  C16_12 
REMARK    4  A    between atoms: N23_19  and  C25_21 
REMARK    5  A    between atoms: C25_21  and  C26_22 
REMARK    6  A    between atoms: C26_22  and  C27_23 
ROOT
ATOM      1  C5  ZIN A   1      19.776   1.383  11.064  0.00  0.00     0.125 C 
ATOM      2  C7  ZIN A   1      19.758   1.866  12.523  0.00  0.00     0.203 C 
ATOM      3  C9  ZIN A   1      19.232   3.319  12.533  0.00  0.00     0.036 C 
ATOM      4  C10 ZIN A   1      17.699   3.185  12.649  0.00  0.00     0.035 C 
ATOM      5  C11 ZIN A   1      17.439   1.661  12.698  0.00  0.00     0.189 C 
ATOM      6  C13 ZIN A   1      17.272   1.166  11.253  0.00  0.00     0.043 C 
ATOM      7  C14 ZIN A   1      18.430   1.716  10.413  0.00  0.00     0.036 C 
ATOM      8  N23 ZIN A   1      18.715   1.079  13.235  0.00  0.00    -0.062 N 
ATOM      9  H24 ZIN A   1      18.781   0.098  13.009  0.00  0.00     0.280 HD
ENDROOT
BRANCH   7  10
ATOM     10  C16 ZIN A   1      18.370   1.125   9.028  0.00  0.00    -0.053 A 
ATOM     11  C22 ZIN A   1      17.497   0.088   8.756  0.00  0.00     0.009 A 
ATOM     12  C21 ZIN A   1      17.437  -0.451   7.485  0.00  0.00     0.019 A 
ATOM     13  C19 ZIN A   1      18.259   0.041   6.487  0.00  0.00     0.006 A 
ATOM     14  C18 ZIN A   1      19.136   1.075   6.759  0.00  0.00     0.019 A 
ATOM     15  I20 ZIN A   1      18.175  -0.781   4.562  0.00  0.00    -0.045 I 
ATOM     16  C17 ZIN A   1      19.191   1.617   8.030  0.00  0.00     0.009 A 
ENDBRANCH   7  10
BRANCH   1  17
ATOM     17  C3  ZIN A   1      20.000  -0.107  11.028  0.00  0.00     0.265 C 
ATOM     18  O4  ZIN A   1      20.971  -0.559  10.467  0.00  0.00    -0.265 OA
BRANCH  17  19
ATOM     19  O2  ZIN A   1      19.122  -0.933  11.618  0.00  0.00    -0.326 OA
ATOM     20  C1  ZIN A   1      19.543  -2.308  11.819  0.00  0.00     0.213 C 
ENDBRANCH  17  19
ENDBRANCH   1  17
BRANCH   8  21
ATOM     21  C25 ZIN A   1      18.806   1.283  14.686  0.00  0.00     0.238 C 
BRANCH  21  22
ATOM     22  C26 ZIN A   1      17.896   0.281  15.401  0.00  0.00     0.059 C 
BRANCH  22  23
ATOM     23  C27 ZIN A   1      18.458  -1.131  15.229  0.00  0.00     0.223 C 
ATOM     24  F28 ZIN A   1      18.016  -1.940  16.281  0.00  0.00    -0.255 F 
ENDBRANCH  22  23
ENDBRANCH  21  22
ENDBRANCH   8  21
TORSDOF 6
ENDMDL
MODEL 2
REMARK VINA RESULT:      -7.1      0.952      1.429
REMARK  6 active torsions:
REMARK  status: ('A' for Active; 'I' for Inactive)
REMARK    1  A    between atoms: O2_2  and  C3_3 
REMARK    2  A    between atoms: C3_3  and  C5_5 
REMARK    3  A    between atoms: C14_11  and  C16_12 
REMARK    4  A    between atoms: N23_19  and  C25_21 
REMARK    5  A    between atoms: C25_21  and  C26_22 
REMARK    6  A    between atoms: C26_22  and  C27_23 
ROOT
ATOM      1  C5  ZIN A   1      19.740   1.061  11.695  0.00  0.00     0.125 C 
ATOM      2  C7  ZIN A   1      19.649   1.301  13.211  0.00  0.00     0.203 C 
ATOM      3  C9  ZIN A   1      18.924   2.648  13.433  0.00  0.00     0.036 C 
ATOM      4  C10 ZIN A   1      17.425   2.287  13.487  0.00  0.00     0.035 C 
ATOM      5  C11 ZIN A   1      17.381   0.753  13.291  0.00  0.00     0.189 C 
ATOM      6  C13 ZIN A   1      17.291   0.473  11.783  0.00  0.00     0.043 C 
ATOM      7  C14 ZIN A   1      18.364   1.303  11.069  0.00  0.00     0.036 C 
ATOM      8  N23 ZIN A   1      18.724   0.276  13.764  0.00  0.00    -0.062 N 
ATOM      9  H24 ZIN A   1      18.928  -0.639  13.391  0.00  0.00     0.280 HD
ENDROOT
BRANCH   7  10
ATOM     10  C16 ZIN A   1      18.392   0.935   9.608  0.00  0.00    -0.053 A 
ATOM     11  C22 ZIN A   1      19.197   1.639   8.732  0.00  0.00     0.009 A 
ATOM     12  C21 ZIN A   1      19.228   1.299   7.394  0.00  0.00     0.019 A 
ATOM     13  C19 ZIN A   1      18.443   0.260   6.927  0.00  0.00     0.006 A 
ATOM     14  C18 ZIN A   1      17.633  -0.441   7.801  0.00  0.00     0.019 A 
ATOM     15  I20 ZIN A   1      18.482  -0.251   4.896  0.00  0.00    -0.045 I 
ATOM     16  C17 ZIN A   1      17.607  -0.104   9.141  0.00  0.00     0.009 A 
ENDBRANCH   7  10
BRANCH   1  17
ATOM     17  C3  ZIN A   1      20.171  -0.360  11.434  0.00  0.00     0.265 C 
ATOM     18  O4  ZIN A   1      21.137  -0.580  10.741  0.00  0.00    -0.265 OA
BRANCH  17  19
ATOM     19  O2  ZIN A   1      19.483  -1.380  11.971  0.00  0.00    -0.326 OA
ATOM     20  C1  ZIN A   1      19.713  -2.698  11.407  0.00  0.00     0.213 C 
ENDBRANCH  17  19
ENDBRANCH   1  17
BRANCH   8  21
ATOM     21  C25 ZIN A   1      18.780   0.260  15.232  0.00  0.00     0.238 C 
BRANCH  21  22
ATOM     22  C26 ZIN A   1      18.563  -1.169  15.735  0.00  0.00     0.059 C 
BRANCH  22  23
ATOM     23  C27 ZIN A   1      17.425  -1.182  16.757  0.00  0.00     0.223 C 
ATOM     24  F28 ZIN A   1      16.643  -0.033  16.599  0.00  0.00    -0.255 F 
ENDBRANCH  22  23
ENDBRANCH  21  22
ENDBRANCH   8  21
TORSDOF 6
ENDMDL
MODEL 3
REMARK VINA RESULT:      -7.1      3.309      5.509
REMARK  6 active torsions:
REMARK  status: ('A' for Active; 'I' for Inactive)
REMARK    1  A    between atoms: O2_2  and  C3_3 
REMARK    2  A    between atoms: C3_3  and  C5_5 
REMARK    3  A    between atoms: C14_11  and  C16_12 
REMARK    4  A    between atoms: N23_19  and  C25_21 
REMARK    5  A    between atoms: C25_21  and  C26_22 
REMARK    6  A    between atoms: C26_22  and  C27_23 
ROOT
ATOM      1  C5  ZIN A   1      17.176   0.602   9.637  0.00  0.00     0.125 C 
ATOM      2  C7  ZIN A   1      17.244  -0.535   8.605  0.00  0.00     0.203 C 
ATOM      3  C9  ZIN A   1      17.617   0.089   7.240  0.00  0.00     0.036 C 
ATOM      4  C10 ZIN A   1      19.160   0.090   7.214  0.00  0.00     0.035 C 
ATOM      5  C11 ZIN A   1      19.579  -0.532   8.566  0.00  0.00     0.189 C 
ATOM      6  C13 ZIN A   1      19.695   0.606   9.592  0.00  0.00     0.043 C 
ATOM      7  C14 ZIN A   1      18.432   1.469   9.508  0.00  0.00     0.036 C 
ATOM      8  N23 ZIN A   1      18.409  -1.387   8.964  0.00  0.00    -0.062 N 
ATOM      9  H24 ZIN A   1      18.429  -1.578   9.954  0.00  0.00     0.280 HD
ENDROOT
BRANCH   7  10
ATOM     10  C16 ZIN A   1      18.457   2.503  10.604  0.00  0.00    -0.053 A 
ATOM     11  C22 ZIN A   1      17.374   3.342  10.788  0.00  0.00     0.009 A 
ATOM     12  C21 ZIN A   1      17.395   4.287  11.796  0.00  0.00     0.019 A 
ATOM     13  C19 ZIN A   1      18.504   4.401  12.614  0.00  0.00     0.006 A 
ATOM     14  C18 ZIN A   1      19.590   3.566  12.427  0.00  0.00     0.019 A 
ATOM     15  I20 ZIN A   1      18.540   5.839  14.136  0.00  0.00    -0.045 I 
ATOM     16  C17 ZIN A   1      19.566   2.616  11.422  0.00  0.00     0.009 A 
ENDBRANCH   7  10
BRANCH   1  17
ATOM     17  C3  ZIN A   1      17.105   0.019  11.025  0.00  0.00     0.265 C 
ATOM     18  O4  ZIN A   1      16.052   0.002  11.620  0.00  0.00    -0.265 OA
BRANCH  17  19
ATOM     19  O2  ZIN A   1      18.209  -0.481  11.601  0.00  0.00    -0.326 OA
ATOM     20  C1  ZIN A   1      18.130  -0.793  13.017  0.00  0.00     0.213 C 
ENDBRANCH  17  19
ENDBRANCH   1  17
BRANCH   8  21
ATOM     21  C25 ZIN A   1      18.398  -2.638   8.196  0.00  0.00     0.238 C 
BRANCH  21  22
ATOM     22  C26 ZIN A   1      17.599  -3.698   8.958  0.00  0.00     0.059 C 
BRANCH  22  23
ATOM     23  C27 ZIN A   1      18.048  -3.722  10.420  0.00  0.00     0.223 C 
ATOM     24  F28 ZIN A   1      16.969  -3.381  11.244  0.00  0.00    -0.255 F 
ENDBRANCH  22  23
ENDBRANCH  21  22
ENDBRANCH   8  21
TORSDOF 6
ENDMDL
MODEL 4
REMARK VINA RESULT:      -6.9      3.835      6.654
REMARK  6 active torsions:
REMARK  status: ('A' for Active; 'I' for Inactive)
REMARK    1  A    between atoms: O2_2  and  C3_3 
REMARK    2  A    between atoms: C3_3  and  C5_5 
REMARK    3  A    between atoms: C14_11  and  C16_12 
REMARK    4  A    between atoms: N23_19  and  C25_21 
REMARK    5  A    between atoms: C25_21  and  C26_22 
REMARK    6  A    between atoms: C26_22  and  C27_23 
ROOT
ATOM      1  C5  ZIN A   1      19.814  -1.292  11.935  0.00  0.00     0.125 C 
ATOM      2  C7  ZIN A   1      19.805  -1.752  10.468  0.00  0.00     0.203 C 
ATOM      3  C9  ZIN A   1      19.155  -3.154  10.417  0.00  0.00     0.036 C 
ATOM      4  C10 ZIN A   1      17.644  -2.883  10.252  0.00  0.00     0.035 C 
ATOM      5  C11 ZIN A   1      17.519  -1.342  10.221  0.00  0.00     0.189 C 
ATOM      6  C13 ZIN A   1      17.347  -0.854  11.667  0.00  0.00     0.043 C 
ATOM      7  C14 ZIN A   1      18.423  -1.515  12.536  0.00  0.00     0.036 C 
ATOM      8  N23 ZIN A   1      18.859  -0.867   9.735  0.00  0.00    -0.062 N 
ATOM      9  H24 ZIN A   1      19.002   0.101   9.980  0.00  0.00     0.280 HD
ENDROOT
BRANCH   7  10
ATOM     10  C16 ZIN A   1      18.366  -0.940  13.928  0.00  0.00    -0.053 A 
ATOM     11  C22 ZIN A   1      19.066  -1.546  14.955  0.00  0.00     0.009 A 
ATOM     12  C21 ZIN A   1      19.019  -1.016  16.230  0.00  0.00     0.019 A 
ATOM     13  C19 ZIN A   1      18.262   0.114  16.482  0.00  0.00     0.006 A 
ATOM     14  C18 ZIN A   1      17.557   0.717  15.456  0.00  0.00     0.019 A 
ATOM     15  I20 ZIN A   1      18.183   0.912  18.417  0.00  0.00    -0.045 I 
ATOM     16  C17 ZIN A   1      17.610   0.190  14.179  0.00  0.00     0.009 A 
ENDBRANCH   7  10
BRANCH   1  17
ATOM     17  C3  ZIN A   1      20.165   0.172  12.003  0.00  0.00     0.265 C 
ATOM     18  O4  ZIN A   1      21.065   0.545  12.720  0.00  0.00    -0.265 OA
BRANCH  17  19
ATOM     19  O2  ZIN A   1      19.480   1.062  11.268  0.00  0.00    -0.326 OA
ATOM     20  C1  ZIN A   1      19.481   2.438  11.732  0.00  0.00     0.213 C 
ENDBRANCH  17  19
ENDBRANCH   1  17
BRANCH   8  21
ATOM     21  C25 ZIN A   1      18.981  -1.059   8.285  0.00  0.00     0.238 C 
BRANCH  21  22
ATOM     22  C26 ZIN A   1      18.312   0.109   7.557  0.00  0.00     0.059 C 
BRANCH  22  23
ATOM     23  C27 ZIN A   1      19.238   1.327   7.585  0.00  0.00     0.223 C 
ATOM     24  F28 ZIN A   1      18.710   2.294   8.448  0.00  0.00    -0.255 F 
ENDBRANCH  22  23
ENDBRANCH  21  22
ENDBRANCH   8  21
TORSDOF 6
ENDMDL
MODEL 5
REMARK VINA RESULT:      -6.9      1.548      1.996
REMARK  6 active torsions:
REMARK  status: ('A' for Active; 'I' for Inactive)
REMARK    1  A    between atoms: O2_2  and  C3_3 
REMARK    2  A    between atoms: C3_3  and  C5_5 
REMARK    3  A    between atoms: C14_11  and  C16_12 
REMARK    4  A    between atoms: N23_19  and  C25_21 
REMARK    5  A    between atoms: C25_21  and  C26_22 
REMARK    6  A    between atoms: C26_22  and  C27_23 
ROOT
ATOM      1  C5  ZIN A   1      18.942  -0.842  11.579  0.00  0.00     0.125 C 
ATOM      2  C7  ZIN A   1      19.038  -0.340  13.028  0.00  0.00     0.203 C 
ATOM      3  C9  ZIN A   1      20.119   0.764  13.074  0.00  0.00     0.036 C 
ATOM      4  C10 ZIN A   1      19.363   2.072  12.761  0.00  0.00     0.035 C 
ATOM      5  C11 ZIN A   1      17.892   1.639  12.553  0.00  0.00     0.189 C 
ATOM      6  C13 ZIN A   1      17.710   1.295  11.067  0.00  0.00     0.043 C 
ATOM      7  C14 ZIN A   1      18.848   0.363  10.638  0.00  0.00     0.036 C 
ATOM      8  N23 ZIN A   1      17.763   0.364  13.336  0.00  0.00    -0.062 N 
ATOM      9  H24 ZIN A   1      16.968  -0.169  13.018  0.00  0.00     0.280 HD
ENDROOT
BRANCH   7  10
ATOM     10  C16 ZIN A   1      18.608  -0.105   9.226  0.00  0.00    -0.053 A 
ATOM     11  C22 ZIN A   1      17.436   0.232   8.575  0.00  0.00     0.009 A 
ATOM     12  C21 ZIN A   1      17.218  -0.192   7.278  0.00  0.00     0.019 A 
ATOM     13  C19 ZIN A   1      18.168  -0.964   6.635  0.00  0.00     0.006 A 
ATOM     14  C18 ZIN A   1      19.338  -1.307   7.287  0.00  0.00     0.019 A 
ATOM     15  I20 ZIN A   1      17.834  -1.615   4.672  0.00  0.00    -0.045 I 
ATOM     16  C17 ZIN A   1      19.558  -0.877   8.583  0.00  0.00     0.009 A 
ENDBRANCH   7  10
BRANCH   1  17
ATOM     17  C3  ZIN A   1      17.714  -1.702  11.423  0.00  0.00     0.265 C 
ATOM     18  O4  ZIN A   1      16.633  -1.278  11.758  0.00  0.00    -0.265 OA
BRANCH  17  19
ATOM     19  O2  ZIN A   1      17.820  -2.939  10.912  0.00  0.00    -0.326 OA
ATOM     20  C1  ZIN A   1      19.117  -3.584  11.013  0.00  0.00     0.213 C 
ENDBRANCH  17  19
ENDBRANCH   1  17
BRANCH   8  21
ATOM     21  C25 ZIN A   1      17.656   0.647  14.772  0.00  0.00     0.238 C 
BRANCH  21  22
ATOM     22  C26 ZIN A   1      17.856  -0.647  15.564  0.00  0.00     0.059 C 
BRANCH  22  23
ATOM     23  C27 ZIN A   1      17.035  -0.589  16.853  0.00  0.00     0.223 C 
ATOM     24  F28 ZIN A   1      16.536  -1.863  17.146  0.00  0.00    -0.255 F 
ENDBRANCH  22  23
ENDBRANCH  21  22
ENDBRANCH   8  21
TORSDOF 6
ENDMDL
MODEL 6
REMARK VINA RESULT:      -6.9      2.696      4.598
REMARK  6 active torsions:
REMARK  status: ('A' for Active; 'I' for Inactive)
REMARK    1  A    between atoms: O2_2  and  C3_3 
REMARK    2  A    between atoms: C3_3  and  C5_5 
REMARK    3  A    between atoms: C14_11  and  C16_12 
REMARK    4  A    between atoms: N23_19  and  C25_21 
REMARK    5  A    between atoms: C25_21  and  C26_22 
REMARK    6  A    between atoms: C26_22  and  C27_23 
ROOT
ATOM      1  C5  ZIN A   1      17.486   0.607  14.796  0.00  0.00     0.125 C 
ATOM      2  C7  ZIN A   1      17.600   0.489  16.325  0.00  0.00     0.203 C 
ATOM      3  C9  ZIN A   1      16.912  -0.829  16.749  0.00  0.00     0.036 C 
ATOM      4  C10 ZIN A   1      18.022  -1.898  16.669  0.00  0.00     0.035 C 
ATOM      5  C11 ZIN A   1      19.280  -1.129  16.202  0.00  0.00     0.189 C 
ATOM      6  C13 ZIN A   1      19.295  -1.141  14.666  0.00  0.00     0.043 C 
ATOM      7  C14 ZIN A   1      17.911  -0.720  14.160  0.00  0.00     0.036 C 
ATOM      8  N23 ZIN A   1      19.039   0.286  16.644  0.00  0.00    -0.062 N 
ATOM      9  H24 ZIN A   1      19.621   0.925  16.123  0.00  0.00     0.280 HD
ENDROOT
BRANCH   7  10
ATOM     10  C16 ZIN A   1      17.945  -0.583  12.660  0.00  0.00    -0.053 A 
ATOM     11  C22 ZIN A   1      16.853  -0.067  11.988  0.00  0.00     0.009 A 
ATOM     12  C21 ZIN A   1      16.886   0.064  10.612  0.00  0.00     0.019 A 
ATOM     13  C19 ZIN A   1      18.007  -0.332   9.907  0.00  0.00     0.006 A 
ATOM     14  C18 ZIN A   1      19.098  -0.854  10.578  0.00  0.00     0.019 A 
ATOM     15  I20 ZIN A   1      18.054  -0.143   7.821  0.00  0.00    -0.045 I 
ATOM     16  C17 ZIN A   1      19.067  -0.979  11.955  0.00  0.00     0.009 A 
ENDBRANCH   7  10
BRANCH   1  17
ATOM     17  C3  ZIN A   1      18.384   1.714  14.307  0.00  0.00     0.265 C 
ATOM     18  O4  ZIN A   1      19.585   1.580  14.348  0.00  0.00    -0.265 OA
BRANCH  17  19
ATOM     19  O2  ZIN A   1      17.852   2.847  13.825  0.00  0.00    -0.326 OA
ATOM     20  C1  ZIN A   1      18.709   4.019  13.800  0.00  0.00     0.213 C 
ENDBRANCH  17  19
ENDBRANCH   1  17
BRANCH   8  21
ATOM     21  C25 ZIN A   1      19.279   0.426  18.086  0.00  0.00     0.238 C 
BRANCH  21  22
ATOM     22  C26 ZIN A   1      18.641   1.724  18.586  0.00  0.00     0.059 C 
BRANCH  22  23
ATOM     23  C27 ZIN A   1      19.329   2.919  17.925  0.00  0.00     0.223 C 
ATOM     24  F28 ZIN A   1      18.407   3.606  17.129  0.00  0.00    -0.255 F 
ENDBRANCH  22  23
ENDBRANCH  21  22
ENDBRANCH   8  21
TORSDOF 6
ENDMDL
MODEL 7
REMARK VINA RESULT:      -6.8      2.246      3.423
REMARK  6 active torsions:
REMARK  status: ('A' for Active; 'I' for Inactive)
REMARK    1  A    between atoms: O2_2  and  C3_3 
REMARK    2  A    between atoms: C3_3  and  C5_5 
REMARK    3  A    between atoms: C14_11  and  C16_12 
REMARK    4  A    between atoms: N23_19  and  C25_21 
REMARK    5  A    between atoms: C25_21  and  C26_22 
REMARK    6  A    between atoms: C26_22  and  C27_23 
ROOT
ATOM      1  C5  ZIN A   1      17.616   1.096  12.751  0.00  0.00     0.125 C 
ATOM      2  C7  ZIN A   1      17.797   1.122  14.277  0.00  0.00     0.203 C 
ATOM      3  C9  ZIN A   1      17.728  -0.337  14.785  0.00  0.00     0.036 C 
ATOM      4  C10 ZIN A   1      19.180  -0.852  14.707  0.00  0.00     0.035 C 
ATOM      5  C11 ZIN A   1      19.995   0.343  14.158  0.00  0.00     0.189 C 
ATOM      6  C13 ZIN A   1      19.987   0.253  12.625  0.00  0.00     0.043 C 
ATOM      7  C14 ZIN A   1      18.544   0.033  12.157  0.00  0.00     0.036 C 
ATOM      8  N23 ZIN A   1      19.194   1.552  14.549  0.00  0.00    -0.062 N 
ATOM      9  H24 ZIN A   1      19.448   2.345  13.979  0.00  0.00     0.280 HD
ENDROOT
BRANCH   7  10
ATOM     10  C16 ZIN A   1      18.491   0.089  10.651  0.00  0.00    -0.053 A 
ATOM     11  C22 ZIN A   1      17.324  -0.239   9.988  0.00  0.00     0.009 A 
ATOM     12  C21 ZIN A   1      17.273  -0.183   8.608  0.00  0.00     0.019 A 
ATOM     13  C19 ZIN A   1      18.395   0.190   7.890  0.00  0.00     0.006 A 
ATOM     14  C18 ZIN A   1      19.565   0.512   8.553  0.00  0.00     0.019 A 
ATOM     15  I20 ZIN A   1      18.322   0.266   5.798  0.00  0.00    -0.045 I 
ATOM     16  C17 ZIN A   1      19.613   0.462   9.934  0.00  0.00     0.009 A 
ENDBRANCH   7  10
BRANCH   1  17
ATOM     17  C3  ZIN A   1      17.963   2.447  12.180  0.00  0.00     0.265 C 
ATOM     18  O4  ZIN A   1      18.966   3.017  12.542  0.00  0.00    -0.265 OA
BRANCH  17  19
ATOM     19  O2  ZIN A   1      17.159   3.018  11.269  0.00  0.00    -0.326 OA
ATOM     20  C1  ZIN A   1      17.768   3.971  10.358  0.00  0.00     0.213 C 
ENDBRANCH  17  19
ENDBRANCH   1  17
BRANCH   8  21
ATOM     21  C25 ZIN A   1      19.380   1.859  15.973  0.00  0.00     0.238 C 
BRANCH  21  22
ATOM     22  C26 ZIN A   1      18.709   3.194  16.300  0.00  0.00     0.059 C 
BRANCH  22  23
ATOM     23  C27 ZIN A   1      18.777   3.444  17.807  0.00  0.00     0.223 C 
ATOM     24  F28 ZIN A   1      19.382   2.350  18.434  0.00  0.00    -0.255 F 
ENDBRANCH  22  23
ENDBRANCH  21  22
ENDBRANCH   8  21
TORSDOF 6
ENDMDL
MODEL 8
REMARK VINA RESULT:      -6.7      4.056      6.428
REMARK  6 active torsions:
REMARK  status: ('A' for Active; 'I' for Inactive)
REMARK    1  A    between atoms: O2_2  and  C3_3 
REMARK    2  A    between atoms: C3_3  and  C5_5 
REMARK    3  A    between atoms: C14_11  and  C16_12 
REMARK    4  A    between atoms: N23_19  and  C25_21 
REMARK    5  A    between atoms: C25_21  and  C26_22 
REMARK    6  A    between atoms: C26_22  and  C27_23 
ROOT
ATOM      1  C5  ZIN A   1      17.668  -0.940  10.462  0.00  0.00     0.125 C 
ATOM      2  C7  ZIN A   1      17.873  -0.970   8.939  0.00  0.00     0.203 C 
ATOM      3  C9  ZIN A   1      17.914   0.493   8.440  0.00  0.00     0.036 C 
ATOM      4  C10 ZIN A   1      19.397   0.906   8.545  0.00  0.00     0.035 C 
ATOM      5  C11 ZIN A   1      20.117  -0.346   9.100  0.00  0.00     0.189 C 
ATOM      6  C13 ZIN A   1      20.089  -0.263  10.634  0.00  0.00     0.043 C 
ATOM      7  C14 ZIN A   1      18.657   0.053  11.079  0.00  0.00     0.036 C 
ATOM      8  N23 ZIN A   1      19.242  -1.495   8.688  0.00  0.00    -0.062 N 
ATOM      9  H24 ZIN A   1      19.431  -2.306   9.257  0.00  0.00     0.280 HD
ENDROOT
BRANCH   7  10
ATOM     10  C16 ZIN A   1      18.575  -0.006  12.582  0.00  0.00    -0.053 A 
ATOM     11  C22 ZIN A   1      17.493   0.550  13.239  0.00  0.00     0.009 A 
ATOM     12  C21 ZIN A   1      17.414   0.491  14.617  0.00  0.00     0.019 A 
ATOM     13  C19 ZIN A   1      18.425  -0.115  15.341  0.00  0.00     0.006 A 
ATOM     14  C18 ZIN A   1      19.511  -0.666  14.686  0.00  0.00     0.019 A 
ATOM     15  I20 ZIN A   1      18.311  -0.196  17.431  0.00  0.00    -0.045 I 
ATOM     16  C17 ZIN A   1      19.586  -0.612  13.307  0.00  0.00     0.009 A 
ENDBRANCH   7  10
BRANCH   1  17
ATOM     17  C3  ZIN A   1      17.911  -2.315  11.031  0.00  0.00     0.265 C 
ATOM     18  O4  ZIN A   1      17.036  -2.878  11.645  0.00  0.00    -0.265 OA
BRANCH  17  19
ATOM     19  O2  ZIN A   1      19.099  -2.914  10.855  0.00  0.00    -0.326 OA
ATOM     20  C1  ZIN A   1      19.139  -4.357  11.013  0.00  0.00     0.213 C 
ENDBRANCH  17  19
ENDBRANCH   1  17
BRANCH   8  21
ATOM     21  C25 ZIN A   1      19.430  -1.806   7.266  0.00  0.00     0.238 C 
BRANCH  21  22
ATOM     22  C26 ZIN A   1      18.650  -3.073   6.912  0.00  0.00     0.059 C 
BRANCH  22  23
ATOM     23  C27 ZIN A   1      19.498  -4.303   7.240  0.00  0.00     0.223 C 
ATOM     24  F28 ZIN A   1      20.771  -4.154   6.680  0.00  0.00    -0.255 F 
ENDBRANCH  22  23
ENDBRANCH  21  22
ENDBRANCH   8  21
TORSDOF 6
ENDMDL
MODEL 9
REMARK VINA RESULT:      -6.6      2.912      4.714
REMARK  6 active torsions:
REMARK  status: ('A' for Active; 'I' for Inactive)
REMARK    1  A    between atoms: O2_2  and  C3_3 
REMARK    2  A    between atoms: C3_3  and  C5_5 
REMARK    3  A    between atoms: C14_11  and  C16_12 
REMARK    4  A    between atoms: N23_19  and  C25_21 
REMARK    5  A    between atoms: C25_21  and  C26_22 
REMARK    6  A    between atoms: C26_22  and  C27_23 
ROOT
ATOM      1  C5  ZIN A   1      17.399  -0.397  12.817  0.00  0.00     0.125 C 
ATOM      2  C7  ZIN A   1      17.445   0.773  13.813  0.00  0.00     0.203 C 
ATOM      3  C9  ZIN A   1      17.404   0.179  15.240  0.00  0.00     0.036 C 
ATOM      4  C10 ZIN A   1      18.882  -0.077  15.604  0.00  0.00     0.035 C 
ATOM      5  C11 ZIN A   1      19.681   0.384  14.362  0.00  0.00     0.189 C 
ATOM      6  C13 ZIN A   1      19.811  -0.817  13.414  0.00  0.00     0.043 C 
ATOM      7  C14 ZIN A   1      18.427  -1.451  13.238  0.00  0.00     0.036 C 
ATOM      8  N23 ZIN A   1      18.791   1.396  13.699  0.00  0.00    -0.062 N 
ATOM      9  H24 ZIN A   1      19.054   1.520  12.733  0.00  0.00     0.280 HD
ENDROOT
BRANCH   7  10
ATOM     10  C16 ZIN A   1      18.502  -2.540  12.198  0.00  0.00    -0.053 A 
ATOM     11  C22 ZIN A   1      19.732  -2.999  11.765  0.00  0.00     0.009 A 
ATOM     12  C21 ZIN A   1      19.802  -4.000  10.816  0.00  0.00     0.019 A 
ATOM     13  C19 ZIN A   1      18.641  -4.536  10.290  0.00  0.00     0.006 A 
ATOM     14  C18 ZIN A   1      17.410  -4.073  10.718  0.00  0.00     0.019 A 
ATOM     15  I20 ZIN A   1      18.746  -6.048   8.844  0.00  0.00    -0.045 I 
ATOM     16  C17 ZIN A   1      17.340  -3.075  11.672  0.00  0.00     0.009 A 
ENDBRANCH   7  10
BRANCH   1  17
ATOM     17  C3  ZIN A   1      17.727   0.105  11.434  0.00  0.00     0.265 C 
ATOM     18  O4  ZIN A   1      16.848   0.237  10.615  0.00  0.00    -0.265 OA
BRANCH  17  19
ATOM     19  O2  ZIN A   1      18.995   0.404  11.112  0.00  0.00    -0.326 OA
ATOM     20  C1  ZIN A   1      19.193   1.406  10.078  0.00  0.00     0.213 C 
ENDBRANCH  17  19
ENDBRANCH   1  17
BRANCH   8  21
ATOM     21  C25 ZIN A   1      18.837   2.676  14.417  0.00  0.00     0.238 C 
BRANCH  21  22
ATOM     22  C26 ZIN A   1      18.104   3.744  13.603  0.00  0.00     0.059 C 
BRANCH  22  23
ATOM     23  C27 ZIN A   1      19.084   4.413  12.638  0.00  0.00     0.223 C 
ATOM     24  F28 ZIN A   1      18.438   4.678  11.426  0.00  0.00    -0.255 F 
ENDBRANCH  22  23
ENDBRANCH  21  22
ENDBRANCH   8  21
TORSDOF 6
ENDMDL
