MODEL 1
REMARK VINA RESULT:      -8.7      0.000      0.000
REMARK  10 active torsions:
REMARK  status: ('A' for Active; 'I' for Inactive)
REMARK    1  A    between atoms: O2_2  and  C3_3 
REMARK    2  A    between atoms: C6_6  and  C7_7 
REMARK    3  A    between atoms: C7_7  and  N8_8 
REMARK    4  A    between atoms: N8_8  and  C9_9 
REMARK    5  A    between atoms: C11_11  and  N12_12 
REMARK    6  A    between atoms: C16_16  and  C18_17 
REMARK    7  A    between atoms: C18_17  and  O19_18 
REMARK    8  A    between atoms: C22_21  and  C23_22 
REMARK       I    between atoms: C23_22  and  N25_24 
REMARK    9  A    between atoms: N25_24  and  C26_25 
REMARK   10  A    between atoms: C26_25  and  C27_26 
ROOT
ATOM      1  C9  ZIN A   1      19.449  -1.918  11.077  0.00  0.00     0.144 A 
ATOM      2  N10 ZIN A   1      19.037  -3.001  10.432  0.00  0.00    -0.200 NA
ATOM      3  C11 ZIN A   1      18.839  -2.977   9.122  0.00  0.00     0.206 A 
ATOM      4  N20 ZIN A   1      19.040  -1.881   8.400  0.00  0.00    -0.230 NA
ATOM      5  C21 ZIN A   1      19.451  -0.759   8.963  0.00  0.00     0.141 A 
ATOM      6  C22 ZIN A   1      19.669  -0.731  10.344  0.00  0.00     0.095 A 
ENDROOT
BRANCH   1   7
ATOM      7  N8  ZIN A   1      19.654  -1.948  12.440  0.00  0.00    -0.370 N 
ATOM      8  H43 ZIN A   1      20.553  -1.871  12.798  0.00  0.00     0.161 HD
BRANCH   7   9
ATOM      9  C7  ZIN A   1      18.515  -2.097  13.350  0.00  0.00     0.160 C 
BRANCH   9  10
ATOM     10  C6  ZIN A   1      18.487  -0.939  14.314  0.00  0.00    -0.039 A 
ATOM     11  C5  ZIN A   1      18.058   0.303  13.888  0.00  0.00     0.011 A 
ATOM     12  C4  ZIN A   1      18.031   1.367  14.770  0.00  0.00     0.039 A 
ATOM     13  C3  ZIN A   1      18.436   1.187  16.084  0.00  0.00     0.089 A 
ATOM     14  C34 ZIN A   1      18.872  -0.062  16.509  0.00  0.00     0.068 A 
ATOM     15  C33 ZIN A   1      18.891  -1.122  15.624  0.00  0.00     0.035 A 
ATOM     16 Cl35 ZIN A   1      19.379  -0.291  18.153  0.00  0.00    -0.081 Cl
BRANCH  13  17
ATOM     17  O2  ZIN A   1      18.411   2.231  16.953  0.00  0.00    -0.354 OA
ATOM     18  C1  ZIN A   1      19.401   3.246  16.777  0.00  0.00     0.210 C 
ENDBRANCH  13  17
ENDBRANCH   9  10
ENDBRANCH   7   9
ENDBRANCH   1   7
BRANCH   6  19
ATOM     19  C23 ZIN A   1      20.126   0.498  11.013  0.00  0.00     0.257 C 
ATOM     20  O24 ZIN A   1      21.000   0.442  11.857  0.00  0.00    -0.267 OA
ATOM     21  N25 ZIN A   1      19.576   1.685  10.690  0.00  0.00    -0.350 N 
ATOM     22  H54 ZIN A   1      18.879   1.730  10.018  0.00  0.00     0.163 HD
BRANCH  21  23
ATOM     23  C26 ZIN A   1      20.031   2.908  11.357  0.00  0.00     0.203 C 
BRANCH  23  24
ATOM     24  C27 ZIN A   1      18.848   3.801  11.629  0.00  0.00     0.142 A 
ATOM     25  N32 ZIN A   1      17.986   4.036  10.661  0.00  0.00    -0.244 NA
ATOM     26  C31 ZIN A   1      16.932   4.811  10.864  0.00  0.00     0.120 A 
ATOM     27  C30 ZIN A   1      16.749   5.386  12.111  0.00  0.00     0.038 A 
ATOM     28  C29 ZIN A   1      17.681   5.120  13.103  0.00  0.00     0.120 A 
ATOM     29  N28 ZIN A   1      18.707   4.331  12.827  0.00  0.00    -0.244 NA
ENDBRANCH  23  24
ENDBRANCH  21  23
ENDBRANCH   6  19
BRANCH   3  30
ATOM     30  N12 ZIN A   1      18.408  -4.124   8.488  0.00  0.00    -0.245 NA
ATOM     31  C16 ZIN A   1      19.485  -5.147   8.449  0.00  0.00     0.089 C 
ATOM     32  C15 ZIN A   1      18.744  -6.484   8.235  0.00  0.00     0.023 C 
ATOM     33  C14 ZIN A   1      17.316  -6.240   8.765  0.00  0.00     0.017 C 
ATOM     34  C13 ZIN A   1      17.314  -4.776   9.253  0.00  0.00     0.099 C 
BRANCH  31  35
ATOM     35  C18 ZIN A   1      20.440  -4.874   7.284  0.00  0.00     0.184 C 
BRANCH  35  36
ATOM     36  O19 ZIN A   1      21.647  -5.615   7.474  0.00  0.00    -0.399 OA
ATOM     37  H52 ZIN A   1      21.783  -6.317   6.824  0.00  0.00     0.209 HD
ENDBRANCH  35  36
ENDBRANCH  31  35
ENDBRANCH   3  30
TORSDOF 10
ENDMDL
MODEL 2
REMARK VINA RESULT:      -8.6      3.065      9.013
REMARK  10 active torsions:
REMARK  status: ('A' for Active; 'I' for Inactive)
REMARK    1  A    between atoms: O2_2  and  C3_3 
REMARK    2  A    between atoms: C6_6  and  C7_7 
REMARK    3  A    between atoms: C7_7  and  N8_8 
REMARK    4  A    between atoms: N8_8  and  C9_9 
REMARK    5  A    between atoms: C11_11  and  N12_12 
REMARK    6  A    between atoms: C16_16  and  C18_17 
REMARK    7  A    between atoms: C18_17  and  O19_18 
REMARK    8  A    between atoms: C22_21  and  C23_22 
REMARK       I    between atoms: C23_22  and  N25_24 
REMARK    9  A    between atoms: N25_24  and  C26_25 
REMARK   10  A    between atoms: C26_25  and  C27_26 
ROOT
ATOM      1  C9  ZIN A   1      19.401   1.892  11.868  0.00  0.00     0.144 A 
ATOM      2  N10 ZIN A   1      18.930   2.944  12.527  0.00  0.00    -0.200 NA
ATOM      3  C11 ZIN A   1      18.672   2.872  13.824  0.00  0.00     0.206 A 
ATOM      4  N20 ZIN A   1      18.868   1.758  14.521  0.00  0.00    -0.230 NA
ATOM      5  C21 ZIN A   1      19.334   0.666  13.943  0.00  0.00     0.141 A 
ATOM      6  C22 ZIN A   1      19.617   0.688  12.574  0.00  0.00     0.095 A 
ENDROOT
BRANCH   1   7
ATOM      7  N8  ZIN A   1      19.669   1.971  10.518  0.00  0.00    -0.370 N 
ATOM      8  H43 ZIN A   1      20.581   1.894  10.199  0.00  0.00     0.161 HD
BRANCH   7   9
ATOM      9  C7  ZIN A   1      18.574   2.172   9.565  0.00  0.00     0.160 C 
BRANCH   9  10
ATOM     10  C6  ZIN A   1      18.480   0.979   8.649  0.00  0.00    -0.039 A 
ATOM     11  C5  ZIN A   1      17.904  -0.193   9.101  0.00  0.00     0.011 A 
ATOM     12  C4  ZIN A   1      17.816  -1.290   8.264  0.00  0.00     0.039 A 
ATOM     13  C3  ZIN A   1      18.306  -1.213   6.969  0.00  0.00     0.089 A 
ATOM     14  C34 ZIN A   1      18.889  -0.035   6.519  0.00  0.00     0.068 A 
ATOM     15  C33 ZIN A   1      18.969   1.059   7.358  0.00  0.00     0.035 A 
ATOM     16 Cl35 ZIN A   1      19.503   0.064   4.898  0.00  0.00    -0.081 Cl
BRANCH  13  17
ATOM     17  O2  ZIN A   1      18.221  -2.290   6.144  0.00  0.00    -0.354 OA
ATOM     18  C1  ZIN A   1      18.939  -3.463   6.533  0.00  0.00     0.210 C 
ENDBRANCH  13  17
ENDBRANCH   9  10
ENDBRANCH   7   9
ENDBRANCH   1   7
BRANCH   6  19
ATOM     19  C23 ZIN A   1      20.138  -0.507  11.890  0.00  0.00     0.257 C 
ATOM     20  O24 ZIN A   1      21.026  -0.398  11.066  0.00  0.00    -0.267 OA
ATOM     21  N25 ZIN A   1      19.631  -1.722  12.177  0.00  0.00    -0.350 N 
ATOM     22  H54 ZIN A   1      18.922  -1.810  12.833  0.00  0.00     0.163 HD
BRANCH  21  23
ATOM     23  C26 ZIN A   1      20.149  -2.911  11.495  0.00  0.00     0.203 C 
BRANCH  23  24
ATOM     24  C27 ZIN A   1      18.999  -3.789  11.074  0.00  0.00     0.142 A 
ATOM     25  N32 ZIN A   1      17.872  -3.740  11.755  0.00  0.00    -0.244 NA
ATOM     26  C31 ZIN A   1      16.838  -4.493  11.412  0.00  0.00     0.120 A 
ATOM     27  C30 ZIN A   1      16.957  -5.347  10.328  0.00  0.00     0.038 A 
ATOM     28  C29 ZIN A   1      18.161  -5.375   9.639  0.00  0.00     0.120 A 
ATOM     29  N28 ZIN A   1      19.149  -4.590  10.038  0.00  0.00    -0.244 NA
ENDBRANCH  23  24
ENDBRANCH  21  23
ENDBRANCH   6  19
BRANCH   3  30
ATOM     30  N12 ZIN A   1      18.182   3.987  14.472  0.00  0.00    -0.245 NA
ATOM     31  C16 ZIN A   1      19.289   4.858  14.945  0.00  0.00     0.089 C 
ATOM     32  C15 ZIN A   1      18.639   6.245  15.135  0.00  0.00     0.023 C 
ATOM     33  C14 ZIN A   1      17.405   6.240  14.209  0.00  0.00     0.017 C 
ATOM     34  C13 ZIN A   1      17.413   4.850  13.538  0.00  0.00     0.099 C 
BRANCH  31  35
ATOM     35  C18 ZIN A   1      19.845   4.342  16.274  0.00  0.00     0.184 C 
BRANCH  35  36
ATOM     36  O19 ZIN A   1      21.268   4.461  16.274  0.00  0.00    -0.399 OA
ATOM     37  H52 ZIN A   1      21.725   3.722  16.699  0.00  0.00     0.209 HD
ENDBRANCH  35  36
ENDBRANCH  31  35
ENDBRANCH   3  30
TORSDOF 10
ENDMDL
MODEL 3
REMARK VINA RESULT:      -8.5      2.846      4.858
REMARK  10 active torsions:
REMARK  status: ('A' for Active; 'I' for Inactive)
REMARK    1  A    between atoms: O2_2  and  C3_3 
REMARK    2  A    between atoms: C6_6  and  C7_7 
REMARK    3  A    between atoms: C7_7  and  N8_8 
REMARK    4  A    between atoms: N8_8  and  C9_9 
REMARK    5  A    between atoms: C11_11  and  N12_12 
REMARK    6  A    between atoms: C16_16  and  C18_17 
REMARK    7  A    between atoms: C18_17  and  O19_18 
REMARK    8  A    between atoms: C22_21  and  C23_22 
REMARK       I    between atoms: C23_22  and  N25_24 
REMARK    9  A    between atoms: N25_24  and  C26_25 
REMARK   10  A    between atoms: C26_25  and  C27_26 
ROOT
ATOM      1  C9  ZIN A   1      19.528  -0.271   8.823  0.00  0.00     0.144 A 
ATOM      2  N10 ZIN A   1      19.042  -0.809   7.712  0.00  0.00    -0.200 NA
ATOM      3  C11 ZIN A   1      18.678  -2.083   7.677  0.00  0.00     0.206 A 
ATOM      4  N20 ZIN A   1      18.781  -2.874   8.739  0.00  0.00    -0.230 NA
ATOM      5  C21 ZIN A   1      19.254  -2.419   9.885  0.00  0.00     0.141 A 
ATOM      6  C22 ZIN A   1      19.657  -1.083   9.972  0.00  0.00     0.095 A 
ENDROOT
BRANCH   1   7
ATOM      7  N8  ZIN A   1      19.905   1.054   8.855  0.00  0.00    -0.370 N 
ATOM      8  H43 ZIN A   1      20.841   1.291   8.949  0.00  0.00     0.161 HD
BRANCH   7   9
ATOM      9  C7  ZIN A   1      18.892   2.107   8.746  0.00  0.00     0.160 C 
BRANCH   9  10
ATOM     10  C6  ZIN A   1      18.842   2.893  10.032  0.00  0.00    -0.039 A 
ATOM     11  C5  ZIN A   1      19.932   2.894  10.881  0.00  0.00     0.011 A 
ATOM     12  C4  ZIN A   1      19.890   3.613  12.061  0.00  0.00     0.039 A 
ATOM     13  C3  ZIN A   1      18.752   4.333  12.392  0.00  0.00     0.089 A 
ATOM     14  C34 ZIN A   1      17.656   4.325  11.540  0.00  0.00     0.068 A 
ATOM     15  C33 ZIN A   1      17.706   3.610  10.359  0.00  0.00     0.035 A 
ATOM     16 Cl35 ZIN A   1      16.230   5.226  11.951  0.00  0.00    -0.081 Cl
BRANCH  13  17
ATOM     17  O2  ZIN A   1      18.708   5.041  13.552  0.00  0.00    -0.354 OA
ATOM     18  C1  ZIN A   1      18.311   4.333  14.729  0.00  0.00     0.210 C 
ENDBRANCH  13  17
ENDBRANCH   9  10
ENDBRANCH   7   9
ENDBRANCH   1   7
BRANCH   6  19
ATOM     19  C23 ZIN A   1      20.191  -0.534  11.230  0.00  0.00     0.257 C 
ATOM     20  O24 ZIN A   1      21.370  -0.249  11.318  0.00  0.00    -0.267 OA
ATOM     21  N25 ZIN A   1      19.372  -0.347  12.284  0.00  0.00    -0.350 N 
ATOM     22  H54 ZIN A   1      18.432  -0.575  12.215  0.00  0.00     0.163 HD
BRANCH  21  23
ATOM     23  C26 ZIN A   1      19.904   0.198  13.536  0.00  0.00     0.203 C 
BRANCH  23  24
ATOM     24  C27 ZIN A   1      19.007  -0.203  14.678  0.00  0.00     0.142 A 
ATOM     25  N32 ZIN A   1      17.997   0.578  15.005  0.00  0.00    -0.244 NA
ATOM     26  C31 ZIN A   1      17.184   0.257  16.000  0.00  0.00     0.120 A 
ATOM     27  C30 ZIN A   1      17.415  -0.913  16.707  0.00  0.00     0.038 A 
ATOM     28  C29 ZIN A   1      18.491  -1.706  16.337  0.00  0.00     0.120 A 
ATOM     29  N28 ZIN A   1      19.257  -1.322  15.328  0.00  0.00    -0.244 NA
ENDBRANCH  23  24
ENDBRANCH  21  23
ENDBRANCH   6  19
BRANCH   3  30
ATOM     30  N12 ZIN A   1      18.178  -2.604   6.502  0.00  0.00    -0.245 NA
ATOM     31  C16 ZIN A   1      19.089  -2.322   5.363  0.00  0.00     0.089 C 
ATOM     32  C15 ZIN A   1      18.717  -3.374   4.297  0.00  0.00     0.023 C 
ATOM     33  C14 ZIN A   1      18.078  -4.535   5.085  0.00  0.00     0.017 C 
ATOM     34  C13 ZIN A   1      18.118  -4.088   6.562  0.00  0.00     0.099 C 
BRANCH  31  35
ATOM     35  C18 ZIN A   1      18.852  -0.909   4.826  0.00  0.00     0.184 C 
BRANCH  35  36
ATOM     36  O19 ZIN A   1      20.103  -0.229   4.706  0.00  0.00    -0.399 OA
ATOM     37  H52 ZIN A   1      20.314   0.342   5.457  0.00  0.00     0.209 HD
ENDBRANCH  35  36
ENDBRANCH  31  35
ENDBRANCH   3  30
TORSDOF 10
ENDMDL
MODEL 4
REMARK VINA RESULT:      -8.4      2.965      5.964
REMARK  10 active torsions:
REMARK  status: ('A' for Active; 'I' for Inactive)
REMARK    1  A    between atoms: O2_2  and  C3_3 
REMARK    2  A    between atoms: C6_6  and  C7_7 
REMARK    3  A    between atoms: C7_7  and  N8_8 
REMARK    4  A    between atoms: N8_8  and  C9_9 
REMARK    5  A    between atoms: C11_11  and  N12_12 
REMARK    6  A    between atoms: C16_16  and  C18_17 
REMARK    7  A    between atoms: C18_17  and  O19_18 
REMARK    8  A    between atoms: C22_21  and  C23_22 
REMARK       I    between atoms: C23_22  and  N25_24 
REMARK    9  A    between atoms: N25_24  and  C26_25 
REMARK   10  A    between atoms: C26_25  and  C27_26 
ROOT
ATOM      1  C9  ZIN A   1      18.975   0.617  11.448  0.00  0.00     0.144 A 
ATOM      2  N10 ZIN A   1      19.128   0.134  10.222  0.00  0.00    -0.200 NA
ATOM      3  C11 ZIN A   1      18.977   0.913   9.161  0.00  0.00     0.206 A 
ATOM      4  N20 ZIN A   1      18.669   2.200   9.272  0.00  0.00    -0.230 NA
ATOM      5  C21 ZIN A   1      18.500   2.762  10.455  0.00  0.00     0.141 A 
ATOM      6  C22 ZIN A   1      18.642   1.981  11.605  0.00  0.00     0.095 A 
ENDROOT
BRANCH   1   7
ATOM      7  N8  ZIN A   1      19.132  -0.198  12.549  0.00  0.00    -0.370 N 
ATOM      8  H43 ZIN A   1      19.914  -0.103  13.115  0.00  0.00     0.161 HD
BRANCH   7   9
ATOM      9  C7  ZIN A   1      18.119  -1.208  12.864  0.00  0.00     0.160 C 
BRANCH   9  10
ATOM     10  C6  ZIN A   1      18.398  -2.463  12.078  0.00  0.00    -0.039 A 
ATOM     11  C5  ZIN A   1      19.696  -2.918  11.943  0.00  0.00     0.011 A 
ATOM     12  C4  ZIN A   1      19.956  -4.068  11.223  0.00  0.00     0.039 A 
ATOM     13  C3  ZIN A   1      18.912  -4.767  10.635  0.00  0.00     0.089 A 
ATOM     14  C34 ZIN A   1      17.609  -4.305  10.767  0.00  0.00     0.068 A 
ATOM     15  C33 ZIN A   1      17.355  -3.158  11.493  0.00  0.00     0.035 A 
ATOM     16 Cl35 ZIN A   1      16.300  -5.177  10.032  0.00  0.00    -0.081 Cl
BRANCH  13  17
ATOM     17  O2  ZIN A   1      19.165  -5.899   9.925  0.00  0.00    -0.354 OA
ATOM     18  C1  ZIN A   1      19.984  -5.765   8.761  0.00  0.00     0.210 C 
ENDBRANCH  13  17
ENDBRANCH   9  10
ENDBRANCH   7   9
ENDBRANCH   1   7
BRANCH   6  19
ATOM     19  C23 ZIN A   1      18.461   2.566  12.944  0.00  0.00     0.257 C 
ATOM     20  O24 ZIN A   1      17.474   3.233  13.189  0.00  0.00    -0.267 OA
ATOM     21  N25 ZIN A   1      19.391   2.362  13.899  0.00  0.00    -0.350 N 
ATOM     22  H54 ZIN A   1      20.178   1.830  13.705  0.00  0.00     0.163 HD
BRANCH  21  23
ATOM     23  C26 ZIN A   1      19.211   2.944  15.231  0.00  0.00     0.203 C 
BRANCH  23  24
ATOM     24  C27 ZIN A   1      19.156   1.842  16.258  0.00  0.00     0.142 A 
ATOM     25  N32 ZIN A   1      18.923   0.607  15.861  0.00  0.00    -0.244 NA
ATOM     26  C31 ZIN A   1      18.872  -0.388  16.733  0.00  0.00     0.120 A 
ATOM     27  C30 ZIN A   1      19.057  -0.114  18.078  0.00  0.00     0.038 A 
ATOM     28  C29 ZIN A   1      19.294   1.198  18.458  0.00  0.00     0.120 A 
ATOM     29  N28 ZIN A   1      19.335   2.140  17.529  0.00  0.00    -0.244 NA
ENDBRANCH  23  24
ENDBRANCH  21  23
ENDBRANCH   6  19
BRANCH   3  30
ATOM     30  N12 ZIN A   1      19.143   0.372   7.904  0.00  0.00    -0.245 NA
ATOM     31  C16 ZIN A   1      18.023  -0.542   7.564  0.00  0.00     0.089 C 
ATOM     32  C15 ZIN A   1      18.043  -0.628   6.023  0.00  0.00     0.023 C 
ATOM     33  C14 ZIN A   1      18.741   0.667   5.559  0.00  0.00     0.017 C 
ATOM     34  C13 ZIN A   1      19.083   1.426   6.858  0.00  0.00     0.099 C 
BRANCH  31  35
ATOM     35  C18 ZIN A   1      18.254  -1.924   8.179  0.00  0.00     0.184 C 
BRANCH  35  36
ATOM     36  O19 ZIN A   1      19.653  -2.214   8.188  0.00  0.00    -0.399 OA
ATOM     37  H52 ZIN A   1      20.168  -1.647   8.779  0.00  0.00     0.209 HD
ENDBRANCH  35  36
ENDBRANCH  31  35
ENDBRANCH   3  30
TORSDOF 10
ENDMDL
MODEL 5
REMARK VINA RESULT:      -8.4      3.054      5.857
REMARK  10 active torsions:
REMARK  status: ('A' for Active; 'I' for Inactive)
REMARK    1  A    between atoms: O2_2  and  C3_3 
REMARK    2  A    between atoms: C6_6  and  C7_7 
REMARK    3  A    between atoms: C7_7  and  N8_8 
REMARK    4  A    between atoms: N8_8  and  C9_9 
REMARK    5  A    between atoms: C11_11  and  N12_12 
REMARK    6  A    between atoms: C16_16  and  C18_17 
REMARK    7  A    between atoms: C18_17  and  O19_18 
REMARK    8  A    between atoms: C22_21  and  C23_22 
REMARK       I    between atoms: C23_22  and  N25_24 
REMARK    9  A    between atoms: N25_24  and  C26_25 
REMARK   10  A    between atoms: C26_25  and  C27_26 
ROOT
ATOM      1  C9  ZIN A   1      19.889  -0.541  10.013  0.00  0.00     0.144 A 
ATOM      2  N10 ZIN A   1      19.849  -0.986   8.764  0.00  0.00    -0.200 NA
ATOM      3  C11 ZIN A   1      19.256  -0.282   7.811  0.00  0.00     0.206 A 
ATOM      4  N20 ZIN A   1      18.679   0.889   8.056  0.00  0.00    -0.230 NA
ATOM      5  C21 ZIN A   1      18.673   1.405   9.271  0.00  0.00     0.141 A 
ATOM      6  C22 ZIN A   1      19.281   0.698  10.313  0.00  0.00     0.095 A 
ENDROOT
BRANCH   1   7
ATOM      7  N8  ZIN A   1      20.508  -1.276  11.001  0.00  0.00    -0.370 N 
ATOM      8  H43 ZIN A   1      21.476  -1.339  11.026  0.00  0.00     0.161 HD
BRANCH   7   9
ATOM      9  C7  ZIN A   1      19.704  -1.963  12.015  0.00  0.00     0.160 C 
BRANCH   9  10
ATOM     10  C6  ZIN A   1      18.987  -3.130  11.384  0.00  0.00    -0.039 A 
ATOM     11  C5  ZIN A   1      17.633  -3.304  11.598  0.00  0.00     0.011 A 
ATOM     12  C4  ZIN A   1      16.974  -4.373  11.021  0.00  0.00     0.039 A 
ATOM     13  C3  ZIN A   1      17.672  -5.271  10.228  0.00  0.00     0.089 A 
ATOM     14  C34 ZIN A   1      19.034  -5.096  10.020  0.00  0.00     0.068 A 
ATOM     15  C33 ZIN A   1      19.687  -4.023  10.594  0.00  0.00     0.035 A 
ATOM     16 Cl35 ZIN A   1      19.911  -6.218   9.027  0.00  0.00    -0.081 Cl
BRANCH  13  17
ATOM     17  O2  ZIN A   1      17.025  -6.323   9.659  0.00  0.00    -0.354 OA
ATOM     18  C1  ZIN A   1      16.247  -6.052   8.492  0.00  0.00     0.210 C 
ENDBRANCH  13  17
ENDBRANCH   9  10
ENDBRANCH   7   9
ENDBRANCH   1   7
BRANCH   6  19
ATOM     19  C23 ZIN A   1      19.298   1.236  11.684  0.00  0.00     0.257 C 
ATOM     20  O24 ZIN A   1      20.320   1.716  12.137  0.00  0.00    -0.267 OA
ATOM     21  N25 ZIN A   1      18.181   1.197  12.437  0.00  0.00    -0.350 N 
ATOM     22  H54 ZIN A   1      17.366   0.814  12.076  0.00  0.00     0.163 HD
BRANCH  21  23
ATOM     23  C26 ZIN A   1      18.198   1.731  13.800  0.00  0.00     0.203 C 
BRANCH  23  24
ATOM     24  C27 ZIN A   1      18.187   0.592  14.786  0.00  0.00     0.142 A 
ATOM     25  N32 ZIN A   1      19.194  -0.258  14.794  0.00  0.00    -0.244 NA
ATOM     26  C31 ZIN A   1      19.222  -1.269  15.650  0.00  0.00     0.120 A 
ATOM     27  C30 ZIN A   1      18.169  -1.431  16.535  0.00  0.00     0.038 A 
ATOM     28  C29 ZIN A   1      17.125  -0.520  16.493  0.00  0.00     0.120 A 
ATOM     29  N28 ZIN A   1      17.168   0.468  15.614  0.00  0.00    -0.244 NA
ENDBRANCH  23  24
ENDBRANCH  21  23
ENDBRANCH   6  19
BRANCH   3  30
ATOM     30  N12 ZIN A   1      19.235  -0.780   6.525  0.00  0.00    -0.245 NA
ATOM     31  C16 ZIN A   1      18.209  -1.845   6.382  0.00  0.00     0.089 C 
ATOM     32  C15 ZIN A   1      17.925  -1.912   4.866  0.00  0.00     0.023 C 
ATOM     33  C14 ZIN A   1      18.322  -0.524   4.323  0.00  0.00     0.017 C 
ATOM     34  C13 ZIN A   1      18.814   0.264   5.556  0.00  0.00     0.099 C 
BRANCH  31  35
ATOM     35  C18 ZIN A   1      18.755  -3.185   6.882  0.00  0.00     0.184 C 
BRANCH  35  36
ATOM     36  O19 ZIN A   1      20.158  -3.253   6.625  0.00  0.00    -0.399 OA
ATOM     37  H52 ZIN A   1      20.701  -2.790   7.278  0.00  0.00     0.209 HD
ENDBRANCH  35  36
ENDBRANCH  31  35
ENDBRANCH   3  30
TORSDOF 10
ENDMDL
MODEL 6
REMARK VINA RESULT:      -8.4      2.570      8.186
REMARK  10 active torsions:
REMARK  status: ('A' for Active; 'I' for Inactive)
REMARK    1  A    between atoms: O2_2  and  C3_3 
REMARK    2  A    between atoms: C6_6  and  C7_7 
REMARK    3  A    between atoms: C7_7  and  N8_8 
REMARK    4  A    between atoms: N8_8  and  C9_9 
REMARK    5  A    between atoms: C11_11  and  N12_12 
REMARK    6  A    between atoms: C16_16  and  C18_17 
REMARK    7  A    between atoms: C18_17  and  O19_18 
REMARK    8  A    between atoms: C22_21  and  C23_22 
REMARK       I    between atoms: C23_22  and  N25_24 
REMARK    9  A    between atoms: N25_24  and  C26_25 
REMARK   10  A    between atoms: C26_25  and  C27_26 
ROOT
ATOM      1  C9  ZIN A   1      19.088   2.005  13.899  0.00  0.00     0.144 A 
ATOM      2  N10 ZIN A   1      18.512   2.962  14.615  0.00  0.00    -0.200 NA
ATOM      3  C11 ZIN A   1      18.297   4.162  14.096  0.00  0.00     0.206 A 
ATOM      4  N20 ZIN A   1      18.643   4.463  12.850  0.00  0.00    -0.230 NA
ATOM      5  C21 ZIN A   1      19.221   3.569  12.068  0.00  0.00     0.141 A 
ATOM      6  C22 ZIN A   1      19.475   2.289  12.571  0.00  0.00     0.095 A 
ENDROOT
BRANCH   1   7
ATOM      7  N8  ZIN A   1      19.309   0.758  14.442  0.00  0.00    -0.370 N 
ATOM      8  H43 ZIN A   1      20.191   0.521  14.771  0.00  0.00     0.161 HD
BRANCH   7   9
ATOM      9  C7  ZIN A   1      18.213  -0.211  14.525  0.00  0.00     0.160 C 
BRANCH   9  10
ATOM     10  C6  ZIN A   1      18.205  -1.068  13.285  0.00  0.00    -0.039 A 
ATOM     11  C5  ZIN A   1      17.224  -0.888  12.329  0.00  0.00     0.011 A 
ATOM     12  C4  ZIN A   1      17.214  -1.673  11.191  0.00  0.00     0.039 A 
ATOM     13  C3  ZIN A   1      18.189  -2.643  11.010  0.00  0.00     0.089 A 
ATOM     14  C34 ZIN A   1      19.170  -2.826  11.976  0.00  0.00     0.068 A 
ATOM     15  C33 ZIN A   1      19.179  -2.034  13.108  0.00  0.00     0.035 A 
ATOM     16 Cl35 ZIN A   1      20.392  -4.038  11.753  0.00  0.00    -0.081 Cl
BRANCH  13  17
ATOM     17  O2  ZIN A   1      18.180  -3.416   9.892  0.00  0.00    -0.354 OA
ATOM     18  C1  ZIN A   1      17.190  -4.444   9.822  0.00  0.00     0.210 C 
ENDBRANCH  13  17
ENDBRANCH   9  10
ENDBRANCH   7   9
ENDBRANCH   1   7
BRANCH   6  19
ATOM     19  C23 ZIN A   1      20.118   1.262  11.734  0.00  0.00     0.257 C 
ATOM     20  O24 ZIN A   1      21.099   0.671  12.143  0.00  0.00    -0.267 OA
ATOM     21  N25 ZIN A   1      19.619   0.978  10.514  0.00  0.00    -0.350 N 
ATOM     22  H54 ZIN A   1      18.838   1.450  10.188  0.00  0.00     0.163 HD
BRANCH  21  23
ATOM     23  C26 ZIN A   1      20.259  -0.044   9.682  0.00  0.00     0.203 C 
BRANCH  23  24
ATOM     24  C27 ZIN A   1      19.618  -0.054   8.319  0.00  0.00     0.142 A 
ATOM     25  N32 ZIN A   1      19.280   1.090   7.760  0.00  0.00    -0.244 NA
ATOM     26  C31 ZIN A   1      18.719   1.121   6.561  0.00  0.00     0.120 A 
ATOM     27  C30 ZIN A   1      18.478  -0.073   5.900  0.00  0.00     0.038 A 
ATOM     28  C29 ZIN A   1      18.842  -1.257   6.522  0.00  0.00     0.120 A 
ATOM     29  N28 ZIN A   1      19.403  -1.209   7.720  0.00  0.00    -0.244 NA
ENDBRANCH  23  24
ENDBRANCH  21  23
ENDBRANCH   6  19
BRANCH   3  30
ATOM     30  N12 ZIN A   1      17.696   5.130  14.874  0.00  0.00    -0.245 NA
ATOM     31  C16 ZIN A   1      18.545   6.346  14.963  0.00  0.00     0.089 C 
ATOM     32  C15 ZIN A   1      17.570   7.474  15.363  0.00  0.00     0.023 C 
ATOM     33  C14 ZIN A   1      16.183   6.989  14.893  0.00  0.00     0.017 C 
ATOM     34  C13 ZIN A   1      16.437   5.609  14.249  0.00  0.00     0.099 C 
BRANCH  31  35
ATOM     35  C18 ZIN A   1      19.625   6.169  16.033  0.00  0.00     0.184 C 
BRANCH  35  36
ATOM     36  O19 ZIN A   1      19.055   6.385  17.325  0.00  0.00    -0.399 OA
ATOM     37  H52 ZIN A   1      19.608   6.075  18.055  0.00  0.00     0.209 HD
ENDBRANCH  35  36
ENDBRANCH  31  35
ENDBRANCH   3  30
TORSDOF 10
ENDMDL
MODEL 7
REMARK VINA RESULT:      -8.3      2.642      4.985
REMARK  10 active torsions:
REMARK  status: ('A' for Active; 'I' for Inactive)
REMARK    1  A    between atoms: O2_2  and  C3_3 
REMARK    2  A    between atoms: C6_6  and  C7_7 
REMARK    3  A    between atoms: C7_7  and  N8_8 
REMARK    4  A    between atoms: N8_8  and  C9_9 
REMARK    5  A    between atoms: C11_11  and  N12_12 
REMARK    6  A    between atoms: C16_16  and  C18_17 
REMARK    7  A    between atoms: C18_17  and  O19_18 
REMARK    8  A    between atoms: C22_21  and  C23_22 
REMARK       I    between atoms: C23_22  and  N25_24 
REMARK    9  A    between atoms: N25_24  and  C26_25 
REMARK   10  A    between atoms: C26_25  and  C27_26 
ROOT
ATOM      1  C9  ZIN A   1      18.125   0.490   9.160  0.00  0.00     0.144 A 
ATOM      2  N10 ZIN A   1      18.615  -0.014   8.034  0.00  0.00    -0.200 NA
ATOM      3  C11 ZIN A   1      18.785  -1.321   7.893  0.00  0.00     0.206 A 
ATOM      4  N20 ZIN A   1      18.479  -2.179   8.860  0.00  0.00    -0.230 NA
ATOM      5  C21 ZIN A   1      17.986  -1.761  10.012  0.00  0.00     0.141 A 
ATOM      6  C22 ZIN A   1      17.793  -0.391  10.212  0.00  0.00     0.095 A 
ENDROOT
BRANCH   1   7
ATOM      7  N8  ZIN A   1      17.950   1.850   9.302  0.00  0.00    -0.370 N 
ATOM      8  H43 ZIN A   1      17.102   2.257   9.065  0.00  0.00     0.161 HD
BRANCH   7   9
ATOM      9  C7  ZIN A   1      19.044   2.681   9.811  0.00  0.00     0.160 C 
BRANCH   9  10
ATOM     10  C6  ZIN A   1      18.520   3.600  10.885  0.00  0.00    -0.039 A 
ATOM     11  C5  ZIN A   1      17.216   4.053  10.829  0.00  0.00     0.011 A 
ATOM     12  C4  ZIN A   1      16.733   4.896  11.812  0.00  0.00     0.039 A 
ATOM     13  C3  ZIN A   1      17.559   5.287  12.856  0.00  0.00     0.089 A 
ATOM     14  C34 ZIN A   1      18.871   4.835  12.906  0.00  0.00     0.068 A 
ATOM     15  C33 ZIN A   1      19.346   3.988  11.925  0.00  0.00     0.035 A 
ATOM     16 Cl35 ZIN A   1      19.907   5.323  14.211  0.00  0.00    -0.081 Cl
BRANCH  13  17
ATOM     17  O2  ZIN A   1      17.086   6.116  13.824  0.00  0.00    -0.354 OA
ATOM     18  C1  ZIN A   1      15.712   5.968  14.190  0.00  0.00     0.210 C 
ENDBRANCH  13  17
ENDBRANCH   9  10
ENDBRANCH   7   9
ENDBRANCH   1   7
BRANCH   6  19
ATOM     19  C23 ZIN A   1      17.247   0.118  11.481  0.00  0.00     0.257 C 
ATOM     20  O24 ZIN A   1      16.043   0.171  11.648  0.00  0.00    -0.267 OA
ATOM     21  N25 ZIN A   1      18.081   0.526  12.458  0.00  0.00    -0.350 N 
ATOM     22  H54 ZIN A   1      19.041   0.485  12.325  0.00  0.00     0.163 HD
BRANCH  21  23
ATOM     23  C26 ZIN A   1      17.538   1.033  13.720  0.00  0.00     0.203 C 
BRANCH  23  24
ATOM     24  C27 ZIN A   1      17.897   0.088  14.837  0.00  0.00     0.142 A 
ATOM     25  N32 ZIN A   1      18.991  -0.639  14.735  0.00  0.00    -0.244 NA
ATOM     26  C31 ZIN A   1      19.342  -1.477  15.699  0.00  0.00     0.120 A 
ATOM     27  C30 ZIN A   1      18.534  -1.591  16.819  0.00  0.00     0.038 A 
ATOM     28  C29 ZIN A   1      17.388  -0.814  16.888  0.00  0.00     0.120 A 
ATOM     29  N28 ZIN A   1      17.105   0.005  15.888  0.00  0.00    -0.244 NA
ENDBRANCH  23  24
ENDBRANCH  21  23
ENDBRANCH   6  19
BRANCH   3  30
ATOM     30  N12 ZIN A   1      19.297  -1.805   6.708  0.00  0.00    -0.245 NA
ATOM     31  C16 ZIN A   1      18.791  -3.173   6.427  0.00  0.00     0.089 C 
ATOM     32  C15 ZIN A   1      18.981  -3.354   4.906  0.00  0.00     0.023 C 
ATOM     33  C14 ZIN A   1      19.002  -1.923   4.332  0.00  0.00     0.017 C 
ATOM     34  C13 ZIN A   1      18.823  -0.997   5.554  0.00  0.00     0.099 C 
BRANCH  31  35
ATOM     35  C18 ZIN A   1      19.610  -4.214   7.195  0.00  0.00     0.184 C 
BRANCH  35  36
ATOM     36  O19 ZIN A   1      20.980  -4.127   6.802  0.00  0.00    -0.399 OA
ATOM     37  H52 ZIN A   1      21.315  -3.222   6.743  0.00  0.00     0.209 HD
ENDBRANCH  35  36
ENDBRANCH  31  35
ENDBRANCH   3  30
TORSDOF 10
ENDMDL
MODEL 8
REMARK VINA RESULT:      -8.2      2.778      6.871
REMARK  10 active torsions:
REMARK  status: ('A' for Active; 'I' for Inactive)
REMARK    1  A    between atoms: O2_2  and  C3_3 
REMARK    2  A    between atoms: C6_6  and  C7_7 
REMARK    3  A    between atoms: C7_7  and  N8_8 
REMARK    4  A    between atoms: N8_8  and  C9_9 
REMARK    5  A    between atoms: C11_11  and  N12_12 
REMARK    6  A    between atoms: C16_16  and  C18_17 
REMARK    7  A    between atoms: C18_17  and  O19_18 
REMARK    8  A    between atoms: C22_21  and  C23_22 
REMARK       I    between atoms: C23_22  and  N25_24 
REMARK    9  A    between atoms: N25_24  and  C26_25 
REMARK   10  A    between atoms: C26_25  and  C27_26 
ROOT
ATOM      1  C9  ZIN A   1      18.105  -0.592  11.583  0.00  0.00     0.144 A 
ATOM      2  N10 ZIN A   1      18.269  -0.140  12.819  0.00  0.00    -0.200 NA
ATOM      3  C11 ZIN A   1      18.912  -0.860  13.726  0.00  0.00     0.206 A 
ATOM      4  N20 ZIN A   1      19.418  -2.056  13.446  0.00  0.00    -0.230 NA
ATOM      5  C21 ZIN A   1      19.300  -2.580  12.239  0.00  0.00     0.141 A 
ATOM      6  C22 ZIN A   1      18.625  -1.862  11.248  0.00  0.00     0.095 A 
ENDROOT
BRANCH   1   7
ATOM      7  N8  ZIN A   1      17.435   0.161  10.642  0.00  0.00    -0.370 N 
ATOM      8  H43 ZIN A   1      16.489   0.016  10.488  0.00  0.00     0.161 HD
BRANCH   7   9
ATOM      9  C7  ZIN A   1      18.153   1.183   9.875  0.00  0.00     0.160 C 
BRANCH   9  10
ATOM     10  C6  ZIN A   1      18.390   2.391  10.745  0.00  0.00    -0.039 A 
ATOM     11  C5  ZIN A   1      19.669   2.695  11.169  0.00  0.00     0.011 A 
ATOM     12  C4  ZIN A   1      19.890   3.801  11.967  0.00  0.00     0.039 A 
ATOM     13  C3  ZIN A   1      18.826   4.608  12.342  0.00  0.00     0.089 A 
ATOM     14  C34 ZIN A   1      17.540   4.297  11.918  0.00  0.00     0.068 A 
ATOM     15  C33 ZIN A   1      17.327   3.194  11.116  0.00  0.00     0.035 A 
ATOM     16 Cl35 ZIN A   1      16.206   5.305  12.385  0.00  0.00    -0.081 Cl
BRANCH  13  17
ATOM     17  O2  ZIN A   1      19.041   5.697  13.126  0.00  0.00    -0.354 OA
ATOM     18  C1  ZIN A   1      20.111   5.615  14.070  0.00  0.00     0.210 C 
ENDBRANCH  13  17
ENDBRANCH   9  10
ENDBRANCH   7   9
ENDBRANCH   1   7
BRANCH   6  19
ATOM     19  C23 ZIN A   1      18.470  -2.409   9.890  0.00  0.00     0.257 C 
ATOM     20  O24 ZIN A   1      17.430  -2.951   9.568  0.00  0.00    -0.267 OA
ATOM     21  N25 ZIN A   1      19.481  -2.309   9.004  0.00  0.00    -0.350 N 
ATOM     22  H54 ZIN A   1      20.310  -1.877   9.261  0.00  0.00     0.163 HD
BRANCH  21  23
ATOM     23  C26 ZIN A   1      19.327  -2.854   7.653  0.00  0.00     0.203 C 
BRANCH  23  24
ATOM     24  C27 ZIN A   1      19.250  -1.722   6.662  0.00  0.00     0.142 A 
ATOM     25  N32 ZIN A   1      19.063  -0.495   7.103  0.00  0.00    -0.244 NA
ATOM     26  C31 ZIN A   1      18.996   0.526   6.262  0.00  0.00     0.120 A 
ATOM     27  C30 ZIN A   1      19.114   0.287   4.902  0.00  0.00     0.038 A 
ATOM     28  C29 ZIN A   1      19.304  -1.018   4.476  0.00  0.00     0.120 A 
ATOM     29  N28 ZIN A   1      19.366  -1.987   5.375  0.00  0.00    -0.244 NA
ENDBRANCH  23  24
ENDBRANCH  21  23
ENDBRANCH   6  19
BRANCH   3  30
ATOM     30  N12 ZIN A   1      19.060  -0.355  15.001  0.00  0.00    -0.245 NA
ATOM     31  C16 ZIN A   1      17.938   0.555  15.347  0.00  0.00     0.089 C 
ATOM     32  C15 ZIN A   1      17.934   0.598  16.890  0.00  0.00     0.023 C 
ATOM     33  C14 ZIN A   1      18.618  -0.713  17.329  0.00  0.00     0.017 C 
ATOM     34  C13 ZIN A   1      18.978  -1.437  16.015  0.00  0.00     0.099 C 
BRANCH  31  35
ATOM     35  C18 ZIN A   1      18.186   1.953  14.775  0.00  0.00     0.184 C 
BRANCH  35  36
ATOM     36  O19 ZIN A   1      19.493   2.395  15.146  0.00  0.00    -0.399 OA
ATOM     37  H52 ZIN A   1      19.821   3.137  14.620  0.00  0.00     0.209 HD
ENDBRANCH  35  36
ENDBRANCH  31  35
ENDBRANCH   3  30
TORSDOF 10
ENDMDL
MODEL 9
REMARK VINA RESULT:      -8.1      2.918      7.882
REMARK  10 active torsions:
REMARK  status: ('A' for Active; 'I' for Inactive)
REMARK    1  A    between atoms: O2_2  and  C3_3 
REMARK    2  A    between atoms: C6_6  and  C7_7 
REMARK    3  A    between atoms: C7_7  and  N8_8 
REMARK    4  A    between atoms: N8_8  and  C9_9 
REMARK    5  A    between atoms: C11_11  and  N12_12 
REMARK    6  A    between atoms: C16_16  and  C18_17 
REMARK    7  A    between atoms: C18_17  and  O19_18 
REMARK    8  A    between atoms: C22_21  and  C23_22 
REMARK       I    between atoms: C23_22  and  N25_24 
REMARK    9  A    between atoms: N25_24  and  C26_25 
REMARK   10  A    between atoms: C26_25  and  C27_26 
ROOT
ATOM      1  C9  ZIN A   1      18.961   0.393  12.997  0.00  0.00     0.144 A 
ATOM      2  N10 ZIN A   1      19.139   0.263  14.306  0.00  0.00    -0.200 NA
ATOM      3  C11 ZIN A   1      19.041   1.310  15.112  0.00  0.00     0.206 A 
ATOM      4  N20 ZIN A   1      18.763   2.526  14.656  0.00  0.00    -0.230 NA
ATOM      5  C21 ZIN A   1      18.570   2.744  13.368  0.00  0.00     0.141 A 
ATOM      6  C22 ZIN A   1      18.669   1.673  12.474  0.00  0.00     0.095 A 
ENDROOT
BRANCH   1   7
ATOM      7  N8  ZIN A   1      19.065  -0.699  12.162  0.00  0.00    -0.370 N 
ATOM      8  H43 ZIN A   1      18.893  -0.602  11.212  0.00  0.00     0.161 HD
BRANCH   7   9
ATOM      9  C7  ZIN A   1      19.434  -2.007  12.709  0.00  0.00     0.160 C 
BRANCH   9  10
ATOM     10  C6  ZIN A   1      18.841  -3.096  11.853  0.00  0.00    -0.039 A 
ATOM     11  C5  ZIN A   1      17.480  -3.336  11.887  0.00  0.00     0.011 A 
ATOM     12  C4  ZIN A   1      16.933  -4.334  11.103  0.00  0.00     0.039 A 
ATOM     13  C3  ZIN A   1      17.751  -5.096  10.282  0.00  0.00     0.089 A 
ATOM     14  C34 ZIN A   1      19.118  -4.857  10.254  0.00  0.00     0.068 A 
ATOM     15  C33 ZIN A   1      19.659  -3.854  11.035  0.00  0.00     0.035 A 
ATOM     16 Cl35 ZIN A   1      20.145  -5.808   9.227  0.00  0.00    -0.081 Cl
BRANCH  13  17
ATOM     17  O2  ZIN A   1      17.215  -6.078   9.511  0.00  0.00    -0.354 OA
ATOM     18  C1  ZIN A   1      15.977  -5.788   8.858  0.00  0.00     0.210 C 
ENDBRANCH  13  17
ENDBRANCH   9  10
ENDBRANCH   7   9
ENDBRANCH   1   7
BRANCH   6  19
ATOM     19  C23 ZIN A   1      18.463   1.870  11.030  0.00  0.00     0.257 C 
ATOM     20  O24 ZIN A   1      17.347   2.093  10.599  0.00  0.00    -0.267 OA
ATOM     21  N25 ZIN A   1      19.511   1.804  10.185  0.00  0.00    -0.350 N 
ATOM     22  H54 ZIN A   1      20.400   1.626  10.528  0.00  0.00     0.163 HD
BRANCH  21  23
ATOM     23  C26 ZIN A   1      19.305   2.000   8.748  0.00  0.00     0.203 C 
BRANCH  23  24
ATOM     24  C27 ZIN A   1      19.171   0.659   8.073  0.00  0.00     0.142 A 
ATOM     25  N32 ZIN A   1      18.772   0.611   6.818  0.00  0.00    -0.244 NA
ATOM     26  C31 ZIN A   1      18.647  -0.549   6.190  0.00  0.00     0.120 A 
ATOM     27  C30 ZIN A   1      18.932  -1.719   6.874  0.00  0.00     0.038 A 
ATOM     28  C29 ZIN A   1      19.344  -1.628   8.195  0.00  0.00     0.120 A 
ATOM     29  N28 ZIN A   1      19.450  -0.434   8.755  0.00  0.00    -0.244 NA
ENDBRANCH  23  24
ENDBRANCH  21  23
ENDBRANCH   6  19
BRANCH   3  30
ATOM     30  N12 ZIN A   1      19.234   1.133  16.466  0.00  0.00    -0.245 NA
ATOM     31  C16 ZIN A   1      18.237   1.903  17.253  0.00  0.00     0.089 C 
ATOM     32  C15 ZIN A   1      18.214   1.214  18.634  0.00  0.00     0.023 C 
ATOM     33  C14 ZIN A   1      18.712  -0.222  18.373  0.00  0.00     0.017 C 
ATOM     34  C13 ZIN A   1      18.994  -0.281  16.857  0.00  0.00     0.099 C 
BRANCH  31  35
ATOM     35  C18 ZIN A   1      18.676   3.363  17.391  0.00  0.00     0.184 C 
BRANCH  35  36
ATOM     36  O19 ZIN A   1      20.102   3.433  17.386  0.00  0.00    -0.399 OA
ATOM     37  H52 ZIN A   1      20.538   2.584  17.228  0.00  0.00     0.209 HD
ENDBRANCH  35  36
ENDBRANCH  31  35
ENDBRANCH   3  30
TORSDOF 10
ENDMDL
