MODEL 1
REMARK VINA RESULT:      -9.3      0.000      0.000
REMARK  5 active torsions:
REMARK  status: ('A' for Active; 'I' for Inactive)
REMARK    1  A    between atoms: C2_2  and  O4_4 
REMARK    2  A    between atoms: O4_4  and  C5_5 
REMARK    3  A    between atoms: C5_5  and  C6_6 
REMARK    4  A    between atoms: C6_6  and  C8_8 
REMARK    5  A    between atoms: C35_31  and  O37_32 
ROOT
ATOM      1  C8  RES d   1      18.227  -4.878   9.149  0.00  0.00     0.160 C 
ATOM      2  O9  RES d   1      17.025  -4.888   8.356  0.00  0.00    -0.334 OA
ATOM      3  C10 RES d   1      16.225  -5.949   8.918  0.00  0.00     0.159 C 
ATOM      4  C11 RES d   1      14.752  -5.760   8.549  0.00  0.00     0.078 C 
ATOM      5  C12 RES d   1      16.724  -7.310   8.429  0.00  0.00     0.078 C 
ATOM      6  O13 RES d   1      16.407  -5.825  10.344  0.00  0.00    -0.347 OA
ATOM      7  C14 RES d   1      17.800  -5.494  10.515  0.00  0.00     0.168 C 
ATOM      8  C16 RES d   1      17.894  -4.354  11.565  0.00  0.00     0.041 C 
ATOM      9  C17 RES d   1      17.754  -3.086  10.717  0.00  0.00     0.007 C 
ATOM     10  C19 RES d   1      18.304  -1.814  11.336  0.00  0.00     0.037 C 
ATOM     11  C21 RES d   1      17.528  -1.483  12.613  0.00  0.00     0.050 C 
ATOM     12  C22 RES d   1      18.110  -0.220  13.257  0.00  0.00     0.201 C 
ATOM     13  F24 RES d   1      17.330   0.151  14.358  0.00  0.00    -0.245 F 
ATOM     14  C25 RES d   1      18.093   0.888  12.220  0.00  0.00    -0.027 A 
ATOM     15  C26 RES d   1      17.542   2.053  12.533  0.00  0.00     0.061 A 
ATOM     16  C27 RES d   1      17.489   3.144  11.548  0.00  0.00     0.172 A 
ATOM     17  O28 RES d   1      17.020   4.227  11.844  0.00  0.00    -0.289 OA
ATOM     18  C29 RES d   1      18.018   2.896  10.196  0.00  0.00     0.052 A 
ATOM     19  C30 RES d   1      18.570   1.728   9.908  0.00  0.00    -0.006 A 
ATOM     20  C31 RES d   1      18.709   0.608  10.882  0.00  0.00     0.039 A 
ATOM     21  C32 RES d   1      20.204   0.359  11.097  0.00  0.00     0.028 C 
ATOM     22  C33 RES d   1      18.139  -0.689  10.302  0.00  0.00     0.147 C 
ATOM     23  F34 RES d   1      16.774  -0.518  10.046  0.00  0.00    -0.238 F 
ATOM     24  C35 RES d   1      18.842  -1.006   8.985  0.00  0.00     0.160 C 
ATOM     25  C38 RES d   1      18.397  -2.363   8.418  0.00  0.00     0.048 C 
ATOM     26  C39 RES d   1      18.658  -3.453   9.470  0.00  0.00     0.004 C 
ATOM     27  C40 RES d   1      20.124  -3.411   9.906  0.00  0.00     0.019 C 
ENDROOT
BRANCH   1  28
ATOM     28  C6  RES d   1      19.335  -5.666   8.499  0.00  0.00     0.188 C 
ATOM     29  O7  RES d   1      19.930  -6.505   9.130  0.00  0.00    -0.292 OA
BRANCH  28  30
ATOM     30  C5  RES d   1      19.702  -5.403   7.060  0.00  0.00     0.260 C 
BRANCH  30  31
ATOM     31  O4  RES d   1      19.252  -6.510   6.236  0.00  0.00    -0.314 OA
BRANCH  31  32
ATOM     32  C2  RES d   1      18.281  -6.251   5.345  0.00  0.00     0.255 C 
ATOM     33  C1  RES d   1      17.854  -4.830   5.088  0.00  0.00     0.126 C 
ATOM     34  O3  RES d   1      17.752  -7.159   4.749  0.00  0.00    -0.266 OA
ENDBRANCH  31  32
ENDBRANCH  30  31
ENDBRANCH  28  30
ENDBRANCH   1  28
BRANCH  24  35
ATOM     35  O37 RES d   1      20.254  -1.033   9.204  0.00  0.00    -0.392 OA
ATOM     36  H62 RES d   1      20.557  -0.422   9.889  0.00  0.00     0.210 HD
ENDBRANCH  24  35
TORSDOF 5
ENDMDL
MODEL 2
REMARK VINA RESULT:      -9.3      1.966      2.480
REMARK  5 active torsions:
REMARK  status: ('A' for Active; 'I' for Inactive)
REMARK    1  A    between atoms: C2_2  and  O4_4 
REMARK    2  A    between atoms: O4_4  and  C5_5 
REMARK    3  A    between atoms: C5_5  and  C6_6 
REMARK    4  A    between atoms: C6_6  and  C8_8 
REMARK    5  A    between atoms: C35_31  and  O37_32 
ROOT
ATOM      1  C8  RES d   1      18.570  -3.375   8.612  0.00  0.00     0.160 C 
ATOM      2  O9  RES d   1      17.195  -3.794   8.705  0.00  0.00    -0.334 OA
ATOM      3  C10 RES d   1      17.247  -5.072   9.373  0.00  0.00     0.159 C 
ATOM      4  C11 RES d   1      15.891  -5.402  10.001  0.00  0.00     0.078 C 
ATOM      5  C12 RES d   1      17.660  -6.171   8.392  0.00  0.00     0.078 C 
ATOM      6  O13 RES d   1      18.249  -4.906  10.398  0.00  0.00    -0.347 OA
ATOM      7  C14 RES d   1      19.285  -4.113   9.783  0.00  0.00     0.168 C 
ATOM      8  C16 RES d   1      19.718  -3.022  10.798  0.00  0.00     0.041 C 
ATOM      9  C17 RES d   1      18.745  -1.873  10.511  0.00  0.00     0.007 C 
ATOM     10  C19 RES d   1      19.203  -0.495  10.953  0.00  0.00     0.037 C 
ATOM     11  C21 RES d   1      19.358  -0.466  12.475  0.00  0.00     0.050 C 
ATOM     12  C22 RES d   1      19.857   0.915  12.916  0.00  0.00     0.201 C 
ATOM     13  F24 RES d   1      19.888   0.982  14.313  0.00  0.00    -0.245 F 
ATOM     14  C25 RES d   1      18.897   1.958  12.374  0.00  0.00    -0.027 A 
ATOM     15  C26 RES d   1      18.387   2.856  13.205  0.00  0.00     0.061 A 
ATOM     16  C27 RES d   1      17.438   3.870  12.721  0.00  0.00     0.172 A 
ATOM     17  O28 RES d   1      16.999   4.720  13.471  0.00  0.00    -0.289 OA
ATOM     18  C29 RES d   1      17.034   3.833  11.305  0.00  0.00     0.052 A 
ATOM     19  C30 RES d   1      17.561   2.932  10.491  0.00  0.00    -0.006 A 
ATOM     20  C31 RES d   1      18.573   1.921  10.910  0.00  0.00     0.039 A 
ATOM     21  C32 RES d   1      19.864   2.204  10.137  0.00  0.00     0.028 C 
ATOM     22  C33 RES d   1      18.133   0.512  10.504  0.00  0.00     0.147 C 
ATOM     23  F34 RES d   1      16.932   0.201  11.151  0.00  0.00    -0.238 F 
ATOM     24  C35 RES d   1      17.895   0.471   8.998  0.00  0.00     0.160 C 
ATOM     25  C38 RES d   1      17.570  -0.951   8.514  0.00  0.00     0.048 C 
ATOM     26  C39 RES d   1      18.712  -1.892   8.928  0.00  0.00     0.004 C 
ATOM     27  C40 RES d   1      20.044  -1.349   8.409  0.00  0.00     0.019 C 
ENDROOT
BRANCH   1  28
ATOM     28  C6  RES d   1      19.172  -3.724   7.275  0.00  0.00     0.188 C 
ATOM     29  O7  RES d   1      20.246  -4.273   7.222  0.00  0.00    -0.292 OA
BRANCH  28  30
ATOM     30  C5  RES d   1      18.436  -3.384   6.005  0.00  0.00     0.260 C 
BRANCH  30  31
ATOM     31  O4  RES d   1      19.346  -2.741   5.075  0.00  0.00    -0.314 OA
BRANCH  31  32
ATOM     32  C2  RES d   1      19.123  -1.446   4.799  0.00  0.00     0.255 C 
ATOM     33  C1  RES d   1      17.712  -0.923   4.732  0.00  0.00     0.126 C 
ATOM     34  O3  RES d   1      20.055  -0.702   4.606  0.00  0.00    -0.266 OA
ENDBRANCH  31  32
ENDBRANCH  30  31
ENDBRANCH  28  30
ENDBRANCH   1  28
BRANCH  24  35
ATOM     35  O37 RES d   1      19.069   0.934   8.327  0.00  0.00    -0.392 OA
ATOM     36  H62 RES d   1      19.546   0.243   7.849  0.00  0.00     0.210 HD
ENDBRANCH  24  35
TORSDOF 5
ENDMDL
MODEL 3
REMARK VINA RESULT:      -9.1      3.066      9.026
REMARK  5 active torsions:
REMARK  status: ('A' for Active; 'I' for Inactive)
REMARK    1  A    between atoms: C2_2  and  O4_4 
REMARK    2  A    between atoms: O4_4  and  C5_5 
REMARK    3  A    between atoms: C5_5  and  C6_6 
REMARK    4  A    between atoms: C6_6  and  C8_8 
REMARK    5  A    between atoms: C35_31  and  O37_32 
ROOT
ATOM      1  C8  RES d   1      18.559   3.285  13.985  0.00  0.00     0.160 C 
ATOM      2  O9  RES d   1      17.196   3.732  13.860  0.00  0.00    -0.334 OA
ATOM      3  C10 RES d   1      17.293   5.023  13.220  0.00  0.00     0.159 C 
ATOM      4  C11 RES d   1      15.963   5.392  12.560  0.00  0.00     0.078 C 
ATOM      5  C12 RES d   1      17.697   6.093  14.237  0.00  0.00     0.078 C 
ATOM      6  O13 RES d   1      18.323   4.858  12.223  0.00  0.00    -0.347 OA
ATOM      7  C14 RES d   1      19.323   4.032  12.852  0.00  0.00     0.168 C 
ATOM      8  C16 RES d   1      19.766   2.953  11.827  0.00  0.00     0.041 C 
ATOM      9  C17 RES d   1      18.763   1.819  12.062  0.00  0.00     0.007 C 
ATOM     10  C19 RES d   1      19.207   0.441  11.604  0.00  0.00     0.037 C 
ATOM     11  C21 RES d   1      19.408   0.440  10.087  0.00  0.00     0.050 C 
ATOM     12  C22 RES d   1      19.893  -0.941   9.632  0.00  0.00     0.201 C 
ATOM     13  F24 RES d   1      19.966  -0.980   8.236  0.00  0.00    -0.245 F 
ATOM     14  C25 RES d   1      18.898  -1.976  10.124  0.00  0.00    -0.027 A 
ATOM     15  C26 RES d   1      18.396  -2.846   9.259  0.00  0.00     0.061 A 
ATOM     16  C27 RES d   1      17.414  -3.852   9.694  0.00  0.00     0.172 A 
ATOM     17  O28 RES d   1      16.981  -4.677   8.912  0.00  0.00    -0.289 OA
ATOM     18  C29 RES d   1      16.968  -3.835  11.097  0.00  0.00     0.052 A 
ATOM     19  C30 RES d   1      17.487  -2.962  11.945  0.00  0.00    -0.006 A 
ATOM     20  C31 RES d   1      18.530  -1.963  11.578  0.00  0.00     0.039 A 
ATOM     21  C32 RES d   1      19.791  -2.287  12.383  0.00  0.00     0.028 C 
ATOM     22  C33 RES d   1      18.105  -0.554  11.999  0.00  0.00     0.147 C 
ATOM     23  F34 RES d   1      16.930  -0.206  11.324  0.00  0.00    -0.238 F 
ATOM     24  C35 RES d   1      17.823  -0.539  13.499  0.00  0.00     0.160 C 
ATOM     25  C38 RES d   1      17.510   0.879  14.003  0.00  0.00     0.048 C 
ATOM     26  C39 RES d   1      18.682   1.806  13.643  0.00  0.00     0.004 C 
ATOM     27  C40 RES d   1      19.987   1.226  14.190  0.00  0.00     0.019 C 
ENDROOT
BRANCH   1  28
ATOM     28  C6  RES d   1      19.128   3.594  15.346  0.00  0.00     0.188 C 
ATOM     29  O7  RES d   1      20.137   4.249  15.445  0.00  0.00    -0.292 OA
BRANCH  28  30
ATOM     30  C5  RES d   1      18.438   3.082  16.585  0.00  0.00     0.260 C 
BRANCH  30  31
ATOM     31  O4  RES d   1      19.415   2.470  17.466  0.00  0.00    -0.314 OA
BRANCH  31  32
ATOM     32  C2  RES d   1      19.154   1.225  17.896  0.00  0.00     0.255 C 
ATOM     33  C1  RES d   1      17.799   0.613  17.653  0.00  0.00     0.126 C 
ATOM     34  O3  RES d   1      20.006   0.596  18.478  0.00  0.00    -0.266 OA
ENDBRANCH  31  32
ENDBRANCH  30  31
ENDBRANCH  28  30
ENDBRANCH   1  28
BRANCH  24  35
ATOM     35  O37 RES d   1      18.967  -1.038  14.195  0.00  0.00    -0.392 OA
ATOM     36  H62 RES d   1      19.781  -0.549  14.014  0.00  0.00     0.210 HD
ENDBRANCH  24  35
TORSDOF 5
ENDMDL
MODEL 4
REMARK VINA RESULT:      -9.0      1.567      1.937
REMARK  5 active torsions:
REMARK  status: ('A' for Active; 'I' for Inactive)
REMARK    1  A    between atoms: C2_2  and  O4_4 
REMARK    2  A    between atoms: O4_4  and  C5_5 
REMARK    3  A    between atoms: C5_5  and  C6_6 
REMARK    4  A    between atoms: C6_6  and  C8_8 
REMARK    5  A    between atoms: C35_31  and  O37_32 
ROOT
ATOM      1  C8  RES d   1      18.030  -4.812   8.183  0.00  0.00     0.160 C 
ATOM      2  O9  RES d   1      16.623  -4.732   7.888  0.00  0.00    -0.334 OA
ATOM      3  C10 RES d   1      16.090  -6.008   8.301  0.00  0.00     0.159 C 
ATOM      4  C11 RES d   1      14.582  -5.906   8.537  0.00  0.00     0.078 C 
ATOM      5  C12 RES d   1      16.392  -7.078   7.249  0.00  0.00     0.078 C 
ATOM      6  O13 RES d   1      16.774  -6.305   9.536  0.00  0.00    -0.347 OA
ATOM      7  C14 RES d   1      18.132  -5.865   9.326  0.00  0.00     0.168 C 
ATOM      8  C16 RES d   1      18.588  -5.100  10.597  0.00  0.00     0.041 C 
ATOM      9  C17 RES d   1      18.138  -3.662  10.319  0.00  0.00     0.007 C 
ATOM     10  C19 RES d   1      18.863  -2.582  11.101  0.00  0.00     0.037 C 
ATOM     11  C21 RES d   1      18.597  -2.760  12.597  0.00  0.00     0.050 C 
ATOM     12  C22 RES d   1      19.361  -1.692  13.387  0.00  0.00     0.201 C 
ATOM     13  F24 RES d   1      19.029  -1.780  14.744  0.00  0.00    -0.245 F 
ATOM     14  C25 RES d   1      18.959  -0.331  12.848  0.00  0.00    -0.027 A 
ATOM     15  C26 RES d   1      18.547   0.600  13.696  0.00  0.00     0.061 A 
ATOM     16  C27 RES d   1      18.132   1.925  13.210  0.00  0.00     0.172 A 
ATOM     17  O28 RES d   1      17.791   2.795  13.988  0.00  0.00    -0.289 OA
ATOM     18  C29 RES d   1      18.139   2.173  11.758  0.00  0.00     0.052 A 
ATOM     19  C30 RES d   1      18.560   1.231  10.929  0.00  0.00    -0.006 A 
ATOM     20  C31 RES d   1      19.053  -0.106  11.368  0.00  0.00     0.039 A 
ATOM     21  C32 RES d   1      20.527  -0.214  10.970  0.00  0.00     0.028 C 
ATOM     22  C33 RES d   1      18.324  -1.225  10.620  0.00  0.00     0.147 C 
ATOM     23  F34 RES d   1      16.958  -1.161  10.912  0.00  0.00    -0.238 F 
ATOM     24  C35 RES d   1      18.507  -1.030   9.117  0.00  0.00     0.160 C 
ATOM     25  C38 RES d   1      17.900  -2.194   8.317  0.00  0.00     0.048 C 
ATOM     26  C39 RES d   1      18.534  -3.510   8.793  0.00  0.00     0.004 C 
ATOM     27  C40 RES d   1      20.057  -3.416   8.695  0.00  0.00     0.019 C 
ENDROOT
BRANCH   1  28
ATOM     28  C6  RES d   1      18.835  -5.213   6.974  0.00  0.00     0.188 C 
ATOM     29  O7  RES d   1      19.722  -6.025   7.081  0.00  0.00    -0.292 OA
BRANCH  28  30
ATOM     30  C5  RES d   1      18.535  -4.597   5.631  0.00  0.00     0.260 C 
BRANCH  30  31
ATOM     31  O4  RES d   1      19.509  -3.559   5.347  0.00  0.00    -0.314 OA
BRANCH  31  32
ATOM     32  C2  RES d   1      19.049  -2.428   4.788  0.00  0.00     0.255 C 
ATOM     33  C1  RES d   1      17.601  -2.322   4.385  0.00  0.00     0.126 C 
ATOM     34  O3  RES d   1      19.796  -1.496   4.608  0.00  0.00    -0.266 OA
ENDBRANCH  31  32
ENDBRANCH  30  31
ENDBRANCH  28  30
ENDBRANCH   1  28
BRANCH  24  35
ATOM     35  O37 RES d   1      19.902  -0.941   8.824  0.00  0.00    -0.392 OA
ATOM     36  H62 RES d   1      20.277  -0.060   8.959  0.00  0.00     0.210 HD
ENDBRANCH  24  35
TORSDOF 5
ENDMDL
MODEL 5
REMARK VINA RESULT:      -8.7      3.746      9.900
REMARK  5 active torsions:
REMARK  status: ('A' for Active; 'I' for Inactive)
REMARK    1  A    between atoms: C2_2  and  O4_4 
REMARK    2  A    between atoms: O4_4  and  C5_5 
REMARK    3  A    between atoms: C5_5  and  C6_6 
REMARK    4  A    between atoms: C6_6  and  C8_8 
REMARK    5  A    between atoms: C35_31  and  O37_32 
ROOT
ATOM      1  C8  RES d   1      17.986   4.860  15.037  0.00  0.00     0.160 C 
ATOM      2  O9  RES d   1      16.572   4.784  15.300  0.00  0.00    -0.334 OA
ATOM      3  C10 RES d   1      16.074   6.106  15.003  0.00  0.00     0.159 C 
ATOM      4  C11 RES d   1      14.568   6.060  14.733  0.00  0.00     0.078 C 
ATOM      5  C12 RES d   1      16.378   7.062  16.158  0.00  0.00     0.078 C 
ATOM      6  O13 RES d   1      16.787   6.505  13.814  0.00  0.00    -0.347 OA
ATOM      7  C14 RES d   1      18.131   6.017  14.003  0.00  0.00     0.168 C 
ATOM      8  C16 RES d   1      18.595   5.368  12.672  0.00  0.00     0.041 C 
ATOM      9  C17 RES d   1      18.111   3.920  12.803  0.00  0.00     0.007 C 
ATOM     10  C19 RES d   1      18.827   2.903  11.932  0.00  0.00     0.037 C 
ATOM     11  C21 RES d   1      18.594   3.231  10.456  0.00  0.00     0.050 C 
ATOM     12  C22 RES d   1      19.350   2.227   9.579  0.00  0.00     0.201 C 
ATOM     13  F24 RES d   1      19.045   2.452   8.232  0.00  0.00    -0.245 F 
ATOM     14  C25 RES d   1      18.911   0.830   9.977  0.00  0.00    -0.027 A 
ATOM     15  C26 RES d   1      18.496  -0.006   9.036  0.00  0.00     0.061 A 
ATOM     16  C27 RES d   1      18.044  -1.362   9.386  0.00  0.00     0.172 A 
ATOM     17  O28 RES d   1      17.700  -2.146   8.522  0.00  0.00    -0.289 OA
ATOM     18  C29 RES d   1      18.019  -1.748  10.807  0.00  0.00     0.052 A 
ATOM     19  C30 RES d   1      18.444  -0.900  11.730  0.00  0.00    -0.006 A 
ATOM     20  C31 RES d   1      18.972   0.461  11.430  0.00  0.00     0.039 A 
ATOM     21  C32 RES d   1      20.440   0.498  11.861  0.00  0.00     0.028 C 
ATOM     22  C33 RES d   1      18.253   1.519  12.271  0.00  0.00     0.147 C 
ATOM     23  F34 RES d   1      16.891   1.514  11.951  0.00  0.00    -0.238 F 
ATOM     24  C35 RES d   1      18.403   1.177  13.750  0.00  0.00     0.160 C 
ATOM     25  C38 RES d   1      17.805   2.271  14.649  0.00  0.00     0.048 C 
ATOM     26  C39 RES d   1      18.475   3.613  14.312  0.00  0.00     0.004 C 
ATOM     27  C40 RES d   1      19.994   3.476  14.426  0.00  0.00     0.019 C 
ENDROOT
BRANCH   1  28
ATOM     28  C6  RES d   1      18.777   5.125  16.292  0.00  0.00     0.188 C 
ATOM     29  O7  RES d   1      19.645   5.965  16.294  0.00  0.00    -0.292 OA
BRANCH  28  30
ATOM     30  C5  RES d   1      18.486   4.340  17.546  0.00  0.00     0.260 C 
BRANCH  30  31
ATOM     31  O4  RES d   1      19.503   3.321  17.726  0.00  0.00    -0.314 OA
BRANCH  31  32
ATOM     32  C2  RES d   1      19.105   2.146  18.239  0.00  0.00     0.255 C 
ATOM     33  C1  RES d   1      17.657   1.930  18.591  0.00  0.00     0.126 C 
ATOM     34  O3  RES d   1      19.909   1.262  18.417  0.00  0.00    -0.266 OA
ENDBRANCH  31  32
ENDBRANCH  30  31
ENDBRANCH  28  30
ENDBRANCH   1  28
BRANCH  24  35
ATOM     35  O37 RES d   1      19.791   1.029  14.057  0.00  0.00    -0.392 OA
ATOM     36  H62 RES d   1      20.346   1.743  13.717  0.00  0.00     0.210 HD
ENDBRANCH  24  35
TORSDOF 5
ENDMDL
MODEL 6
REMARK VINA RESULT:      -8.6      2.754      8.064
REMARK  5 active torsions:
REMARK  status: ('A' for Active; 'I' for Inactive)
REMARK    1  A    between atoms: C2_2  and  O4_4 
REMARK    2  A    between atoms: O4_4  and  C5_5 
REMARK    3  A    between atoms: C5_5  and  C6_6 
REMARK    4  A    between atoms: C6_6  and  C8_8 
REMARK    5  A    between atoms: C35_31  and  O37_32 
ROOT
ATOM      1  C8  RES d   1      19.087   0.051  12.050  0.00  0.00     0.160 C 
ATOM      2  O9  RES d   1      17.948   0.912  11.863  0.00  0.00    -0.334 OA
ATOM      3  C10 RES d   1      18.506   2.158  11.395  0.00  0.00     0.159 C 
ATOM      4  C11 RES d   1      17.438   2.983  10.672  0.00  0.00     0.078 C 
ATOM      5  C12 RES d   1      19.089   2.954  12.565  0.00  0.00     0.078 C 
ATOM      6  O13 RES d   1      19.548   1.768  10.478  0.00  0.00    -0.347 OA
ATOM      7  C14 RES d   1      20.171   0.619  11.086  0.00  0.00     0.168 C 
ATOM      8  C16 RES d   1      20.385  -0.449   9.980  0.00  0.00     0.041 C 
ATOM      9  C17 RES d   1      19.066  -1.229   9.988  0.00  0.00     0.007 C 
ATOM     10  C19 RES d   1      19.125  -2.630   9.407  0.00  0.00     0.037 C 
ATOM     11  C21 RES d   1      19.495  -2.560   7.924  0.00  0.00     0.050 C 
ATOM     12  C22 RES d   1      19.592  -3.978   7.349  0.00  0.00     0.201 C 
ATOM     13  F24 RES d   1      19.815  -3.914   5.969  0.00  0.00    -0.245 F 
ATOM     14  C25 RES d   1      18.279  -4.688   7.624  0.00  0.00    -0.027 A 
ATOM     15  C26 RES d   1      17.645  -5.277   6.620  0.00  0.00     0.061 A 
ATOM     16  C27 RES d   1      16.360  -5.959   6.844  0.00  0.00     0.172 A 
ATOM     17  O28 RES d   1      15.795  -6.535   5.934  0.00  0.00    -0.289 OA
ATOM     18  C29 RES d   1      15.776  -5.928   8.195  0.00  0.00     0.052 A 
ATOM     19  C30 RES d   1      16.429  -5.339   9.184  0.00  0.00    -0.006 A 
ATOM     20  C31 RES d   1      17.762  -4.689   9.032  0.00  0.00     0.039 A 
ATOM     21  C32 RES d   1      18.761  -5.462   9.897  0.00  0.00     0.028 C 
ATOM     22  C33 RES d   1      17.735  -3.261   9.583  0.00  0.00     0.147 C 
ATOM     23  F34 RES d   1      16.810  -2.504   8.856  0.00  0.00    -0.238 F 
ATOM     24  C35 RES d   1      17.294  -3.291  11.043  0.00  0.00     0.160 C 
ATOM     25  C38 RES d   1      17.366  -1.897  11.686  0.00  0.00     0.048 C 
ATOM     26  C39 RES d   1      18.797  -1.356  11.543  0.00  0.00     0.004 C 
ATOM     27  C40 RES d   1      19.791  -2.361  12.126  0.00  0.00     0.019 C 
ENDROOT
BRANCH   1  28
ATOM     28  C6  RES d   1      19.556   0.044  13.482  0.00  0.00     0.188 C 
ATOM     29  O7  RES d   1      20.726   0.201  13.736  0.00  0.00    -0.292 OA
BRANCH  28  30
ATOM     30  C5  RES d   1      18.564  -0.160  14.599  0.00  0.00     0.260 C 
BRANCH  30  31
ATOM     31  O4  RES d   1      19.175   0.209  15.863  0.00  0.00    -0.314 OA
BRANCH  31  32
ATOM     32  C2  RES d   1      18.595  -0.258  16.980  0.00  0.00     0.255 C 
ATOM     33  C1  RES d   1      17.223  -0.876  16.915  0.00  0.00     0.126 C 
ATOM     34  O3  RES d   1      19.175  -0.183  18.037  0.00  0.00    -0.266 OA
ENDBRANCH  31  32
ENDBRANCH  30  31
ENDBRANCH  28  30
ENDBRANCH   1  28
BRANCH  24  35
ATOM     35  O37 RES d   1      18.142  -4.183  11.769  0.00  0.00    -0.392 OA
ATOM     36  H62 RES d   1      18.369  -4.989  11.287  0.00  0.00     0.210 HD
ENDBRANCH  24  35
TORSDOF 5
ENDMDL
MODEL 7
REMARK VINA RESULT:      -8.5      3.234      9.954
REMARK  5 active torsions:
REMARK  status: ('A' for Active; 'I' for Inactive)
REMARK    1  A    between atoms: C2_2  and  O4_4 
REMARK    2  A    between atoms: O4_4  and  C5_5 
REMARK    3  A    between atoms: C5_5  and  C6_6 
REMARK    4  A    between atoms: C6_6  and  C8_8 
REMARK    5  A    between atoms: C35_31  and  O37_32 
ROOT
ATOM      1  C8  RES d   1      18.320   4.858  13.547  0.00  0.00     0.160 C 
ATOM      2  O9  RES d   1      17.138   4.850  14.370  0.00  0.00    -0.334 OA
ATOM      3  C10 RES d   1      16.328   5.928  13.855  0.00  0.00     0.159 C 
ATOM      4  C11 RES d   1      14.864   5.732  14.255  0.00  0.00     0.078 C 
ATOM      5  C12 RES d   1      16.843   7.274  14.366  0.00  0.00     0.078 C 
ATOM      6  O13 RES d   1      16.474   5.840  12.422  0.00  0.00    -0.347 OA
ATOM      7  C14 RES d   1      17.862   5.510  12.208  0.00  0.00     0.168 C 
ATOM      8  C16 RES d   1      17.926   4.398  11.127  0.00  0.00     0.041 C 
ATOM      9  C17 RES d   1      17.804   3.108  11.946  0.00  0.00     0.007 C 
ATOM     10  C19 RES d   1      18.334   1.852  11.281  0.00  0.00     0.037 C 
ATOM     11  C21 RES d   1      17.526   1.555  10.015  0.00  0.00     0.050 C 
ATOM     12  C22 RES d   1      18.088   0.308   9.324  0.00  0.00     0.201 C 
ATOM     13  F24 RES d   1      17.281  -0.032   8.234  0.00  0.00    -0.245 F 
ATOM     14  C25 RES d   1      18.094  -0.826  10.332  0.00  0.00    -0.027 A 
ATOM     15  C26 RES d   1      17.532  -1.981  10.004  0.00  0.00     0.061 A 
ATOM     16  C27 RES d   1      17.500  -3.098  10.961  0.00  0.00     0.172 A 
ATOM     17  O28 RES d   1      17.021  -4.171  10.649  0.00  0.00    -0.289 OA
ATOM     18  C29 RES d   1      18.063  -2.885  12.305  0.00  0.00     0.052 A 
ATOM     19  C30 RES d   1      18.625  -1.727  12.610  0.00  0.00    -0.006 A 
ATOM     20  C31 RES d   1      18.744  -0.583  11.662  0.00  0.00     0.039 A 
ATOM     21  C32 RES d   1      20.233  -0.331  11.416  0.00  0.00     0.028 C 
ATOM     22  C33 RES d   1      18.192   0.701  12.289  0.00  0.00     0.147 C 
ATOM     23  F34 RES d   1      16.833   0.527  12.574  0.00  0.00    -0.238 F 
ATOM     24  C35 RES d   1      18.928   0.982  13.595  0.00  0.00     0.160 C 
ATOM     25  C38 RES d   1      18.501   2.325  14.209  0.00  0.00     0.048 C 
ATOM     26  C39 RES d   1      18.739   3.441  13.179  0.00  0.00     0.004 C 
ATOM     27  C40 RES d   1      20.194   3.407  12.706  0.00  0.00     0.019 C 
ENDROOT
BRANCH   1  28
ATOM     28  C6  RES d   1      19.446   5.626  14.190  0.00  0.00     0.188 C 
ATOM     29  O7  RES d   1      20.045   6.463  13.558  0.00  0.00    -0.292 OA
BRANCH  28  30
ATOM     30  C5  RES d   1      19.827   5.348  15.621  0.00  0.00     0.260 C 
BRANCH  30  31
ATOM     31  O4  RES d   1      19.519   6.507  16.439  0.00  0.00    -0.314 OA
BRANCH  31  32
ATOM     32  C2  RES d   1      18.492   6.394  17.296  0.00  0.00     0.255 C 
ATOM     33  C1  RES d   1      17.957   5.032  17.654  0.00  0.00     0.126 C 
ATOM     34  O3  RES d   1      17.998   7.384  17.781  0.00  0.00    -0.266 OA
ENDBRANCH  31  32
ENDBRANCH  30  31
ENDBRANCH  28  30
ENDBRANCH   1  28
BRANCH  24  35
ATOM     35  O37 RES d   1      20.334   1.011  13.343  0.00  0.00    -0.392 OA
ATOM     36  H62 RES d   1      20.787   1.772  13.730  0.00  0.00     0.210 HD
ENDBRANCH  24  35
TORSDOF 5
ENDMDL
MODEL 8
REMARK VINA RESULT:      -7.7      3.217      5.450
REMARK  5 active torsions:
REMARK  status: ('A' for Active; 'I' for Inactive)
REMARK    1  A    between atoms: C2_2  and  O4_4 
REMARK    2  A    between atoms: O4_4  and  C5_5 
REMARK    3  A    between atoms: C5_5  and  C6_6 
REMARK    4  A    between atoms: C6_6  and  C8_8 
REMARK    5  A    between atoms: C35_31  and  O37_32 
ROOT
ATOM      1  C8  RES d   1      19.054   0.064  10.822  0.00  0.00     0.160 C 
ATOM      2  O9  RES d   1      17.847  -0.720  10.868  0.00  0.00    -0.334 OA
ATOM      3  C10 RES d   1      18.280  -2.036  11.272  0.00  0.00     0.159 C 
ATOM      4  C11 RES d   1      17.109  -2.827  11.858  0.00  0.00     0.078 C 
ATOM      5  C12 RES d   1      18.887  -2.786  10.085  0.00  0.00     0.078 C 
ATOM      6  O13 RES d   1      19.281  -1.794  12.283  0.00  0.00    -0.347 OA
ATOM      7  C14 RES d   1      20.024  -0.654  11.808  0.00  0.00     0.168 C 
ATOM      8  C16 RES d   1      20.236   0.311  13.005  0.00  0.00     0.041 C 
ATOM      9  C17 RES d   1      18.979   1.188  12.972  0.00  0.00     0.007 C 
ATOM     10  C19 RES d   1      19.096   2.534  13.663  0.00  0.00     0.037 C 
ATOM     11  C21 RES d   1      19.355   2.328  15.157  0.00  0.00     0.050 C 
ATOM     12  C22 RES d   1      19.511   3.689  15.846  0.00  0.00     0.201 C 
ATOM     13  F24 RES d   1      19.632   3.508  17.228  0.00  0.00    -0.245 F 
ATOM     14  C25 RES d   1      18.275   4.515  15.542  0.00  0.00    -0.027 A 
ATOM     15  C26 RES d   1      17.615   5.076  16.545  0.00  0.00     0.061 A 
ATOM     16  C27 RES d   1      16.401   5.868  16.293  0.00  0.00     0.172 A 
ATOM     17  O28 RES d   1      15.815   6.418  17.206  0.00  0.00    -0.289 OA
ATOM     18  C29 RES d   1      15.912   5.980  14.908  0.00  0.00     0.052 A 
ATOM     19  C30 RES d   1      16.590   5.417  13.921  0.00  0.00    -0.006 A 
ATOM     20  C31 RES d   1      17.860   4.658  14.108  0.00  0.00     0.039 A 
ATOM     21  C32 RES d   1      18.969   5.413  13.372  0.00  0.00     0.028 C 
ATOM     22  C33 RES d   1      17.770   3.280  13.447  0.00  0.00     0.147 C 
ATOM     23  F34 RES d   1      16.745   2.545  14.051  0.00  0.00    -0.238 F 
ATOM     24  C35 RES d   1      17.436   3.450  11.968  0.00  0.00     0.160 C 
ATOM     25  C38 RES d   1      17.455   2.105  11.224  0.00  0.00     0.048 C 
ATOM     26  C39 RES d   1      18.830   1.448  11.418  0.00  0.00     0.004 C 
ATOM     27  C40 RES d   1      19.932   2.414  10.980  0.00  0.00     0.019 C 
ENDROOT
BRANCH   1  28
ATOM     28  C6  RES d   1      19.622   0.138   9.428  0.00  0.00     0.188 C 
ATOM     29  O7  RES d   1      20.781  -0.135   9.233  0.00  0.00    -0.292 OA
BRANCH  28  30
ATOM     30  C5  RES d   1      18.742   0.558   8.278  0.00  0.00     0.260 C 
BRANCH  30  31
ATOM     31  O4  RES d   1      18.373  -0.611   7.501  0.00  0.00    -0.314 OA
BRANCH  31  32
ATOM     32  C2  RES d   1      19.051  -0.826   6.362  0.00  0.00     0.255 C 
ATOM     33  C1  RES d   1      19.096   0.240   5.299  0.00  0.00     0.126 C 
ATOM     34  O3  RES d   1      19.627  -1.874   6.192  0.00  0.00    -0.266 OA
ENDBRANCH  31  32
ENDBRANCH  30  31
ENDBRANCH  28  30
ENDBRANCH   1  28
BRANCH  24  35
ATOM     35  O37 RES d   1      18.395   4.325  11.370  0.00  0.00    -0.392 OA
ATOM     36  H62 RES d   1      19.306   4.155  11.642  0.00  0.00     0.210 HD
ENDBRANCH  24  35
TORSDOF 5
ENDMDL
MODEL 9
REMARK VINA RESULT:      -7.3      4.013     10.537
REMARK  5 active torsions:
REMARK  status: ('A' for Active; 'I' for Inactive)
REMARK    1  A    between atoms: C2_2  and  O4_4 
REMARK    2  A    between atoms: O4_4  and  C5_5 
REMARK    3  A    between atoms: C5_5  and  C6_6 
REMARK    4  A    between atoms: C6_6  and  C8_8 
REMARK    5  A    between atoms: C35_31  and  O37_32 
ROOT
ATOM      1  C8  RES d   1      17.698   5.304  15.112  0.00  0.00     0.160 C 
ATOM      2  O9  RES d   1      16.302   5.122  15.414  0.00  0.00    -0.334 OA
ATOM      3  C10 RES d   1      15.680   6.366  15.028  0.00  0.00     0.159 C 
ATOM      4  C11 RES d   1      14.180   6.164  14.798  0.00  0.00     0.078 C 
ATOM      5  C12 RES d   1      15.914   7.435  16.098  0.00  0.00     0.078 C 
ATOM      6  O13 RES d   1      16.333   6.732  13.795  0.00  0.00    -0.347 OA
ATOM      7  C14 RES d   1      17.719   6.384  13.989  0.00  0.00     0.168 C 
ATOM      8  C16 RES d   1      18.219   5.676  12.701  0.00  0.00     0.041 C 
ATOM      9  C17 RES d   1      17.871   4.205  12.955  0.00  0.00     0.007 C 
ATOM     10  C19 RES d   1      18.663   3.192  12.149  0.00  0.00     0.037 C 
ATOM     11  C21 RES d   1      18.376   3.379  10.657  0.00  0.00     0.050 C 
ATOM     12  C22 RES d   1      19.206   2.381   9.843  0.00  0.00     0.201 C 
ATOM     13  F24 RES d   1      18.860   2.470   8.490  0.00  0.00    -0.245 F 
ATOM     14  C25 RES d   1      18.903   0.986  10.359  0.00  0.00    -0.027 A 
ATOM     15  C26 RES d   1      18.551   0.044   9.495  0.00  0.00     0.061 A 
ATOM     16  C27 RES d   1      18.232  -1.315   9.959  0.00  0.00     0.172 A 
ATOM     17  O28 RES d   1      17.946  -2.192   9.166  0.00  0.00    -0.289 OA
ATOM     18  C29 RES d   1      18.266  -1.589  11.406  0.00  0.00     0.052 A 
ATOM     19  C30 RES d   1      18.626  -0.635  12.250  0.00  0.00    -0.006 A 
ATOM     20  C31 RES d   1      19.022   0.740  11.833  0.00  0.00     0.039 A 
ATOM     21  C32 RES d   1      20.488   0.943  12.226  0.00  0.00     0.028 C 
ATOM     22  C33 RES d   1      18.224   1.792  12.607  0.00  0.00     0.147 C 
ATOM     23  F34 RES d   1      16.863   1.640  12.321  0.00  0.00    -0.238 F 
ATOM     24  C35 RES d   1      18.429   1.583  14.104  0.00  0.00     0.160 C 
ATOM     25  C38 RES d   1      17.749   2.687  14.930  0.00  0.00     0.048 C 
ATOM     26  C39 RES d   1      18.287   4.052  14.475  0.00  0.00     0.004 C 
ATOM     27  C40 RES d   1      19.814   4.062  14.563  0.00  0.00     0.019 C 
ENDROOT
BRANCH   1  28
ATOM     28  C6  RES d   1      18.482   5.738  16.324  0.00  0.00     0.188 C 
ATOM     29  O7  RES d   1      19.151   6.742  16.283  0.00  0.00    -0.292 OA
BRANCH  28  30
ATOM     30  C5  RES d   1      18.433   4.916  17.587  0.00  0.00     0.260 C 
BRANCH  30  31
ATOM     31  O4  RES d   1      17.063   4.517  17.851  0.00  0.00    -0.314 OA
BRANCH  31  32
ATOM     32  C2  RES d   1      16.431   5.136  18.862  0.00  0.00     0.255 C 
ATOM     33  C1  RES d   1      17.228   5.825  19.939  0.00  0.00     0.126 C 
ATOM     34  O3  RES d   1      15.224   5.140  18.907  0.00  0.00    -0.266 OA
ENDBRANCH  31  32
ENDBRANCH  30  31
ENDBRANCH  28  30
ENDBRANCH   1  28
BRANCH  24  35
ATOM     35  O37 RES d   1      19.830   1.585  14.389  0.00  0.00    -0.392 OA
ATOM     36  H62 RES d   1      20.043   1.773  15.312  0.00  0.00     0.210 HD
ENDBRANCH  24  35
TORSDOF 5
ENDMDL
