MODEL 1
REMARK VINA RESULT:      -8.4      0.000      0.000
REMARK  18 active torsions:
REMARK  status: ('A' for Active; 'I' for Inactive)
REMARK    1  A    between atoms: S2_2  and  C3_3 
REMARK    2  A    between atoms: C3_3  and  C4_4 
REMARK    3  A    between atoms: C4_4  and  N5_5 
REMARK    4  A    between atoms: N5_5  and  C6_6 
REMARK    5  A    between atoms: N10_10  and  C11_11 
REMARK    6  A    between atoms: C14_13  and  C16_14 
REMARK    7  A    between atoms: C16_14  and  O17_15 
REMARK    8  A    between atoms: O17_15  and  P18_16 
REMARK    9  A    between atoms: P18_16  and  O21_19 
REMARK   10  A    between atoms: O21_19  and  P22_20 
REMARK   11  A    between atoms: P22_20  and  C25_23 
REMARK   12  A    between atoms: C25_23  and  P28_26 
REMARK   13  A    between atoms: C32_30  and  O34_31 
REMARK   14  A    between atoms: C35_32  and  O37_33 
REMARK   15  A    between atoms: C40_36  and  S41_37 
REMARK   16  A    between atoms: S41_37  and  C42_38 
REMARK   17  A    between atoms: C42_38  and  C43_39 
REMARK   18  A    between atoms: C43_39  and  C44_40 
ROOT
ATOM      1  C11 ZIN A   1      19.220   2.606  10.240  0.00  0.00     0.262 C 
ATOM      2  O13 ZIN A   1      18.997   2.633   8.814  0.00  0.00    -0.353 OA
ATOM      3  C14 ZIN A   1      19.487   1.389   8.287  0.00  0.00     0.180 C 
ATOM      4  C32 ZIN A   1      19.403   0.347   9.420  0.00  0.00     0.182 C 
ATOM      5  C35 ZIN A   1      18.871   1.148  10.635  0.00  0.00     0.198 C 
ENDROOT
BRANCH   1   6
ATOM      6  N10 ZIN A   1      18.332   3.552  10.920  0.00  0.00    -0.294 N 
ATOM      7  C9  ZIN A   1      17.490   4.443  10.320  0.00  0.00     0.214 A 
ATOM      8  N8  ZIN A   1      16.850   5.126  11.224  0.00  0.00    -0.236 NA
ATOM      9  C7  ZIN A   1      17.239   4.718  12.457  0.00  0.00     0.149 A 
ATOM     10  C6  ZIN A   1      16.896   5.085  13.770  0.00  0.00     0.159 A 
ATOM     11  C38 ZIN A   1      18.193   3.703  12.277  0.00  0.00     0.168 A 
ATOM     12  N48 ZIN A   1      17.492   4.462  14.780  0.00  0.00    -0.203 NA
ATOM     13  C40 ZIN A   1      18.386   3.503  14.564  0.00  0.00     0.192 A 
ATOM     14  N39 ZIN A   1      18.737   3.128  13.344  0.00  0.00    -0.202 NA
BRANCH  10  15
ATOM     15  N5  ZIN A   1      15.963   6.078  14.006  0.00  0.00    -0.372 N 
ATOM     16  H56 ZIN A   1      15.769   6.735  13.319  0.00  0.00     0.161 HD
BRANCH  15  17
ATOM     17  C4  ZIN A   1      15.264   6.137  15.293  0.00  0.00     0.131 C 
BRANCH  17  18
ATOM     18  C3  ZIN A   1      14.335   7.353  15.312  0.00  0.00     0.093 C 
BRANCH  18  19
ATOM     19  S2  ZIN A   1      12.791   6.919  16.161  0.00  0.00    -0.172 SA
ATOM     20  C1  ZIN A   1      11.918   5.911  14.931  0.00  0.00     0.089 C 
ENDBRANCH  18  19
ENDBRANCH  17  18
ENDBRANCH  15  17
ENDBRANCH  10  15
BRANCH  13  21
ATOM     21  S41 ZIN A   1      19.136   2.711  15.947  0.00  0.00    -0.090 SA
BRANCH  21  22
ATOM     22  C42 ZIN A   1      19.076   0.989  15.393  0.00  0.00     0.091 C 
BRANCH  22  23
ATOM     23  C43 ZIN A   1      17.857   0.298  16.007  0.00  0.00     0.128 C 
BRANCH  23  24
ATOM     24  C44 ZIN A   1      18.160  -1.189  16.207  0.00  0.00     0.388 C 
ATOM     25  F45 ZIN A   1      19.313  -1.327  16.987  0.00  0.00    -0.171 F 
ATOM     26  F46 ZIN A   1      17.082  -1.800  16.855  0.00  0.00    -0.171 F 
ATOM     27  F47 ZIN A   1      18.362  -1.795  14.963  0.00  0.00    -0.171 F 
ENDBRANCH  23  24
ENDBRANCH  22  23
ENDBRANCH  21  22
ENDBRANCH  13  21
ENDBRANCH   1   6
BRANCH   5  28
ATOM     28  O37 ZIN A   1      19.547   0.763  11.835  0.00  0.00    -0.388 OA
ATOM     29  H61 ZIN A   1      19.182  -0.027  12.256  0.00  0.00     0.210 HD
ENDBRANCH   5  28
BRANCH   4  30
ATOM     30  O34 ZIN A   1      20.697  -0.190   9.703  0.00  0.00    -0.390 OA
ATOM     31  H60 ZIN A   1      21.069   0.106  10.544  0.00  0.00     0.210 HD
ENDBRANCH   4  30
BRANCH   3  32
ATOM     32  C16 ZIN A   1      18.624   0.947   7.104  0.00  0.00     0.216 C 
BRANCH  32  33
ATOM     33  O17 ZIN A   1      19.392   0.103   6.244  0.00  0.00    -0.287 OA
BRANCH  33  34
ATOM     34  P18 ZIN A   1      18.815  -1.258   5.608  0.00  0.00     0.416 P 
ATOM     35  O19 ZIN A   1      17.380  -1.016   5.088  0.00  0.00    -0.624 OA
ATOM     36  O20 ZIN A   1      19.719  -1.702   4.435  0.00  0.00    -0.624 OA
BRANCH  34  37
ATOM     37  O21 ZIN A   1      18.792  -2.409   6.732  0.00  0.00    -0.201 OA
BRANCH  37  38
ATOM     38  P22 ZIN A   1      19.169  -3.975   6.738  0.00  0.00     0.313 P 
ATOM     39  O23 ZIN A   1      20.705  -4.135   6.779  0.00  0.00    -0.644 OA
ATOM     40  O24 ZIN A   1      18.614  -4.643   5.460  0.00  0.00    -0.644 OA
BRANCH  38  41
ATOM     41  C25 ZIN A   1      18.436  -4.770   8.206  0.00  0.00     0.330 C 
ATOM     42 Cl26 ZIN A   1      16.820  -5.449   7.778  0.00  0.00    -0.073 Cl
ATOM     43 Cl27 ZIN A   1      19.515  -6.099   8.771  0.00  0.00    -0.073 Cl
BRANCH  41  44
ATOM     44  P28 ZIN A   1      18.244  -3.536   9.534  0.00  0.00     0.313 P 
ATOM     45  O29 ZIN A   1      17.559  -4.207  10.774  0.00  0.00    -0.637 OA
ATOM     46  O30 ZIN A   1      19.653  -2.991   9.947  0.00  0.00    -0.637 OA
ATOM     47  O31 ZIN A   1      17.354  -2.353   9.023  0.00  0.00    -0.637 OA
ENDBRANCH  41  44
ENDBRANCH  38  41
ENDBRANCH  37  38
ENDBRANCH  34  37
ENDBRANCH  33  34
ENDBRANCH  32  33
ENDBRANCH   3  32
TORSDOF 18
ENDMDL
MODEL 2
REMARK VINA RESULT:      -8.0      3.472      5.527
REMARK  18 active torsions:
REMARK  status: ('A' for Active; 'I' for Inactive)
REMARK    1  A    between atoms: S2_2  and  C3_3 
REMARK    2  A    between atoms: C3_3  and  C4_4 
REMARK    3  A    between atoms: C4_4  and  N5_5 
REMARK    4  A    between atoms: N5_5  and  C6_6 
REMARK    5  A    between atoms: N10_10  and  C11_11 
REMARK    6  A    between atoms: C14_13  and  C16_14 
REMARK    7  A    between atoms: C16_14  and  O17_15 
REMARK    8  A    between atoms: O17_15  and  P18_16 
REMARK    9  A    between atoms: P18_16  and  O21_19 
REMARK   10  A    between atoms: O21_19  and  P22_20 
REMARK   11  A    between atoms: P22_20  and  C25_23 
REMARK   12  A    between atoms: C25_23  and  P28_26 
REMARK   13  A    between atoms: C32_30  and  O34_31 
REMARK   14  A    between atoms: C35_32  and  O37_33 
REMARK   15  A    between atoms: C40_36  and  S41_37 
REMARK   16  A    between atoms: S41_37  and  C42_38 
REMARK   17  A    between atoms: C42_38  and  C43_39 
REMARK   18  A    between atoms: C43_39  and  C44_40 
ROOT
ATOM      1  C11 ZIN A   1      18.601  -1.473  11.809  0.00  0.00     0.262 C 
ATOM      2  O13 ZIN A   1      17.482  -2.378  11.689  0.00  0.00    -0.353 OA
ATOM      3  C14 ZIN A   1      17.693  -3.150  10.495  0.00  0.00     0.180 C 
ATOM      4  C32 ZIN A   1      19.213  -3.201  10.245  0.00  0.00     0.182 C 
ATOM      5  C35 ZIN A   1      19.815  -2.337  11.381  0.00  0.00     0.198 C 
ENDROOT
BRANCH   1   6
ATOM      6  N10 ZIN A   1      18.752  -1.021  13.195  0.00  0.00    -0.294 N 
ATOM      7  C9  ZIN A   1      19.074  -1.801  14.268  0.00  0.00     0.214 A 
ATOM      8  N8  ZIN A   1      19.123  -1.073  15.346  0.00  0.00    -0.236 NA
ATOM      9  C7  ZIN A   1      18.836   0.215  15.034  0.00  0.00     0.149 A 
ATOM     10  C6  ZIN A   1      18.743   1.409  15.769  0.00  0.00     0.159 A 
ATOM     11  C38 ZIN A   1      18.595   0.263  13.651  0.00  0.00     0.168 A 
ATOM     12  N48 ZIN A   1      18.427   2.527  15.127  0.00  0.00    -0.203 NA
ATOM     13  C40 ZIN A   1      18.212   2.529  13.816  0.00  0.00     0.192 A 
ATOM     14  N39 ZIN A   1      18.290   1.427  13.087  0.00  0.00    -0.202 NA
BRANCH  10  15
ATOM     15  N5  ZIN A   1      18.970   1.419  17.134  0.00  0.00    -0.372 N 
ATOM     16  H56 ZIN A   1      19.797   1.787  17.485  0.00  0.00     0.161 HD
BRANCH  15  17
ATOM     17  C4  ZIN A   1      17.962   0.878  18.049  0.00  0.00     0.131 C 
BRANCH  17  18
ATOM     18  C3  ZIN A   1      17.286   2.027  18.800  0.00  0.00     0.093 C 
BRANCH  18  19
ATOM     19  S2  ZIN A   1      18.392   3.466  18.824  0.00  0.00    -0.172 SA
ATOM     20  C1  ZIN A   1      17.375   4.775  18.086  0.00  0.00     0.089 C 
ENDBRANCH  18  19
ENDBRANCH  17  18
ENDBRANCH  15  17
ENDBRANCH  10  15
BRANCH  13  21
ATOM     21  S41 ZIN A   1      17.802   4.047  13.022  0.00  0.00    -0.090 SA
BRANCH  21  22
ATOM     22  C42 ZIN A   1      17.517   3.453  11.337  0.00  0.00     0.091 C 
BRANCH  22  23
ATOM     23  C43 ZIN A   1      18.855   3.335  10.604  0.00  0.00     0.128 C 
BRANCH  23  24
ATOM     24  C44 ZIN A   1      18.756   2.246   9.533  0.00  0.00     0.388 C 
ATOM     25  F45 ZIN A   1      17.538   1.570   9.667  0.00  0.00    -0.171 F 
ATOM     26  F46 ZIN A   1      18.827   2.831   8.265  0.00  0.00    -0.171 F 
ATOM     27  F47 ZIN A   1      19.812   1.342   9.690  0.00  0.00    -0.171 F 
ENDBRANCH  23  24
ENDBRANCH  22  23
ENDBRANCH  21  22
ENDBRANCH  13  21
ENDBRANCH   1   6
BRANCH   5  28
ATOM     28  O37 ZIN A   1      20.882  -1.520  10.891  0.00  0.00    -0.388 OA
ATOM     29  H61 ZIN A   1      21.732  -1.684  11.321  0.00  0.00     0.210 HD
ENDBRANCH   5  28
BRANCH   4  30
ATOM     30  O34 ZIN A   1      19.529  -2.639   8.969  0.00  0.00    -0.390 OA
ATOM     31  H60 ZIN A   1      20.469  -2.668   8.749  0.00  0.00     0.210 HD
ENDBRANCH   4  30
BRANCH   3  32
ATOM     32  C16 ZIN A   1      17.147  -4.567  10.688  0.00  0.00     0.216 C 
BRANCH  32  33
ATOM     33  O17 ZIN A   1      16.496  -4.993   9.489  0.00  0.00    -0.287 OA
BRANCH  33  34
ATOM     34  P18 ZIN A   1      17.220  -5.897   8.372  0.00  0.00     0.416 P 
ATOM     35  O19 ZIN A   1      18.619  -6.316   8.875  0.00  0.00    -0.624 OA
ATOM     36  O20 ZIN A   1      16.370  -7.159   8.100  0.00  0.00    -0.624 OA
BRANCH  34  37
ATOM     37  O21 ZIN A   1      17.371  -5.050   7.011  0.00  0.00    -0.201 OA
BRANCH  37  38
ATOM     38  P22 ZIN A   1      17.278  -5.420   5.447  0.00  0.00     0.313 P 
ATOM     39  O23 ZIN A   1      15.828  -5.823   5.098  0.00  0.00    -0.644 OA
ATOM     40  O24 ZIN A   1      18.228  -6.599   5.139  0.00  0.00    -0.644 OA
BRANCH  38  41
ATOM     41  C25 ZIN A   1      17.763  -3.973   4.450  0.00  0.00     0.330 C 
ATOM     42 Cl26 ZIN A   1      18.533  -4.530   2.917  0.00  0.00    -0.073 Cl
ATOM     43 Cl27 ZIN A   1      16.302  -2.990   4.065  0.00  0.00    -0.073 Cl
BRANCH  41  44
ATOM     44  P28 ZIN A   1      18.949  -2.957   5.390  0.00  0.00     0.313 P 
ATOM     45  O29 ZIN A   1      20.005  -3.889   6.077  0.00  0.00    -0.637 OA
ATOM     46  O30 ZIN A   1      19.677  -1.969   4.417  0.00  0.00    -0.637 OA
ATOM     47  O31 ZIN A   1      18.183  -2.141   6.486  0.00  0.00    -0.637 OA
ENDBRANCH  41  44
ENDBRANCH  38  41
ENDBRANCH  37  38
ENDBRANCH  34  37
ENDBRANCH  33  34
ENDBRANCH  32  33
ENDBRANCH   3  32
TORSDOF 18
ENDMDL
MODEL 3
REMARK VINA RESULT:      -8.0      6.831     10.858
REMARK  18 active torsions:
REMARK  status: ('A' for Active; 'I' for Inactive)
REMARK    1  A    between atoms: S2_2  and  C3_3 
REMARK    2  A    between atoms: C3_3  and  C4_4 
REMARK    3  A    between atoms: C4_4  and  N5_5 
REMARK    4  A    between atoms: N5_5  and  C6_6 
REMARK    5  A    between atoms: N10_10  and  C11_11 
REMARK    6  A    between atoms: C14_13  and  C16_14 
REMARK    7  A    between atoms: C16_14  and  O17_15 
REMARK    8  A    between atoms: O17_15  and  P18_16 
REMARK    9  A    between atoms: P18_16  and  O21_19 
REMARK   10  A    between atoms: O21_19  and  P22_20 
REMARK   11  A    between atoms: P22_20  and  C25_23 
REMARK   12  A    between atoms: C25_23  and  P28_26 
REMARK   13  A    between atoms: C32_30  and  O34_31 
REMARK   14  A    between atoms: C35_32  and  O37_33 
REMARK   15  A    between atoms: C40_36  and  S41_37 
REMARK   16  A    between atoms: S41_37  and  C42_38 
REMARK   17  A    between atoms: C42_38  and  C43_39 
REMARK   18  A    between atoms: C43_39  and  C44_40 
ROOT
ATOM      1  C11 ZIN A   1      19.543  -2.047  11.929  0.00  0.00     0.262 C 
ATOM      2  O13 ZIN A   1      19.207  -1.576  13.252  0.00  0.00    -0.353 OA
ATOM      3  C14 ZIN A   1      19.962  -0.374  13.475  0.00  0.00     0.180 C 
ATOM      4  C32 ZIN A   1      20.244   0.252  12.095  0.00  0.00     0.182 C 
ATOM      5  C35 ZIN A   1      19.620  -0.747  11.089  0.00  0.00     0.198 C 
ENDROOT
BRANCH   1   6
ATOM      6  N10 ZIN A   1      18.495  -2.933  11.414  0.00  0.00    -0.294 N 
ATOM      7  C9  ZIN A   1      17.439  -3.430  12.121  0.00  0.00     0.214 A 
ATOM      8  N8  ZIN A   1      16.706  -4.182  11.353  0.00  0.00    -0.236 NA
ATOM      9  C7  ZIN A   1      17.243  -4.215  10.109  0.00  0.00     0.149 A 
ATOM     10  C6  ZIN A   1      16.894  -4.844   8.902  0.00  0.00     0.159 A 
ATOM     11  C38 ZIN A   1      18.397  -3.415  10.134  0.00  0.00     0.168 A 
ATOM     12  N48 ZIN A   1      17.671  -4.660   7.841  0.00  0.00    -0.203 NA
ATOM     13  C40 ZIN A   1      18.751  -3.890   7.907  0.00  0.00     0.192 A 
ATOM     14  N39 ZIN A   1      19.115  -3.279   9.024  0.00  0.00    -0.202 NA
BRANCH  10  15
ATOM     15  N5  ZIN A   1      15.768  -5.644   8.821  0.00  0.00    -0.372 N 
ATOM     16  H56 ZIN A   1      14.954  -5.385   9.282  0.00  0.00     0.161 HD
BRANCH  15  17
ATOM     17  C4  ZIN A   1      15.802  -6.881   8.037  0.00  0.00     0.131 C 
BRANCH  17  18
ATOM     18  C3  ZIN A   1      14.621  -6.901   7.064  0.00  0.00     0.093 C 
BRANCH  18  19
ATOM     19  S2  ZIN A   1      15.112  -6.119   5.502  0.00  0.00    -0.172 SA
ATOM     20  C1  ZIN A   1      16.635  -7.003   5.064  0.00  0.00     0.089 C 
ENDBRANCH  18  19
ENDBRANCH  17  18
ENDBRANCH  15  17
ENDBRANCH  10  15
BRANCH  13  21
ATOM     21  S41 ZIN A   1      19.737  -3.680   6.462  0.00  0.00    -0.090 SA
BRANCH  21  22
ATOM     22  C42 ZIN A   1      18.782  -2.398   5.614  0.00  0.00     0.091 C 
BRANCH  22  23
ATOM     23  C43 ZIN A   1      19.050  -1.043   6.271  0.00  0.00     0.128 C 
BRANCH  23  24
ATOM     24  C44 ZIN A   1      17.752  -0.231   6.313  0.00  0.00     0.388 C 
ATOM     25  F45 ZIN A   1      18.035   1.112   6.043  0.00  0.00    -0.171 F 
ATOM     26  F46 ZIN A   1      16.864  -0.724   5.353  0.00  0.00    -0.171 F 
ATOM     27  F47 ZIN A   1      17.175  -0.341   7.583  0.00  0.00    -0.171 F 
ENDBRANCH  23  24
ENDBRANCH  22  23
ENDBRANCH  21  22
ENDBRANCH  13  21
ENDBRANCH   1   6
BRANCH   5  28
ATOM     28  O37 ZIN A   1      20.467  -0.919   9.949  0.00  0.00    -0.388 OA
ATOM     29  H61 ZIN A   1      20.115  -1.527   9.285  0.00  0.00     0.210 HD
ENDBRANCH   5  28
BRANCH   4  30
ATOM     30  O34 ZIN A   1      21.652   0.369  11.877  0.00  0.00    -0.390 OA
ATOM     31  H60 ZIN A   1      22.133   0.753  12.621  0.00  0.00     0.210 HD
ENDBRANCH   4  30
BRANCH   3  32
ATOM     32  C16 ZIN A   1      19.153   0.598  14.336  0.00  0.00     0.216 C 
BRANCH  32  33
ATOM     33  O17 ZIN A   1      19.291   0.242  15.713  0.00  0.00    -0.287 OA
BRANCH  33  34
ATOM     34  P18 ZIN A   1      18.721   1.149  16.914  0.00  0.00     0.416 P 
ATOM     35  O19 ZIN A   1      17.463   0.481  17.514  0.00  0.00    -0.624 OA
ATOM     36  O20 ZIN A   1      19.802   1.290  18.010  0.00  0.00    -0.624 OA
BRANCH  34  37
ATOM     37  O21 ZIN A   1      18.337   2.607  16.350  0.00  0.00    -0.201 OA
BRANCH  37  38
ATOM     38  P22 ZIN A   1      18.976   4.076  16.519  0.00  0.00     0.313 P 
ATOM     39  O23 ZIN A   1      20.510   3.957  16.658  0.00  0.00    -0.644 OA
ATOM     40  O24 ZIN A   1      18.394   4.748  17.782  0.00  0.00    -0.644 OA
BRANCH  38  41
ATOM     41  C25 ZIN A   1      18.574   5.085  15.055  0.00  0.00     0.330 C 
ATOM     42 Cl26 ZIN A   1      20.099   5.594  14.238  0.00  0.00    -0.073 Cl
ATOM     43 Cl27 ZIN A   1      17.575   4.113  13.911  0.00  0.00    -0.073 Cl
BRANCH  41  44
ATOM     44  P28 ZIN A   1      17.640   6.563  15.572  0.00  0.00     0.313 P 
ATOM     45  O29 ZIN A   1      17.244   7.398  14.308  0.00  0.00    -0.637 OA
ATOM     46  O30 ZIN A   1      16.345   6.121  16.335  0.00  0.00    -0.637 OA
ATOM     47  O31 ZIN A   1      18.530   7.438  16.519  0.00  0.00    -0.637 OA
ENDBRANCH  41  44
ENDBRANCH  38  41
ENDBRANCH  37  38
ENDBRANCH  34  37
ENDBRANCH  33  34
ENDBRANCH  32  33
ENDBRANCH   3  32
TORSDOF 18
ENDMDL
MODEL 4
REMARK VINA RESULT:      -7.8      2.110      3.174
REMARK  18 active torsions:
REMARK  status: ('A' for Active; 'I' for Inactive)
REMARK    1  A    between atoms: S2_2  and  C3_3 
REMARK    2  A    between atoms: C3_3  and  C4_4 
REMARK    3  A    between atoms: C4_4  and  N5_5 
REMARK    4  A    between atoms: N5_5  and  C6_6 
REMARK    5  A    between atoms: N10_10  and  C11_11 
REMARK    6  A    between atoms: C14_13  and  C16_14 
REMARK    7  A    between atoms: C16_14  and  O17_15 
REMARK    8  A    between atoms: O17_15  and  P18_16 
REMARK    9  A    between atoms: P18_16  and  O21_19 
REMARK   10  A    between atoms: O21_19  and  P22_20 
REMARK   11  A    between atoms: P22_20  and  C25_23 
REMARK   12  A    between atoms: C25_23  and  P28_26 
REMARK   13  A    between atoms: C32_30  and  O34_31 
REMARK   14  A    between atoms: C35_32  and  O37_33 
REMARK   15  A    between atoms: C40_36  and  S41_37 
REMARK   16  A    between atoms: S41_37  and  C42_38 
REMARK   17  A    between atoms: C42_38  and  C43_39 
REMARK   18  A    between atoms: C43_39  and  C44_40 
ROOT
ATOM      1  C11 ZIN A   1      19.388   2.079  10.322  0.00  0.00     0.262 C 
ATOM      2  O13 ZIN A   1      18.682   1.319   9.316  0.00  0.00    -0.353 OA
ATOM      3  C14 ZIN A   1      19.348   0.051   9.202  0.00  0.00     0.180 C 
ATOM      4  C32 ZIN A   1      20.028  -0.233  10.557  0.00  0.00     0.182 C 
ATOM      5  C35 ZIN A   1      19.719   1.024  11.408  0.00  0.00     0.198 C 
ENDROOT
BRANCH   1   6
ATOM      6  N10 ZIN A   1      18.530   3.133  10.870  0.00  0.00    -0.294 N 
ATOM      7  C9  ZIN A   1      17.776   4.015  10.151  0.00  0.00     0.214 A 
ATOM      8  N8  ZIN A   1      17.139   4.813  10.958  0.00  0.00    -0.236 NA
ATOM      9  C7  ZIN A   1      17.441   4.494  12.240  0.00  0.00     0.149 A 
ATOM     10  C6  ZIN A   1      17.061   4.996  13.497  0.00  0.00     0.159 A 
ATOM     11  C38 ZIN A   1      18.337   3.413  12.199  0.00  0.00     0.168 A 
ATOM     12  N48 ZIN A   1      17.568   4.432  14.587  0.00  0.00    -0.203 NA
ATOM     13  C40 ZIN A   1      18.409   3.407  14.502  0.00  0.00     0.192 A 
ATOM     14  N39 ZIN A   1      18.792   2.904  13.339  0.00  0.00    -0.202 NA
BRANCH  10  15
ATOM     15  N5  ZIN A   1      16.182   6.060  13.596  0.00  0.00    -0.372 N 
ATOM     16  H56 ZIN A   1      16.232   6.792  12.961  0.00  0.00     0.161 HD
BRANCH  15  17
ATOM     17  C4  ZIN A   1      15.175   6.082  14.660  0.00  0.00     0.131 C 
BRANCH  17  18
ATOM     18  C3  ZIN A   1      15.597   7.078  15.742  0.00  0.00     0.093 C 
BRANCH  18  19
ATOM     19  S2  ZIN A   1      15.758   6.214  17.329  0.00  0.00    -0.172 SA
ATOM     20  C1  ZIN A   1      17.513   6.429  17.734  0.00  0.00     0.089 C 
ENDBRANCH  18  19
ENDBRANCH  17  18
ENDBRANCH  15  17
ENDBRANCH  10  15
BRANCH  13  21
ATOM     21  S41 ZIN A   1      19.041   2.699  15.986  0.00  0.00    -0.090 SA
BRANCH  21  22
ATOM     22  C42 ZIN A   1      19.070   0.953  15.512  0.00  0.00     0.091 C 
BRANCH  22  23
ATOM     23  C43 ZIN A   1      18.573   0.099  16.680  0.00  0.00     0.128 C 
BRANCH  23  24
ATOM     24  C44 ZIN A   1      18.680  -1.383  16.311  0.00  0.00     0.388 C 
ATOM     25  F45 ZIN A   1      17.471  -2.024  16.601  0.00  0.00    -0.171 F 
ATOM     26  F46 ZIN A   1      18.956  -1.503  14.945  0.00  0.00    -0.171 F 
ATOM     27  F47 ZIN A   1      19.711  -1.974  17.049  0.00  0.00    -0.171 F 
ENDBRANCH  23  24
ENDBRANCH  22  23
ENDBRANCH  21  22
ENDBRANCH  13  21
ENDBRANCH   1   6
BRANCH   5  28
ATOM     28  O37 ZIN A   1      20.861   1.415  12.174  0.00  0.00    -0.388 OA
ATOM     29  H61 ZIN A   1      21.706   1.158  11.780  0.00  0.00     0.210 HD
ENDBRANCH   5  28
BRANCH   4  30
ATOM     30  O34 ZIN A   1      21.439  -0.386  10.386  0.00  0.00    -0.390 OA
ATOM     31  H60 ZIN A   1      21.683  -0.995   9.676  0.00  0.00     0.210 HD
ENDBRANCH   4  30
BRANCH   3  32
ATOM     32  C16 ZIN A   1      18.330  -1.047   8.887  0.00  0.00     0.216 C 
BRANCH  32  33
ATOM     33  O17 ZIN A   1      18.988  -2.315   8.871  0.00  0.00    -0.287 OA
BRANCH  33  34
ATOM     34  P18 ZIN A   1      18.438  -3.599   9.671  0.00  0.00     0.416 P 
ATOM     35  O19 ZIN A   1      19.618  -4.325  10.355  0.00  0.00    -0.624 OA
ATOM     36  O20 ZIN A   1      17.424  -3.140  10.744  0.00  0.00    -0.624 OA
BRANCH  34  37
ATOM     37  O21 ZIN A   1      17.712  -4.603   8.643  0.00  0.00    -0.201 OA
BRANCH  37  38
ATOM     38  P22 ZIN A   1      17.742  -6.199   8.429  0.00  0.00     0.313 P 
ATOM     39  O23 ZIN A   1      17.122  -6.895   9.661  0.00  0.00    -0.644 OA
ATOM     40  O24 ZIN A   1      19.204  -6.667   8.254  0.00  0.00    -0.644 OA
BRANCH  38  41
ATOM     41  C25 ZIN A   1      16.783  -6.630   6.940  0.00  0.00     0.330 C 
ATOM     42 Cl26 ZIN A   1      17.099  -5.411   5.648  0.00  0.00    -0.073 Cl
ATOM     43 Cl27 ZIN A   1      17.277  -8.263   6.359  0.00  0.00    -0.073 Cl
BRANCH  41  44
ATOM     44  P28 ZIN A   1      15.005  -6.640   7.343  0.00  0.00     0.313 P 
ATOM     45  O29 ZIN A   1      14.732  -5.645   8.523  0.00  0.00    -0.637 OA
ATOM     46  O30 ZIN A   1      14.182  -6.198   6.086  0.00  0.00    -0.637 OA
ATOM     47  O31 ZIN A   1      14.575  -8.085   7.768  0.00  0.00    -0.637 OA
ENDBRANCH  41  44
ENDBRANCH  38  41
ENDBRANCH  37  38
ENDBRANCH  34  37
ENDBRANCH  33  34
ENDBRANCH  32  33
ENDBRANCH   3  32
TORSDOF 18
ENDMDL
MODEL 5
REMARK VINA RESULT:      -7.8      2.036      3.368
REMARK  18 active torsions:
REMARK  status: ('A' for Active; 'I' for Inactive)
REMARK    1  A    between atoms: S2_2  and  C3_3 
REMARK    2  A    between atoms: C3_3  and  C4_4 
REMARK    3  A    between atoms: C4_4  and  N5_5 
REMARK    4  A    between atoms: N5_5  and  C6_6 
REMARK    5  A    between atoms: N10_10  and  C11_11 
REMARK    6  A    between atoms: C14_13  and  C16_14 
REMARK    7  A    between atoms: C16_14  and  O17_15 
REMARK    8  A    between atoms: O17_15  and  P18_16 
REMARK    9  A    between atoms: P18_16  and  O21_19 
REMARK   10  A    between atoms: O21_19  and  P22_20 
REMARK   11  A    between atoms: P22_20  and  C25_23 
REMARK   12  A    between atoms: C25_23  and  P28_26 
REMARK   13  A    between atoms: C32_30  and  O34_31 
REMARK   14  A    between atoms: C35_32  and  O37_33 
REMARK   15  A    between atoms: C40_36  and  S41_37 
REMARK   16  A    between atoms: S41_37  and  C42_38 
REMARK   17  A    between atoms: C42_38  and  C43_39 
REMARK   18  A    between atoms: C43_39  and  C44_40 
ROOT
ATOM      1  C11 ZIN A   1      18.977   1.551  10.801  0.00  0.00     0.262 C 
ATOM      2  O13 ZIN A   1      18.092   0.442  10.531  0.00  0.00    -0.353 OA
ATOM      3  C14 ZIN A   1      18.890  -0.752  10.569  0.00  0.00     0.180 C 
ATOM      4  C32 ZIN A   1      20.092  -0.470  11.493  0.00  0.00     0.182 C 
ATOM      5  C35 ZIN A   1      19.909   1.010  11.915  0.00  0.00     0.198 C 
ENDROOT
BRANCH   1   6
ATOM      6  N10 ZIN A   1      18.219   2.711  11.280  0.00  0.00    -0.294 N 
ATOM      7  C9  ZIN A   1      17.498   3.578  10.512  0.00  0.00     0.214 A 
ATOM      8  N8  ZIN A   1      16.955   4.490  11.264  0.00  0.00    -0.236 NA
ATOM      9  C7  ZIN A   1      17.291   4.267  12.558  0.00  0.00     0.149 A 
ATOM     10  C6  ZIN A   1      17.003   4.908  13.776  0.00  0.00     0.159 A 
ATOM     11  C38 ZIN A   1      18.106   3.123  12.584  0.00  0.00     0.168 A 
ATOM     12  N48 ZIN A   1      17.517   4.408  14.894  0.00  0.00    -0.203 NA
ATOM     13  C40 ZIN A   1      18.279   3.321  14.873  0.00  0.00     0.192 A 
ATOM     14  N39 ZIN A   1      18.574   2.687  13.749  0.00  0.00    -0.202 NA
BRANCH  10  15
ATOM     15  N5  ZIN A   1      16.206   6.038  13.809  0.00  0.00    -0.372 N 
ATOM     16  H56 ZIN A   1      15.527   6.173  13.128  0.00  0.00     0.161 HD
BRANCH  15  17
ATOM     17  C4  ZIN A   1      16.384   7.029  14.873  0.00  0.00     0.131 C 
BRANCH  17  18
ATOM     18  C3  ZIN A   1      15.216   6.935  15.858  0.00  0.00     0.093 C 
BRANCH  18  19
ATOM     19  S2  ZIN A   1      13.725   6.396  14.976  0.00  0.00    -0.172 SA
ATOM     20  C1  ZIN A   1      12.526   7.702  15.364  0.00  0.00     0.089 C 
ENDBRANCH  18  19
ENDBRANCH  17  18
ENDBRANCH  15  17
ENDBRANCH  10  15
BRANCH  13  21
ATOM     21  S41 ZIN A   1      18.925   2.705  16.392  0.00  0.00    -0.090 SA
BRANCH  21  22
ATOM     22  C42 ZIN A   1      19.092   0.952  15.974  0.00  0.00     0.091 C 
BRANCH  22  23
ATOM     23  C43 ZIN A   1      17.714   0.287  16.001  0.00  0.00     0.128 C 
BRANCH  23  24
ATOM     24  C44 ZIN A   1      17.748  -0.922  16.938  0.00  0.00     0.388 C 
ATOM     25  F45 ZIN A   1      16.456  -1.439  17.079  0.00  0.00    -0.171 F 
ATOM     26  F46 ZIN A   1      18.588  -1.903  16.402  0.00  0.00    -0.171 F 
ATOM     27  F47 ZIN A   1      18.233  -0.528  18.190  0.00  0.00    -0.171 F 
ENDBRANCH  23  24
ENDBRANCH  22  23
ENDBRANCH  21  22
ENDBRANCH  13  21
ENDBRANCH   1   6
BRANCH   5  28
ATOM     28  O37 ZIN A   1      21.162   1.698  11.919  0.00  0.00    -0.388 OA
ATOM     29  H61 ZIN A   1      21.752   1.438  12.640  0.00  0.00     0.210 HD
ENDBRANCH   5  28
BRANCH   4  30
ATOM     30  O34 ZIN A   1      21.320  -0.639  10.782  0.00  0.00    -0.390 OA
ATOM     31  H60 ZIN A   1      22.107  -0.442  11.306  0.00  0.00     0.210 HD
ENDBRANCH   4  30
BRANCH   3  32
ATOM     32  C16 ZIN A   1      18.064  -1.914  11.125  0.00  0.00     0.216 C 
BRANCH  32  33
ATOM     33  O17 ZIN A   1      18.254  -3.068  10.303  0.00  0.00    -0.287 OA
BRANCH  33  34
ATOM     34  P18 ZIN A   1      18.836  -4.459  10.866  0.00  0.00     0.416 P 
ATOM     35  O19 ZIN A   1      20.312  -4.270  11.281  0.00  0.00    -0.624 OA
ATOM     36  O20 ZIN A   1      18.008  -4.903  12.094  0.00  0.00    -0.624 OA
BRANCH  34  37
ATOM     37  O21 ZIN A   1      18.740  -5.584   9.720  0.00  0.00    -0.201 OA
BRANCH  37  38
ATOM     38  P22 ZIN A   1      17.781  -5.804   8.445  0.00  0.00     0.313 P 
ATOM     39  O23 ZIN A   1      16.413  -5.138   8.708  0.00  0.00    -0.644 OA
ATOM     40  O24 ZIN A   1      17.581  -7.317   8.205  0.00  0.00    -0.644 OA
BRANCH  38  41
ATOM     41  C25 ZIN A   1      18.549  -5.053   6.971  0.00  0.00     0.330 C 
ATOM     42 Cl26 ZIN A   1      18.358  -3.261   7.042  0.00  0.00    -0.073 Cl
ATOM     43 Cl27 ZIN A   1      20.303  -5.469   6.929  0.00  0.00    -0.073 Cl
BRANCH  41  44
ATOM     44  P28 ZIN A   1      17.737  -5.692   5.470  0.00  0.00     0.313 P 
ATOM     45  O29 ZIN A   1      18.265  -7.135   5.165  0.00  0.00    -0.637 OA
ATOM     46  O30 ZIN A   1      16.187  -5.739   5.695  0.00  0.00    -0.637 OA
ATOM     47  O31 ZIN A   1      18.061  -4.751   4.260  0.00  0.00    -0.637 OA
ENDBRANCH  41  44
ENDBRANCH  38  41
ENDBRANCH  37  38
ENDBRANCH  34  37
ENDBRANCH  33  34
ENDBRANCH  32  33
ENDBRANCH   3  32
TORSDOF 18
ENDMDL
MODEL 6
REMARK VINA RESULT:      -7.8      2.262      3.194
REMARK  18 active torsions:
REMARK  status: ('A' for Active; 'I' for Inactive)
REMARK    1  A    between atoms: S2_2  and  C3_3 
REMARK    2  A    between atoms: C3_3  and  C4_4 
REMARK    3  A    between atoms: C4_4  and  N5_5 
REMARK    4  A    between atoms: N5_5  and  C6_6 
REMARK    5  A    between atoms: N10_10  and  C11_11 
REMARK    6  A    between atoms: C14_13  and  C16_14 
REMARK    7  A    between atoms: C16_14  and  O17_15 
REMARK    8  A    between atoms: O17_15  and  P18_16 
REMARK    9  A    between atoms: P18_16  and  O21_19 
REMARK   10  A    between atoms: O21_19  and  P22_20 
REMARK   11  A    between atoms: P22_20  and  C25_23 
REMARK   12  A    between atoms: C25_23  and  P28_26 
REMARK   13  A    between atoms: C32_30  and  O34_31 
REMARK   14  A    between atoms: C35_32  and  O37_33 
REMARK   15  A    between atoms: C40_36  and  S41_37 
REMARK   16  A    between atoms: S41_37  and  C42_38 
REMARK   17  A    between atoms: C42_38  and  C43_39 
REMARK   18  A    between atoms: C43_39  and  C44_40 
ROOT
ATOM      1  C11 ZIN A   1      19.478   0.057  11.049  0.00  0.00     0.262 C 
ATOM      2  O13 ZIN A   1      19.209  -0.444   9.722  0.00  0.00    -0.353 OA
ATOM      3  C14 ZIN A   1      19.547  -1.841   9.724  0.00  0.00     0.180 C 
ATOM      4  C32 ZIN A   1      19.393  -2.348  11.172  0.00  0.00     0.182 C 
ATOM      5  C35 ZIN A   1      18.992  -1.086  11.976  0.00  0.00     0.198 C 
ENDROOT
BRANCH   1   6
ATOM      6  N10 ZIN A   1      18.718   1.285  11.301  0.00  0.00    -0.294 N 
ATOM      7  C9  ZIN A   1      17.998   1.991  10.383  0.00  0.00     0.214 A 
ATOM      8  N8  ZIN A   1      17.451   3.027  10.949  0.00  0.00    -0.236 NA
ATOM      9  C7  ZIN A   1      17.785   3.051  12.263  0.00  0.00     0.149 A 
ATOM     10  C6  ZIN A   1      17.493   3.908  13.338  0.00  0.00     0.159 A 
ATOM     11  C38 ZIN A   1      18.601   1.934  12.504  0.00  0.00     0.168 A 
ATOM     12  N48 ZIN A   1      18.005   3.628  14.531  0.00  0.00    -0.203 NA
ATOM     13  C40 ZIN A   1      18.769   2.557  14.716  0.00  0.00     0.192 A 
ATOM     14  N39 ZIN A   1      19.067   1.725  13.731  0.00  0.00    -0.202 NA
BRANCH  10  15
ATOM     15  N5  ZIN A   1      16.695   5.023  13.157  0.00  0.00    -0.372 N 
ATOM     16  H56 ZIN A   1      16.517   5.353  12.262  0.00  0.00     0.161 HD
BRANCH  15  17
ATOM     17  C4  ZIN A   1      16.114   5.705  14.317  0.00  0.00     0.131 C 
BRANCH  17  18
ATOM     18  C3  ZIN A   1      16.622   7.149  14.365  0.00  0.00     0.093 C 
BRANCH  18  19
ATOM     19  S2  ZIN A   1      18.100   7.234  15.414  0.00  0.00    -0.172 SA
ATOM     20  C1  ZIN A   1      17.602   6.317  16.898  0.00  0.00     0.089 C 
ENDBRANCH  18  19
ENDBRANCH  17  18
ENDBRANCH  15  17
ENDBRANCH  10  15
BRANCH  13  21
ATOM     21  S41 ZIN A   1      19.413   2.238  16.325  0.00  0.00    -0.090 SA
BRANCH  21  22
ATOM     22  C42 ZIN A   1      18.006   1.367  17.058  0.00  0.00     0.091 C 
BRANCH  22  23
ATOM     23  C43 ZIN A   1      18.441  -0.036  17.485  0.00  0.00     0.128 C 
BRANCH  23  24
ATOM     24  C44 ZIN A   1      17.841  -1.070  16.528  0.00  0.00     0.388 C 
ATOM     25  F45 ZIN A   1      16.773  -1.720  17.155  0.00  0.00    -0.171 F 
ATOM     26  F46 ZIN A   1      17.383  -0.425  15.375  0.00  0.00    -0.171 F 
ATOM     27  F47 ZIN A   1      18.820  -2.006  16.181  0.00  0.00    -0.171 F 
ENDBRANCH  23  24
ENDBRANCH  22  23
ENDBRANCH  21  22
ENDBRANCH  13  21
ENDBRANCH   1   6
BRANCH   5  28
ATOM     28  O37 ZIN A   1      19.665  -1.049  13.237  0.00  0.00    -0.388 OA
ATOM     29  H61 ZIN A   1      20.342  -1.732  13.342  0.00  0.00     0.210 HD
ENDBRANCH   5  28
BRANCH   4  30
ATOM     30  O34 ZIN A   1      20.632  -2.874  11.652  0.00  0.00    -0.390 OA
ATOM     31  H60 ZIN A   1      20.700  -3.836  11.591  0.00  0.00     0.210 HD
ENDBRANCH   4  30
BRANCH   3  32
ATOM     32  C16 ZIN A   1      18.601  -2.608   8.798  0.00  0.00     0.216 C 
BRANCH  32  33
ATOM     33  O17 ZIN A   1      18.844  -2.222   7.444  0.00  0.00    -0.287 OA
BRANCH  33  34
ATOM     34  P18 ZIN A   1      19.176  -3.279   6.277  0.00  0.00     0.416 P 
ATOM     35  O19 ZIN A   1      19.180  -2.556   4.911  0.00  0.00    -0.624 OA
ATOM     36  O20 ZIN A   1      20.566  -3.906   6.531  0.00  0.00    -0.624 OA
BRANCH  34  37
ATOM     37  O21 ZIN A   1      18.059  -4.438   6.267  0.00  0.00    -0.201 OA
BRANCH  37  38
ATOM     38  P22 ZIN A   1      18.075  -6.010   6.615  0.00  0.00     0.313 P 
ATOM     39  O23 ZIN A   1      19.194  -6.300   7.640  0.00  0.00    -0.644 OA
ATOM     40  O24 ZIN A   1      18.335  -6.820   5.326  0.00  0.00    -0.644 OA
BRANCH  38  41
ATOM     41  C25 ZIN A   1      16.464  -6.492   7.321  0.00  0.00     0.330 C 
ATOM     42 Cl26 ZIN A   1      16.576  -8.165   7.987  0.00  0.00    -0.073 Cl
ATOM     43 Cl27 ZIN A   1      16.019  -5.348   8.641  0.00  0.00    -0.073 Cl
BRANCH  41  44
ATOM     44  P28 ZIN A   1      15.191  -6.442   6.018  0.00  0.00     0.313 P 
ATOM     45  O29 ZIN A   1      15.593  -5.383   4.935  0.00  0.00    -0.637 OA
ATOM     46  O30 ZIN A   1      15.072  -7.854   5.349  0.00  0.00    -0.637 OA
ATOM     47  O31 ZIN A   1      13.813  -6.046   6.649  0.00  0.00    -0.637 OA
ENDBRANCH  41  44
ENDBRANCH  38  41
ENDBRANCH  37  38
ENDBRANCH  34  37
ENDBRANCH  33  34
ENDBRANCH  32  33
ENDBRANCH   3  32
TORSDOF 18
ENDMDL
MODEL 7
REMARK VINA RESULT:      -7.7      3.704      5.801
REMARK  18 active torsions:
REMARK  status: ('A' for Active; 'I' for Inactive)
REMARK    1  A    between atoms: S2_2  and  C3_3 
REMARK    2  A    between atoms: C3_3  and  C4_4 
REMARK    3  A    between atoms: C4_4  and  N5_5 
REMARK    4  A    between atoms: N5_5  and  C6_6 
REMARK    5  A    between atoms: N10_10  and  C11_11 
REMARK    6  A    between atoms: C14_13  and  C16_14 
REMARK    7  A    between atoms: C16_14  and  O17_15 
REMARK    8  A    between atoms: O17_15  and  P18_16 
REMARK    9  A    between atoms: P18_16  and  O21_19 
REMARK   10  A    between atoms: O21_19  and  P22_20 
REMARK   11  A    between atoms: P22_20  and  C25_23 
REMARK   12  A    between atoms: C25_23  and  P28_26 
REMARK   13  A    between atoms: C32_30  and  O34_31 
REMARK   14  A    between atoms: C35_32  and  O37_33 
REMARK   15  A    between atoms: C40_36  and  S41_37 
REMARK   16  A    between atoms: S41_37  and  C42_38 
REMARK   17  A    between atoms: C42_38  and  C43_39 
REMARK   18  A    between atoms: C43_39  and  C44_40 
ROOT
ATOM      1  C11 ZIN A   1      19.289  -1.546   6.323  0.00  0.00     0.262 C 
ATOM      2  O13 ZIN A   1      18.486  -1.385   5.133  0.00  0.00    -0.353 OA
ATOM      3  C14 ZIN A   1      18.214  -2.703   4.629  0.00  0.00     0.180 C 
ATOM      4  C32 ZIN A   1      18.271  -3.673   5.826  0.00  0.00     0.182 C 
ATOM      5  C35 ZIN A   1      18.655  -2.772   7.027  0.00  0.00     0.198 C 
ENDROOT
BRANCH   1   6
ATOM      6  N10 ZIN A   1      19.194  -0.356   7.173  0.00  0.00    -0.294 N 
ATOM      7  C9  ZIN A   1      19.039   0.931   6.746  0.00  0.00     0.214 A 
ATOM      8  N8  ZIN A   1      18.993   1.734   7.769  0.00  0.00    -0.236 NA
ATOM      9  C7  ZIN A   1      19.116   1.017   8.912  0.00  0.00     0.149 A 
ATOM     10  C6  ZIN A   1      19.135   1.338  10.281  0.00  0.00     0.159 A 
ATOM     11  C38 ZIN A   1      19.246  -0.332   8.544  0.00  0.00     0.168 A 
ATOM     12  N48 ZIN A   1      19.281   0.356  11.162  0.00  0.00    -0.203 NA
ATOM     13  C40 ZIN A   1      19.396  -0.907  10.770  0.00  0.00     0.192 A 
ATOM     14  N39 ZIN A   1      19.382  -1.253   9.492  0.00  0.00    -0.202 NA
BRANCH  10  15
ATOM     15  N5  ZIN A   1      19.011   2.651  10.700  0.00  0.00    -0.372 N 
ATOM     16  H56 ZIN A   1      19.759   3.096  11.129  0.00  0.00     0.161 HD
BRANCH  15  17
ATOM     17  C4  ZIN A   1      17.751   3.370  10.495  0.00  0.00     0.131 C 
BRANCH  17  18
ATOM     18  C3  ZIN A   1      17.575   4.415  11.600  0.00  0.00     0.093 C 
BRANCH  18  19
ATOM     19  S2  ZIN A   1      18.925   4.255  12.802  0.00  0.00    -0.172 SA
ATOM     20  C1  ZIN A   1      18.101   4.576  14.386  0.00  0.00     0.089 C 
ENDBRANCH  18  19
ENDBRANCH  17  18
ENDBRANCH  15  17
ENDBRANCH  10  15
BRANCH  13  21
ATOM     21  S41 ZIN A   1      19.579  -2.165  11.990  0.00  0.00    -0.090 SA
BRANCH  21  22
ATOM     22  C42 ZIN A   1      18.110  -3.161  11.638  0.00  0.00     0.091 C 
BRANCH  22  23
ATOM     23  C43 ZIN A   1      18.537  -4.572  11.226  0.00  0.00     0.128 C 
BRANCH  23  24
ATOM     24  C44 ZIN A   1      17.373  -5.542  11.447  0.00  0.00     0.388 C 
ATOM     25  F45 ZIN A   1      16.163  -4.851  11.329  0.00  0.00    -0.171 F 
ATOM     26  F46 ZIN A   1      17.426  -6.558  10.488  0.00  0.00    -0.171 F 
ATOM     27  F47 ZIN A   1      17.470  -6.102  12.726  0.00  0.00    -0.171 F 
ENDBRANCH  23  24
ENDBRANCH  22  23
ENDBRANCH  21  22
ENDBRANCH  13  21
ENDBRANCH   1   6
BRANCH   5  28
ATOM     28  O37 ZIN A   1      19.602  -3.427   7.874  0.00  0.00    -0.388 OA
ATOM     29  H61 ZIN A   1      20.505  -3.428   7.527  0.00  0.00     0.210 HD
ENDBRANCH   5  28
BRANCH   4  30
ATOM     30  O34 ZIN A   1      19.269  -4.673   5.612  0.00  0.00    -0.390 OA
ATOM     31  H60 ZIN A   1      18.951  -5.577   5.737  0.00  0.00     0.210 HD
ENDBRANCH   4  30
BRANCH   3  32
ATOM     32  C16 ZIN A   1      16.824  -2.741   3.991  0.00  0.00     0.216 C 
BRANCH  32  33
ATOM     33  O17 ZIN A   1      16.804  -3.719   2.950  0.00  0.00    -0.287 OA
BRANCH  33  34
ATOM     34  P18 ZIN A   1      15.870  -5.029   2.995  0.00  0.00     0.416 P 
ATOM     35  O19 ZIN A   1      14.439  -4.658   2.547  0.00  0.00    -0.624 OA
ATOM     36  O20 ZIN A   1      16.444  -6.104   2.045  0.00  0.00    -0.624 OA
BRANCH  34  37
ATOM     37  O21 ZIN A   1      15.830  -5.608   4.497  0.00  0.00    -0.201 OA
BRANCH  37  38
ATOM     38  P22 ZIN A   1      15.023  -6.803   5.214  0.00  0.00     0.313 P 
ATOM     39  O23 ZIN A   1      15.021  -8.046   4.297  0.00  0.00    -0.644 OA
ATOM     40  O24 ZIN A   1      13.568  -6.356   5.479  0.00  0.00    -0.644 OA
BRANCH  38  41
ATOM     41  C25 ZIN A   1      15.828  -7.216   6.796  0.00  0.00     0.330 C 
ATOM     42 Cl26 ZIN A   1      15.733  -5.799   7.907  0.00  0.00    -0.073 Cl
ATOM     43 Cl27 ZIN A   1      14.992  -8.625   7.547  0.00  0.00    -0.073 Cl
BRANCH  41  44
ATOM     44  P28 ZIN A   1      17.577  -7.637   6.497  0.00  0.00     0.313 P 
ATOM     45  O29 ZIN A   1      17.956  -7.271   5.021  0.00  0.00    -0.637 OA
ATOM     46  O30 ZIN A   1      18.484  -6.829   7.486  0.00  0.00    -0.637 OA
ATOM     47  O31 ZIN A   1      17.791  -9.171   6.726  0.00  0.00    -0.637 OA
ENDBRANCH  41  44
ENDBRANCH  38  41
ENDBRANCH  37  38
ENDBRANCH  34  37
ENDBRANCH  33  34
ENDBRANCH  32  33
ENDBRANCH   3  32
TORSDOF 18
ENDMDL
MODEL 8
REMARK VINA RESULT:      -7.7      6.739     10.388
REMARK  18 active torsions:
REMARK  status: ('A' for Active; 'I' for Inactive)
REMARK    1  A    between atoms: S2_2  and  C3_3 
REMARK    2  A    between atoms: C3_3  and  C4_4 
REMARK    3  A    between atoms: C4_4  and  N5_5 
REMARK    4  A    between atoms: N5_5  and  C6_6 
REMARK    5  A    between atoms: N10_10  and  C11_11 
REMARK    6  A    between atoms: C14_13  and  C16_14 
REMARK    7  A    between atoms: C16_14  and  O17_15 
REMARK    8  A    between atoms: O17_15  and  P18_16 
REMARK    9  A    between atoms: P18_16  and  O21_19 
REMARK   10  A    between atoms: O21_19  and  P22_20 
REMARK   11  A    between atoms: P22_20  and  C25_23 
REMARK   12  A    between atoms: C25_23  and  P28_26 
REMARK   13  A    between atoms: C32_30  and  O34_31 
REMARK   14  A    between atoms: C35_32  and  O37_33 
REMARK   15  A    between atoms: C40_36  and  S41_37 
REMARK   16  A    between atoms: S41_37  and  C42_38 
REMARK   17  A    between atoms: C42_38  and  C43_39 
REMARK   18  A    between atoms: C43_39  and  C44_40 
ROOT
ATOM      1  C11 ZIN A   1      19.200  -1.982  12.294  0.00  0.00     0.262 C 
ATOM      2  O13 ZIN A   1      18.224  -1.224  13.041  0.00  0.00    -0.353 OA
ATOM      3  C14 ZIN A   1      18.836   0.032  13.378  0.00  0.00     0.180 C 
ATOM      4  C32 ZIN A   1      19.908   0.321  12.308  0.00  0.00     0.182 C 
ATOM      5  C35 ZIN A   1      19.866  -0.920  11.382  0.00  0.00     0.198 C 
ENDROOT
BRANCH   1   6
ATOM      6  N10 ZIN A   1      18.544  -3.016  11.488  0.00  0.00    -0.294 N 
ATOM      7  C9  ZIN A   1      17.915  -4.130  11.962  0.00  0.00     0.214 A 
ATOM      8  N8  ZIN A   1      17.445  -4.829  10.970  0.00  0.00    -0.236 NA
ATOM      9  C7  ZIN A   1      17.741  -4.210   9.801  0.00  0.00     0.149 A 
ATOM     10  C6  ZIN A   1      17.495  -4.492   8.446  0.00  0.00     0.159 A 
ATOM     11  C38 ZIN A   1      18.449  -3.039  10.120  0.00  0.00     0.168 A 
ATOM     12  N48 ZIN A   1      17.946  -3.644   7.529  0.00  0.00    -0.203 NA
ATOM     13  C40 ZIN A   1      18.608  -2.546   7.875  0.00  0.00     0.192 A 
ATOM     14  N39 ZIN A   1      18.860  -2.243   9.139  0.00  0.00    -0.202 NA
BRANCH  10  15
ATOM     15  N5  ZIN A   1      16.803  -5.631   8.076  0.00  0.00    -0.372 N 
ATOM     16  H56 ZIN A   1      16.200  -6.058   8.704  0.00  0.00     0.161 HD
BRANCH  15  17
ATOM     17  C4  ZIN A   1      16.978  -6.190   6.733  0.00  0.00     0.131 C 
BRANCH  17  18
ATOM     18  C3  ZIN A   1      15.632  -6.198   6.004  0.00  0.00     0.093 C 
BRANCH  18  19
ATOM     19  S2  ZIN A   1      14.845  -7.819   6.207  0.00  0.00    -0.172 SA
ATOM     20  C1  ZIN A   1      13.781  -7.578   7.657  0.00  0.00     0.089 C 
ENDBRANCH  18  19
ENDBRANCH  17  18
ENDBRANCH  15  17
ENDBRANCH  10  15
BRANCH  13  21
ATOM     21  S41 ZIN A   1      19.174  -1.459   6.610  0.00  0.00    -0.090 SA
BRANCH  21  22
ATOM     22  C42 ZIN A   1      18.033  -0.075   6.851  0.00  0.00     0.091 C 
BRANCH  22  23
ATOM     23  C43 ZIN A   1      18.829   1.224   6.996  0.00  0.00     0.128 C 
BRANCH  23  24
ATOM     24  C44 ZIN A   1      18.841   1.653   8.465  0.00  0.00     0.388 C 
ATOM     25  F45 ZIN A   1      17.764   1.059   9.133  0.00  0.00    -0.171 F 
ATOM     26  F46 ZIN A   1      20.040   1.247   9.060  0.00  0.00    -0.171 F 
ATOM     27  F47 ZIN A   1      18.730   3.045   8.545  0.00  0.00    -0.171 F 
ENDBRANCH  23  24
ENDBRANCH  22  23
ENDBRANCH  21  22
ENDBRANCH  13  21
ENDBRANCH   1   6
BRANCH   5  28
ATOM     28  O37 ZIN A   1      21.186  -1.320  11.005  0.00  0.00    -0.388 OA
ATOM     29  H61 ZIN A   1      21.224  -1.827  10.182  0.00  0.00     0.210 HD
ENDBRANCH   5  28
BRANCH   4  30
ATOM     30  O34 ZIN A   1      21.196   0.450  12.914  0.00  0.00    -0.390 OA
ATOM     31  H60 ZIN A   1      21.711  -0.368  12.919  0.00  0.00     0.210 HD
ENDBRANCH   4  30
BRANCH   3  32
ATOM     32  C16 ZIN A   1      17.783   1.142  13.377  0.00  0.00     0.216 C 
BRANCH  32  33
ATOM     33  O17 ZIN A   1      17.843   1.854  12.139  0.00  0.00    -0.287 OA
BRANCH  33  34
ATOM     34  P18 ZIN A   1      17.782   3.460  12.048  0.00  0.00     0.416 P 
ATOM     35  O19 ZIN A   1      19.189   4.012  11.726  0.00  0.00    -0.624 OA
ATOM     36  O20 ZIN A   1      16.798   3.875  10.930  0.00  0.00    -0.624 OA
BRANCH  34  37
ATOM     37  O21 ZIN A   1      17.279   4.059  13.454  0.00  0.00    -0.201 OA
BRANCH  37  38
ATOM     38  P22 ZIN A   1      16.763   5.508  13.933  0.00  0.00     0.313 P 
ATOM     39  O23 ZIN A   1      15.304   5.397  14.428  0.00  0.00    -0.644 OA
ATOM     40  O24 ZIN A   1      16.832   6.496  12.748  0.00  0.00    -0.644 OA
BRANCH  38  41
ATOM     41  C25 ZIN A   1      17.821   6.112  15.289  0.00  0.00     0.330 C 
ATOM     42 Cl26 ZIN A   1      18.037   4.804  16.511  0.00  0.00    -0.073 Cl
ATOM     43 Cl27 ZIN A   1      19.430   6.590  14.630  0.00  0.00    -0.073 Cl
BRANCH  41  44
ATOM     44  P28 ZIN A   1      17.035   7.556  16.077  0.00  0.00     0.313 P 
ATOM     45  O29 ZIN A   1      18.121   8.393  16.834  0.00  0.00    -0.637 OA
ATOM     46  O30 ZIN A   1      16.359   8.446  14.979  0.00  0.00    -0.637 OA
ATOM     47  O31 ZIN A   1      15.949   7.067  17.095  0.00  0.00    -0.637 OA
ENDBRANCH  41  44
ENDBRANCH  38  41
ENDBRANCH  37  38
ENDBRANCH  34  37
ENDBRANCH  33  34
ENDBRANCH  32  33
ENDBRANCH   3  32
TORSDOF 18
ENDMDL
MODEL 9
REMARK VINA RESULT:      -7.7      3.227      4.681
REMARK  18 active torsions:
REMARK  status: ('A' for Active; 'I' for Inactive)
REMARK    1  A    between atoms: S2_2  and  C3_3 
REMARK    2  A    between atoms: C3_3  and  C4_4 
REMARK    3  A    between atoms: C4_4  and  N5_5 
REMARK    4  A    between atoms: N5_5  and  C6_6 
REMARK    5  A    between atoms: N10_10  and  C11_11 
REMARK    6  A    between atoms: C14_13  and  C16_14 
REMARK    7  A    between atoms: C16_14  and  O17_15 
REMARK    8  A    between atoms: O17_15  and  P18_16 
REMARK    9  A    between atoms: P18_16  and  O21_19 
REMARK   10  A    between atoms: O21_19  and  P22_20 
REMARK   11  A    between atoms: P22_20  and  C25_23 
REMARK   12  A    between atoms: C25_23  and  P28_26 
REMARK   13  A    between atoms: C32_30  and  O34_31 
REMARK   14  A    between atoms: C35_32  and  O37_33 
REMARK   15  A    between atoms: C40_36  and  S41_37 
REMARK   16  A    between atoms: S41_37  and  C42_38 
REMARK   17  A    between atoms: C42_38  and  C43_39 
REMARK   18  A    between atoms: C43_39  and  C44_40 
ROOT
ATOM      1  C11 ZIN A   1      19.445  -1.399   8.271  0.00  0.00     0.262 C 
ATOM      2  O13 ZIN A   1      19.503  -1.357   6.829  0.00  0.00    -0.353 OA
ATOM      3  C14 ZIN A   1      19.123  -2.660   6.355  0.00  0.00     0.180 C 
ATOM      4  C32 ZIN A   1      18.212  -3.289   7.427  0.00  0.00     0.182 C 
ATOM      5  C35 ZIN A   1      18.171  -2.233   8.560  0.00  0.00     0.198 C 
ENDROOT
BRANCH   1   6
ATOM      6  N10 ZIN A   1      19.313  -0.047   8.822  0.00  0.00    -0.294 N 
ATOM      7  C9  ZIN A   1      19.154   1.104   8.106  0.00  0.00     0.214 A 
ATOM      8  N8  ZIN A   1      19.070   2.120   8.914  0.00  0.00    -0.236 NA
ATOM      9  C7  ZIN A   1      19.169   1.687  10.195  0.00  0.00     0.149 A 
ATOM     10  C6  ZIN A   1      19.145   2.316  11.452  0.00  0.00     0.159 A 
ATOM     11  C38 ZIN A   1      19.325   0.292  10.151  0.00  0.00     0.168 A 
ATOM     12  N48 ZIN A   1      19.277   1.566  12.540  0.00  0.00    -0.203 NA
ATOM     13  C40 ZIN A   1      19.418   0.248  12.453  0.00  0.00     0.192 A 
ATOM     14  N39 ZIN A   1      19.445  -0.383  11.289  0.00  0.00    -0.202 NA
BRANCH  10  15
ATOM     15  N5  ZIN A   1      18.994   3.687  11.554  0.00  0.00    -0.372 N 
ATOM     16  H56 ZIN A   1      18.287   4.136  11.064  0.00  0.00     0.161 HD
BRANCH  15  17
ATOM     17  C4  ZIN A   1      19.900   4.463  12.405  0.00  0.00     0.131 C 
BRANCH  17  18
ATOM     18  C3  ZIN A   1      19.108   5.086  13.557  0.00  0.00     0.093 C 
BRANCH  18  19
ATOM     19  S2  ZIN A   1      20.213   6.118  14.560  0.00  0.00    -0.172 SA
ATOM     20  C1  ZIN A   1      19.539   5.931  16.234  0.00  0.00     0.089 C 
ENDBRANCH  18  19
ENDBRANCH  17  18
ENDBRANCH  15  17
ENDBRANCH  10  15
BRANCH  13  21
ATOM     21  S41 ZIN A   1      19.581  -0.691  13.934  0.00  0.00    -0.090 SA
BRANCH  21  22
ATOM     22  C42 ZIN A   1      18.970   0.514  15.139  0.00  0.00     0.091 C 
BRANCH  22  23
ATOM     23  C43 ZIN A   1      17.531   0.164  15.525  0.00  0.00     0.128 C 
BRANCH  23  24
ATOM     24  C44 ZIN A   1      17.506  -0.394  16.950  0.00  0.00     0.388 C 
ATOM     25  F45 ZIN A   1      16.693  -1.531  16.990  0.00  0.00    -0.171 F 
ATOM     26  F46 ZIN A   1      18.806  -0.736  17.338  0.00  0.00    -0.171 F 
ATOM     27  F47 ZIN A   1      16.999   0.575  17.821  0.00  0.00    -0.171 F 
ENDBRANCH  23  24
ENDBRANCH  22  23
ENDBRANCH  21  22
ENDBRANCH  13  21
ENDBRANCH   1   6
BRANCH   5  28
ATOM     28  O37 ZIN A   1      18.244  -2.859   9.843  0.00  0.00    -0.388 OA
ATOM     29  H61 ZIN A   1      17.949  -2.297  10.573  0.00  0.00     0.210 HD
ENDBRANCH   5  28
BRANCH   4  30
ATOM     30  O34 ZIN A   1      18.773  -4.514   7.905  0.00  0.00    -0.390 OA
ATOM     31  H60 ZIN A   1      18.842  -5.203   7.231  0.00  0.00     0.210 HD
ENDBRANCH   4  30
BRANCH   3  32
ATOM     32  C16 ZIN A   1      18.365  -2.533   5.032  0.00  0.00     0.216 C 
BRANCH  32  33
ATOM     33  O17 ZIN A   1      18.311  -3.808   4.390  0.00  0.00    -0.287 OA
BRANCH  33  34
ATOM     34  P18 ZIN A   1      16.932  -4.504   3.938  0.00  0.00     0.416 P 
ATOM     35  O19 ZIN A   1      15.956  -3.424   3.418  0.00  0.00    -0.624 OA
ATOM     36  O20 ZIN A   1      17.216  -5.526   2.813  0.00  0.00    -0.624 OA
BRANCH  34  37
ATOM     37  O21 ZIN A   1      16.273  -5.261   5.196  0.00  0.00    -0.201 OA
BRANCH  37  38
ATOM     38  P22 ZIN A   1      15.174  -6.428   5.350  0.00  0.00     0.313 P 
ATOM     39  O23 ZIN A   1      14.335  -6.519   4.057  0.00  0.00    -0.644 OA
ATOM     40  O24 ZIN A   1      14.248  -6.108   6.545  0.00  0.00    -0.644 OA
BRANCH  38  41
ATOM     41  C25 ZIN A   1      16.015  -8.019   5.644  0.00  0.00     0.330 C 
ATOM     42 Cl26 ZIN A   1      14.840  -9.202   6.331  0.00  0.00    -0.073 Cl
ATOM     43 Cl27 ZIN A   1      16.663  -8.652   4.085  0.00  0.00    -0.073 Cl
BRANCH  41  44
ATOM     44  P28 ZIN A   1      17.387  -7.774   6.818  0.00  0.00     0.313 P 
ATOM     45  O29 ZIN A   1      18.553  -7.008   6.105  0.00  0.00    -0.637 OA
ATOM     46  O30 ZIN A   1      16.883  -6.937   8.043  0.00  0.00    -0.637 OA
ATOM     47  O31 ZIN A   1      17.904  -9.167   7.315  0.00  0.00    -0.637 OA
ENDBRANCH  41  44
ENDBRANCH  38  41
ENDBRANCH  37  38
ENDBRANCH  34  37
ENDBRANCH  33  34
ENDBRANCH  32  33
ENDBRANCH   3  32
TORSDOF 18
ENDMDL
