MODEL 1
REMARK VINA RESULT:      -7.6      0.000      0.000
REMARK  9 active torsions:
REMARK  status: ('A' for Active; 'I' for Inactive)
REMARK    1  A    between atoms: O1_1  and  C2_2 
REMARK    2  A    between atoms: C2_2  and  C3_3 
REMARK    3  A    between atoms: C3_3  and  O4_4 
REMARK    4  A    between atoms: O4_4  and  C5_5 
REMARK    5  A    between atoms: C5_5  and  C6_6 
REMARK    6  A    between atoms: C6_6  and  N7_7 
REMARK    7  A    between atoms: N10_10  and  C12_12 
REMARK    8  A    between atoms: C12_12  and  C14_13 
REMARK    9  A    between atoms: C12_12  and  C20_19 
ROOT
ATOM      1  N7  <0> d   1      19.007  -2.294   8.742  0.00  0.00     0.093 N 
ATOM      2  C8  <0> d   1      18.130  -2.355   9.919  0.00  0.00     0.300 C 
ATOM      3  C9  <0> d   1      18.724  -1.498  11.039  0.00  0.00     0.266 C 
ATOM      4  N10 <0> d   1      18.858  -0.111  10.577  0.00  0.00    -0.055 N 
ATOM      5  H11 <0> d   1      17.951   0.244  10.314  0.00  0.00     0.281 HD
ATOM      6  C27 <0> d   1      19.757  -0.063   9.417  0.00  0.00     0.266 C 
ATOM      7  C28 <0> d   1      19.170  -0.908   8.282  0.00  0.00     0.300 C 
ENDROOT
BRANCH   4   8
ATOM      8  C12 <0> d   1      19.413   0.714  11.659  0.00  0.00     0.254 C 
BRANCH   8   9
ATOM      9  C14 <0> d   1      18.963   2.142  11.483  0.00  0.00    -0.023 A 
ATOM     10  C19 <0> d   1      19.650   3.165  12.109  0.00  0.00     0.009 A 
ATOM     11  C18 <0> d   1      19.241   4.474  11.944  0.00  0.00     0.001 A 
ATOM     12  C17 <0> d   1      18.139   4.761  11.160  0.00  0.00     0.000 A 
ATOM     13  C16 <0> d   1      17.448   3.737  10.537  0.00  0.00     0.001 A 
ATOM     14  C15 <0> d   1      17.861   2.428  10.699  0.00  0.00     0.009 A 
ENDBRANCH   8   9
BRANCH   8  15
ATOM     15  C20 <0> d   1      18.925   0.194  12.987  0.00  0.00    -0.023 A 
ATOM     16  C26 <0> d   1      19.700  -0.697  13.706  0.00  0.00     0.011 A 
ATOM     17  C25 <0> d   1      19.256  -1.170  14.926  0.00  0.00     0.024 A 
ATOM     18  C23 <0> d   1      18.033  -0.759  15.423  0.00  0.00     0.034 A 
ATOM     19  C22 <0> d   1      17.255   0.129  14.702  0.00  0.00     0.024 A 
ATOM     20 Cl24 <0> d   1      17.471  -1.358  16.954  0.00  0.00    -0.084 Cl
ATOM     21  C21 <0> d   1      17.702   0.605  13.483  0.00  0.00     0.011 A 
ENDBRANCH   8  15
ENDBRANCH   4   8
BRANCH   1  22
ATOM     22  C6  <0> d   1      18.499  -3.151   7.661  0.00  0.00     0.298 C 
BRANCH  22  23
ATOM     23  C5  <0> d   1      19.675  -3.836   6.959  0.00  0.00     0.198 C 
BRANCH  23  24
ATOM     24  O4  <0> d   1      20.009  -3.111   5.774  0.00  0.00    -0.387 OA
BRANCH  24  25
ATOM     25  C3  <0> d   1      18.928  -2.978   4.850  0.00  0.00     0.193 C 
BRANCH  25  26
ATOM     26  C2  <0> d   1      18.764  -1.507   4.462  0.00  0.00     0.190 C 
BRANCH  26  27
ATOM     27  O1  <0> d   1      20.018  -0.835   4.603  0.00  0.00    -0.399 OA
ATOM     28  H29 <0> d   1      19.971   0.120   4.461  0.00  0.00     0.209 HD
ENDBRANCH  26  27
ENDBRANCH  25  26
ENDBRANCH  24  25
ENDBRANCH  23  24
ENDBRANCH  22  23
ENDBRANCH   1  22
TORSDOF 9
ENDMDL
MODEL 2
REMARK VINA RESULT:      -7.4      1.220      1.986
REMARK  9 active torsions:
REMARK  status: ('A' for Active; 'I' for Inactive)
REMARK    1  A    between atoms: O1_1  and  C2_2 
REMARK    2  A    between atoms: C2_2  and  C3_3 
REMARK    3  A    between atoms: C3_3  and  O4_4 
REMARK    4  A    between atoms: O4_4  and  C5_5 
REMARK    5  A    between atoms: C5_5  and  C6_6 
REMARK    6  A    between atoms: C6_6  and  N7_7 
REMARK    7  A    between atoms: N10_10  and  C12_12 
REMARK    8  A    between atoms: C12_12  and  C14_13 
REMARK    9  A    between atoms: C12_12  and  C20_19 
ROOT
ATOM      1  N7  <0> d   1      18.770  -0.620   7.765  0.00  0.00     0.093 N 
ATOM      2  C8  <0> d   1      18.117  -1.099   8.990  0.00  0.00     0.300 C 
ATOM      3  C9  <0> d   1      18.753  -0.418  10.204  0.00  0.00     0.266 C 
ATOM      4  N10 <0> d   1      18.603   1.038  10.085  0.00  0.00    -0.055 N 
ATOM      5  H11 <0> d   1      17.622   1.270  10.032  0.00  0.00     0.281 HD
ATOM      6  C27 <0> d   1      19.282   1.505   8.869  0.00  0.00     0.266 C 
ATOM      7  C28 <0> d   1      18.649   0.840   7.644  0.00  0.00     0.300 C 
ENDROOT
BRANCH   4   8
ATOM      8  C12 <0> d   1      19.199   1.690  11.258  0.00  0.00     0.254 C 
BRANCH   8   9
ATOM      9  C14 <0> d   1      18.559   3.039  11.463  0.00  0.00    -0.023 A 
ATOM     10  C19 <0> d   1      17.521   3.442  10.646  0.00  0.00     0.009 A 
ATOM     11  C18 <0> d   1      16.931   4.678  10.837  0.00  0.00     0.001 A 
ATOM     12  C17 <0> d   1      17.386   5.513  11.841  0.00  0.00     0.000 A 
ATOM     13  C16 <0> d   1      18.428   5.111  12.656  0.00  0.00     0.001 A 
ATOM     14  C15 <0> d   1      19.015   3.874  12.466  0.00  0.00     0.009 A 
ENDBRANCH   8   9
BRANCH   8  15
ATOM     15  C20 <0> d   1      18.970   0.834  12.479  0.00  0.00    -0.023 A 
ATOM     16  C26 <0> d   1      20.043   0.251  13.124  0.00  0.00     0.011 A 
ATOM     17  C25 <0> d   1      19.834  -0.529  14.246  0.00  0.00     0.024 A 
ATOM     18  C23 <0> d   1      18.549  -0.733  14.716  0.00  0.00     0.034 A 
ATOM     19  C22 <0> d   1      17.474  -0.153  14.067  0.00  0.00     0.024 A 
ATOM     20 Cl24 <0> d   1      18.285  -1.719  16.121  0.00  0.00    -0.084 Cl
ATOM     21  C21 <0> d   1      17.685   0.631  12.948  0.00  0.00     0.011 A 
ENDBRANCH   8  15
ENDBRANCH   4   8
BRANCH   1  22
ATOM     22  C6  <0> d   1      18.224  -1.294   6.578  0.00  0.00     0.298 C 
BRANCH  22  23
ATOM     23  C5  <0> d   1      19.280  -1.309   5.470  0.00  0.00     0.198 C 
BRANCH  23  24
ATOM     24  O4  <0> d   1      19.893  -2.598   5.414  0.00  0.00    -0.387 OA
BRANCH  24  25
ATOM     25  C3  <0> d   1      19.025  -3.670   5.786  0.00  0.00     0.193 C 
BRANCH  25  26
ATOM     26  C2  <0> d   1      19.751  -4.602   6.759  0.00  0.00     0.190 C 
BRANCH  26  27
ATOM     27  O1  <0> d   1      21.133  -4.240   6.822  0.00  0.00    -0.399 OA
ATOM     28  H29 <0> d   1      21.287  -3.291   6.923  0.00  0.00     0.209 HD
ENDBRANCH  26  27
ENDBRANCH  25  26
ENDBRANCH  24  25
ENDBRANCH  23  24
ENDBRANCH  22  23
ENDBRANCH   1  22
TORSDOF 9
ENDMDL
MODEL 3
REMARK VINA RESULT:      -7.4      2.115      4.359
REMARK  9 active torsions:
REMARK  status: ('A' for Active; 'I' for Inactive)
REMARK    1  A    between atoms: O1_1  and  C2_2 
REMARK    2  A    between atoms: C2_2  and  C3_3 
REMARK    3  A    between atoms: C3_3  and  O4_4 
REMARK    4  A    between atoms: O4_4  and  C5_5 
REMARK    5  A    between atoms: C5_5  and  C6_6 
REMARK    6  A    between atoms: C6_6  and  N7_7 
REMARK    7  A    between atoms: N10_10  and  C12_12 
REMARK    8  A    between atoms: C12_12  and  C14_13 
REMARK    9  A    between atoms: C12_12  and  C20_19 
ROOT
ATOM      1  N7  <0> d   1      18.551   1.082   8.805  0.00  0.00     0.093 N 
ATOM      2  C8  <0> d   1      17.887   1.789   9.908  0.00  0.00     0.300 C 
ATOM      3  C9  <0> d   1      17.304   0.768  10.888  0.00  0.00     0.266 C 
ATOM      4  N10 <0> d   1      18.381  -0.085  11.407  0.00  0.00    -0.055 N 
ATOM      5  H11 <0> d   1      19.068   0.489  11.873  0.00  0.00     0.281 HD
ATOM      6  C27 <0> d   1      19.018  -0.804  10.295  0.00  0.00     0.266 C 
ATOM      7  C28 <0> d   1      19.616   0.205   9.311  0.00  0.00     0.300 C 
ENDROOT
BRANCH   4   8
ATOM      8  C12 <0> d   1      17.823  -1.053  12.359  0.00  0.00     0.254 C 
BRANCH   8   9
ATOM      9  C14 <0> d   1      18.340  -2.431  12.036  0.00  0.00    -0.023 A 
ATOM     10  C19 <0> d   1      19.698  -2.687  12.075  0.00  0.00     0.009 A 
ATOM     11  C18 <0> d   1      20.171  -3.953  11.783  0.00  0.00     0.001 A 
ATOM     12  C17 <0> d   1      19.287  -4.960  11.445  0.00  0.00     0.000 A 
ATOM     13  C16 <0> d   1      17.929  -4.703  11.401  0.00  0.00     0.001 A 
ATOM     14  C15 <0> d   1      17.456  -3.438  11.697  0.00  0.00     0.009 A 
ENDBRANCH   8   9
BRANCH   8  15
ATOM     15  C20 <0> d   1      18.238  -0.677  13.759  0.00  0.00    -0.023 A 
ATOM     16  C26 <0> d   1      18.820   0.554  14.000  0.00  0.00     0.011 A 
ATOM     17  C25 <0> d   1      19.196   0.901  15.283  0.00  0.00     0.024 A 
ATOM     18  C23 <0> d   1      18.998   0.014  16.326  0.00  0.00     0.034 A 
ATOM     19  C22 <0> d   1      18.420  -1.220  16.084  0.00  0.00     0.024 A 
ATOM     20 Cl24 <0> d   1      19.476   0.447  17.938  0.00  0.00    -0.084 Cl
ATOM     21  C21 <0> d   1      18.040  -1.565  14.801  0.00  0.00     0.011 A 
ENDBRANCH   8  15
ENDBRANCH   4   8
BRANCH   1  22
ATOM     22  C6  <0> d   1      19.076   2.029   7.812  0.00  0.00     0.298 C 
BRANCH  22  23
ATOM     23  C5  <0> d   1      19.072   1.372   6.429  0.00  0.00     0.198 C 
BRANCH  23  24
ATOM     24  O4  <0> d   1      17.853   0.648   6.249  0.00  0.00    -0.387 OA
BRANCH  24  25
ATOM     25  C3  <0> d   1      17.938  -0.403   5.285  0.00  0.00     0.193 C 
BRANCH  25  26
ATOM     26  C2  <0> d   1      19.310  -1.073   5.379  0.00  0.00     0.190 C 
BRANCH  26  27
ATOM     27  O1  <0> d   1      19.606  -1.726   4.142  0.00  0.00    -0.399 OA
ATOM     28  H29 <0> d   1      20.545  -1.917   4.013  0.00  0.00     0.209 HD
ENDBRANCH  26  27
ENDBRANCH  25  26
ENDBRANCH  24  25
ENDBRANCH  23  24
ENDBRANCH  22  23
ENDBRANCH   1  22
TORSDOF 9
ENDMDL
MODEL 4
REMARK VINA RESULT:      -7.3      5.323      8.775
REMARK  9 active torsions:
REMARK  status: ('A' for Active; 'I' for Inactive)
REMARK    1  A    between atoms: O1_1  and  C2_2 
REMARK    2  A    between atoms: C2_2  and  C3_3 
REMARK    3  A    between atoms: C3_3  and  O4_4 
REMARK    4  A    between atoms: O4_4  and  C5_5 
REMARK    5  A    between atoms: C5_5  and  C6_6 
REMARK    6  A    between atoms: C6_6  and  N7_7 
REMARK    7  A    between atoms: N10_10  and  C12_12 
REMARK    8  A    between atoms: C12_12  and  C14_13 
REMARK    9  A    between atoms: C12_12  and  C20_19 
ROOT
ATOM      1  N7  <0> d   1      19.013   0.382  15.821  0.00  0.00     0.093 N 
ATOM      2  C8  <0> d   1      18.886   1.274  14.661  0.00  0.00     0.300 C 
ATOM      3  C9  <0> d   1      19.557   0.628  13.447  0.00  0.00     0.266 C 
ATOM      4  N10 <0> d   1      18.920  -0.664  13.164  0.00  0.00    -0.055 N 
ATOM      5  H11 <0> d   1      17.938  -0.521  12.981  0.00  0.00     0.281 HD
ATOM      6  C27 <0> d   1      19.078  -1.554  14.322  0.00  0.00     0.266 C 
ATOM      7  C28 <0> d   1      18.401  -0.926  15.544  0.00  0.00     0.300 C 
ENDROOT
BRANCH   4   8
ATOM      8  C12 <0> d   1      19.554  -1.276  11.989  0.00  0.00     0.254 C 
BRANCH   8   9
ATOM      9  C14 <0> d   1      18.966  -2.644  11.755  0.00  0.00    -0.023 A 
ATOM     10  C19 <0> d   1      19.798  -3.737  11.605  0.00  0.00     0.009 A 
ATOM     11  C18 <0> d   1      19.258  -4.992  11.395  0.00  0.00     0.001 A 
ATOM     12  C17 <0> d   1      17.887  -5.152  11.328  0.00  0.00     0.000 A 
ATOM     13  C16 <0> d   1      17.054  -4.058  11.473  0.00  0.00     0.001 A 
ATOM     14  C15 <0> d   1      17.594  -2.803  11.687  0.00  0.00     0.009 A 
ENDBRANCH   8   9
BRANCH   8  15
ATOM     15  C20 <0> d   1      19.308  -0.410  10.779  0.00  0.00    -0.023 A 
ATOM     16  C26 <0> d   1      18.177   0.381  10.714  0.00  0.00     0.011 A 
ATOM     17  C25 <0> d   1      17.955   1.179   9.608  0.00  0.00     0.024 A 
ATOM     18  C23 <0> d   1      18.859   1.177   8.561  0.00  0.00     0.034 A 
ATOM     19  C22 <0> d   1      19.989   0.380   8.624  0.00  0.00     0.024 A 
ATOM     20 Cl24 <0> d   1      18.577   2.173   7.167  0.00  0.00    -0.084 Cl
ATOM     21  C21 <0> d   1      20.213  -0.413   9.733  0.00  0.00     0.011 A 
ENDBRANCH   8  15
ENDBRANCH   4   8
BRANCH   1  22
ATOM     22  C6  <0> d   1      18.429   0.992  17.023  0.00  0.00     0.298 C 
BRANCH  22  23
ATOM     23  C5  <0> d   1      19.454   0.959  18.160  0.00  0.00     0.198 C 
BRANCH  23  24
ATOM     24  O4  <0> d   1      19.617   2.275  18.691  0.00  0.00    -0.387 OA
BRANCH  24  25
ATOM     25  C3  <0> d   1      18.852   3.275  18.015  0.00  0.00     0.193 C 
BRANCH  25  26
ATOM     26  C2  <0> d   1      17.977   4.019  19.026  0.00  0.00     0.190 C 
BRANCH  26  27
ATOM     27  O1  <0> d   1      18.654   4.086  20.283  0.00  0.00    -0.399 OA
ATOM     28  H29 <0> d   1      19.405   3.481  20.358  0.00  0.00     0.209 HD
ENDBRANCH  26  27
ENDBRANCH  25  26
ENDBRANCH  24  25
ENDBRANCH  23  24
ENDBRANCH  22  23
ENDBRANCH   1  22
TORSDOF 9
ENDMDL
MODEL 5
REMARK VINA RESULT:      -7.3      4.588      7.352
REMARK  9 active torsions:
REMARK  status: ('A' for Active; 'I' for Inactive)
REMARK    1  A    between atoms: O1_1  and  C2_2 
REMARK    2  A    between atoms: C2_2  and  C3_3 
REMARK    3  A    between atoms: C3_3  and  O4_4 
REMARK    4  A    between atoms: O4_4  and  C5_5 
REMARK    5  A    between atoms: C5_5  and  C6_6 
REMARK    6  A    between atoms: C6_6  and  N7_7 
REMARK    7  A    between atoms: N10_10  and  C12_12 
REMARK    8  A    between atoms: C12_12  and  C14_13 
REMARK    9  A    between atoms: C12_12  and  C20_19 
ROOT
ATOM      1  N7  <0> d   1      18.858  -0.615  14.807  0.00  0.00     0.093 N 
ATOM      2  C8  <0> d   1      17.684   0.122  14.319  0.00  0.00     0.300 C 
ATOM      3  C9  <0> d   1      18.139   1.215  13.348  0.00  0.00     0.266 C 
ATOM      4  N10 <0> d   1      18.857   0.603  12.223  0.00  0.00    -0.055 N 
ATOM      5  H11 <0> d   1      18.248  -0.049  11.751  0.00  0.00     0.281 HD
ATOM      6  C27 <0> d   1      20.040  -0.109  12.724  0.00  0.00     0.266 C 
ATOM      7  C28 <0> d   1      19.601  -1.213  13.690  0.00  0.00     0.300 C 
ENDROOT
BRANCH   4   8
ATOM      8  C12 <0> d   1      19.278   1.650  11.283  0.00  0.00     0.254 C 
BRANCH   8   9
ATOM      9  C14 <0> d   1      18.827   1.288   9.892  0.00  0.00    -0.023 A 
ATOM     10  C19 <0> d   1      17.789   0.393   9.713  0.00  0.00     0.009 A 
ATOM     11  C18 <0> d   1      17.372   0.065   8.437  0.00  0.00     0.001 A 
ATOM     12  C17 <0> d   1      17.998   0.625   7.340  0.00  0.00     0.000 A 
ATOM     13  C16 <0> d   1      19.040   1.517   7.518  0.00  0.00     0.001 A 
ATOM     14  C15 <0> d   1      19.454   1.848   8.795  0.00  0.00     0.009 A 
ENDBRANCH   8   9
BRANCH   8  15
ATOM     15  C20 <0> d   1      18.660   2.965  11.686  0.00  0.00    -0.023 A 
ATOM     16  C26 <0> d   1      19.314   3.789  12.582  0.00  0.00     0.011 A 
ATOM     17  C25 <0> d   1      18.750   4.997  12.947  0.00  0.00     0.024 A 
ATOM     18  C23 <0> d   1      17.527   5.375  12.424  0.00  0.00     0.034 A 
ATOM     19  C22 <0> d   1      16.870   4.547  11.531  0.00  0.00     0.024 A 
ATOM     20 Cl24 <0> d   1      16.814   6.889  12.888  0.00  0.00    -0.084 Cl
ATOM     21  C21 <0> d   1      17.437   3.342  11.162  0.00  0.00     0.011 A 
ENDBRANCH   8  15
ENDBRANCH   4   8
BRANCH   1  22
ATOM     22  C6  <0> d   1      18.467  -1.637  15.787  0.00  0.00     0.298 C 
BRANCH  22  23
ATOM     23  C5  <0> d   1      17.395  -1.067  16.719  0.00  0.00     0.198 C 
BRANCH  23  24
ATOM     24  O4  <0> d   1      18.019  -0.493  17.868  0.00  0.00    -0.387 OA
BRANCH  24  25
ATOM     25  C3  <0> d   1      17.779   0.907  18.021  0.00  0.00     0.193 C 
BRANCH  25  26
ATOM     26  C2  <0> d   1      19.065   1.682  17.723  0.00  0.00     0.190 C 
BRANCH  26  27
ATOM     27  O1  <0> d   1      19.643   2.134  18.950  0.00  0.00    -0.399 OA
ATOM     28  H29 <0> d   1      20.597   1.984  19.014  0.00  0.00     0.209 HD
ENDBRANCH  26  27
ENDBRANCH  25  26
ENDBRANCH  24  25
ENDBRANCH  23  24
ENDBRANCH  22  23
ENDBRANCH   1  22
TORSDOF 9
ENDMDL
MODEL 6
REMARK VINA RESULT:      -7.3      2.727      4.481
REMARK  9 active torsions:
REMARK  status: ('A' for Active; 'I' for Inactive)
REMARK    1  A    between atoms: O1_1  and  C2_2 
REMARK    2  A    between atoms: C2_2  and  C3_3 
REMARK    3  A    between atoms: C3_3  and  O4_4 
REMARK    4  A    between atoms: O4_4  and  C5_5 
REMARK    5  A    between atoms: C5_5  and  C6_6 
REMARK    6  A    between atoms: C6_6  and  N7_7 
REMARK    7  A    between atoms: N10_10  and  C12_12 
REMARK    8  A    between atoms: C12_12  and  C14_13 
REMARK    9  A    between atoms: C12_12  and  C20_19 
ROOT
ATOM      1  N7  <0> d   1      19.203   0.913   8.848  0.00  0.00     0.093 N 
ATOM      2  C8  <0> d   1      17.979   0.234   9.294  0.00  0.00     0.300 C 
ATOM      3  C9  <0> d   1      18.340  -0.847  10.315  0.00  0.00     0.266 C 
ATOM      4  N10 <0> d   1      19.024  -0.232  11.460  0.00  0.00    -0.055 N 
ATOM      5  H11 <0> d   1      18.418   0.454  11.883  0.00  0.00     0.281 HD
ATOM      6  C27 <0> d   1      20.258   0.420  11.002  0.00  0.00     0.266 C 
ATOM      7  C28 <0> d   1      19.912   1.513   9.988  0.00  0.00     0.300 C 
ENDROOT
BRANCH   4   8
ATOM      8  C12 <0> d   1      19.356  -1.268  12.447  0.00  0.00     0.254 C 
BRANCH   8   9
ATOM      9  C14 <0> d   1      18.708  -0.933  13.765  0.00  0.00    -0.023 A 
ATOM     10  C19 <0> d   1      17.868   0.161  13.864  0.00  0.00     0.009 A 
ATOM     11  C18 <0> d   1      17.270   0.466  15.072  0.00  0.00     0.001 A 
ATOM     12  C17 <0> d   1      17.519  -0.318  16.183  0.00  0.00     0.000 A 
ATOM     13  C16 <0> d   1      18.363  -1.409  16.086  0.00  0.00     0.001 A 
ATOM     14  C15 <0> d   1      18.957  -1.715  14.876  0.00  0.00     0.009 A 
ENDBRANCH   8   9
BRANCH   8  15
ATOM     15  C20 <0> d   1      18.849  -2.603  11.963  0.00  0.00    -0.023 A 
ATOM     16  C26 <0> d   1      19.743  -3.579  11.566  0.00  0.00     0.011 A 
ATOM     17  C25 <0> d   1      19.279  -4.805  11.128  0.00  0.00     0.024 A 
ATOM     18  C23 <0> d   1      17.919  -5.051  11.077  0.00  0.00     0.034 A 
ATOM     19  C22 <0> d   1      17.023  -4.072  11.470  0.00  0.00     0.024 A 
ATOM     20 Cl24 <0> d   1      17.335  -6.588  10.520  0.00  0.00    -0.084 Cl
ATOM     21  C21 <0> d   1      17.489  -2.849  11.913  0.00  0.00     0.011 A 
ENDBRANCH   8  15
ENDBRANCH   4   8
BRANCH   1  22
ATOM     22  C6  <0> d   1      18.903   1.922   7.824  0.00  0.00     0.298 C 
BRANCH  22  23
ATOM     23  C5  <0> d   1      19.023   1.289   6.435  0.00  0.00     0.198 C 
BRANCH  23  24
ATOM     24  O4  <0> d   1      17.785   0.668   6.087  0.00  0.00    -0.387 OA
BRANCH  24  25
ATOM     25  C3  <0> d   1      17.919  -0.424   5.175  0.00  0.00     0.193 C 
BRANCH  25  26
ATOM     26  C2  <0> d   1      19.382  -0.558   4.749  0.00  0.00     0.190 C 
BRANCH  26  27
ATOM     27  O1  <0> d   1      19.590  -1.843   4.158  0.00  0.00    -0.399 OA
ATOM     28  H29 <0> d   1      20.481  -1.974   3.806  0.00  0.00     0.209 HD
ENDBRANCH  26  27
ENDBRANCH  25  26
ENDBRANCH  24  25
ENDBRANCH  23  24
ENDBRANCH  22  23
ENDBRANCH   1  22
TORSDOF 9
ENDMDL
MODEL 7
REMARK VINA RESULT:      -7.2      1.790      2.665
REMARK  9 active torsions:
REMARK  status: ('A' for Active; 'I' for Inactive)
REMARK    1  A    between atoms: O1_1  and  C2_2 
REMARK    2  A    between atoms: C2_2  and  C3_3 
REMARK    3  A    between atoms: C3_3  and  O4_4 
REMARK    4  A    between atoms: O4_4  and  C5_5 
REMARK    5  A    between atoms: C5_5  and  C6_6 
REMARK    6  A    between atoms: C6_6  and  N7_7 
REMARK    7  A    between atoms: N10_10  and  C12_12 
REMARK    8  A    between atoms: C12_12  and  C14_13 
REMARK    9  A    between atoms: C12_12  and  C20_19 
ROOT
ATOM      1  N7  <0> d   1      18.785  -2.157   8.871  0.00  0.00     0.093 N 
ATOM      2  C8  <0> d   1      17.676  -1.760   9.749  0.00  0.00     0.300 C 
ATOM      3  C9  <0> d   1      18.224  -0.948  10.925  0.00  0.00     0.266 C 
ATOM      4  N10 <0> d   1      18.920   0.242  10.417  0.00  0.00    -0.055 N 
ATOM      5  H11 <0> d   1      18.276   0.803   9.880  0.00  0.00     0.281 HD
ATOM      6  C27 <0> d   1      20.041  -0.171   9.562  0.00  0.00     0.266 C 
ATOM      7  C28 <0> d   1      19.507  -0.976   8.375  0.00  0.00     0.300 C 
ENDROOT
BRANCH   4   8
ATOM      8  C12 <0> d   1      19.431   1.030  11.547  0.00  0.00     0.254 C 
BRANCH   8   9
ATOM      9  C14 <0> d   1      18.899   2.437  11.460  0.00  0.00    -0.023 A 
ATOM     10  C19 <0> d   1      19.437   3.429  12.258  0.00  0.00     0.009 A 
ATOM     11  C18 <0> d   1      18.952   4.721  12.175  0.00  0.00     0.001 A 
ATOM     12  C17 <0> d   1      17.923   5.018  11.301  0.00  0.00     0.000 A 
ATOM     13  C16 <0> d   1      17.381   4.024  10.506  0.00  0.00     0.001 A 
ATOM     14  C15 <0> d   1      17.870   2.733  10.587  0.00  0.00     0.009 A 
ENDBRANCH   8   9
BRANCH   8  15
ATOM     15  C20 <0> d   1      18.982   0.401  12.841  0.00  0.00    -0.023 A 
ATOM     16  C26 <0> d   1      17.790   0.792  13.422  0.00  0.00     0.011 A 
ATOM     17  C25 <0> d   1      17.376   0.213  14.606  0.00  0.00     0.024 A 
ATOM     18  C23 <0> d   1      18.159  -0.751  15.215  0.00  0.00     0.034 A 
ATOM     19  C22 <0> d   1      19.354  -1.139  14.636  0.00  0.00     0.024 A 
ATOM     20 Cl24 <0> d   1      17.642  -1.475  16.707  0.00  0.00    -0.084 Cl
ATOM     21  C21 <0> d   1      19.766  -0.562  13.450  0.00  0.00     0.011 A 
ENDBRANCH   8  15
ENDBRANCH   4   8
BRANCH   1  22
ATOM     22  C6  <0> d   1      18.306  -2.987   7.759  0.00  0.00     0.298 C 
BRANCH  22  23
ATOM     23  C5  <0> d   1      18.873  -4.402   7.898  0.00  0.00     0.198 C 
BRANCH  23  24
ATOM     24  O4  <0> d   1      18.691  -4.858   9.240  0.00  0.00    -0.387 OA
BRANCH  24  25
ATOM     25  C3  <0> d   1      19.912  -5.107   9.939  0.00  0.00     0.193 C 
BRANCH  25  26
ATOM     26  C2  <0> d   1      19.873  -4.410  11.300  0.00  0.00     0.190 C 
BRANCH  26  27
ATOM     27  O1  <0> d   1      20.842  -3.359  11.324  0.00  0.00    -0.399 OA
ATOM     28  H29 <0> d   1      21.457  -3.373  10.578  0.00  0.00     0.209 HD
ENDBRANCH  26  27
ENDBRANCH  25  26
ENDBRANCH  24  25
ENDBRANCH  23  24
ENDBRANCH  22  23
ENDBRANCH   1  22
TORSDOF 9
ENDMDL
MODEL 8
REMARK VINA RESULT:      -7.1      1.489      2.364
REMARK  9 active torsions:
REMARK  status: ('A' for Active; 'I' for Inactive)
REMARK    1  A    between atoms: O1_1  and  C2_2 
REMARK    2  A    between atoms: C2_2  and  C3_3 
REMARK    3  A    between atoms: C3_3  and  O4_4 
REMARK    4  A    between atoms: O4_4  and  C5_5 
REMARK    5  A    between atoms: C5_5  and  C6_6 
REMARK    6  A    between atoms: C6_6  and  N7_7 
REMARK    7  A    between atoms: N10_10  and  C12_12 
REMARK    8  A    between atoms: C12_12  and  C14_13 
REMARK    9  A    between atoms: C12_12  and  C20_19 
ROOT
ATOM      1  N7  <0> d   1      17.766  -3.894   9.942  0.00  0.00     0.093 N 
ATOM      2  C8  <0> d   1      17.255  -3.674  11.302  0.00  0.00     0.300 C 
ATOM      3  C9  <0> d   1      18.187  -2.714  12.045  0.00  0.00     0.266 C 
ATOM      4  N10 <0> d   1      18.261  -1.440  11.319  0.00  0.00    -0.055 N 
ATOM      5  H11 <0> d   1      17.336  -1.040  11.249  0.00  0.00     0.281 HD
ATOM      6  C27 <0> d   1      18.796  -1.672   9.971  0.00  0.00     0.266 C 
ATOM      7  C28 <0> d   1      17.868  -2.623   9.210  0.00  0.00     0.300 C 
ENDROOT
BRANCH   4   8
ATOM      8  C12 <0> d   1      19.142  -0.514  12.042  0.00  0.00     0.254 C 
BRANCH   8   9
ATOM      9  C14 <0> d   1      18.973   0.877  11.486  0.00  0.00    -0.023 A 
ATOM     10  C19 <0> d   1      17.855   1.192  10.738  0.00  0.00     0.009 A 
ATOM     11  C18 <0> d   1      17.699   2.469  10.232  0.00  0.00     0.001 A 
ATOM     12  C17 <0> d   1      18.665   3.429  10.469  0.00  0.00     0.000 A 
ATOM     13  C16 <0> d   1      19.786   3.113  11.214  0.00  0.00     0.001 A 
ATOM     14  C15 <0> d   1      19.940   1.837  11.722  0.00  0.00     0.009 A 
ENDBRANCH   8   9
BRANCH   8  15
ATOM     15  C20 <0> d   1      18.781  -0.517  13.505  0.00  0.00    -0.023 A 
ATOM     16  C26 <0> d   1      17.712   0.235  13.955  0.00  0.00     0.011 A 
ATOM     17  C25 <0> d   1      17.378   0.228  15.296  0.00  0.00     0.024 A 
ATOM     18  C23 <0> d   1      18.120  -0.523  16.189  0.00  0.00     0.034 A 
ATOM     19  C22 <0> d   1      19.193  -1.272  15.740  0.00  0.00     0.024 A 
ATOM     20 Cl24 <0> d   1      17.704  -0.527  17.876  0.00  0.00    -0.084 Cl
ATOM     21  C21 <0> d   1      19.523  -1.268  14.398  0.00  0.00     0.011 A 
ENDBRANCH   8  15
ENDBRANCH   4   8
BRANCH   1  22
ATOM     22  C6  <0> d   1      16.928  -4.856   9.213  0.00  0.00     0.298 C 
BRANCH  22  23
ATOM     23  C5  <0> d   1      17.540  -5.122   7.836  0.00  0.00     0.198 C 
BRANCH  23  24
ATOM     24  O4  <0> d   1      18.823  -5.731   7.994  0.00  0.00    -0.387 OA
BRANCH  24  25
ATOM     25  C3  <0> d   1      19.830  -5.196   7.133  0.00  0.00     0.193 C 
BRANCH  25  26
ATOM     26  C2  <0> d   1      19.183  -4.262   6.108  0.00  0.00     0.190 C 
BRANCH  26  27
ATOM     27  O1  <0> d   1      20.010  -3.110   5.927  0.00  0.00    -0.399 OA
ATOM     28  H29 <0> d   1      20.277  -2.683   6.753  0.00  0.00     0.209 HD
ENDBRANCH  26  27
ENDBRANCH  25  26
ENDBRANCH  24  25
ENDBRANCH  23  24
ENDBRANCH  22  23
ENDBRANCH   1  22
TORSDOF 9
ENDMDL
MODEL 9
REMARK VINA RESULT:      -7.0      4.723      7.549
REMARK  9 active torsions:
REMARK  status: ('A' for Active; 'I' for Inactive)
REMARK    1  A    between atoms: O1_1  and  C2_2 
REMARK    2  A    between atoms: C2_2  and  C3_3 
REMARK    3  A    between atoms: C3_3  and  O4_4 
REMARK    4  A    between atoms: O4_4  and  C5_5 
REMARK    5  A    between atoms: C5_5  and  C6_6 
REMARK    6  A    between atoms: C6_6  and  N7_7 
REMARK    7  A    between atoms: N10_10  and  C12_12 
REMARK    8  A    between atoms: C12_12  and  C14_13 
REMARK    9  A    between atoms: C12_12  and  C20_19 
ROOT
ATOM      1  N7  <0> d   1      18.746   0.516  16.301  0.00  0.00     0.093 N 
ATOM      2  C8  <0> d   1      18.708  -0.911  15.955  0.00  0.00     0.300 C 
ATOM      3  C9  <0> d   1      17.953  -1.094  14.637  0.00  0.00     0.266 C 
ATOM      4  N10 <0> d   1      18.625  -0.333  13.576  0.00  0.00    -0.055 N 
ATOM      5  H11 <0> d   1      19.575  -0.660  13.479  0.00  0.00     0.281 HD
ATOM      6  C27 <0> d   1      18.632   1.094  13.924  0.00  0.00     0.266 C 
ATOM      7  C28 <0> d   1      19.395   1.295  15.237  0.00  0.00     0.300 C 
ENDROOT
BRANCH   4   8
ATOM      8  C12 <0> d   1      17.909  -0.523  12.308  0.00  0.00     0.254 C 
BRANCH   8   9
ATOM      9  C14 <0> d   1      18.191   0.640  11.392  0.00  0.00    -0.023 A 
ATOM     10  C19 <0> d   1      17.339   1.728  11.374  0.00  0.00     0.009 A 
ATOM     11  C18 <0> d   1      17.600   2.797  10.538  0.00  0.00     0.001 A 
ATOM     12  C17 <0> d   1      18.709   2.774   9.713  0.00  0.00     0.000 A 
ATOM     13  C16 <0> d   1      19.559   1.684   9.727  0.00  0.00     0.001 A 
ATOM     14  C15 <0> d   1      19.300   0.617  10.567  0.00  0.00     0.009 A 
ENDBRANCH   8   9
BRANCH   8  15
ATOM     15  C20 <0> d   1      18.374  -1.800  11.655  0.00  0.00    -0.023 A 
ATOM     16  C26 <0> d   1      17.605  -2.392  10.671  0.00  0.00     0.011 A 
ATOM     17  C25 <0> d   1      18.034  -3.560  10.069  0.00  0.00     0.024 A 
ATOM     18  C23 <0> d   1      19.227  -4.141  10.458  0.00  0.00     0.034 A 
ATOM     19  C22 <0> d   1      19.993  -3.552  11.447  0.00  0.00     0.024 A 
ATOM     20 Cl24 <0> d   1      19.762  -5.613   9.707  0.00  0.00    -0.084 Cl
ATOM     21  C21 <0> d   1      19.567  -2.381  12.046  0.00  0.00     0.011 A 
ENDBRANCH   8  15
ENDBRANCH   4   8
BRANCH   1  22
ATOM     22  C6  <0> d   1      19.415   0.729  17.591  0.00  0.00     0.298 C 
BRANCH  22  23
ATOM     23  C5  <0> d   1      18.753   1.899  18.322  0.00  0.00     0.198 C 
BRANCH  23  24
ATOM     24  O4  <0> d   1      19.483   3.099  18.058  0.00  0.00    -0.387 OA
BRANCH  24  25
ATOM     25  C3  <0> d   1      18.741   4.084  17.337  0.00  0.00     0.193 C 
BRANCH  25  26
ATOM     26  C2  <0> d   1      19.676   4.833  16.385  0.00  0.00     0.190 C 
BRANCH  26  27
ATOM     27  O1  <0> d   1      20.972   4.231  16.420  0.00  0.00    -0.399 OA
ATOM     28  H29 <0> d   1      21.162   3.753  17.239  0.00  0.00     0.209 HD
ENDBRANCH  26  27
ENDBRANCH  25  26
ENDBRANCH  24  25
ENDBRANCH  23  24
ENDBRANCH  22  23
ENDBRANCH   1  22
TORSDOF 9
ENDMDL
