MODEL 1
REMARK VINA RESULT:     -10.6      0.000      0.000
REMARK  14 active torsions:
REMARK  status: ('A' for Active; 'I' for Inactive)
REMARK    1  A    between atoms: C2_2  and  N5_5 
REMARK       I    between atoms: N5_5  and  C6_6 
REMARK    2  A    between atoms: C6_6  and  C8_8 
REMARK    3  A    between atoms: N11_10  and  C12_11 
REMARK    4  A    between atoms: C12_11  and  C13_12 
REMARK    5  A    between atoms: N21_20  and  C22_21 
REMARK    6  A    between atoms: C22_21  and  C23_22 
REMARK    7  A    between atoms: C23_22  and  O25_23 
REMARK    8  A    between atoms: C23_22  and  C26_24 
REMARK    9  A    between atoms: C26_24  and  C27_25 
REMARK   10  A    between atoms: C27_25  and  C29_26 
REMARK   11  A    between atoms: C27_25  and  C36_33 
REMARK   12  A    between atoms: C29_26  and  C30_27 
REMARK       I    between atoms: C36_33  and  N38_35 
REMARK   13  A    between atoms: N38_35  and  C39_36 
REMARK   14  A    between atoms: C48_44  and  O50_45 
ROOT
ATOM      1  C23 ZIN A   1      20.293   0.277  11.686  0.00  0.00     0.147 C 
ENDROOT
BRANCH   1   2
ATOM      2  C22 ZIN A   1      20.419  -0.710  10.523  0.00  0.00     0.305 C 
BRANCH   2   3
ATOM      3  N21 ZIN A   1      19.390  -1.750  10.650  0.00  0.00     0.108 N 
ATOM      4  C8  ZIN A   1      19.017  -2.286   9.334  0.00  0.00     0.342 C 
ATOM      5  C10 ZIN A   1      17.890  -3.307   9.503  0.00  0.00     0.318 C 
ATOM      6  N11 ZIN A   1      18.337  -4.383  10.398  0.00  0.00     0.097 N 
ATOM      7  C19 ZIN A   1      18.710  -3.847  11.715  0.00  0.00     0.303 C 
ATOM      8  C20 ZIN A   1      19.837  -2.826  11.546  0.00  0.00     0.303 C 
BRANCH   4   9
ATOM      9  C6  ZIN A   1      18.547  -1.161   8.448  0.00  0.00     0.253 C 
ATOM     10  N5  ZIN A   1      19.114  -0.973   7.240  0.00  0.00    -0.351 N 
ATOM     11  H60 ZIN A   1      19.824  -1.562   6.941  0.00  0.00     0.163 HD
ATOM     12  O7  ZIN A   1      17.659  -0.425   8.821  0.00  0.00    -0.271 OA
BRANCH  10  13
ATOM     13  C2  ZIN A   1      18.658   0.120   6.378  0.00  0.00     0.022 C 
ATOM     14  C1  ZIN A   1      18.992   1.460   7.035  0.00  0.00     0.037 C 
ATOM     15  C3  ZIN A   1      17.145   0.013   6.177  0.00  0.00     0.037 C 
ATOM     16  C4  ZIN A   1      19.361   0.028   5.022  0.00  0.00     0.037 C 
ENDBRANCH  10  13
ENDBRANCH   4   9
BRANCH   6  17
ATOM     17  C12 ZIN A   1      17.309  -5.425  10.526  0.00  0.00     0.312 C 
BRANCH  17  18
ATOM     18  C13 ZIN A   1      17.199  -6.184   9.229  0.00  0.00    -0.013 A 
ATOM     19  C18 ZIN A   1      18.330  -6.688   8.614  0.00  0.00     0.125 A 
ATOM     20  N17 ZIN A   1      18.242  -7.358   7.482  0.00  0.00    -0.273 NA
ATOM     21  C16 ZIN A   1      17.083  -7.563   6.888  0.00  0.00     0.116 A 
ATOM     22  C15 ZIN A   1      15.911  -7.085   7.439  0.00  0.00     0.020 A 
ATOM     23  C14 ZIN A   1      15.963  -6.381   8.633  0.00  0.00     0.012 A 
ENDBRANCH  17  18
ENDBRANCH   6  17
ENDBRANCH   2   3
ENDBRANCH   1   2
BRANCH   1  24
ATOM     24  O25 ZIN A   1      21.597   0.681  12.111  0.00  0.00    -0.394 OA
ATOM     25  H75 ZIN A   1      22.143   1.052  11.404  0.00  0.00     0.210 HD
ENDBRANCH   1  24
BRANCH   1  26
ATOM     26  C26 ZIN A   1      19.502   1.505  11.230  0.00  0.00     0.047 C 
BRANCH  26  27
ATOM     27  C27 ZIN A   1      19.657   2.623  12.263  0.00  0.00     0.084 C 
BRANCH  27  28
ATOM     28  C29 ZIN A   1      19.237   3.955  11.639  0.00  0.00     0.052 C 
BRANCH  28  29
ATOM     29  C30 ZIN A   1      18.962   4.957  12.731  0.00  0.00    -0.057 A 
ATOM     30  C35 ZIN A   1      17.669   5.388  12.965  0.00  0.00     0.007 A 
ATOM     31  C34 ZIN A   1      17.418   6.303  13.969  0.00  0.00     0.001 A 
ATOM     32  C33 ZIN A   1      18.459   6.795  14.734  0.00  0.00     0.000 A 
ATOM     33  C32 ZIN A   1      19.752   6.368  14.497  0.00  0.00     0.001 A 
ATOM     34  C31 ZIN A   1      20.004   5.449  13.495  0.00  0.00     0.007 A 
ENDBRANCH  28  29
ENDBRANCH  27  28
BRANCH  27  35
ATOM     35  C36 ZIN A   1      18.782   2.330  13.456  0.00  0.00     0.222 C 
ATOM     36  O37 ZIN A   1      17.652   1.922  13.293  0.00  0.00    -0.273 OA
ATOM     37  N38 ZIN A   1      19.257   2.520  14.702  0.00  0.00    -0.350 N 
ATOM     38  H85 ZIN A   1      20.126   2.931  14.833  0.00  0.00     0.163 HD
BRANCH  37  39
ATOM     39  C39 ZIN A   1      18.461   2.106  15.860  0.00  0.00     0.147 C 
ATOM     40  C48 ZIN A   1      18.824   2.961  17.093  0.00  0.00     0.149 C 
ATOM     41  C47 ZIN A   1      18.685   1.947  18.250  0.00  0.00     0.073 C 
ATOM     42  C46 ZIN A   1      18.927   0.591  17.623  0.00  0.00    -0.047 A 
ATOM     43  C41 ZIN A   1      18.799   0.683  16.249  0.00  0.00    -0.027 A 
ATOM     44  C45 ZIN A   1      19.236  -0.626  18.206  0.00  0.00     0.008 A 
ATOM     45  C42 ZIN A   1      18.980  -0.442  15.463  0.00  0.00     0.010 A 
ATOM     46  C43 ZIN A   1      19.286  -1.656  16.047  0.00  0.00     0.001 A 
ATOM     47  C44 ZIN A   1      19.415  -1.748  17.420  0.00  0.00     0.001 A 
BRANCH  40  48
ATOM     48  O50 ZIN A   1      20.166   3.445  17.000  0.00  0.00    -0.393 OA
ATOM     49  H92 ZIN A   1      20.682   3.040  16.290  0.00  0.00     0.210 HD
ENDBRANCH  40  48
ENDBRANCH  37  39
ENDBRANCH  27  35
ENDBRANCH  26  27
ENDBRANCH   1  26
TORSDOF 14
ENDMDL
MODEL 2
REMARK VINA RESULT:     -10.6      1.830     10.350
REMARK  14 active torsions:
REMARK  status: ('A' for Active; 'I' for Inactive)
REMARK    1  A    between atoms: C2_2  and  N5_5 
REMARK       I    between atoms: N5_5  and  C6_6 
REMARK    2  A    between atoms: C6_6  and  C8_8 
REMARK    3  A    between atoms: N11_10  and  C12_11 
REMARK    4  A    between atoms: C12_11  and  C13_12 
REMARK    5  A    between atoms: N21_20  and  C22_21 
REMARK    6  A    between atoms: C22_21  and  C23_22 
REMARK    7  A    between atoms: C23_22  and  O25_23 
REMARK    8  A    between atoms: C23_22  and  C26_24 
REMARK    9  A    between atoms: C26_24  and  C27_25 
REMARK   10  A    between atoms: C27_25  and  C29_26 
REMARK   11  A    between atoms: C27_25  and  C36_33 
REMARK   12  A    between atoms: C29_26  and  C30_27 
REMARK       I    between atoms: C36_33  and  N38_35 
REMARK   13  A    between atoms: N38_35  and  C39_36 
REMARK   14  A    between atoms: C48_44  and  O50_45 
ROOT
ATOM      1  C23 ZIN A   1      20.314  -0.350  11.551  0.00  0.00     0.147 C 
ENDROOT
BRANCH   1   2
ATOM      2  C22 ZIN A   1      20.419   0.756  12.603  0.00  0.00     0.305 C 
BRANCH   2   3
ATOM      3  N21 ZIN A   1      19.326   1.719  12.412  0.00  0.00     0.108 N 
ATOM      4  C8  ZIN A   1      18.859   2.248  13.702  0.00  0.00     0.342 C 
ATOM      5  C10 ZIN A   1      17.672   3.184  13.466  0.00  0.00     0.318 C 
ATOM      6  N11 ZIN A   1      18.081   4.275  12.570  0.00  0.00     0.097 N 
ATOM      7  C19 ZIN A   1      18.548   3.746  11.281  0.00  0.00     0.303 C 
ATOM      8  C20 ZIN A   1      19.736   2.810  11.516  0.00  0.00     0.303 C 
BRANCH   4   9
ATOM      9  C6  ZIN A   1      18.431   1.106  14.588  0.00  0.00     0.253 C 
ATOM     10  N5  ZIN A   1      19.003   0.941  15.796  0.00  0.00    -0.351 N 
ATOM     11  H60 ZIN A   1      19.691   1.557  16.096  0.00  0.00     0.163 HD
ATOM     12  O7  ZIN A   1      17.572   0.337  14.214  0.00  0.00    -0.271 OA
BRANCH  10  13
ATOM     13  C2  ZIN A   1      18.588  -0.168  16.658  0.00  0.00     0.022 C 
ATOM     14  C1  ZIN A   1      19.270  -0.038  18.021  0.00  0.00     0.037 C 
ATOM     15  C3  ZIN A   1      18.990  -1.495  16.010  0.00  0.00     0.037 C 
ATOM     16  C4  ZIN A   1      17.070  -0.130  16.842  0.00  0.00     0.037 C 
ENDBRANCH  10  13
ENDBRANCH   4   9
BRANCH   6  17
ATOM     17  C12 ZIN A   1      16.989   5.238  12.379  0.00  0.00     0.312 C 
BRANCH  17  18
ATOM     18  C13 ZIN A   1      16.698   5.933  13.685  0.00  0.00    -0.013 A 
ATOM     19  C18 ZIN A   1      17.700   6.604  14.359  0.00  0.00     0.125 A 
ATOM     20  N17 ZIN A   1      17.451   7.218  15.499  0.00  0.00    -0.273 NA
ATOM     21  C16 ZIN A   1      16.251   7.208  16.045  0.00  0.00     0.116 A 
ATOM     22  C15 ZIN A   1      15.201   6.553  15.431  0.00  0.00     0.020 A 
ATOM     23  C14 ZIN A   1      15.423   5.901  14.227  0.00  0.00     0.012 A 
ENDBRANCH  17  18
ENDBRANCH   6  17
ENDBRANCH   2   3
ENDBRANCH   1   2
BRANCH   1  24
ATOM     24  O25 ZIN A   1      21.616  -0.649  11.042  0.00  0.00    -0.394 OA
ATOM     25  H75 ZIN A   1      21.646  -0.764  10.083  0.00  0.00     0.210 HD
ENDBRANCH   1  24
BRANCH   1  26
ATOM     26  C26 ZIN A   1      19.714  -1.605  12.187  0.00  0.00     0.047 C 
BRANCH  26  27
ATOM     27  C27 ZIN A   1      19.742  -2.752  11.176  0.00  0.00     0.084 C 
BRANCH  27  28
ATOM     28  C29 ZIN A   1      19.245  -4.035  11.845  0.00  0.00     0.052 C 
BRANCH  28  29
ATOM     29  C30 ZIN A   1      18.790  -5.009  10.790  0.00  0.00    -0.057 A 
ATOM     30  C35 ZIN A   1      17.497  -5.499  10.812  0.00  0.00     0.007 A 
ATOM     31  C34 ZIN A   1      17.079  -6.389   9.841  0.00  0.00     0.001 A 
ATOM     32  C33 ZIN A   1      17.955  -6.797   8.853  0.00  0.00     0.000 A 
ATOM     33  C32 ZIN A   1      19.249  -6.310   8.833  0.00  0.00     0.001 A 
ATOM     34  C31 ZIN A   1      19.667  -5.417   9.802  0.00  0.00     0.007 A 
ENDBRANCH  28  29
ENDBRANCH  27  28
BRANCH  27  35
ATOM     35  C36 ZIN A   1      18.846  -2.415  10.010  0.00  0.00     0.222 C 
ATOM     36  O37 ZIN A   1      17.697  -2.081  10.205  0.00  0.00    -0.273 OA
ATOM     37  N38 ZIN A   1      19.324  -2.486   8.752  0.00  0.00    -0.350 N 
ATOM     38  H85 ZIN A   1      20.212  -2.840   8.589  0.00  0.00     0.163 HD
BRANCH  37  39
ATOM     39  C39 ZIN A   1      18.501  -2.028   7.630  0.00  0.00     0.147 C 
ATOM     40  C48 ZIN A   1      18.907  -2.761   6.333  0.00  0.00     0.149 C 
ATOM     41  C47 ZIN A   1      18.706  -1.668   5.260  0.00  0.00     0.073 C 
ATOM     42  C46 ZIN A   1      18.874  -0.355   5.992  0.00  0.00    -0.047 A 
ATOM     43  C41 ZIN A   1      18.757  -0.561   7.355  0.00  0.00    -0.027 A 
ATOM     44  C45 ZIN A   1      19.111   0.920   5.507  0.00  0.00     0.008 A 
ATOM     45  C42 ZIN A   1      18.877   0.507   8.227  0.00  0.00     0.010 A 
ATOM     46  C43 ZIN A   1      19.112   1.778   7.741  0.00  0.00     0.001 A 
ATOM     47  C44 ZIN A   1      19.230   1.985   6.379  0.00  0.00     0.001 A 
BRANCH  40  48
ATOM     48  O50 ZIN A   1      20.273  -3.174   6.388  0.00  0.00    -0.393 OA
ATOM     49  H92 ZIN A   1      20.477  -3.938   5.832  0.00  0.00     0.210 HD
ENDBRANCH  40  48
ENDBRANCH  37  39
ENDBRANCH  27  35
ENDBRANCH  26  27
ENDBRANCH   1  26
TORSDOF 14
ENDMDL
MODEL 3
REMARK VINA RESULT:     -10.3      1.600      4.428
REMARK  14 active torsions:
REMARK  status: ('A' for Active; 'I' for Inactive)
REMARK    1  A    between atoms: C2_2  and  N5_5 
REMARK       I    between atoms: N5_5  and  C6_6 
REMARK    2  A    between atoms: C6_6  and  C8_8 
REMARK    3  A    between atoms: N11_10  and  C12_11 
REMARK    4  A    between atoms: C12_11  and  C13_12 
REMARK    5  A    between atoms: N21_20  and  C22_21 
REMARK    6  A    between atoms: C22_21  and  C23_22 
REMARK    7  A    between atoms: C23_22  and  O25_23 
REMARK    8  A    between atoms: C23_22  and  C26_24 
REMARK    9  A    between atoms: C26_24  and  C27_25 
REMARK   10  A    between atoms: C27_25  and  C29_26 
REMARK   11  A    between atoms: C27_25  and  C36_33 
REMARK   12  A    between atoms: C29_26  and  C30_27 
REMARK       I    between atoms: C36_33  and  N38_35 
REMARK   13  A    between atoms: N38_35  and  C39_36 
REMARK   14  A    between atoms: C48_44  and  O50_45 
ROOT
ATOM      1  C23 ZIN A   1      18.527  -1.487  11.868  0.00  0.00     0.147 C 
ENDROOT
BRANCH   1   2
ATOM      2  C22 ZIN A   1      19.199  -2.331  10.783  0.00  0.00     0.305 C 
BRANCH   2   3
ATOM      3  N21 ZIN A   1      18.235  -3.303  10.251  0.00  0.00     0.108 N 
ATOM      4  C8  ZIN A   1      18.343  -3.407   8.789  0.00  0.00     0.342 C 
ATOM      5  C10 ZIN A   1      17.272  -4.367   8.268  0.00  0.00     0.318 C 
ATOM      6  N11 ZIN A   1      17.447  -5.682   8.900  0.00  0.00     0.097 N 
ATOM      7  C19 ZIN A   1      17.338  -5.578  10.362  0.00  0.00     0.303 C 
ATOM      8  C20 ZIN A   1      18.409  -4.618  10.884  0.00  0.00     0.303 C 
BRANCH   4   9
ATOM      9  C6  ZIN A   1      18.143  -2.047   8.172  0.00  0.00     0.253 C 
ATOM     10  N5  ZIN A   1      18.801  -1.714   7.044  0.00  0.00    -0.351 N 
ATOM     11  H60 ZIN A   1      19.404  -2.351   6.630  0.00  0.00     0.163 HD
ATOM     12  O7  ZIN A   1      17.388  -1.251   8.690  0.00  0.00    -0.271 OA
BRANCH  10  13
ATOM     13  C2  ZIN A   1      18.606  -0.393   6.445  0.00  0.00     0.022 C 
ATOM     14  C1  ZIN A   1      19.110   0.684   7.407  0.00  0.00     0.037 C 
ATOM     15  C3  ZIN A   1      17.116  -0.173   6.168  0.00  0.00     0.037 C 
ATOM     16  C4  ZIN A   1      19.385  -0.308   5.131  0.00  0.00     0.037 C 
ENDBRANCH  10  13
ENDBRANCH   4   9
BRANCH   6  17
ATOM     17  C12 ZIN A   1      16.483  -6.655   8.368  0.00  0.00     0.312 C 
BRANCH  17  18
ATOM     18  C13 ZIN A   1      16.654  -6.766   6.875  0.00  0.00    -0.013 A 
ATOM     19  C18 ZIN A   1      17.883  -7.090   6.333  0.00  0.00     0.125 A 
ATOM     20  N17 ZIN A   1      18.039  -7.194   5.028  0.00  0.00    -0.273 NA
ATOM     21  C16 ZIN A   1      17.041  -6.984   4.192  0.00  0.00     0.116 A 
ATOM     22  C15 ZIN A   1      15.784  -6.651   4.660  0.00  0.00     0.020 A 
ATOM     23  C14 ZIN A   1      15.581  -6.539   6.028  0.00  0.00     0.012 A 
ENDBRANCH  17  18
ENDBRANCH   6  17
ENDBRANCH   2   3
ENDBRANCH   1   2
BRANCH   1  24
ATOM     24  O25 ZIN A   1      17.107  -1.582  11.734  0.00  0.00    -0.394 OA
ATOM     25  H75 ZIN A   1      16.615  -1.088  12.405  0.00  0.00     0.210 HD
ENDBRANCH   1  24
BRANCH   1  26
ATOM     26  C26 ZIN A   1      18.945  -2.002  13.247  0.00  0.00     0.047 C 
BRANCH  26  27
ATOM     27  C27 ZIN A   1      18.539  -0.984  14.315  0.00  0.00     0.084 C 
BRANCH  27  28
ATOM     28  C29 ZIN A   1      18.958  -1.498  15.694  0.00  0.00     0.052 C 
BRANCH  28  29
ATOM     29  C30 ZIN A   1      18.470  -0.545  16.755  0.00  0.00    -0.057 A 
ATOM     30  C35 ZIN A   1      17.121  -0.254  16.855  0.00  0.00     0.007 A 
ATOM     31  C34 ZIN A   1      16.674   0.617  17.830  0.00  0.00     0.001 A 
ATOM     32  C33 ZIN A   1      17.574   1.203  18.701  0.00  0.00     0.000 A 
ATOM     33  C32 ZIN A   1      18.923   0.916  18.597  0.00  0.00     0.001 A 
ATOM     34  C31 ZIN A   1      19.371   0.042  17.624  0.00  0.00     0.007 A 
ENDBRANCH  28  29
ENDBRANCH  27  28
BRANCH  27  35
ATOM     35  C36 ZIN A   1      19.223   0.331  14.040  0.00  0.00     0.222 C 
ATOM     36  O37 ZIN A   1      20.411   0.358  13.799  0.00  0.00    -0.273 OA
ATOM     37  N38 ZIN A   1      18.513   1.476  14.063  0.00  0.00    -0.350 N 
ATOM     38  H85 ZIN A   1      17.585   1.467  14.345  0.00  0.00     0.163 HD
BRANCH  37  39
ATOM     39  C39 ZIN A   1      19.143   2.736  13.662  0.00  0.00     0.147 C 
ATOM     40  C48 ZIN A   1      18.723   3.874  14.616  0.00  0.00     0.149 C 
ATOM     41  C47 ZIN A   1      18.653   5.092  13.668  0.00  0.00     0.073 C 
ATOM     42  C46 ZIN A   1      18.367   4.514  12.299  0.00  0.00    -0.047 A 
ATOM     43  C41 ZIN A   1      18.648   3.160  12.295  0.00  0.00    -0.027 A 
ATOM     44  C45 ZIN A   1      17.897   5.123  11.148  0.00  0.00     0.008 A 
ATOM     45  C42 ZIN A   1      18.460   2.420  11.141  0.00  0.00     0.010 A 
ATOM     46  C43 ZIN A   1      17.992   3.029   9.993  0.00  0.00     0.001 A 
ATOM     47  C44 ZIN A   1      17.710   4.383   9.996  0.00  0.00     0.001 A 
BRANCH  40  48
ATOM     48  O50 ZIN A   1      17.444   3.606  15.196  0.00  0.00    -0.393 OA
ATOM     49  H92 ZIN A   1      16.926   4.399  15.389  0.00  0.00     0.210 HD
ENDBRANCH  40  48
ENDBRANCH  37  39
ENDBRANCH  27  35
ENDBRANCH  26  27
ENDBRANCH   1  26
TORSDOF 14
ENDMDL
MODEL 4
REMARK VINA RESULT:     -10.1      1.977     10.161
REMARK  14 active torsions:
REMARK  status: ('A' for Active; 'I' for Inactive)
REMARK    1  A    between atoms: C2_2  and  N5_5 
REMARK       I    between atoms: N5_5  and  C6_6 
REMARK    2  A    between atoms: C6_6  and  C8_8 
REMARK    3  A    between atoms: N11_10  and  C12_11 
REMARK    4  A    between atoms: C12_11  and  C13_12 
REMARK    5  A    between atoms: N21_20  and  C22_21 
REMARK    6  A    between atoms: C22_21  and  C23_22 
REMARK    7  A    between atoms: C23_22  and  O25_23 
REMARK    8  A    between atoms: C23_22  and  C26_24 
REMARK    9  A    between atoms: C26_24  and  C27_25 
REMARK   10  A    between atoms: C27_25  and  C29_26 
REMARK   11  A    between atoms: C27_25  and  C36_33 
REMARK   12  A    between atoms: C29_26  and  C30_27 
REMARK       I    between atoms: C36_33  and  N38_35 
REMARK   13  A    between atoms: N38_35  and  C39_36 
REMARK   14  A    between atoms: C48_44  and  O50_45 
ROOT
ATOM      1  C23 ZIN A   1      20.349   0.722  12.362  0.00  0.00     0.147 C 
ENDROOT
BRANCH   1   2
ATOM      2  C22 ZIN A   1      19.980   1.192  13.770  0.00  0.00     0.305 C 
BRANCH   2   3
ATOM      3  N21 ZIN A   1      18.903   2.187  13.687  0.00  0.00     0.108 N 
ATOM      4  C8  ZIN A   1      18.942   3.105  14.835  0.00  0.00     0.342 C 
ATOM      5  C10 ZIN A   1      17.760   4.072  14.752  0.00  0.00     0.318 C 
ATOM      6  N11 ZIN A   1      17.826   4.815  13.485  0.00  0.00     0.097 N 
ATOM      7  C19 ZIN A   1      17.786   3.898  12.338  0.00  0.00     0.303 C 
ATOM      8  C20 ZIN A   1      18.968   2.930  12.421  0.00  0.00     0.303 C 
BRANCH   4   9
ATOM      9  C6  ZIN A   1      18.856   2.313  16.114  0.00  0.00     0.253 C 
ATOM     10  N5  ZIN A   1      17.909   1.365  16.257  0.00  0.00    -0.351 N 
ATOM     11  H60 ZIN A   1      17.283   1.192  15.537  0.00  0.00     0.163 HD
ATOM     12  O7  ZIN A   1      19.639   2.528  17.015  0.00  0.00    -0.271 OA
BRANCH  10  13
ATOM     13  C2  ZIN A   1      17.825   0.595  17.500  0.00  0.00     0.022 C 
ATOM     14  C1  ZIN A   1      17.298   1.491  18.621  0.00  0.00     0.037 C 
ATOM     15  C3  ZIN A   1      19.216   0.075  17.873  0.00  0.00     0.037 C 
ATOM     16  C4  ZIN A   1      16.875  -0.588  17.304  0.00  0.00     0.037 C 
ENDBRANCH  10  13
ENDBRANCH   4   9
BRANCH   6  17
ATOM     17  C12 ZIN A   1      16.749   5.811  13.402  0.00  0.00     0.312 C 
BRANCH  17  18
ATOM     18  C13 ZIN A   1      16.897   6.806  14.524  0.00  0.00    -0.013 A 
ATOM     19  C18 ZIN A   1      18.133   7.347  14.822  0.00  0.00     0.125 A 
ATOM     20  N17 ZIN A   1      18.269   8.222  15.799  0.00  0.00    -0.273 NA
ATOM     21  C16 ZIN A   1      17.243   8.606  16.533  0.00  0.00     0.116 A 
ATOM     22  C15 ZIN A   1      15.978   8.105  16.297  0.00  0.00     0.020 A 
ATOM     23  C14 ZIN A   1      15.795   7.187  15.274  0.00  0.00     0.012 A 
ENDBRANCH  17  18
ENDBRANCH   6  17
ENDBRANCH   2   3
ENDBRANCH   1   2
BRANCH   1  24
ATOM     24  O25 ZIN A   1      21.772   0.675  12.233  0.00  0.00    -0.394 OA
ATOM     25  H75 ZIN A   1      22.080   0.518  11.329  0.00  0.00     0.210 HD
ENDBRANCH   1  24
BRANCH   1  26
ATOM     26  C26 ZIN A   1      19.769  -0.674  12.121  0.00  0.00     0.047 C 
BRANCH  26  27
ATOM     27  C27 ZIN A   1      19.029  -0.694  10.782  0.00  0.00     0.084 C 
BRANCH  27  28
ATOM     28  C29 ZIN A   1      20.038  -0.868   9.645  0.00  0.00     0.052 C 
BRANCH  28  29
ATOM     29  C30 ZIN A   1      19.502  -0.220   8.395  0.00  0.00    -0.057 A 
ATOM     30  C35 ZIN A   1      19.331   1.152   8.346  0.00  0.00     0.007 A 
ATOM     31  C34 ZIN A   1      18.843   1.746   7.197  0.00  0.00     0.001 A 
ATOM     32  C33 ZIN A   1      18.519   0.969   6.100  0.00  0.00     0.000 A 
ATOM     33  C32 ZIN A   1      18.685  -0.402   6.151  0.00  0.00     0.001 A 
ATOM     34  C31 ZIN A   1      19.177  -0.997   7.298  0.00  0.00     0.007 A 
ENDBRANCH  28  29
ENDBRANCH  27  28
BRANCH  27  35
ATOM     35  C36 ZIN A   1      18.052  -1.841  10.766  0.00  0.00     0.222 C 
ATOM     36  O37 ZIN A   1      16.982  -1.734  11.327  0.00  0.00    -0.273 OA
ATOM     37  N38 ZIN A   1      18.367  -2.985  10.128  0.00  0.00    -0.350 N 
ATOM     38  H85 ZIN A   1      19.255  -3.106   9.758  0.00  0.00     0.163 HD
BRANCH  37  39
ATOM     39  C39 ZIN A   1      17.367  -4.048   9.993  0.00  0.00     0.147 C 
ATOM     40  C48 ZIN A   1      17.499  -5.059  11.152  0.00  0.00     0.149 C 
ATOM     41  C47 ZIN A   1      17.142  -6.396  10.466  0.00  0.00     0.073 C 
ATOM     42  C46 ZIN A   1      17.489  -6.200   9.006  0.00  0.00    -0.047 A 
ATOM     43  C41 ZIN A   1      17.619  -4.850   8.734  0.00  0.00    -0.027 A 
ATOM     44  C45 ZIN A   1      17.678  -7.127   7.995  0.00  0.00     0.008 A 
ATOM     45  C42 ZIN A   1      17.937  -4.432   7.453  0.00  0.00     0.010 A 
ATOM     46  C43 ZIN A   1      18.124  -5.359   6.446  0.00  0.00     0.001 A 
ATOM     47  C44 ZIN A   1      17.994  -6.708   6.717  0.00  0.00     0.001 A 
BRANCH  40  48
ATOM     48  O50 ZIN A   1      18.837  -5.087  11.654  0.00  0.00    -0.393 OA
ATOM     49  H92 ZIN A   1      19.120  -5.954  11.973  0.00  0.00     0.210 HD
ENDBRANCH  40  48
ENDBRANCH  37  39
ENDBRANCH  27  35
ENDBRANCH  26  27
ENDBRANCH   1  26
TORSDOF 14
ENDMDL
MODEL 5
REMARK VINA RESULT:     -10.1      1.519      4.483
REMARK  14 active torsions:
REMARK  status: ('A' for Active; 'I' for Inactive)
REMARK    1  A    between atoms: C2_2  and  N5_5 
REMARK       I    between atoms: N5_5  and  C6_6 
REMARK    2  A    between atoms: C6_6  and  C8_8 
REMARK    3  A    between atoms: N11_10  and  C12_11 
REMARK    4  A    between atoms: C12_11  and  C13_12 
REMARK    5  A    between atoms: N21_20  and  C22_21 
REMARK    6  A    between atoms: C22_21  and  C23_22 
REMARK    7  A    between atoms: C23_22  and  O25_23 
REMARK    8  A    between atoms: C23_22  and  C26_24 
REMARK    9  A    between atoms: C26_24  and  C27_25 
REMARK   10  A    between atoms: C27_25  and  C29_26 
REMARK   11  A    between atoms: C27_25  and  C36_33 
REMARK   12  A    between atoms: C29_26  and  C30_27 
REMARK       I    between atoms: C36_33  and  N38_35 
REMARK   13  A    between atoms: N38_35  and  C39_36 
REMARK   14  A    between atoms: C48_44  and  O50_45 
ROOT
ATOM      1  C23 ZIN A   1      19.929   0.943  11.879  0.00  0.00     0.147 C 
ENDROOT
BRANCH   1   2
ATOM      2  C22 ZIN A   1      20.092  -0.122  10.793  0.00  0.00     0.305 C 
BRANCH   2   3
ATOM      3  N21 ZIN A   1      19.049  -1.144  10.948  0.00  0.00     0.108 N 
ATOM      4  C8  ZIN A   1      18.792  -1.833   9.675  0.00  0.00     0.342 C 
ATOM      5  C10 ZIN A   1      17.647  -2.831   9.860  0.00  0.00     0.318 C 
ATOM      6  N11 ZIN A   1      18.004  -3.793  10.913  0.00  0.00     0.097 N 
ATOM      7  C19 ZIN A   1      18.260  -3.104  12.185  0.00  0.00     0.303 C 
ATOM      8  C20 ZIN A   1      19.406  -2.106  12.001  0.00  0.00     0.303 C 
BRANCH   4   9
ATOM      9  C6  ZIN A   1      18.412  -0.821   8.624  0.00  0.00     0.253 C 
ATOM     10  N5  ZIN A   1      19.044  -0.817   7.434  0.00  0.00    -0.351 N 
ATOM     11  H60 ZIN A   1      19.743  -1.465   7.254  0.00  0.00     0.163 HD
ATOM     12  O7  ZIN A   1      17.538  -0.012   8.849  0.00  0.00    -0.271 OA
BRANCH  10  13
ATOM     13  C2  ZIN A   1      18.675   0.165   6.413  0.00  0.00     0.022 C 
ATOM     14  C1  ZIN A   1      17.173   0.078   6.139  0.00  0.00     0.037 C 
ATOM     15  C3  ZIN A   1      19.447  -0.126   5.123  0.00  0.00     0.037 C 
ATOM     16  C4  ZIN A   1      19.023   1.571   6.907  0.00  0.00     0.037 C 
ENDBRANCH  10  13
ENDBRANCH   4   9
BRANCH   6  17
ATOM     17  C12 ZIN A   1      16.961  -4.816  11.068  0.00  0.00     0.312 C 
BRANCH  17  18
ATOM     18  C13 ZIN A   1      16.829  -5.597   9.786  0.00  0.00    -0.013 A 
ATOM     19  C18 ZIN A   1      15.644  -5.584   9.076  0.00  0.00     0.125 A 
ATOM     20  N17 ZIN A   1      15.523  -6.261   7.952  0.00  0.00    -0.273 NA
ATOM     21  C16 ZIN A   1      16.514  -6.982   7.467  0.00  0.00     0.116 A 
ATOM     22  C15 ZIN A   1      17.727  -7.049   8.124  0.00  0.00     0.020 A 
ATOM     23  C14 ZIN A   1      17.894  -6.345   9.308  0.00  0.00     0.012 A 
ENDBRANCH  17  18
ENDBRANCH   6  17
ENDBRANCH   2   3
ENDBRANCH   1   2
BRANCH   1  24
ATOM     24  O25 ZIN A   1      20.766   2.061  11.579  0.00  0.00    -0.394 OA
ATOM     25  H75 ZIN A   1      20.503   2.547  10.785  0.00  0.00     0.210 HD
ENDBRANCH   1  24
BRANCH   1  26
ATOM     26  C26 ZIN A   1      18.469   1.397  11.933  0.00  0.00     0.047 C 
BRANCH  26  27
ATOM     27  C27 ZIN A   1      18.179   2.017  13.301  0.00  0.00     0.084 C 
BRANCH  27  28
ATOM     28  C29 ZIN A   1      19.229   1.545  14.309  0.00  0.00     0.052 C 
BRANCH  28  29
ATOM     29  C30 ZIN A   1      18.626   0.497  15.208  0.00  0.00    -0.057 A 
ATOM     30  C35 ZIN A   1      17.494   0.787  15.948  0.00  0.00     0.007 A 
ATOM     31  C34 ZIN A   1      16.940  -0.176  16.769  0.00  0.00     0.001 A 
ATOM     32  C33 ZIN A   1      17.522  -1.427  16.858  0.00  0.00     0.000 A 
ATOM     33  C32 ZIN A   1      18.656  -1.716  16.123  0.00  0.00     0.001 A 
ATOM     34  C31 ZIN A   1      19.209  -0.754  15.298  0.00  0.00     0.007 A 
ENDBRANCH  28  29
ENDBRANCH  27  28
BRANCH  27  35
ATOM     35  C36 ZIN A   1      18.228   3.521  13.192  0.00  0.00     0.222 C 
ATOM     36  O37 ZIN A   1      18.483   4.043  12.128  0.00  0.00    -0.273 OA
ATOM     37  N38 ZIN A   1      17.990   4.283  14.277  0.00  0.00    -0.350 N 
ATOM     38  H85 ZIN A   1      17.877   3.868  15.147  0.00  0.00     0.163 HD
BRANCH  37  39
ATOM     39  C39 ZIN A   1      17.901   5.739  14.144  0.00  0.00     0.147 C 
ATOM     40  C48 ZIN A   1      18.887   6.427  15.113  0.00  0.00     0.149 C 
ATOM     41  C47 ZIN A   1      18.114   7.701  15.519  0.00  0.00     0.073 C 
ATOM     42  C46 ZIN A   1      16.652   7.351  15.353  0.00  0.00    -0.047 A 
ATOM     43  C41 ZIN A   1      16.529   6.222  14.563  0.00  0.00    -0.027 A 
ATOM     44  C45 ZIN A   1      15.518   7.968  15.853  0.00  0.00     0.008 A 
ATOM     45  C42 ZIN A   1      15.273   5.715  14.275  0.00  0.00     0.010 A 
ATOM     46  C43 ZIN A   1      14.143   6.334  14.774  0.00  0.00     0.001 A 
ATOM     47  C44 ZIN A   1      14.265   7.461  15.564  0.00  0.00     0.001 A 
BRANCH  40  48
ATOM     48  O50 ZIN A   1      19.141   5.601  16.251  0.00  0.00    -0.393 OA
ATOM     49  H92 ZIN A   1      20.025   5.209  16.264  0.00  0.00     0.210 HD
ENDBRANCH  40  48
ENDBRANCH  37  39
ENDBRANCH  27  35
ENDBRANCH  26  27
ENDBRANCH   1  26
TORSDOF 14
ENDMDL
MODEL 6
REMARK VINA RESULT:      -9.8      1.520      4.150
REMARK  14 active torsions:
REMARK  status: ('A' for Active; 'I' for Inactive)
REMARK    1  A    between atoms: C2_2  and  N5_5 
REMARK       I    between atoms: N5_5  and  C6_6 
REMARK    2  A    between atoms: C6_6  and  C8_8 
REMARK    3  A    between atoms: N11_10  and  C12_11 
REMARK    4  A    between atoms: C12_11  and  C13_12 
REMARK    5  A    between atoms: N21_20  and  C22_21 
REMARK    6  A    between atoms: C22_21  and  C23_22 
REMARK    7  A    between atoms: C23_22  and  O25_23 
REMARK    8  A    between atoms: C23_22  and  C26_24 
REMARK    9  A    between atoms: C26_24  and  C27_25 
REMARK   10  A    between atoms: C27_25  and  C29_26 
REMARK   11  A    between atoms: C27_25  and  C36_33 
REMARK   12  A    between atoms: C29_26  and  C30_27 
REMARK       I    between atoms: C36_33  and  N38_35 
REMARK   13  A    between atoms: N38_35  and  C39_36 
REMARK   14  A    between atoms: C48_44  and  O50_45 
ROOT
ATOM      1  C23 ZIN A   1      19.490  -1.443  11.681  0.00  0.00     0.147 C 
ENDROOT
BRANCH   1   2
ATOM      2  C22 ZIN A   1      19.825  -2.499  10.626  0.00  0.00     0.305 C 
BRANCH   2   3
ATOM      3  N21 ZIN A   1      18.631  -3.307  10.345  0.00  0.00     0.108 N 
ATOM      4  C8  ZIN A   1      18.392  -3.411   8.898  0.00  0.00     0.342 C 
ATOM      5  C10 ZIN A   1      17.100  -4.192   8.652  0.00  0.00     0.318 C 
ATOM      6  N11 ZIN A   1      17.211  -5.525   9.261  0.00  0.00     0.097 N 
ATOM      7  C19 ZIN A   1      17.449  -5.420  10.707  0.00  0.00     0.303 C 
ATOM      8  C20 ZIN A   1      18.742  -4.640  10.954  0.00  0.00     0.303 C 
BRANCH   4   9
ATOM      9  C6  ZIN A   1      18.266  -2.030   8.309  0.00  0.00     0.253 C 
ATOM     10  N5  ZIN A   1      18.868  -1.739   7.140  0.00  0.00    -0.351 N 
ATOM     11  H60 ZIN A   1      19.383  -2.418   6.677  0.00  0.00     0.163 HD
ATOM     12  O7  ZIN A   1      17.622  -1.180   8.888  0.00  0.00    -0.271 OA
BRANCH  10  13
ATOM     13  C2  ZIN A   1      18.746  -0.396   6.567  0.00  0.00     0.022 C 
ATOM     14  C1  ZIN A   1      19.592  -0.305   5.296  0.00  0.00     0.037 C 
ATOM     15  C3  ZIN A   1      19.237   0.638   7.582  0.00  0.00     0.037 C 
ATOM     16  C4  ZIN A   1      17.280  -0.119   6.225  0.00  0.00     0.037 C 
ENDBRANCH  10  13
ENDBRANCH   4   9
BRANCH   6  17
ATOM     17  C12 ZIN A   1      16.017  -6.334   8.980  0.00  0.00     0.312 C 
BRANCH  17  18
ATOM     18  C13 ZIN A   1      16.340  -7.354   7.919  0.00  0.00    -0.013 A 
ATOM     19  C18 ZIN A   1      17.643  -7.535   7.495  0.00  0.00     0.125 A 
ATOM     20  N17 ZIN A   1      17.933  -8.429   6.570  0.00  0.00    -0.273 NA
ATOM     21  C16 ZIN A   1      17.001  -9.173   6.009  0.00  0.00     0.116 A 
ATOM     22  C15 ZIN A   1      15.676  -9.044   6.377  0.00  0.00     0.020 A 
ATOM     23  C14 ZIN A   1      15.333  -8.118   7.352  0.00  0.00     0.012 A 
ENDBRANCH  17  18
ENDBRANCH   6  17
ENDBRANCH   2   3
ENDBRANCH   1   2
BRANCH   1  24
ATOM     24  O25 ZIN A   1      19.508  -0.146  11.080  0.00  0.00    -0.394 OA
ATOM     25  H75 ZIN A   1      19.661   0.575  11.706  0.00  0.00     0.210 HD
ENDBRANCH   1  24
BRANCH   1  26
ATOM     26  C26 ZIN A   1      18.099  -1.719  12.256  0.00  0.00     0.047 C 
BRANCH  26  27
ATOM     27  C27 ZIN A   1      17.854  -0.805  13.458  0.00  0.00     0.084 C 
BRANCH  27  28
ATOM     28  C29 ZIN A   1      19.023  -0.928  14.438  0.00  0.00     0.052 C 
BRANCH  28  29
ATOM     29  C30 ZIN A   1      18.600  -0.415  15.791  0.00  0.00    -0.057 A 
ATOM     30  C35 ZIN A   1      19.523   0.203  16.615  0.00  0.00     0.007 A 
ATOM     31  C34 ZIN A   1      19.133   0.677  17.854  0.00  0.00     0.001 A 
ATOM     32  C33 ZIN A   1      17.824   0.525  18.272  0.00  0.00     0.000 A 
ATOM     33  C32 ZIN A   1      16.903  -0.098  17.450  0.00  0.00     0.001 A 
ATOM     34  C31 ZIN A   1      17.292  -0.568  16.210  0.00  0.00     0.007 A 
ENDBRANCH  28  29
ENDBRANCH  27  28
BRANCH  27  35
ATOM     35  C36 ZIN A   1      17.741   0.623  12.989  0.00  0.00     0.222 C 
ATOM     36  O37 ZIN A   1      16.834   0.949  12.253  0.00  0.00    -0.273 OA
ATOM     37  N38 ZIN A   1      18.648   1.536  13.387  0.00  0.00    -0.350 N 
ATOM     38  H85 ZIN A   1      19.424   1.260  13.899  0.00  0.00     0.163 HD
BRANCH  37  39
ATOM     39  C39 ZIN A   1      18.463   2.949  13.046  0.00  0.00     0.147 C 
ATOM     40  C48 ZIN A   1      19.395   3.346  11.881  0.00  0.00     0.149 C 
ATOM     41  C47 ZIN A   1      19.763   4.804  12.235  0.00  0.00     0.073 C 
ATOM     42  C46 ZIN A   1      19.626   4.895  13.739  0.00  0.00    -0.047 A 
ATOM     43  C41 ZIN A   1      18.878   3.829  14.206  0.00  0.00    -0.027 A 
ATOM     44  C45 ZIN A   1      20.115   5.835  14.630  0.00  0.00     0.008 A 
ATOM     45  C42 ZIN A   1      18.623   3.706  15.560  0.00  0.00     0.010 A 
ATOM     46  C43 ZIN A   1      19.111   4.645  16.448  0.00  0.00     0.001 A 
ATOM     47  C44 ZIN A   1      19.859   5.711  15.982  0.00  0.00     0.001 A 
BRANCH  40  48
ATOM     48  O50 ZIN A   1      20.560   2.519  11.856  0.00  0.00    -0.393 OA
ATOM     49  H92 ZIN A   1      20.535   1.824  11.184  0.00  0.00     0.210 HD
ENDBRANCH  40  48
ENDBRANCH  37  39
ENDBRANCH  27  35
ENDBRANCH  26  27
ENDBRANCH   1  26
TORSDOF 14
ENDMDL
MODEL 7
REMARK VINA RESULT:      -9.8      2.075     10.096
REMARK  14 active torsions:
REMARK  status: ('A' for Active; 'I' for Inactive)
REMARK    1  A    between atoms: C2_2  and  N5_5 
REMARK       I    between atoms: N5_5  and  C6_6 
REMARK    2  A    between atoms: C6_6  and  C8_8 
REMARK    3  A    between atoms: N11_10  and  C12_11 
REMARK    4  A    between atoms: C12_11  and  C13_12 
REMARK    5  A    between atoms: N21_20  and  C22_21 
REMARK    6  A    between atoms: C22_21  and  C23_22 
REMARK    7  A    between atoms: C23_22  and  O25_23 
REMARK    8  A    between atoms: C23_22  and  C26_24 
REMARK    9  A    between atoms: C26_24  and  C27_25 
REMARK   10  A    between atoms: C27_25  and  C29_26 
REMARK   11  A    between atoms: C27_25  and  C36_33 
REMARK   12  A    between atoms: C29_26  and  C30_27 
REMARK       I    between atoms: C36_33  and  N38_35 
REMARK   13  A    between atoms: N38_35  and  C39_36 
REMARK   14  A    between atoms: C48_44  and  O50_45 
ROOT
ATOM      1  C23 ZIN A   1      18.603   1.164  11.250  0.00  0.00     0.147 C 
ENDROOT
BRANCH   1   2
ATOM      2  C22 ZIN A   1      19.271   1.969  12.367  0.00  0.00     0.305 C 
BRANCH   2   3
ATOM      3  N21 ZIN A   1      18.327   2.970  12.882  0.00  0.00     0.108 N 
ATOM      4  C8  ZIN A   1      18.387   3.046  14.348  0.00  0.00     0.342 C 
ATOM      5  C10 ZIN A   1      17.336   4.039  14.848  0.00  0.00     0.318 C 
ATOM      6  N11 ZIN A   1      17.585   5.357  14.246  0.00  0.00     0.097 N 
ATOM      7  C19 ZIN A   1      17.525   5.281  12.779  0.00  0.00     0.303 C 
ATOM      8  C20 ZIN A   1      18.576   4.287  12.279  0.00  0.00     0.303 C 
BRANCH   4   9
ATOM      9  C6  ZIN A   1      18.110   1.684  14.933  0.00  0.00     0.253 C 
ATOM     10  N5  ZIN A   1      18.820   1.249  15.992  0.00  0.00    -0.351 N 
ATOM     11  H60 ZIN A   1      19.509   1.812  16.379  0.00  0.00     0.163 HD
ATOM     12  O7  ZIN A   1      17.248   0.981  14.451  0.00  0.00    -0.271 OA
BRANCH  10  13
ATOM     13  C2  ZIN A   1      18.551  -0.073  16.561  0.00  0.00     0.022 C 
ATOM     14  C1  ZIN A   1      18.980  -1.153  15.567  0.00  0.00     0.037 C 
ATOM     15  C3  ZIN A   1      17.054  -0.210  16.849  0.00  0.00     0.037 C 
ATOM     16  C4  ZIN A   1      19.337  -0.238  17.863  0.00  0.00     0.037 C 
ENDBRANCH  10  13
ENDBRANCH   4   9
BRANCH   6  17
ATOM     17  C12 ZIN A   1      16.642   6.359  14.760  0.00  0.00     0.312 C 
BRANCH  17  18
ATOM     18  C13 ZIN A   1      16.847   6.526  16.244  0.00  0.00    -0.013 A 
ATOM     19  C18 ZIN A   1      18.048   7.001  16.736  0.00  0.00     0.125 A 
ATOM     20  N17 ZIN A   1      18.232   7.154  18.033  0.00  0.00    -0.273 NA
ATOM     21  C16 ZIN A   1      17.292   6.853  18.907  0.00  0.00     0.116 A 
ATOM     22  C15 ZIN A   1      16.068   6.368  18.490  0.00  0.00     0.020 A 
ATOM     23  C14 ZIN A   1      15.835   6.199  17.133  0.00  0.00     0.012 A 
ENDBRANCH  17  18
ENDBRANCH   6  17
ENDBRANCH   2   3
ENDBRANCH   1   2
BRANCH   1  24
ATOM     24  O25 ZIN A   1      17.184   1.195  11.425  0.00  0.00    -0.394 OA
ATOM     25  H75 ZIN A   1      16.872   0.697  12.193  0.00  0.00     0.210 HD
ENDBRANCH   1  24
BRANCH   1  26
ATOM     26  C26 ZIN A   1      18.964   1.775   9.895  0.00  0.00     0.047 C 
BRANCH  26  27
ATOM     27  C27 ZIN A   1      18.524   0.828   8.776  0.00  0.00     0.084 C 
BRANCH  27  28
ATOM     28  C29 ZIN A   1      18.874   1.443   7.420  0.00  0.00     0.052 C 
BRANCH  28  29
ATOM     29  C30 ZIN A   1      18.472   0.495   6.320  0.00  0.00    -0.057 A 
ATOM     30  C35 ZIN A   1      17.159   0.075   6.214  0.00  0.00     0.007 A 
ATOM     31  C34 ZIN A   1      16.790  -0.790   5.202  0.00  0.00     0.001 A 
ATOM     32  C33 ZIN A   1      17.735  -1.244   4.300  0.00  0.00     0.000 A 
ATOM     33  C32 ZIN A   1      19.049  -0.828   4.409  0.00  0.00     0.001 A 
ATOM     34  C31 ZIN A   1      19.418   0.041   5.419  0.00  0.00     0.007 A 
ENDBRANCH  28  29
ENDBRANCH  27  28
BRANCH  27  35
ATOM     35  C36 ZIN A   1      19.237  -0.492   8.928  0.00  0.00     0.222 C 
ATOM     36  O37 ZIN A   1      20.425  -0.516   9.166  0.00  0.00    -0.273 OA
ATOM     37  N38 ZIN A   1      18.552  -1.646   8.798  0.00  0.00    -0.350 N 
ATOM     38  H85 ZIN A   1      17.624  -1.630   8.517  0.00  0.00     0.163 HD
BRANCH  37  39
ATOM     39  C39 ZIN A   1      19.210  -2.924   9.080  0.00  0.00     0.147 C 
ATOM     40  C48 ZIN A   1      19.150  -3.843   7.842  0.00  0.00     0.149 C 
ATOM     41  C47 ZIN A   1      19.001  -5.243   8.477  0.00  0.00     0.073 C 
ATOM     42  C46 ZIN A   1      18.345  -5.003   9.820  0.00  0.00    -0.047 A 
ATOM     43  C41 ZIN A   1      18.466  -3.670  10.167  0.00  0.00    -0.027 A 
ATOM     44  C45 ZIN A   1      17.696  -5.880  10.671  0.00  0.00     0.008 A 
ATOM     45  C42 ZIN A   1      17.936  -3.218  11.363  0.00  0.00     0.010 A 
ATOM     46  C43 ZIN A   1      17.288  -4.095  12.212  0.00  0.00     0.001 A 
ATOM     47  C44 ZIN A   1      17.167  -5.428  11.865  0.00  0.00     0.001 A 
BRANCH  40  48
ATOM     48  O50 ZIN A   1      18.017  -3.530   7.030  0.00  0.00    -0.393 OA
ATOM     49  H92 ZIN A   1      17.328  -3.032   7.490  0.00  0.00     0.210 HD
ENDBRANCH  40  48
ENDBRANCH  37  39
ENDBRANCH  27  35
ENDBRANCH  26  27
ENDBRANCH   1  26
TORSDOF 14
ENDMDL
MODEL 8
REMARK VINA RESULT:      -9.8      2.167      5.123
REMARK  14 active torsions:
REMARK  status: ('A' for Active; 'I' for Inactive)
REMARK    1  A    between atoms: C2_2  and  N5_5 
REMARK       I    between atoms: N5_5  and  C6_6 
REMARK    2  A    between atoms: C6_6  and  C8_8 
REMARK    3  A    between atoms: N11_10  and  C12_11 
REMARK    4  A    between atoms: C12_11  and  C13_12 
REMARK    5  A    between atoms: N21_20  and  C22_21 
REMARK    6  A    between atoms: C22_21  and  C23_22 
REMARK    7  A    between atoms: C23_22  and  O25_23 
REMARK    8  A    between atoms: C23_22  and  C26_24 
REMARK    9  A    between atoms: C26_24  and  C27_25 
REMARK   10  A    between atoms: C27_25  and  C29_26 
REMARK   11  A    between atoms: C27_25  and  C36_33 
REMARK   12  A    between atoms: C29_26  and  C30_27 
REMARK       I    between atoms: C36_33  and  N38_35 
REMARK   13  A    between atoms: N38_35  and  C39_36 
REMARK   14  A    between atoms: C48_44  and  O50_45 
ROOT
ATOM      1  C23 ZIN A   1      18.249  -3.047  10.655  0.00  0.00     0.147 C 
ENDROOT
BRANCH   1   2
ATOM      2  C22 ZIN A   1      18.914  -4.176   9.865  0.00  0.00     0.305 C 
BRANCH   2   3
ATOM      3  N21 ZIN A   1      17.933  -4.779   8.953  0.00  0.00     0.108 N 
ATOM      4  C8  ZIN A   1      18.469  -4.869   7.587  0.00  0.00     0.342 C 
ATOM      5  C10 ZIN A   1      17.392  -5.427   6.655  0.00  0.00     0.318 C 
ATOM      6  N11 ZIN A   1      16.966  -6.749   7.138  0.00  0.00     0.097 N 
ATOM      7  C19 ZIN A   1      16.430  -6.659   8.504  0.00  0.00     0.303 C 
ATOM      8  C20 ZIN A   1      17.508  -6.100   9.436  0.00  0.00     0.303 C 
BRANCH   4   9
ATOM      9  C6  ZIN A   1      18.879  -3.496   7.117  0.00  0.00     0.253 C 
ATOM     10  N5  ZIN A   1      17.970  -2.504   7.061  0.00  0.00    -0.351 N 
ATOM     11  H60 ZIN A   1      17.051  -2.673   7.322  0.00  0.00     0.163 HD
ATOM     12  O7  ZIN A   1      20.028  -3.285   6.791  0.00  0.00    -0.271 OA
BRANCH  10  13
ATOM     13  C2  ZIN A   1      18.368  -1.171   6.605  0.00  0.00     0.022 C 
ATOM     14  C1  ZIN A   1      19.286  -0.529   7.645  0.00  0.00     0.037 C 
ATOM     15  C3  ZIN A   1      17.121  -0.302   6.419  0.00  0.00     0.037 C 
ATOM     16  C4  ZIN A   1      19.110  -1.288   5.272  0.00  0.00     0.037 C 
ENDBRANCH  10  13
ENDBRANCH   4   9
BRANCH   6  17
ATOM     17  C12 ZIN A   1      15.986  -7.353   6.226  0.00  0.00     0.312 C 
BRANCH  17  18
ATOM     18  C13 ZIN A   1      14.642  -7.417   6.904  0.00  0.00    -0.013 A 
ATOM     19  C18 ZIN A   1      14.169  -8.613   7.410  0.00  0.00     0.125 A 
ATOM     20  N17 ZIN A   1      12.996  -8.675   8.009  0.00  0.00    -0.273 NA
ATOM     21  C16 ZIN A   1      12.227  -7.612   8.139  0.00  0.00     0.116 A 
ATOM     22  C15 ZIN A   1      12.630  -6.384   7.653  0.00  0.00     0.020 A 
ATOM     23  C14 ZIN A   1      13.861  -6.278   7.023  0.00  0.00     0.012 A 
ENDBRANCH  17  18
ENDBRANCH   6  17
ENDBRANCH   2   3
ENDBRANCH   1   2
BRANCH   1  24
ATOM     24  O25 ZIN A   1      17.177  -3.579  11.437  0.00  0.00    -0.394 OA
ATOM     25  H75 ZIN A   1      17.128  -3.218  12.333  0.00  0.00     0.210 HD
ENDBRANCH   1  24
BRANCH   1  26
ATOM     26  C26 ZIN A   1      19.279  -2.394  11.579  0.00  0.00     0.047 C 
BRANCH  26  27
ATOM     27  C27 ZIN A   1      18.556  -1.619  12.682  0.00  0.00     0.084 C 
BRANCH  27  28
ATOM     28  C29 ZIN A   1      19.581  -1.074  13.678  0.00  0.00     0.052 C 
BRANCH  28  29
ATOM     29  C30 ZIN A   1      18.879  -0.658  14.945  0.00  0.00    -0.057 A 
ATOM     30  C35 ZIN A   1      19.107   0.596  15.483  0.00  0.00     0.007 A 
ATOM     31  C34 ZIN A   1      18.459   0.977  16.643  0.00  0.00     0.001 A 
ATOM     32  C33 ZIN A   1      17.590   0.104  17.269  0.00  0.00     0.000 A 
ATOM     33  C32 ZIN A   1      17.366  -1.151  16.734  0.00  0.00     0.001 A 
ATOM     34  C31 ZIN A   1      18.010  -1.532  15.572  0.00  0.00     0.007 A 
ENDBRANCH  28  29
ENDBRANCH  27  28
BRANCH  27  35
ATOM     35  C36 ZIN A   1      17.790  -0.473  12.071  0.00  0.00     0.222 C 
ATOM     36  O37 ZIN A   1      16.580  -0.514  12.016  0.00  0.00    -0.273 OA
ATOM     37  N38 ZIN A   1      18.451   0.596  11.588  0.00  0.00    -0.350 N 
ATOM     38  H85 ZIN A   1      19.421   0.591  11.548  0.00  0.00     0.163 HD
BRANCH  37  39
ATOM     39  C39 ZIN A   1      17.707   1.768  11.121  0.00  0.00     0.147 C 
ATOM     40  C48 ZIN A   1      18.361   2.348   9.849  0.00  0.00     0.149 C 
ATOM     41  C47 ZIN A   1      18.130   3.866  10.021  0.00  0.00     0.073 C 
ATOM     42  C46 ZIN A   1      18.021   4.085  11.515  0.00  0.00    -0.047 A 
ATOM     43  C41 ZIN A   1      17.778   2.879  12.147  0.00  0.00    -0.027 A 
ATOM     44  C45 ZIN A   1      18.126   5.245  12.262  0.00  0.00     0.008 A 
ATOM     45  C42 ZIN A   1      17.641   2.838  13.524  0.00  0.00     0.010 A 
ATOM     46  C43 ZIN A   1      17.745   3.998  14.268  0.00  0.00     0.001 A 
ATOM     47  C44 ZIN A   1      17.989   5.203  13.636  0.00  0.00     0.001 A 
BRANCH  40  48
ATOM     48  O50 ZIN A   1      19.757   2.047   9.812  0.00  0.00    -0.393 OA
ATOM     49  H92 ZIN A   1      20.288   2.700   9.336  0.00  0.00     0.210 HD
ENDBRANCH  40  48
ENDBRANCH  37  39
ENDBRANCH  27  35
ENDBRANCH  26  27
ENDBRANCH   1  26
TORSDOF 14
ENDMDL
MODEL 9
REMARK VINA RESULT:      -9.8      2.519      8.354
REMARK  14 active torsions:
REMARK  status: ('A' for Active; 'I' for Inactive)
REMARK    1  A    between atoms: C2_2  and  N5_5 
REMARK       I    between atoms: N5_5  and  C6_6 
REMARK    2  A    between atoms: C6_6  and  C8_8 
REMARK    3  A    between atoms: N11_10  and  C12_11 
REMARK    4  A    between atoms: C12_11  and  C13_12 
REMARK    5  A    between atoms: N21_20  and  C22_21 
REMARK    6  A    between atoms: C22_21  and  C23_22 
REMARK    7  A    between atoms: C23_22  and  O25_23 
REMARK    8  A    between atoms: C23_22  and  C26_24 
REMARK    9  A    between atoms: C26_24  and  C27_25 
REMARK   10  A    between atoms: C27_25  and  C29_26 
REMARK   11  A    between atoms: C27_25  and  C36_33 
REMARK   12  A    between atoms: C29_26  and  C30_27 
REMARK       I    between atoms: C36_33  and  N38_35 
REMARK   13  A    between atoms: N38_35  and  C39_36 
REMARK   14  A    between atoms: C48_44  and  O50_45 
ROOT
ATOM      1  C23 ZIN A   1      19.720  -0.026  10.786  0.00  0.00     0.147 C 
ENDROOT
BRANCH   1   2
ATOM      2  C22 ZIN A   1      18.221  -0.279  10.958  0.00  0.00     0.305 C 
BRANCH   2   3
ATOM      3  N21 ZIN A   1      17.921  -0.493  12.380  0.00  0.00     0.108 N 
ATOM      4  C8  ZIN A   1      18.916  -1.377  13.003  0.00  0.00     0.342 C 
ATOM      5  C10 ZIN A   1      18.524  -1.637  14.459  0.00  0.00     0.318 C 
ATOM      6  N11 ZIN A   1      18.440  -0.357  15.177  0.00  0.00     0.097 N 
ATOM      7  C19 ZIN A   1      17.445   0.527  14.554  0.00  0.00     0.303 C 
ATOM      8  C20 ZIN A   1      17.836   0.787  13.098  0.00  0.00     0.303 C 
BRANCH   4   9
ATOM      9  C6  ZIN A   1      18.964  -2.684  12.254  0.00  0.00     0.253 C 
ATOM     10  N5  ZIN A   1      17.838  -3.200  11.726  0.00  0.00    -0.351 N 
ATOM     11  H60 ZIN A   1      16.995  -2.731  11.828  0.00  0.00     0.163 HD
ATOM     12  O7  ZIN A   1      20.018  -3.271  12.125  0.00  0.00    -0.271 OA
BRANCH  10  13
ATOM     13  C2  ZIN A   1      17.884  -4.470  10.997  0.00  0.00     0.022 C 
ATOM     14  C1  ZIN A   1      17.000  -4.378   9.753  0.00  0.00     0.037 C 
ATOM     15  C3  ZIN A   1      17.377  -5.596  11.902  0.00  0.00     0.037 C 
ATOM     16  C4  ZIN A   1      19.326  -4.765  10.577  0.00  0.00     0.037 C 
ENDBRANCH  10  13
ENDBRANCH   4   9
BRANCH   6  17
ATOM     17  C12 ZIN A   1      18.140  -0.569  16.599  0.00  0.00     0.312 C 
BRANCH  17  18
ATOM     18  C13 ZIN A   1      18.244   0.741  17.336  0.00  0.00    -0.013 A 
ATOM     19  C18 ZIN A   1      19.305   1.595  17.099  0.00  0.00     0.125 A 
ATOM     20  N17 ZIN A   1      19.401   2.745  17.736  0.00  0.00    -0.273 NA
ATOM     21  C16 ZIN A   1      18.503   3.121  18.625  0.00  0.00     0.116 A 
ATOM     22  C15 ZIN A   1      17.418   2.318  18.919  0.00  0.00     0.020 A 
ATOM     23  C14 ZIN A   1      17.281   1.103  18.264  0.00  0.00     0.012 A 
ENDBRANCH  17  18
ENDBRANCH   6  17
ENDBRANCH   2   3
ENDBRANCH   1   2
BRANCH   1  24
ATOM     24  O25 ZIN A   1      20.295  -1.078  10.007  0.00  0.00    -0.394 OA
ATOM     25  H75 ZIN A   1      20.136  -0.995   9.057  0.00  0.00     0.210 HD
ENDBRANCH   1  24
BRANCH   1  26
ATOM     26  C26 ZIN A   1      19.933   1.311  10.074  0.00  0.00     0.047 C 
BRANCH  26  27
ATOM     27  C27 ZIN A   1      18.675   1.672   9.281  0.00  0.00     0.084 C 
BRANCH  27  28
ATOM     28  C29 ZIN A   1      18.497   3.192   9.270  0.00  0.00     0.052 C 
BRANCH  28  29
ATOM     29  C30 ZIN A   1      18.367   3.693  10.684  0.00  0.00    -0.057 A 
ATOM     30  C35 ZIN A   1      17.123   4.031  11.187  0.00  0.00     0.007 A 
ATOM     31  C34 ZIN A   1      17.005   4.487  12.486  0.00  0.00     0.001 A 
ATOM     32  C33 ZIN A   1      18.129   4.613  13.281  0.00  0.00     0.000 A 
ATOM     33  C32 ZIN A   1      19.373   4.281  12.777  0.00  0.00     0.001 A 
ATOM     34  C31 ZIN A   1      19.492   3.820  11.479  0.00  0.00     0.007 A 
ENDBRANCH  28  29
ENDBRANCH  27  28
BRANCH  27  35
ATOM     35  C36 ZIN A   1      18.813   1.172   7.865  0.00  0.00     0.222 C 
ATOM     36  O37 ZIN A   1      19.261   1.901   7.006  0.00  0.00    -0.273 OA
ATOM     37  N38 ZIN A   1      18.438  -0.084   7.556  0.00  0.00    -0.350 N 
ATOM     38  H85 ZIN A   1      17.995  -0.637   8.219  0.00  0.00     0.163 HD
BRANCH  37  39
ATOM     39  C39 ZIN A   1      18.698  -0.617   6.216  0.00  0.00     0.147 C 
ATOM     40  C48 ZIN A   1      17.482  -0.375   5.297  0.00  0.00     0.149 C 
ATOM     41  C47 ZIN A   1      17.488  -1.635   4.403  0.00  0.00     0.073 C 
ATOM     42  C46 ZIN A   1      18.168  -2.706   5.229  0.00  0.00    -0.047 A 
ATOM     43  C41 ZIN A   1      18.863  -2.121   6.271  0.00  0.00    -0.027 A 
ATOM     44  C45 ZIN A   1      18.177  -4.082   5.081  0.00  0.00     0.008 A 
ATOM     45  C42 ZIN A   1      19.565  -2.914   7.162  0.00  0.00     0.010 A 
ATOM     46  C43 ZIN A   1      19.575  -4.287   7.013  0.00  0.00     0.001 A 
ATOM     47  C44 ZIN A   1      18.879  -4.873   5.971  0.00  0.00     0.001 A 
BRANCH  40  48
ATOM     48  O50 ZIN A   1      16.275  -0.299   6.059  0.00  0.00    -0.393 OA
ATOM     49  H92 ZIN A   1      15.991  -1.144   6.432  0.00  0.00     0.210 HD
ENDBRANCH  40  48
ENDBRANCH  37  39
ENDBRANCH  27  35
ENDBRANCH  26  27
ENDBRANCH   1  26
TORSDOF 14
ENDMDL
