MODEL 1
REMARK VINA RESULT:      -8.5      0.000      0.000
REMARK  7 active torsions:
REMARK  status: ('A' for Active; 'I' for Inactive)
REMARK    1  A    between atoms: O2_2  and  C3_3 
REMARK    2  A    between atoms: C8_8  and  C10_9 
REMARK    3  A    between atoms: C10_9  and  O12_11 
REMARK    4  A    between atoms: C10_9  and  C13_12 
REMARK    5  A    between atoms: C23_21  and  O24_22 
REMARK    6  A    between atoms: N30_28  and  C32_30 
REMARK    7  A    between atoms: C32_30  and  C33_31 
ROOT
ATOM      1  C3  <0> d   1      18.202  -1.583   9.835  0.00  0.00     0.094 C 
ATOM      2  C4  <0> d   1      19.658  -1.128   9.797  0.00  0.00     0.042 C 
ATOM      3  C5  <0> d   1      20.169  -0.868  11.212  0.00  0.00     0.016 C 
ATOM      4  C6  <0> d   1      19.006  -0.972  12.220  0.00  0.00     0.004 C 
ATOM      5  C7  <0> d   1      18.511  -2.406  12.206  0.00  0.00     0.023 C 
ATOM      6  C8  <0> d   1      18.067  -2.781  10.782  0.00  0.00     0.058 C 
ATOM      7  C17 <0> d   1      19.483  -0.412  13.547  0.00  0.00     0.202 C 
ATOM      8  C19 <0> d   1      20.002   1.037  13.450  0.00  0.00     0.073 C 
ATOM      9  C20 <0> d   1      19.595   1.763  12.215  0.00  0.00    -0.046 A 
ATOM     10  C21 <0> d   1      20.082   2.982  11.781  0.00  0.00     0.011 A 
ATOM     11  C22 <0> d   1      19.638   3.521  10.582  0.00  0.00     0.040 A 
ATOM     12  C23 <0> d   1      18.725   2.887   9.739  0.00  0.00     0.099 A 
ATOM     13  C25 <0> d   1      18.222   1.652  10.165  0.00  0.00     0.110 A 
ATOM     14  C26 <0> d   1      18.644   1.192  11.395  0.00  0.00    -0.003 A 
ATOM     15  C27 <0> d   1      17.876  -0.053  11.732  0.00  0.00     0.031 C 
ATOM     16  C28 <0> d   1      16.786   0.099  12.755  0.00  0.00     0.046 C 
ATOM     17  C29 <0> d   1      17.304   0.472  14.136  0.00  0.00     0.236 C 
ATOM     18  N30 <0> d   1      18.432  -0.346  14.569  0.00  0.00    -0.065 N 
ATOM     19  H31 <0> d   1      18.856   0.170  15.373  0.00  0.00     0.280 HD
ATOM     20  C36 <0> d   1      17.316  -0.454  10.362  0.00  0.00     0.178 C 
ATOM     21  O38 <0> d   1      17.398   0.754   9.588  0.00  0.00    -0.338 OA
ENDROOT
BRANCH   6  22
ATOM     22  C10 <0> d   1      18.894  -3.959  10.275  0.00  0.00     0.067 C 
ATOM     23  C11 <0> d   1      19.949  -4.328  11.320  0.00  0.00     0.047 C 
BRANCH  22  24
ATOM     24  O12 <0> d   1      19.540  -3.597   9.053  0.00  0.00    -0.389 OA
ATOM     25  H51 <0> d   1      19.167  -4.024   8.270  0.00  0.00     0.210 HD
ENDBRANCH  22  24
BRANCH  22  26
ATOM     26  C13 <0> d   1      17.976  -5.158  10.031  0.00  0.00    -0.020 C 
ATOM     27  C14 <0> d   1      16.712  -4.695   9.304  0.00  0.00     0.017 C 
ATOM     28  C15 <0> d   1      18.707  -6.192   9.173  0.00  0.00     0.017 C 
ATOM     29  C16 <0> d   1      17.592  -5.787  11.372  0.00  0.00     0.017 C 
ENDBRANCH  22  26
ENDBRANCH   6  22
BRANCH   1  30
ATOM     30  O2  <0> d   1      17.776  -1.957   8.524  0.00  0.00    -0.382 OA
ATOM     31  C1  <0> d   1      18.392  -1.206   7.476  0.00  0.00     0.202 C 
ENDBRANCH   1  30
BRANCH  18  32
ATOM     32  C32 <0> d   1      18.033  -1.636  15.117  0.00  0.00     0.240 C 
BRANCH  32  33
ATOM     33  C33 <0> d   1      18.109  -1.586  16.645  0.00  0.00     0.011 A 
ATOM     34  C35 <0> d   1      18.807  -0.380  17.278  0.00  0.00     0.007 A 
ATOM     35  C34 <0> d   1      19.487  -1.751  17.289  0.00  0.00     0.007 A 
ENDBRANCH  32  33
ENDBRANCH  18  32
BRANCH  12  36
ATOM     36  O24 <0> d   1      18.338   3.449   8.563  0.00  0.00    -0.358 OA
ATOM     37  H65 <0> d   1      19.071   3.775   8.022  0.00  0.00     0.217 HD
ENDBRANCH  12  36
TORSDOF 7
ENDMDL
MODEL 2
REMARK VINA RESULT:      -8.2      1.595      5.533
REMARK  7 active torsions:
REMARK  status: ('A' for Active; 'I' for Inactive)
REMARK    1  A    between atoms: O2_2  and  C3_3 
REMARK    2  A    between atoms: C8_8  and  C10_9 
REMARK    3  A    between atoms: C10_9  and  O12_11 
REMARK    4  A    between atoms: C10_9  and  C13_12 
REMARK    5  A    between atoms: C23_21  and  O24_22 
REMARK    6  A    between atoms: N30_28  and  C32_30 
REMARK    7  A    between atoms: C32_30  and  C33_31 
ROOT
ATOM      1  C3  <0> d   1      18.838   1.257  10.026  0.00  0.00     0.094 C 
ATOM      2  C4  <0> d   1      17.422   0.733   9.798  0.00  0.00     0.042 C 
ATOM      3  C5  <0> d   1      17.068  -0.310  10.856  0.00  0.00     0.016 C 
ATOM      4  C6  <0> d   1      18.309  -0.637  11.710  0.00  0.00     0.004 C 
ATOM      5  C7  <0> d   1      18.692   0.620  12.468  0.00  0.00     0.023 C 
ATOM      6  C8  <0> d   1      18.971   1.756  11.469  0.00  0.00     0.058 C 
ATOM      7  C17 <0> d   1      18.001  -1.878  12.529  0.00  0.00     0.202 C 
ATOM      8  C19 <0> d   1      17.586  -3.091  11.671  0.00  0.00     0.073 C 
ATOM      9  C20 <0> d   1      17.929  -2.979  10.226  0.00  0.00    -0.046 A 
ATOM     10  C21 <0> d   1      17.496  -3.813   9.212  0.00  0.00     0.011 A 
ATOM     11  C22 <0> d   1      17.864  -3.560   7.900  0.00  0.00     0.040 A 
ATOM     12  C23 <0> d   1      18.644  -2.471   7.509  0.00  0.00     0.099 A 
ATOM     13  C25 <0> d   1      19.091  -1.617   8.525  0.00  0.00     0.110 A 
ATOM     14  C26 <0> d   1      18.753  -1.949   9.820  0.00  0.00    -0.003 A 
ATOM     15  C27 <0> d   1      19.454  -1.008  10.756  0.00  0.00     0.031 C 
ATOM     16  C28 <0> d   1      20.643  -1.566  11.486  0.00  0.00     0.046 C 
ATOM     17  C29 <0> d   1      20.286  -2.684  12.453  0.00  0.00     0.236 C 
ATOM     18  N30 <0> d   1      19.146  -2.367  13.306  0.00  0.00    -0.065 N 
ATOM     19  H31 <0> d   1      18.839  -3.282  13.710  0.00  0.00     0.280 HD
ATOM     20  C36 <0> d   1      19.851   0.132   9.812  0.00  0.00     0.178 C 
ATOM     21  O38 <0> d   1      19.788  -0.463   8.505  0.00  0.00    -0.338 OA
ENDROOT
BRANCH   6  22
ATOM     22  C10 <0> d   1      18.015   2.916  11.724  0.00  0.00     0.067 C 
ATOM     23  C11 <0> d   1      17.271   2.684  13.040  0.00  0.00     0.047 C 
BRANCH  22  24
ATOM     24  O12 <0> d   1      17.073   3.002  10.653  0.00  0.00    -0.389 OA
ATOM     25  H51 <0> d   1      17.407   2.673   9.807  0.00  0.00     0.210 HD
ENDBRANCH  22  24
BRANCH  22  26
ATOM     26  C13 <0> d   1      18.808   4.221  11.810  0.00  0.00    -0.020 C 
ATOM     27  C14 <0> d   1      20.305   3.914  11.734  0.00  0.00     0.017 C 
ATOM     28  C15 <0> d   1      18.416   5.134  10.647  0.00  0.00     0.017 C 
ATOM     29  C16 <0> d   1      18.497   4.921  13.135  0.00  0.00     0.017 C 
ENDBRANCH  22  26
ENDBRANCH   6  22
BRANCH   1  30
ATOM     30  O2  <0> d   1      19.110   2.328   9.121  0.00  0.00    -0.382 OA
ATOM     31  C1  <0> d   1      18.824   2.022   7.754  0.00  0.00     0.202 C 
ENDBRANCH   1  30
BRANCH  18  32
ATOM     32  C32 <0> d   1      19.497  -1.546  14.458  0.00  0.00     0.240 C 
BRANCH  32  33
ATOM     33  C33 <0> d   1      18.363  -1.597  15.484  0.00  0.00     0.011 A 
ATOM     34  C35 <0> d   1      17.681  -0.277  15.849  0.00  0.00     0.007 A 
ATOM     35  C34 <0> d   1      18.618  -0.956  16.850  0.00  0.00     0.007 A 
ENDBRANCH  32  33
ENDBRANCH  18  32
BRANCH  12  36
ATOM     36  O24 <0> d   1      18.960  -2.256   6.205  0.00  0.00    -0.358 OA
ATOM     37  H65 <0> d   1      18.203  -2.022   5.649  0.00  0.00     0.217 HD
ENDBRANCH  12  36
TORSDOF 7
ENDMDL
MODEL 3
REMARK VINA RESULT:      -8.0      2.642      5.248
REMARK  7 active torsions:
REMARK  status: ('A' for Active; 'I' for Inactive)
REMARK    1  A    between atoms: O2_2  and  C3_3 
REMARK    2  A    between atoms: C8_8  and  C10_9 
REMARK    3  A    between atoms: C10_9  and  O12_11 
REMARK    4  A    between atoms: C10_9  and  C13_12 
REMARK    5  A    between atoms: C23_21  and  O24_22 
REMARK    6  A    between atoms: N30_28  and  C32_30 
REMARK    7  A    between atoms: C32_30  and  C33_31 
ROOT
ATOM      1  C3  <0> d   1      18.639  -0.880  12.799  0.00  0.00     0.094 C 
ATOM      2  C4  <0> d   1      17.199  -0.376  12.843  0.00  0.00     0.042 C 
ATOM      3  C5  <0> d   1      16.932   0.566  11.672  0.00  0.00     0.016 C 
ATOM      4  C6  <0> d   1      18.246   0.854  10.917  0.00  0.00     0.004 C 
ATOM      5  C7  <0> d   1      18.723  -0.452  10.309  0.00  0.00     0.023 C 
ATOM      6  C8  <0> d   1      18.922  -1.493  11.423  0.00  0.00     0.058 C 
ATOM      7  C17 <0> d   1      17.998   2.014   9.971  0.00  0.00     0.202 C 
ATOM      8  C19 <0> d   1      17.480   3.283  10.678  0.00  0.00     0.073 C 
ATOM      9  C20 <0> d   1      17.680   3.299  12.154  0.00  0.00    -0.046 A 
ATOM     10  C21 <0> d   1      17.135   4.203  13.048  0.00  0.00     0.011 A 
ATOM     11  C22 <0> d   1      17.376   4.068  14.406  0.00  0.00     0.040 A 
ATOM     12  C23 <0> d   1      18.133   3.036  14.961  0.00  0.00     0.099 A 
ATOM     13  C25 <0> d   1      18.692   2.112  14.069  0.00  0.00     0.110 A 
ATOM     14  C26 <0> d   1      18.478   2.328  12.723  0.00  0.00    -0.003 A 
ATOM     15  C27 <0> d   1      19.284   1.331  11.943  0.00  0.00     0.031 C 
ATOM     16  C28 <0> d   1      20.529   1.858  11.287  0.00  0.00     0.046 C 
ATOM     17  C29 <0> d   1      20.250   2.883  10.198  0.00  0.00     0.236 C 
ATOM     18  N30 <0> d   1      19.206   2.467   9.269  0.00  0.00    -0.065 N 
ATOM     19  H31 <0> d   1      18.924   3.337   8.762  0.00  0.00     0.280 HD
ATOM     20  C36 <0> d   1      19.606   0.283  13.014  0.00  0.00     0.178 C 
ATOM     21  O38 <0> d   1      19.404   0.982  14.254  0.00  0.00    -0.338 OA
ENDROOT
BRANCH   6  22
ATOM     22  C10 <0> d   1      18.016  -2.695  11.176  0.00  0.00     0.067 C 
ATOM     23  C11 <0> d   1      17.309  -2.532   9.829  0.00  0.00     0.047 C 
BRANCH  22  24
ATOM     24  O12 <0> d   1      17.042  -2.780  12.217  0.00  0.00    -0.389 OA
ATOM     25  H51 <0> d   1      17.048  -3.621  12.694  0.00  0.00     0.210 HD
ENDBRANCH  22  24
BRANCH  22  26
ATOM     26  C13 <0> d   1      18.857  -3.973  11.160  0.00  0.00    -0.020 C 
ATOM     27  C14 <0> d   1      20.276  -3.656  11.637  0.00  0.00     0.017 C 
ATOM     28  C15 <0> d   1      18.225  -5.010  12.089  0.00  0.00     0.017 C 
ATOM     29  C16 <0> d   1      18.911  -4.530   9.735  0.00  0.00     0.017 C 
ENDBRANCH  22  26
ENDBRANCH   6  22
BRANCH   1  30
ATOM     30  O2  <0> d   1      18.839  -1.866  13.813  0.00  0.00    -0.382 OA
ATOM     31  C1  <0> d   1      18.325  -1.496  15.095  0.00  0.00     0.202 C 
ENDBRANCH   1  30
BRANCH  18  32
ATOM     32  C32 <0> d   1      19.682   1.563   8.231  0.00  0.00     0.240 C 
BRANCH  32  33
ATOM     33  C33 <0> d   1      18.676   1.536   7.078  0.00  0.00     0.011 A 
ATOM     34  C35 <0> d   1      17.985   0.206   6.775  0.00  0.00     0.007 A 
ATOM     35  C34 <0> d   1      19.058   0.743   5.826  0.00  0.00     0.007 A 
ENDBRANCH  32  33
ENDBRANCH  18  32
BRANCH  12  36
ATOM     36  O24 <0> d   1      18.323   2.938  16.303  0.00  0.00    -0.358 OA
ATOM     37  H65 <0> d   1      18.415   3.790  16.751  0.00  0.00     0.217 HD
ENDBRANCH  12  36
TORSDOF 7
ENDMDL
MODEL 4
REMARK VINA RESULT:      -7.8      2.351      5.948
REMARK  7 active torsions:
REMARK  status: ('A' for Active; 'I' for Inactive)
REMARK    1  A    between atoms: O2_2  and  C3_3 
REMARK    2  A    between atoms: C8_8  and  C10_9 
REMARK    3  A    between atoms: C10_9  and  O12_11 
REMARK    4  A    between atoms: C10_9  and  C13_12 
REMARK    5  A    between atoms: C23_21  and  O24_22 
REMARK    6  A    between atoms: N30_28  and  C32_30 
REMARK    7  A    between atoms: C32_30  and  C33_31 
ROOT
ATOM      1  C3  <0> d   1      18.723   3.098  11.300  0.00  0.00     0.094 C 
ATOM      2  C4  <0> d   1      17.304   2.624  10.996  0.00  0.00     0.042 C 
ATOM      3  C5  <0> d   1      17.078   1.228  11.570  0.00  0.00     0.016 C 
ATOM      4  C6  <0> d   1      18.404   0.662  12.117  0.00  0.00     0.004 C 
ATOM      5  C7  <0> d   1      18.830   1.534  13.284  0.00  0.00     0.023 C 
ATOM      6  C8  <0> d   1      18.984   2.988  12.807  0.00  0.00     0.058 C 
ATOM      7  C17 <0> d   1      18.205  -0.818  12.390  0.00  0.00     0.202 C 
ATOM      8  C19 <0> d   1      17.736  -1.611  11.154  0.00  0.00     0.073 C 
ATOM      9  C20 <0> d   1      17.934  -0.913   9.853  0.00  0.00    -0.046 A 
ATOM     10  C21 <0> d   1      17.423  -1.298   8.627  0.00  0.00     0.011 A 
ATOM     11  C22 <0> d   1      17.656  -0.522   7.502  0.00  0.00     0.040 A 
ATOM     12  C23 <0> d   1      18.369   0.677   7.521  0.00  0.00     0.099 A 
ATOM     13  C25 <0> d   1      18.893   1.081   8.755  0.00  0.00     0.110 A 
ATOM     14  C26 <0> d   1      18.690   0.240   9.831  0.00  0.00    -0.003 A 
ATOM     15  C27 <0> d   1      19.458   0.771  11.006  0.00  0.00     0.031 C 
ATOM     16  C28 <0> d   1      20.725   0.041  11.352  0.00  0.00     0.046 C 
ATOM     17  C29 <0> d   1      20.490  -1.389  11.814  0.00  0.00     0.236 C 
ATOM     18  N30 <0> d   1      19.431  -1.507  12.810  0.00  0.00    -0.065 N 
ATOM     19  H31 <0> d   1      19.186  -2.523  12.836  0.00  0.00     0.280 HD
ATOM     20  C36 <0> d   1      19.736   2.214  10.572  0.00  0.00     0.178 C 
ATOM     21  O38 <0> d   1      19.559   2.187   9.146  0.00  0.00    -0.338 OA
ENDROOT
BRANCH   6  22
ATOM     22  C10 <0> d   1      18.031   3.891  13.582  0.00  0.00     0.067 C 
ATOM     23  C11 <0> d   1      17.343   3.081  14.682  0.00  0.00     0.047 C 
BRANCH  22  24
ATOM     24  O12 <0> d   1      17.047   4.421  12.693  0.00  0.00    -0.389 OA
ATOM     25  H51 <0> d   1      16.824   5.347  12.859  0.00  0.00     0.210 HD
ENDBRANCH  22  24
BRANCH  22  26
ATOM     26  C13 <0> d   1      18.819   5.041  14.213  0.00  0.00    -0.020 C 
ATOM     27  C14 <0> d   1      19.165   4.691  15.661  0.00  0.00     0.017 C 
ATOM     28  C15 <0> d   1      20.109   5.269  13.422  0.00  0.00     0.017 C 
ATOM     29  C16 <0> d   1      17.973   6.316  14.184  0.00  0.00     0.017 C 
ENDBRANCH  22  26
ENDBRANCH   6  22
BRANCH   1  30
ATOM     30  O2  <0> d   1      18.881   4.455  10.884  0.00  0.00    -0.382 OA
ATOM     31  C1  <0> d   1      17.905   4.890   9.934  0.00  0.00     0.202 C 
ENDBRANCH   1  30
BRANCH  18  32
ATOM     32  C32 <0> d   1      19.874  -1.193  14.163  0.00  0.00     0.240 C 
BRANCH  32  33
ATOM     33  C33 <0> d   1      18.777  -1.575  15.159  0.00  0.00     0.011 A 
ATOM     34  C35 <0> d   1      18.234  -0.472  16.070  0.00  0.00     0.007 A 
ATOM     35  C34 <0> d   1      19.139  -1.563  16.646  0.00  0.00     0.007 A 
ENDBRANCH  32  33
ENDBRANCH  18  32
BRANCH  12  36
ATOM     36  O24 <0> d   1      18.551   1.412   6.393  0.00  0.00    -0.358 OA
ATOM     37  H65 <0> d   1      19.155   2.160   6.503  0.00  0.00     0.217 HD
ENDBRANCH  12  36
TORSDOF 7
ENDMDL
MODEL 5
REMARK VINA RESULT:      -7.8      1.995      5.217
REMARK  7 active torsions:
REMARK  status: ('A' for Active; 'I' for Inactive)
REMARK    1  A    between atoms: O2_2  and  C3_3 
REMARK    2  A    between atoms: C8_8  and  C10_9 
REMARK    3  A    between atoms: C10_9  and  O12_11 
REMARK    4  A    between atoms: C10_9  and  C13_12 
REMARK    5  A    between atoms: C23_21  and  O24_22 
REMARK    6  A    between atoms: N30_28  and  C32_30 
REMARK    7  A    between atoms: C32_30  and  C33_31 
ROOT
ATOM      1  C3  <0> d   1      18.056   0.066   9.762  0.00  0.00     0.094 C 
ATOM      2  C4  <0> d   1      19.448   0.303  10.340  0.00  0.00     0.042 C 
ATOM      3  C5  <0> d   1      20.107  -1.027  10.697  0.00  0.00     0.016 C 
ATOM      4  C6  <0> d   1      19.095  -2.178  10.530  0.00  0.00     0.004 C 
ATOM      5  C7  <0> d   1      18.735  -2.266   9.059  0.00  0.00     0.023 C 
ATOM      6  C8  <0> d   1      18.152  -0.921   8.593  0.00  0.00     0.058 C 
ATOM      7  C17 <0> d   1      19.683  -3.418  11.179  0.00  0.00     0.202 C 
ATOM      8  C19 <0> d   1      20.050  -3.217  12.663  0.00  0.00     0.073 C 
ATOM      9  C20 <0> d   1      19.426  -2.027  13.304  0.00  0.00    -0.046 A 
ATOM     10  C21 <0> d   1      19.741  -1.501  14.544  0.00  0.00     0.011 A 
ATOM     11  C22 <0> d   1      19.102  -0.356  14.996  0.00  0.00     0.040 A 
ATOM     12  C23 <0> d   1      18.152   0.346  14.254  0.00  0.00     0.099 A 
ATOM     13  C25 <0> d   1      17.822  -0.174  12.996  0.00  0.00     0.110 A 
ATOM     14  C26 <0> d   1      18.436  -1.351  12.621  0.00  0.00    -0.003 A 
ATOM     15  C27 <0> d   1      17.833  -1.816  11.328  0.00  0.00     0.031 C 
ATOM     16  C28 <0> d   1      16.872  -2.967  11.423  0.00  0.00     0.046 C 
ATOM     17  C29 <0> d   1      17.523  -4.260  11.891  0.00  0.00     0.236 C 
ATOM     18  N30 <0> d   1      18.766  -4.565  11.191  0.00  0.00    -0.065 N 
ATOM     19  H31 <0> d   1      19.240  -5.294  11.772  0.00  0.00     0.280 HD
ATOM     20  C36 <0> d   1      17.144  -0.541  10.828  0.00  0.00     0.178 C 
ATOM     21  O38 <0> d   1      17.017   0.269  12.009  0.00  0.00    -0.338 OA
ENDROOT
BRANCH   6  22
ATOM     22  C10 <0> d   1      19.012  -0.343   7.474  0.00  0.00     0.067 C 
ATOM     23  C11 <0> d   1      19.961  -1.423   6.952  0.00  0.00     0.047 C 
BRANCH  22  24
ATOM     24  O12 <0> d   1      19.772   0.757   7.977  0.00  0.00    -0.389 OA
ATOM     25  H51 <0> d   1      20.679   0.794   7.643  0.00  0.00     0.210 HD
ENDBRANCH  22  24
BRANCH  22  26
ATOM     26  C13 <0> d   1      18.111   0.138   6.335  0.00  0.00    -0.020 C 
ATOM     27  C14 <0> d   1      18.280   1.647   6.152  0.00  0.00     0.017 C 
ATOM     28  C15 <0> d   1      18.498  -0.579   5.041  0.00  0.00     0.017 C 
ATOM     29  C16 <0> d   1      16.651  -0.174   6.673  0.00  0.00     0.017 C 
ENDBRANCH  22  26
ENDBRANCH   6  22
BRANCH   1  30
ATOM     30  O2  <0> d   1      17.504   1.301   9.303  0.00  0.00    -0.382 OA
ATOM     31  C1  <0> d   1      17.976   2.448  10.012  0.00  0.00     0.202 C 
ENDBRANCH   1  30
BRANCH  18  32
ATOM     32  C32 <0> d   1      18.560  -5.194   9.893  0.00  0.00     0.240 C 
BRANCH  32  33
ATOM     33  C33 <0> d   1      17.293  -6.050   9.938  0.00  0.00     0.011 A 
ATOM     34  C35 <0> d   1      17.020  -6.970   8.746  0.00  0.00     0.007 A 
ATOM     35  C34 <0> d   1      16.176  -5.710   8.949  0.00  0.00     0.007 A 
ENDBRANCH  32  33
ENDBRANCH  18  32
BRANCH  12  36
ATOM     36  O24 <0> d   1      17.570   1.476  14.735  0.00  0.00    -0.358 OA
ATOM     37  H65 <0> d   1      17.689   1.606  15.686  0.00  0.00     0.217 HD
ENDBRANCH  12  36
TORSDOF 7
ENDMDL
MODEL 6
REMARK VINA RESULT:      -7.1      2.152      4.424
REMARK  7 active torsions:
REMARK  status: ('A' for Active; 'I' for Inactive)
REMARK    1  A    between atoms: O2_2  and  C3_3 
REMARK    2  A    between atoms: C8_8  and  C10_9 
REMARK    3  A    between atoms: C10_9  and  O12_11 
REMARK    4  A    between atoms: C10_9  and  C13_12 
REMARK    5  A    between atoms: C23_21  and  O24_22 
REMARK    6  A    between atoms: N30_28  and  C32_30 
REMARK    7  A    between atoms: C32_30  and  C33_31 
ROOT
ATOM      1  C3  <0> d   1      18.291   2.118  10.355  0.00  0.00     0.094 C 
ATOM      2  C4  <0> d   1      19.667   2.481  10.907  0.00  0.00     0.042 C 
ATOM      3  C5  <0> d   1      20.177   1.374  11.826  0.00  0.00     0.016 C 
ATOM      4  C6  <0> d   1      19.071   0.324  12.052  0.00  0.00     0.004 C 
ATOM      5  C7  <0> d   1      18.783  -0.335  10.716  0.00  0.00     0.023 C 
ATOM      6  C8  <0> d   1      18.355   0.735   9.698  0.00  0.00     0.058 C 
ATOM      7  C17 <0> d   1      19.503  -0.576  13.195  0.00  0.00     0.202 C 
ATOM      8  C19 <0> d   1      19.809   0.192  14.497  0.00  0.00     0.073 C 
ATOM      9  C20 <0> d   1      19.268   1.578  14.545  0.00  0.00    -0.046 A 
ATOM     10  C21 <0> d   1      19.564   2.545  15.489  0.00  0.00     0.011 A 
ATOM     11  C22 <0> d   1      19.014   3.813  15.382  0.00  0.00     0.040 A 
ATOM     12  C23 <0> d   1      18.176   4.209  14.340  0.00  0.00     0.099 A 
ATOM     13  C25 <0> d   1      17.865   3.242  13.376  0.00  0.00     0.110 A 
ATOM     14  C26 <0> d   1      18.384   1.977  13.564  0.00  0.00    -0.003 A 
ATOM     15  C27 <0> d   1      17.808   1.062  12.522  0.00  0.00     0.031 C 
ATOM     16  C28 <0> d   1      16.739   0.116  12.990  0.00  0.00     0.046 C 
ATOM     17  C29 <0> d   1      17.240  -0.909  13.995  0.00  0.00     0.236 C 
ATOM     18  N30 <0> d   1      18.483  -1.554  13.590  0.00  0.00    -0.065 N 
ATOM     19  H31 <0> d   1      18.854  -2.010  14.455  0.00  0.00     0.280 HD
ATOM     20  C36 <0> d   1      17.271   2.062  11.492  0.00  0.00     0.178 C 
ATOM     21  O38 <0> d   1      17.158   3.291  12.228  0.00  0.00    -0.338 OA
ENDROOT
BRANCH   6  22
ATOM     22  C10 <0> d   1      19.324   0.746   8.520  0.00  0.00     0.067 C 
ATOM     23  C11 <0> d   1      20.488  -0.204   8.809  0.00  0.00     0.047 C 
BRANCH  22  24
ATOM     24  O12 <0> d   1      19.826   2.069   8.329  0.00  0.00    -0.389 OA
ATOM     25  H51 <0> d   1      19.148   2.757   8.368  0.00  0.00     0.210 HD
ENDBRANCH  22  24
BRANCH  22  26
ATOM     26  C13 <0> d   1      18.595   0.289   7.256  0.00  0.00    -0.020 C 
ATOM     27  C14 <0> d   1      19.222  -1.009   6.744  0.00  0.00     0.017 C 
ATOM     28  C15 <0> d   1      17.118   0.050   7.577  0.00  0.00     0.017 C 
ATOM     29  C16 <0> d   1      18.713   1.371   6.180  0.00  0.00     0.017 C 
ENDBRANCH  22  26
ENDBRANCH   6  22
BRANCH   1  30
ATOM     30  O2  <0> d   1      17.884   3.089   9.390  0.00  0.00    -0.382 OA
ATOM     31  C1  <0> d   1      18.003   4.441   9.838  0.00  0.00     0.202 C 
ENDBRANCH   1  30
BRANCH  18  32
ATOM     32  C32 <0> d   1      18.287  -2.645  12.644  0.00  0.00     0.240 C 
BRANCH  32  33
ATOM     33  C33 <0> d   1      19.648  -3.206  12.224  0.00  0.00     0.011 A 
ATOM     34  C35 <0> d   1      19.922  -3.346  10.726  0.00  0.00     0.007 A 
ATOM     35  C34 <0> d   1      19.670  -4.592  11.577  0.00  0.00     0.007 A 
ENDBRANCH  32  33
ENDBRANCH  18  32
BRANCH  12  36
ATOM     36  O24 <0> d   1      17.678   5.472  14.271  0.00  0.00    -0.358 OA
ATOM     37  H65 <0> d   1      16.795   5.569  14.653  0.00  0.00     0.217 HD
ENDBRANCH  12  36
TORSDOF 7
ENDMDL
MODEL 7
REMARK VINA RESULT:      -7.0      2.479      6.305
REMARK  7 active torsions:
REMARK  status: ('A' for Active; 'I' for Inactive)
REMARK    1  A    between atoms: O2_2  and  C3_3 
REMARK    2  A    between atoms: C8_8  and  C10_9 
REMARK    3  A    between atoms: C10_9  and  O12_11 
REMARK    4  A    between atoms: C10_9  and  C13_12 
REMARK    5  A    between atoms: C23_21  and  O24_22 
REMARK    6  A    between atoms: N30_28  and  C32_30 
REMARK    7  A    between atoms: C32_30  and  C33_31 
ROOT
ATOM      1  C3  <0> d   1      18.795   3.616  11.877  0.00  0.00     0.094 C 
ATOM      2  C4  <0> d   1      17.351   3.212  11.586  0.00  0.00     0.042 C 
ATOM      3  C5  <0> d   1      17.006   1.918  12.320  0.00  0.00     0.016 C 
ATOM      4  C6  <0> d   1      18.271   1.331  12.978  0.00  0.00     0.004 C 
ATOM      5  C7  <0> d   1      18.733   2.309  14.041  0.00  0.00     0.023 C 
ATOM      6  C8  <0> d   1      19.010   3.677  13.394  0.00  0.00     0.058 C 
ATOM      7  C17 <0> d   1      17.954  -0.084  13.424  0.00  0.00     0.202 C 
ATOM      8  C19 <0> d   1      17.456  -0.991  12.280  0.00  0.00     0.073 C 
ATOM      9  C20 <0> d   1      17.738  -0.477  10.910  0.00  0.00    -0.046 A 
ATOM     10  C21 <0> d   1      17.229  -0.975   9.725  0.00  0.00     0.011 A 
ATOM     11  C22 <0> d   1      17.548  -0.365   8.521  0.00  0.00     0.040 A 
ATOM     12  C23 <0> d   1      18.349   0.771   8.416  0.00  0.00     0.099 A 
ATOM     13  C25 <0> d   1      18.873   1.288   9.608  0.00  0.00     0.110 A 
ATOM     14  C26 <0> d   1      18.580   0.606  10.771  0.00  0.00    -0.003 A 
ATOM     15  C27 <0> d   1      19.358   1.223  11.898  0.00  0.00     0.031 C 
ATOM     16  C28 <0> d   1      20.556   0.452  12.374  0.00  0.00     0.046 C 
ATOM     17  C29 <0> d   1      20.201  -0.888  13.000  0.00  0.00     0.236 C 
ATOM     18  N30 <0> d   1      19.113  -0.803  13.967  0.00  0.00    -0.065 N 
ATOM     19  H31 <0> d   1      18.790  -1.787  14.109  0.00  0.00     0.280 HD
ATOM     20  C36 <0> d   1      19.755   2.576  11.298  0.00  0.00     0.178 C 
ATOM     21  O38 <0> d   1      19.611   2.383   9.881  0.00  0.00    -0.338 OA
ENDROOT
BRANCH   6  22
ATOM     22  C10 <0> d   1      18.110   4.737  14.020  0.00  0.00     0.067 C 
ATOM     23  C11 <0> d   1      17.162   4.075  15.021  0.00  0.00     0.047 C 
BRANCH  22  24
ATOM     24  O12 <0> d   1      17.348   5.380  12.996  0.00  0.00    -0.389 OA
ATOM     25  H51 <0> d   1      17.568   5.090  12.101  0.00  0.00     0.210 HD
ENDBRANCH  22  24
BRANCH  22  26
ATOM     26  C13 <0> d   1      18.971   5.775  14.742  0.00  0.00    -0.020 C 
ATOM     27  C14 <0> d   1      18.299   7.147  14.655  0.00  0.00     0.017 C 
ATOM     28  C15 <0> d   1      19.126   5.375  16.210  0.00  0.00     0.017 C 
ATOM     29  C16 <0> d   1      20.351   5.840  14.083  0.00  0.00     0.017 C 
ENDBRANCH  22  26
ENDBRANCH   6  22
BRANCH   1  30
ATOM     30  O2  <0> d   1      19.065   4.895  11.303  0.00  0.00    -0.382 OA
ATOM     31  C1  <0> d   1      18.179   5.256  10.241  0.00  0.00     0.202 C 
ENDBRANCH   1  30
BRANCH  18  32
ATOM     32  C32 <0> d   1      19.545  -0.354  15.284  0.00  0.00     0.240 C 
BRANCH  32  33
ATOM     33  C33 <0> d   1      18.859  -1.199  16.360  0.00  0.00     0.011 A 
ATOM     34  C35 <0> d   1      17.384  -0.914  16.649  0.00  0.00     0.007 A 
ATOM     35  C34 <0> d   1      18.456  -0.497  17.659  0.00  0.00     0.007 A 
ENDBRANCH  32  33
ENDBRANCH  18  32
BRANCH  12  36
ATOM     36  O24 <0> d   1      18.615   1.344   7.212  0.00  0.00    -0.358 OA
ATOM     37  H65 <0> d   1      18.118   2.157   7.045  0.00  0.00     0.217 HD
ENDBRANCH  12  36
TORSDOF 7
ENDMDL
MODEL 8
REMARK VINA RESULT:      -6.4      2.242      6.396
REMARK  7 active torsions:
REMARK  status: ('A' for Active; 'I' for Inactive)
REMARK    1  A    between atoms: O2_2  and  C3_3 
REMARK    2  A    between atoms: C8_8  and  C10_9 
REMARK    3  A    between atoms: C10_9  and  O12_11 
REMARK    4  A    between atoms: C10_9  and  C13_12 
REMARK    5  A    between atoms: C23_21  and  O24_22 
REMARK    6  A    between atoms: N30_28  and  C32_30 
REMARK    7  A    between atoms: C32_30  and  C33_31 
ROOT
ATOM      1  C3  <0> d   1      19.131  -2.783   7.129  0.00  0.00     0.094 C 
ATOM      2  C4  <0> d   1      17.617  -2.976   7.077  0.00  0.00     0.042 C 
ATOM      3  C5  <0> d   1      17.056  -3.142   8.487  0.00  0.00     0.016 C 
ATOM      4  C6  <0> d   1      18.211  -3.244   9.505  0.00  0.00     0.004 C 
ATOM      5  C7  <0> d   1      18.949  -1.919   9.498  0.00  0.00     0.023 C 
ATOM      6  C8  <0> d   1      19.465  -1.627   8.079  0.00  0.00     0.058 C 
ATOM      7  C17 <0> d   1      17.630  -3.711  10.827  0.00  0.00     0.202 C 
ATOM      8  C19 <0> d   1      16.867  -5.048  10.723  0.00  0.00     0.073 C 
ATOM      9  C20 <0> d   1      17.151  -5.834   9.491  0.00  0.00    -0.046 A 
ATOM     10  C21 <0> d   1      16.463  -6.949   9.050  0.00  0.00     0.011 A 
ATOM     11  C22 <0> d   1      16.816  -7.556   7.855  0.00  0.00     0.040 A 
ATOM     12  C23 <0> d   1      17.833  -7.093   7.020  0.00  0.00     0.099 A 
ATOM     13  C25 <0> d   1      18.541  -5.964   7.453  0.00  0.00     0.110 A 
ATOM     14  C26 <0> d   1      18.195  -5.437   8.680  0.00  0.00    -0.003 A 
ATOM     15  C27 <0> d   1      19.167  -4.346   9.026  0.00  0.00     0.031 C 
ATOM     16  C28 <0> d   1      20.203  -4.687  10.059  0.00  0.00     0.046 C 
ATOM     17  C29 <0> d   1      19.615  -4.964  11.434  0.00  0.00     0.236 C 
ATOM     18  N30 <0> d   1      18.645  -3.961  11.858  0.00  0.00    -0.065 N 
ATOM     19  H31 <0> d   1      18.129  -4.395  12.658  0.00  0.00     0.280 HD
ATOM     20  C36 <0> d   1      19.800  -4.050   7.662  0.00  0.00     0.178 C 
ATOM     21  O38 <0> d   1      19.515  -5.225   6.885  0.00  0.00    -0.338 OA
ENDROOT
BRANCH   6  22
ATOM     22  C10 <0> d   1      18.862  -0.323   7.567  0.00  0.00     0.067 C 
ATOM     23  C11 <0> d   1      17.376  -0.531   7.268  0.00  0.00     0.047 C 
BRANCH  22  24
ATOM     24  O12 <0> d   1      19.536   0.078   6.373  0.00  0.00    -0.389 OA
ATOM     25  H51 <0> d   1      20.340   0.592   6.529  0.00  0.00     0.210 HD
ENDBRANCH  22  24
BRANCH  22  26
ATOM     26  C13 <0> d   1      19.020   0.764   8.631  0.00  0.00    -0.020 C 
ATOM     27  C14 <0> d   1      17.752   0.834   9.484  0.00  0.00     0.017 C 
ATOM     28  C15 <0> d   1      20.217   0.432   9.524  0.00  0.00     0.017 C 
ATOM     29  C16 <0> d   1      19.252   2.115   7.950  0.00  0.00     0.017 C 
ENDBRANCH  22  26
ENDBRANCH   6  22
BRANCH   1  30
ATOM     30  O2  <0> d   1      19.627  -2.489   5.822  0.00  0.00    -0.382 OA
ATOM     31  C1  <0> d   1      18.747  -2.875   4.765  0.00  0.00     0.202 C 
ENDBRANCH   1  30
BRANCH  18  32
ATOM     32  C32 <0> d   1      19.258  -2.761  12.412  0.00  0.00     0.240 C 
BRANCH  32  33
ATOM     33  C33 <0> d   1      18.172  -1.861  13.004  0.00  0.00     0.011 A 
ATOM     34  C35 <0> d   1      18.412  -0.350  12.973  0.00  0.00     0.007 A 
ATOM     35  C34 <0> d   1      18.503  -1.112  14.297  0.00  0.00     0.007 A 
ENDBRANCH  32  33
ENDBRANCH  18  32
BRANCH  12  36
ATOM     36  O24 <0> d   1      18.127  -7.713   5.847  0.00  0.00    -0.358 OA
ATOM     37  H65 <0> d   1      17.725  -7.298   5.071  0.00  0.00     0.217 HD
ENDBRANCH  12  36
TORSDOF 7
ENDMDL
MODEL 9
REMARK VINA RESULT:      -6.1      7.075     10.256
REMARK  7 active torsions:
REMARK  status: ('A' for Active; 'I' for Inactive)
REMARK    1  A    between atoms: O2_2  and  C3_3 
REMARK    2  A    between atoms: C8_8  and  C10_9 
REMARK    3  A    between atoms: C10_9  and  O12_11 
REMARK    4  A    between atoms: C10_9  and  C13_12 
REMARK    5  A    between atoms: C23_21  and  O24_22 
REMARK    6  A    between atoms: N30_28  and  C32_30 
REMARK    7  A    between atoms: C32_30  and  C33_31 
ROOT
ATOM      1  C3  <0> d   1      16.424  -7.650   6.584  0.00  0.00     0.094 C 
ATOM      2  C4  <0> d   1      15.999  -6.291   7.134  0.00  0.00     0.042 C 
ATOM      3  C5  <0> d   1      15.611  -5.355   5.991  0.00  0.00     0.016 C 
ATOM      4  C6  <0> d   1      15.940  -6.014   4.636  0.00  0.00     0.004 C 
ATOM      5  C7  <0> d   1      15.060  -7.241   4.495  0.00  0.00     0.023 C 
ATOM      6  C8  <0> d   1      15.321  -8.197   5.671  0.00  0.00     0.058 C 
ATOM      7  C17 <0> d   1      15.831  -4.950   3.559  0.00  0.00     0.202 C 
ATOM      8  C19 <0> d   1      16.736  -3.727   3.812  0.00  0.00     0.073 C 
ATOM      9  C20 <0> d   1      17.820  -3.948   4.808  0.00  0.00    -0.046 A 
ATOM     10  C21 <0> d   1      18.632  -2.980   5.369  0.00  0.00     0.011 A 
ATOM     11  C22 <0> d   1      19.577  -3.331   6.321  0.00  0.00     0.040 A 
ATOM     12  C23 <0> d   1      19.757  -4.631   6.792  0.00  0.00     0.099 A 
ATOM     13  C25 <0> d   1      18.943  -5.625   6.233  0.00  0.00     0.110 A 
ATOM     14  C26 <0> d   1      18.065  -5.235   5.243  0.00  0.00    -0.003 A 
ATOM     15  C27 <0> d   1      17.410  -6.459   4.673  0.00  0.00     0.031 C 
ATOM     16  C28 <0> d   1      17.901  -6.905   3.325  0.00  0.00     0.046 C 
ATOM     17  C29 <0> d   1      17.608  -5.908   2.216  0.00  0.00     0.236 C 
ATOM     18  N30 <0> d   1      16.233  -5.420   2.228  0.00  0.00    -0.065 N 
ATOM     19  H31 <0> d   1      16.236  -4.569   1.620  0.00  0.00     0.280 HD
ATOM     20  C36 <0> d   1      17.701  -7.502   5.758  0.00  0.00     0.178 C 
ATOM     21  O38 <0> d   1      18.803  -6.941   6.491  0.00  0.00    -0.338 OA
ENDROOT
BRANCH   6  22
ATOM     22  C10 <0> d   1      14.032  -8.412   6.458  0.00  0.00     0.067 C 
ATOM     23  C11 <0> d   1      12.922  -7.544   5.865  0.00  0.00     0.047 C 
BRANCH  22  24
ATOM     24  O12 <0> d   1      14.242  -8.050   7.824  0.00  0.00    -0.389 OA
ATOM     25  H51 <0> d   1      13.905  -7.174   8.055  0.00  0.00     0.210 HD
ENDBRANCH  22  24
BRANCH  22  26
ATOM     26  C13 <0> d   1      13.626  -9.885   6.378  0.00  0.00    -0.020 C 
ATOM     27  C14 <0> d   1      12.163  -9.989   5.945  0.00  0.00     0.017 C 
ATOM     28  C15 <0> d   1      14.512 -10.603   5.358  0.00  0.00     0.017 C 
ATOM     29  C16 <0> d   1      13.799 -10.537   7.752  0.00  0.00     0.017 C 
ENDBRANCH  22  26
ENDBRANCH   6  22
BRANCH   1  30
ATOM     30  O2  <0> d   1      16.650  -8.559   7.662  0.00  0.00    -0.382 OA
ATOM     31  C1  <0> d   1      17.372  -9.735   7.290  0.00  0.00     0.202 C 
ENDBRANCH   1  30
BRANCH  18  32
ATOM     32  C32 <0> d   1      15.291  -6.332   1.593  0.00  0.00     0.240 C 
BRANCH  32  33
ATOM     33  C33 <0> d   1      14.048  -5.555   1.153  0.00  0.00     0.011 A 
ATOM     34  C35 <0> d   1      12.921  -5.387   2.174  0.00  0.00     0.007 A 
ATOM     35  C34 <0> d   1      12.745  -6.341   0.991  0.00  0.00     0.007 A 
ENDBRANCH  32  33
ENDBRANCH  18  32
BRANCH  12  36
ATOM     36  O24 <0> d   1      20.686  -4.920   7.742  0.00  0.00    -0.358 OA
ATOM     37  H65 <0> d   1      20.823  -5.867   7.884  0.00  0.00     0.217 HD
ENDBRANCH  12  36
TORSDOF 7
ENDMDL
