MODEL 1
REMARK VINA RESULT:      -8.8      0.000      0.000
REMARK  8 active torsions:
REMARK  status: ('A' for Active; 'I' for Inactive)
REMARK    1  A    between atoms: O1_1  and  C2_2 
REMARK    2  A    between atoms: C2_2  and  C4_3 
REMARK    3  A    between atoms: C2_2  and  C24_21 
REMARK    4  A    between atoms: C4_3  and  N5_4 
REMARK    5  A    between atoms: N5_4  and  C8_7 
REMARK    6  A    between atoms: C8_7  and  C9_8 
REMARK    7  A    between atoms: C9_8  and  O11_9 
REMARK    8  A    between atoms: C9_8  and  C12_10 
ROOT
ATOM      1  N5  ZIN A   1      17.751  -4.361   7.424  0.00  0.00    -0.070 N 
ATOM      2  H6  ZIN A   1      16.759  -4.191   7.346  0.00  0.00     0.277 HD
ATOM      3  H7  ZIN A   1      18.191  -3.574   7.878  0.00  0.00     0.277 HD
ENDROOT
BRANCH   1   4
ATOM      4  C4  ZIN A   1      17.979  -5.574   8.220  0.00  0.00     0.266 C 
BRANCH   4   5
ATOM      5  C2  ZIN A   1      17.506  -5.339   9.656  0.00  0.00     0.173 C 
BRANCH   5   6
ATOM      6  O1  ZIN A   1      16.103  -5.067   9.657  0.00  0.00    -0.391 OA
ATOM      7  H36 ZIN A   1      15.590  -5.645   9.076  0.00  0.00     0.210 HD
ENDBRANCH   5   6
BRANCH   5   8
ATOM      8  C24 ZIN A   1      18.257  -4.147  10.253  0.00  0.00     0.159 C 
ATOM      9  O35 ZIN A   1      17.329  -3.256  10.874  0.00  0.00    -0.343 OA
ATOM     10  C34 ZIN A   1      17.829  -2.262  11.655  0.00  0.00     0.075 A 
ATOM     11  C28 ZIN A   1      19.124  -2.298  12.140  0.00  0.00    -0.022 A 
ATOM     12  C33 ZIN A   1      17.002  -1.189  11.972  0.00  0.00     0.040 A 
ATOM     13  C27 ZIN A   1      20.054  -3.439  11.814  0.00  0.00     0.044 C 
ATOM     14  C29 ZIN A   1      19.588  -1.269  12.943  0.00  0.00     0.052 A 
ATOM     15  C26 ZIN A   1      19.244  -4.639  11.319  0.00  0.00     0.040 C 
ATOM     16  C30 ZIN A   1      18.763  -0.204  13.258  0.00  0.00     0.117 A 
ATOM     17  F31 ZIN A   1      19.220   0.797  14.042  0.00  0.00    -0.206 F 
ATOM     18  C32 ZIN A   1      17.468  -0.165  12.770  0.00  0.00     0.045 A 
ENDBRANCH   5   8
ENDBRANCH   4   5
ENDBRANCH   1   4
BRANCH   1  19
ATOM     19  C8  ZIN A   1      18.325  -4.538   6.084  0.00  0.00     0.266 C 
BRANCH  19  20
ATOM     20  C9  ZIN A   1      19.413  -3.488   5.852  0.00  0.00     0.173 C 
BRANCH  20  21
ATOM     21  O11 ZIN A   1      20.565  -3.814   6.630  0.00  0.00    -0.391 OA
ATOM     22  H41 ZIN A   1      20.768  -3.170   7.322  0.00  0.00     0.210 HD
ENDBRANCH  20  21
BRANCH  20  23
ATOM     23  C12 ZIN A   1      18.890  -2.111   6.267  0.00  0.00     0.159 C 
ATOM     24  O23 ZIN A   1      19.442  -1.749   7.534  0.00  0.00    -0.343 OA
ATOM     25  C22 ZIN A   1      19.278  -0.468   7.956  0.00  0.00     0.075 A 
ATOM     26  C16 ZIN A   1      18.923   0.547   7.085  0.00  0.00    -0.022 A 
ATOM     27  C21 ZIN A   1      19.479  -0.183   9.302  0.00  0.00     0.040 A 
ATOM     28  C15 ZIN A   1      18.689   0.279   5.620  0.00  0.00     0.044 C 
ATOM     29  C17 ZIN A   1      18.777   1.841   7.556  0.00  0.00     0.052 A 
ATOM     30  C14 ZIN A   1      19.319  -1.062   5.234  0.00  0.00     0.040 C 
ATOM     31  C18 ZIN A   1      18.980   2.122   8.895  0.00  0.00     0.117 A 
ATOM     32  F19 ZIN A   1      18.836   3.386   9.350  0.00  0.00    -0.206 F 
ATOM     33  C20 ZIN A   1      19.331   1.108   9.769  0.00  0.00     0.045 A 
ENDBRANCH  20  23
ENDBRANCH  19  20
ENDBRANCH   1  19
TORSDOF 8
ENDMDL
MODEL 2
REMARK VINA RESULT:      -8.8      0.146      5.099
REMARK  8 active torsions:
REMARK  status: ('A' for Active; 'I' for Inactive)
REMARK    1  A    between atoms: O1_1  and  C2_2 
REMARK    2  A    between atoms: C2_2  and  C4_3 
REMARK    3  A    between atoms: C2_2  and  C24_21 
REMARK    4  A    between atoms: C4_3  and  N5_4 
REMARK    5  A    between atoms: N5_4  and  C8_7 
REMARK    6  A    between atoms: C8_7  and  C9_8 
REMARK    7  A    between atoms: C9_8  and  O11_9 
REMARK    8  A    between atoms: C9_8  and  C12_10 
ROOT
ATOM      1  N5  ZIN A   1      17.853  -4.405   7.569  0.00  0.00    -0.070 N 
ATOM      2  H6  ZIN A   1      18.478  -3.783   8.058  0.00  0.00     0.277 HD
ATOM      3  H7  ZIN A   1      16.944  -3.973   7.488  0.00  0.00     0.277 HD
ENDROOT
BRANCH   1   4
ATOM      4  C4  ZIN A   1      18.384  -4.679   6.228  0.00  0.00     0.266 C 
BRANCH   4   5
ATOM      5  C2  ZIN A   1      19.431  -3.623   5.868  0.00  0.00     0.173 C 
BRANCH   5   6
ATOM      6  O1  ZIN A   1      20.641  -3.889   6.581  0.00  0.00    -0.391 OA
ATOM      7  H36 ZIN A   1      21.295  -4.388   6.073  0.00  0.00     0.210 HD
ENDBRANCH   5   6
BRANCH   5   8
ATOM      8  C24 ZIN A   1      18.909  -2.236   6.248  0.00  0.00     0.159 C 
ATOM      9  O35 ZIN A   1      19.455  -1.846   7.510  0.00  0.00    -0.343 OA
ATOM     10  C34 ZIN A   1      19.290  -0.555   7.901  0.00  0.00     0.075 A 
ATOM     11  C28 ZIN A   1      18.943   0.439   7.005  0.00  0.00    -0.022 A 
ATOM     12  C33 ZIN A   1      19.484  -0.239   9.242  0.00  0.00     0.040 A 
ATOM     13  C27 ZIN A   1      18.717   0.138   5.545  0.00  0.00     0.044 C 
ATOM     14  C29 ZIN A   1      18.797   1.745   7.445  0.00  0.00     0.052 A 
ATOM     15  C26 ZIN A   1      19.347  -1.212   5.194  0.00  0.00     0.040 C 
ATOM     16  C30 ZIN A   1      18.992   2.056   8.779  0.00  0.00     0.117 A 
ATOM     17  F31 ZIN A   1      18.849   3.331   9.204  0.00  0.00    -0.206 F 
ATOM     18  C32 ZIN A   1      19.336   1.061   9.678  0.00  0.00     0.045 A 
ENDBRANCH   5   8
ENDBRANCH   4   5
ENDBRANCH   1   4
BRANCH   1  19
ATOM     19  C8  ZIN A   1      17.733  -5.664   8.315  0.00  0.00     0.266 C 
BRANCH  19  20
ATOM     20  C9  ZIN A   1      17.297  -5.367   9.751  0.00  0.00     0.173 C 
BRANCH  20  21
ATOM     21  O11 ZIN A   1      15.907  -5.039   9.769  0.00  0.00    -0.391 OA
ATOM     22  H41 ZIN A   1      15.726  -4.089   9.766  0.00  0.00     0.210 HD
ENDBRANCH  20  21
BRANCH  20  23
ATOM     23  C12 ZIN A   1      18.106  -4.188  10.296  0.00  0.00     0.159 C 
ATOM     24  O23 ZIN A   1      17.229  -3.250  10.921  0.00  0.00    -0.343 OA
ATOM     25  C22 ZIN A   1      17.784  -2.257  11.663  0.00  0.00     0.075 A 
ATOM     26  C16 ZIN A   1      19.091  -2.325  12.111  0.00  0.00    -0.022 A 
ATOM     27  C21 ZIN A   1      17.005  -1.148  11.976  0.00  0.00     0.040 A 
ATOM     28  C15 ZIN A   1      19.972  -3.506  11.788  0.00  0.00     0.044 C 
ATOM     29  C17 ZIN A   1      19.614  -1.295  12.875  0.00  0.00     0.052 A 
ATOM     30  C14 ZIN A   1      19.107  -4.689  11.346  0.00  0.00     0.040 C 
ATOM     31  C18 ZIN A   1      18.836  -0.195  13.187  0.00  0.00     0.117 A 
ATOM     32  F19 ZIN A   1      19.350   0.808  13.932  0.00  0.00    -0.206 F 
ATOM     33  C20 ZIN A   1      17.529  -0.121  12.736  0.00  0.00     0.045 A 
ENDBRANCH  20  23
ENDBRANCH  19  20
ENDBRANCH   1  19
TORSDOF 8
ENDMDL
MODEL 3
REMARK VINA RESULT:      -8.7      4.541      8.251
REMARK  8 active torsions:
REMARK  status: ('A' for Active; 'I' for Inactive)
REMARK    1  A    between atoms: O1_1  and  C2_2 
REMARK    2  A    between atoms: C2_2  and  C4_3 
REMARK    3  A    between atoms: C2_2  and  C24_21 
REMARK    4  A    between atoms: C4_3  and  N5_4 
REMARK    5  A    between atoms: N5_4  and  C8_7 
REMARK    6  A    between atoms: C8_7  and  C9_8 
REMARK    7  A    between atoms: C9_8  and  O11_9 
REMARK    8  A    between atoms: C9_8  and  C12_10 
ROOT
ATOM      1  N5  ZIN A   1      17.950   2.840  15.781  0.00  0.00    -0.070 N 
ATOM      2  H6  ZIN A   1      17.131   2.972  16.356  0.00  0.00     0.277 HD
ATOM      3  H7  ZIN A   1      17.666   2.599  14.843  0.00  0.00     0.277 HD
ENDROOT
BRANCH   1   4
ATOM      4  C4  ZIN A   1      18.732   4.083  15.751  0.00  0.00     0.266 C 
BRANCH   4   5
ATOM      5  C2  ZIN A   1      17.932   5.172  15.034  0.00  0.00     0.173 C 
BRANCH   5   6
ATOM      6  O1  ZIN A   1      16.542   5.012  15.325  0.00  0.00    -0.391 OA
ATOM      7  H36 ZIN A   1      16.288   5.310  16.209  0.00  0.00     0.210 HD
ENDBRANCH   5   6
BRANCH   5   8
ATOM      8  C24 ZIN A   1      18.153   5.058  13.524  0.00  0.00     0.159 C 
ATOM      9  O35 ZIN A   1      18.752   3.797  13.220  0.00  0.00    -0.343 OA
ATOM     10  C34 ZIN A   1      18.811   3.421  11.916  0.00  0.00     0.075 A 
ATOM     11  C28 ZIN A   1      18.027   4.021  10.947  0.00  0.00    -0.022 A 
ATOM     12  C33 ZIN A   1      19.685   2.398  11.560  0.00  0.00     0.040 A 
ATOM     13  C27 ZIN A   1      17.072   5.137  11.289  0.00  0.00     0.044 C 
ATOM     14  C29 ZIN A   1      18.111   3.598   9.631  0.00  0.00     0.052 A 
ATOM     15  C26 ZIN A   1      16.805   5.142  12.797  0.00  0.00     0.040 C 
ATOM     16  C30 ZIN A   1      18.980   2.580   9.280  0.00  0.00     0.117 A 
ATOM     17  F31 ZIN A   1      19.058   2.171   7.995  0.00  0.00    -0.206 F 
ATOM     18  C32 ZIN A   1      19.769   1.981  10.247  0.00  0.00     0.045 A 
ENDBRANCH   5   8
ENDBRANCH   4   5
ENDBRANCH   1   4
BRANCH   1  19
ATOM     19  C8  ZIN A   1      18.771   1.758  16.339  0.00  0.00     0.266 C 
BRANCH  19  20
ATOM     20  C9  ZIN A   1      17.898   0.523  16.571  0.00  0.00     0.173 C 
BRANCH  20  21
ATOM     21  O11 ZIN A   1      18.413  -0.223  17.675  0.00  0.00    -0.391 OA
ATOM     22  H41 ZIN A   1      19.330  -0.014  17.898  0.00  0.00     0.210 HD
ENDBRANCH  20  21
BRANCH  20  23
ATOM     23  C12 ZIN A   1      17.907  -0.351  15.316  0.00  0.00     0.159 C 
ATOM     24  O23 ZIN A   1      17.378   0.385  14.213  0.00  0.00    -0.343 OA
ATOM     25  C22 ZIN A   1      17.520  -0.143  12.969  0.00  0.00     0.075 A 
ATOM     26  C16 ZIN A   1      18.431  -1.150  12.704  0.00  0.00    -0.022 A 
ATOM     27  C21 ZIN A   1      16.723   0.353  11.943  0.00  0.00     0.040 A 
ATOM     28  C15 ZIN A   1      19.309  -1.721  13.789  0.00  0.00     0.044 C 
ATOM     29  C17 ZIN A   1      18.551  -1.652  11.419  0.00  0.00     0.052 A 
ATOM     30  C14 ZIN A   1      19.347  -0.760  14.980  0.00  0.00     0.040 C 
ATOM     31  C18 ZIN A   1      17.759  -1.155  10.400  0.00  0.00     0.117 A 
ATOM     32  F19 ZIN A   1      17.879  -1.648   9.148  0.00  0.00    -0.206 F 
ATOM     33  C20 ZIN A   1      16.843  -0.151  10.663  0.00  0.00     0.045 A 
ENDBRANCH  20  23
ENDBRANCH  19  20
ENDBRANCH   1  19
TORSDOF 8
ENDMDL
MODEL 4
REMARK VINA RESULT:      -8.6      2.760      4.772
REMARK  8 active torsions:
REMARK  status: ('A' for Active; 'I' for Inactive)
REMARK    1  A    between atoms: O1_1  and  C2_2 
REMARK    2  A    between atoms: C2_2  and  C4_3 
REMARK    3  A    between atoms: C2_2  and  C24_21 
REMARK    4  A    between atoms: C4_3  and  N5_4 
REMARK    5  A    between atoms: N5_4  and  C8_7 
REMARK    6  A    between atoms: C8_7  and  C9_8 
REMARK    7  A    between atoms: C9_8  and  O11_9 
REMARK    8  A    between atoms: C9_8  and  C12_10 
ROOT
ATOM      1  N5  ZIN A   1      20.039  -2.926  11.053  0.00  0.00    -0.070 N 
ATOM      2  H6  ZIN A   1      20.581  -2.751  10.220  0.00  0.00     0.277 HD
ATOM      3  H7  ZIN A   1      20.565  -3.519  11.677  0.00  0.00     0.277 HD
ENDROOT
BRANCH   1   4
ATOM      4  C4  ZIN A   1      19.742  -1.653  11.722  0.00  0.00     0.266 C 
BRANCH   4   5
ATOM      5  C2  ZIN A   1      20.346  -0.500  10.917  0.00  0.00     0.173 C 
BRANCH   5   6
ATOM      6  O1  ZIN A   1      21.772  -0.594  10.948  0.00  0.00    -0.391 OA
ATOM      7  H36 ZIN A   1      22.183  -0.625  10.073  0.00  0.00     0.210 HD
ENDBRANCH   5   6
BRANCH   5   8
ATOM      8  C24 ZIN A   1      19.909   0.833  11.529  0.00  0.00     0.159 C 
ATOM      9  O35 ZIN A   1      19.206   1.603  10.552  0.00  0.00    -0.343 OA
ATOM     10  C34 ZIN A   1      18.544   2.712  10.975  0.00  0.00     0.075 A 
ATOM     11  C28 ZIN A   1      18.240   2.915  12.309  0.00  0.00    -0.022 A 
ATOM     12  C33 ZIN A   1      18.163   3.657  10.028  0.00  0.00     0.040 A 
ATOM     13  C27 ZIN A   1      18.641   1.919  13.368  0.00  0.00     0.044 C 
ATOM     14  C29 ZIN A   1      17.554   4.055  12.694  0.00  0.00     0.052 A 
ATOM     15  C26 ZIN A   1      18.968   0.575  12.712  0.00  0.00     0.040 C 
ATOM     16  C30 ZIN A   1      17.174   4.993  11.750  0.00  0.00     0.117 A 
ATOM     17  F31 ZIN A   1      16.504   6.102  12.130  0.00  0.00    -0.206 F 
ATOM     18  C32 ZIN A   1      17.482   4.792  10.415  0.00  0.00     0.045 A 
ENDBRANCH   5   8
ENDBRANCH   4   5
ENDBRANCH   1   4
BRANCH   1  19
ATOM     19  C8  ZIN A   1      18.782  -3.592  10.687  0.00  0.00     0.266 C 
BRANCH  19  20
ATOM     20  C9  ZIN A   1      19.032  -4.547   9.517  0.00  0.00     0.173 C 
BRANCH  20  21
ATOM     21  O11 ZIN A   1      20.393  -4.981   9.539  0.00  0.00    -0.391 OA
ATOM     22  H41 ZIN A   1      20.675  -5.431   8.731  0.00  0.00     0.210 HD
ENDBRANCH  20  21
BRANCH  20  23
ATOM     23  C12 ZIN A   1      18.749  -3.824   8.199  0.00  0.00     0.159 C 
ATOM     24  O23 ZIN A   1      19.004  -2.427   8.352  0.00  0.00    -0.343 OA
ATOM     25  C22 ZIN A   1      19.031  -1.659   7.231  0.00  0.00     0.075 A 
ATOM     26  C16 ZIN A   1      19.170  -2.214   5.971  0.00  0.00    -0.022 A 
ATOM     27  C21 ZIN A   1      18.919  -0.280   7.369  0.00  0.00     0.040 A 
ATOM     28  C15 ZIN A   1      19.288  -3.705   5.777  0.00  0.00     0.044 C 
ATOM     29  C17 ZIN A   1      19.204  -1.394   4.856  0.00  0.00     0.052 A 
ATOM     30  C14 ZIN A   1      19.672  -4.368   7.102  0.00  0.00     0.040 C 
ATOM     31  C18 ZIN A   1      19.095  -0.021   4.996  0.00  0.00     0.117 A 
ATOM     32  F19 ZIN A   1      19.129   0.775   3.905  0.00  0.00    -0.206 F 
ATOM     33  C20 ZIN A   1      18.951   0.535   6.255  0.00  0.00     0.045 A 
ENDBRANCH  20  23
ENDBRANCH  19  20
ENDBRANCH   1  19
TORSDOF 8
ENDMDL
MODEL 5
REMARK VINA RESULT:      -8.5      5.780      8.564
REMARK  8 active torsions:
REMARK  status: ('A' for Active; 'I' for Inactive)
REMARK    1  A    between atoms: O1_1  and  C2_2 
REMARK    2  A    between atoms: C2_2  and  C4_3 
REMARK    3  A    between atoms: C2_2  and  C24_21 
REMARK    4  A    between atoms: C4_3  and  N5_4 
REMARK    5  A    between atoms: N5_4  and  C8_7 
REMARK    6  A    between atoms: C8_7  and  C9_8 
REMARK    7  A    between atoms: C9_8  and  O11_9 
REMARK    8  A    between atoms: C9_8  and  C12_10 
ROOT
ATOM      1  N5  ZIN A   1      18.873   4.911  17.265  0.00  0.00    -0.070 N 
ATOM      2  H6  ZIN A   1      17.878   4.855  17.105  0.00  0.00     0.277 HD
ATOM      3  H7  ZIN A   1      19.044   5.239  18.204  0.00  0.00     0.277 HD
ENDROOT
BRANCH   1   4
ATOM      4  C4  ZIN A   1      19.472   3.581  17.096  0.00  0.00     0.266 C 
BRANCH   4   5
ATOM      5  C2  ZIN A   1      18.730   2.571  17.974  0.00  0.00     0.173 C 
BRANCH   5   6
ATOM      6  O1  ZIN A   1      19.592   2.132  19.026  0.00  0.00    -0.391 OA
ATOM      7  H36 ZIN A   1      20.527   2.328  18.877  0.00  0.00     0.210 HD
ENDBRANCH   5   6
BRANCH   5   8
ATOM      8  C24 ZIN A   1      18.309   1.369  17.126  0.00  0.00     0.159 C 
ATOM      9  O35 ZIN A   1      18.264   1.745  15.748  0.00  0.00    -0.343 OA
ATOM     10  C34 ZIN A   1      18.135   0.757  14.824  0.00  0.00     0.075 A 
ATOM     11  C28 ZIN A   1      18.395  -0.567  15.132  0.00  0.00    -0.022 A 
ATOM     12  C33 ZIN A   1      17.735   1.101  13.537  0.00  0.00     0.040 A 
ATOM     13  C27 ZIN A   1      18.824  -0.983  16.516  0.00  0.00     0.044 C 
ATOM     14  C29 ZIN A   1      18.262  -1.541  14.156  0.00  0.00     0.052 A 
ATOM     15  C26 ZIN A   1      19.332   0.238  17.286  0.00  0.00     0.040 C 
ATOM     16  C30 ZIN A   1      17.866  -1.196  12.876  0.00  0.00     0.117 A 
ATOM     17  F31 ZIN A   1      17.738  -2.148  11.927  0.00  0.00    -0.206 F 
ATOM     18  C32 ZIN A   1      17.601   0.128  12.568  0.00  0.00     0.045 A 
ENDBRANCH   5   8
ENDBRANCH   4   5
ENDBRANCH   1   4
BRANCH   1  19
ATOM     19  C8  ZIN A   1      19.472   5.844  16.302  0.00  0.00     0.266 C 
BRANCH  19  20
ATOM     20  C9  ZIN A   1      18.376   6.724  15.696  0.00  0.00     0.173 C 
BRANCH  20  21
ATOM     21  O11 ZIN A   1      17.182   6.599  16.470  0.00  0.00    -0.391 OA
ATOM     22  H41 ZIN A   1      16.369   6.722  15.962  0.00  0.00     0.210 HD
ENDBRANCH  20  21
BRANCH  20  23
ATOM     23  C12 ZIN A   1      18.101   6.279  14.258  0.00  0.00     0.159 C 
ATOM     24  O23 ZIN A   1      19.016   5.246  13.891  0.00  0.00    -0.343 OA
ATOM     25  C22 ZIN A   1      18.778   4.567  12.738  0.00  0.00     0.075 A 
ATOM     26  C16 ZIN A   1      17.542   4.596  12.117  0.00  0.00    -0.022 A 
ATOM     27  C21 ZIN A   1      19.814   3.824  12.181  0.00  0.00     0.040 A 
ATOM     28  C15 ZIN A   1      16.396   5.394  12.684  0.00  0.00     0.044 C 
ATOM     29  C17 ZIN A   1      17.340   3.880  10.949  0.00  0.00     0.052 A 
ATOM     30  C14 ZIN A   1      16.675   5.725  14.152  0.00  0.00     0.040 C 
ATOM     31  C18 ZIN A   1      18.372   3.140  10.398  0.00  0.00     0.117 A 
ATOM     32  F19 ZIN A   1      18.170   2.444   9.258  0.00  0.00    -0.206 F 
ATOM     33  C20 ZIN A   1      19.610   3.113  11.015  0.00  0.00     0.045 A 
ENDBRANCH  20  23
ENDBRANCH  19  20
ENDBRANCH   1  19
TORSDOF 8
ENDMDL
MODEL 6
REMARK VINA RESULT:      -8.5      4.737      6.700
REMARK  8 active torsions:
REMARK  status: ('A' for Active; 'I' for Inactive)
REMARK    1  A    between atoms: O1_1  and  C2_2 
REMARK    2  A    between atoms: C2_2  and  C4_3 
REMARK    3  A    between atoms: C2_2  and  C24_21 
REMARK    4  A    between atoms: C4_3  and  N5_4 
REMARK    5  A    between atoms: N5_4  and  C8_7 
REMARK    6  A    between atoms: C8_7  and  C9_8 
REMARK    7  A    between atoms: C9_8  and  O11_9 
REMARK    8  A    between atoms: C9_8  and  C12_10 
ROOT
ATOM      1  N5  ZIN A   1      19.233   0.190  10.181  0.00  0.00    -0.070 N 
ATOM      2  H6  ZIN A   1      19.939   0.843   9.876  0.00  0.00     0.277 HD
ATOM      3  H7  ZIN A   1      19.070  -0.493   9.456  0.00  0.00     0.277 HD
ENDROOT
BRANCH   1   4
ATOM      4  C4  ZIN A   1      19.689  -0.490  11.400  0.00  0.00     0.266 C 
BRANCH   4   5
ATOM      5  C2  ZIN A   1      20.312   0.532  12.353  0.00  0.00     0.173 C 
BRANCH   5   6
ATOM      6  O1  ZIN A   1      21.732   0.529  12.190  0.00  0.00    -0.391 OA
ATOM      7  H36 ZIN A   1      22.053  -0.119  11.548  0.00  0.00     0.210 HD
ENDBRANCH   5   6
BRANCH   5   8
ATOM      8  C24 ZIN A   1      19.963   0.163  13.796  0.00  0.00     0.159 C 
ATOM      9  O35 ZIN A   1      19.653   1.347  14.533  0.00  0.00    -0.343 OA
ATOM     10  C34 ZIN A   1      19.097   1.201  15.764  0.00  0.00     0.075 A 
ATOM     11  C28 ZIN A   1      18.516   0.011  16.165  0.00  0.00    -0.022 A 
ATOM     12  C33 ZIN A   1      19.116   2.287  16.634  0.00  0.00     0.040 A 
ATOM     13  C27 ZIN A   1      18.480  -1.192  15.257  0.00  0.00     0.044 C 
ATOM     14  C29 ZIN A   1      17.951  -0.090  17.426  0.00  0.00     0.052 A 
ATOM     15  C26 ZIN A   1      18.734  -0.754  13.813  0.00  0.00     0.040 C 
ATOM     16  C30 ZIN A   1      17.970   0.992  18.288  0.00  0.00     0.117 A 
ATOM     17  F31 ZIN A   1      17.417   0.889  19.516  0.00  0.00    -0.206 F 
ATOM     18  C32 ZIN A   1      18.555   2.182  17.889  0.00  0.00     0.045 A 
ENDBRANCH   5   8
ENDBRANCH   4   5
ENDBRANCH   1   4
BRANCH   1  19
ATOM     19  C8  ZIN A   1      17.986   0.914  10.461  0.00  0.00     0.266 C 
BRANCH  19  20
ATOM     20  C9  ZIN A   1      18.168   2.395  10.120  0.00  0.00     0.173 C 
BRANCH  20  21
ATOM     21  O11 ZIN A   1      19.544   2.652   9.834  0.00  0.00    -0.391 OA
ATOM     22  H41 ZIN A   1      19.685   3.264   9.098  0.00  0.00     0.210 HD
ENDBRANCH  20  21
BRANCH  20  23
ATOM     23  C12 ZIN A   1      17.727   3.250  11.310  0.00  0.00     0.159 C 
ATOM     24  O23 ZIN A   1      18.875   3.713  12.022  0.00  0.00    -0.343 OA
ATOM     25  C22 ZIN A   1      18.693   4.672  12.967  0.00  0.00     0.075 A 
ATOM     26  C16 ZIN A   1      17.543   5.440  13.014  0.00  0.00    -0.022 A 
ATOM     27  C21 ZIN A   1      19.699   4.879  13.904  0.00  0.00     0.040 A 
ATOM     28  C15 ZIN A   1      16.425   5.242  12.022  0.00  0.00     0.044 C 
ATOM     29  C17 ZIN A   1      17.403   6.415  13.988  0.00  0.00     0.052 A 
ATOM     30  C14 ZIN A   1      16.944   4.470  10.807  0.00  0.00     0.040 C 
ATOM     31  C18 ZIN A   1      18.407   6.620  14.917  0.00  0.00     0.117 A 
ATOM     32  F19 ZIN A   1      18.266   7.572  15.865  0.00  0.00    -0.206 F 
ATOM     33  C20 ZIN A   1      19.557   5.850  14.875  0.00  0.00     0.045 A 
ENDBRANCH  20  23
ENDBRANCH  19  20
ENDBRANCH   1  19
TORSDOF 8
ENDMDL
MODEL 7
REMARK VINA RESULT:      -8.5      4.509      7.927
REMARK  8 active torsions:
REMARK  status: ('A' for Active; 'I' for Inactive)
REMARK    1  A    between atoms: O1_1  and  C2_2 
REMARK    2  A    between atoms: C2_2  and  C4_3 
REMARK    3  A    between atoms: C2_2  and  C24_21 
REMARK    4  A    between atoms: C4_3  and  N5_4 
REMARK    5  A    between atoms: N5_4  and  C8_7 
REMARK    6  A    between atoms: C8_7  and  C9_8 
REMARK    7  A    between atoms: C9_8  and  O11_9 
REMARK    8  A    between atoms: C9_8  and  C12_10 
ROOT
ATOM      1  N5  ZIN A   1      19.512  -0.192  10.102  0.00  0.00    -0.070 N 
ATOM      2  H6  ZIN A   1      19.438  -0.942   9.430  0.00  0.00     0.277 HD
ATOM      3  H7  ZIN A   1      20.291   0.402   9.858  0.00  0.00     0.277 HD
ENDROOT
BRANCH   1   4
ATOM      4  C4  ZIN A   1      18.275   0.598  10.093  0.00  0.00     0.266 C 
BRANCH   4   5
ATOM      5  C2  ZIN A   1      18.591   2.040   9.690  0.00  0.00     0.173 C 
BRANCH   5   6
ATOM      6  O1  ZIN A   1      19.975   2.307   9.926  0.00  0.00    -0.391 OA
ATOM      7  H36 ZIN A   1      20.136   3.015  10.564  0.00  0.00     0.210 HD
ENDBRANCH   5   6
BRANCH   5   8
ATOM      8  C24 ZIN A   1      17.738   3.001  10.519  0.00  0.00     0.159 C 
ATOM      9  O35 ZIN A   1      18.208   3.019  11.869  0.00  0.00    -0.343 OA
ATOM     10  C34 ZIN A   1      17.724   3.983  12.696  0.00  0.00     0.075 A 
ATOM     11  C28 ZIN A   1      17.096   5.115  12.208  0.00  0.00    -0.022 A 
ATOM     12  C33 ZIN A   1      17.876   3.816  14.068  0.00  0.00     0.040 A 
ATOM     13  C27 ZIN A   1      16.904   5.332  10.728  0.00  0.00     0.044 C 
ATOM     14  C29 ZIN A   1      16.628   6.078  13.087  0.00  0.00     0.052 A 
ATOM     15  C26 ZIN A   1      17.853   4.420   9.947  0.00  0.00     0.040 C 
ATOM     16  C30 ZIN A   1      16.783   5.910  14.452  0.00  0.00     0.117 A 
ATOM     17  F31 ZIN A   1      16.326   6.851  15.306  0.00  0.00    -0.206 F 
ATOM     18  C32 ZIN A   1      17.408   4.775  14.942  0.00  0.00     0.045 A 
ENDBRANCH   5   8
ENDBRANCH   4   5
ENDBRANCH   1   4
BRANCH   1  19
ATOM     19  C8  ZIN A   1      19.725  -0.754  11.441  0.00  0.00     0.266 C 
BRANCH  19  20
ATOM     20  C9  ZIN A   1      20.165   0.357  12.397  0.00  0.00     0.173 C 
BRANCH  20  21
ATOM     21  O11 ZIN A   1      21.559   0.615  12.218  0.00  0.00    -0.391 OA
ATOM     22  H41 ZIN A   1      21.758   1.196  11.471  0.00  0.00     0.210 HD
ENDBRANCH  20  21
BRANCH  20  23
ATOM     23  C12 ZIN A   1      19.910  -0.080  13.841  0.00  0.00     0.159 C 
ATOM     24  O23 ZIN A   1      19.650   1.066  14.652  0.00  0.00    -0.343 OA
ATOM     25  C22 ZIN A   1      19.174   0.862  15.908  0.00  0.00     0.075 A 
ATOM     26  C16 ZIN A   1      18.618  -0.346  16.289  0.00  0.00    -0.022 A 
ATOM     27  C21 ZIN A   1      19.252   1.905  16.825  0.00  0.00     0.040 A 
ATOM     28  C15 ZIN A   1      18.522  -1.505  15.329  0.00  0.00     0.044 C 
ATOM     29  C17 ZIN A   1      18.135  -0.508  17.577  0.00  0.00     0.052 A 
ATOM     30  C14 ZIN A   1      18.683  -0.999  13.893  0.00  0.00     0.040 C 
ATOM     31  C18 ZIN A   1      18.211   0.532  18.486  0.00  0.00     0.117 A 
ATOM     32  F19 ZIN A   1      17.739   0.370  19.741  0.00  0.00    -0.206 F 
ATOM     33  C20 ZIN A   1      18.772   1.740  18.108  0.00  0.00     0.045 A 
ENDBRANCH  20  23
ENDBRANCH  19  20
ENDBRANCH   1  19
TORSDOF 8
ENDMDL
MODEL 8
REMARK VINA RESULT:      -8.5      4.081      7.709
REMARK  8 active torsions:
REMARK  status: ('A' for Active; 'I' for Inactive)
REMARK    1  A    between atoms: O1_1  and  C2_2 
REMARK    2  A    between atoms: C2_2  and  C4_3 
REMARK    3  A    between atoms: C2_2  and  C24_21 
REMARK    4  A    between atoms: C4_3  and  N5_4 
REMARK    5  A    between atoms: N5_4  and  C8_7 
REMARK    6  A    between atoms: C8_7  and  C9_8 
REMARK    7  A    between atoms: C9_8  and  O11_9 
REMARK    8  A    between atoms: C9_8  and  C12_10 
ROOT
ATOM      1  N5  ZIN A   1      17.840   3.694  13.492  0.00  0.00    -0.070 N 
ATOM      2  H6  ZIN A   1      16.843   3.629  13.350  0.00  0.00     0.277 HD
ATOM      3  H7  ZIN A   1      18.264   2.796  13.315  0.00  0.00     0.277 HD
ENDROOT
BRANCH   1   4
ATOM      4  C4  ZIN A   1      18.403   4.691  12.572  0.00  0.00     0.266 C 
BRANCH   4   5
ATOM      5  C2  ZIN A   1      17.810   4.489  11.176  0.00  0.00     0.173 C 
BRANCH   5   6
ATOM      6  O1  ZIN A   1      16.386   4.421  11.268  0.00  0.00    -0.391 OA
ATOM      7  H36 ZIN A   1      16.064   3.943  12.045  0.00  0.00     0.210 HD
ENDBRANCH   5   6
BRANCH   5   8
ATOM      8  C24 ZIN A   1      18.345   3.185  10.578  0.00  0.00     0.159 C 
ATOM      9  O35 ZIN A   1      17.413   2.129  10.817  0.00  0.00    -0.343 OA
ATOM     10  C34 ZIN A   1      17.605   0.953  10.163  0.00  0.00     0.075 A 
ATOM     11  C28 ZIN A   1      18.423   0.863   9.051  0.00  0.00    -0.022 A 
ATOM     12  C33 ZIN A   1      16.950  -0.181  10.632  0.00  0.00     0.040 A 
ATOM     13  C27 ZIN A   1      19.156   2.066   8.515  0.00  0.00     0.044 C 
ATOM     14  C29 ZIN A   1      18.581  -0.354   8.408  0.00  0.00     0.052 A 
ATOM     15  C26 ZIN A   1      18.518   3.345   9.062  0.00  0.00     0.040 C 
ATOM     16  C30 ZIN A   1      17.927  -1.480   8.876  0.00  0.00     0.117 A 
ATOM     17  F31 ZIN A   1      18.083  -2.664   8.245  0.00  0.00    -0.206 F 
ATOM     18  C32 ZIN A   1      17.111  -1.392   9.991  0.00  0.00     0.045 A 
ENDBRANCH   5   8
ENDBRANCH   4   5
ENDBRANCH   1   4
BRANCH   1  19
ATOM     19  C8  ZIN A   1      18.111   4.099  14.878  0.00  0.00     0.266 C 
BRANCH  19  20
ATOM     20  C9  ZIN A   1      18.597   2.888  15.677  0.00  0.00     0.173 C 
BRANCH  20  21
ATOM     21  O11 ZIN A   1      19.975   3.061  16.013  0.00  0.00    -0.391 OA
ATOM     22  H41 ZIN A   1      20.565   2.416  15.599  0.00  0.00     0.210 HD
ENDBRANCH  20  21
BRANCH  20  23
ATOM     23  C12 ZIN A   1      18.433   1.621  14.835  0.00  0.00     0.159 C 
ATOM     24  O23 ZIN A   1      19.518   1.512  13.913  0.00  0.00    -0.343 OA
ATOM     25  C22 ZIN A   1      19.667   0.338  13.244  0.00  0.00     0.075 A 
ATOM     26  C16 ZIN A   1      19.051  -0.826  13.667  0.00  0.00    -0.022 A 
ATOM     27  C21 ZIN A   1      20.468   0.321  12.107  0.00  0.00     0.040 A 
ATOM     28  C15 ZIN A   1      18.169  -0.849  14.890  0.00  0.00     0.044 C 
ATOM     29  C17 ZIN A   1      19.240  -2.002  12.962  0.00  0.00     0.052 A 
ATOM     30  C14 ZIN A   1      18.446   0.388  15.748  0.00  0.00     0.040 C 
ATOM     31  C18 ZIN A   1      20.039  -2.017  11.832  0.00  0.00     0.117 A 
ATOM     32  F19 ZIN A   1      20.220  -3.167  11.147  0.00  0.00    -0.206 F 
ATOM     33  C20 ZIN A   1      20.653  -0.853  11.405  0.00  0.00     0.045 A 
ENDBRANCH  20  23
ENDBRANCH  19  20
ENDBRANCH   1  19
TORSDOF 8
ENDMDL
MODEL 9
REMARK VINA RESULT:      -8.4      3.028      5.559
REMARK  8 active torsions:
REMARK  status: ('A' for Active; 'I' for Inactive)
REMARK    1  A    between atoms: O1_1  and  C2_2 
REMARK    2  A    between atoms: C2_2  and  C4_3 
REMARK    3  A    between atoms: C2_2  and  C24_21 
REMARK    4  A    between atoms: C4_3  and  N5_4 
REMARK    5  A    between atoms: N5_4  and  C8_7 
REMARK    6  A    between atoms: C8_7  and  C9_8 
REMARK    7  A    between atoms: C9_8  and  O11_9 
REMARK    8  A    between atoms: C9_8  and  C12_10 
ROOT
ATOM      1  N5  ZIN A   1      19.254  -0.589  12.525  0.00  0.00    -0.070 N 
ATOM      2  H6  ZIN A   1      20.170  -0.270  12.805  0.00  0.00     0.277 HD
ATOM      3  H7  ZIN A   1      19.171  -0.530  11.521  0.00  0.00     0.277 HD
ENDROOT
BRANCH   1   4
ATOM      4  C4  ZIN A   1      19.068  -1.982  12.951  0.00  0.00     0.266 C 
BRANCH   4   5
ATOM      5  C2  ZIN A   1      19.634  -2.922  11.884  0.00  0.00     0.173 C 
BRANCH   5   6
ATOM      6  O1  ZIN A   1      20.611  -2.226  11.107  0.00  0.00    -0.391 OA
ATOM      7  H36 ZIN A   1      20.737  -2.588  10.219  0.00  0.00     0.210 HD
ENDBRANCH   5   6
BRANCH   5   8
ATOM      8  C24 ZIN A   1      18.501  -3.398  10.971  0.00  0.00     0.159 C 
ATOM      9  O35 ZIN A   1      19.034  -3.769   9.698  0.00  0.00    -0.343 OA
ATOM     10  C34 ZIN A   1      18.217  -4.431   8.837  0.00  0.00     0.075 A 
ATOM     11  C28 ZIN A   1      17.056  -5.050   9.265  0.00  0.00    -0.022 A 
ATOM     12  C33 ZIN A   1      18.574  -4.486   7.494  0.00  0.00     0.040 A 
ATOM     13  C27 ZIN A   1      16.629  -5.009  10.710  0.00  0.00     0.044 C 
ATOM     14  C29 ZIN A   1      16.258  -5.725   8.354  0.00  0.00     0.052 A 
ATOM     15  C26 ZIN A   1      17.823  -4.627  11.589  0.00  0.00     0.040 C 
ATOM     16  C30 ZIN A   1      16.617  -5.778   7.019  0.00  0.00     0.117 A 
ATOM     17  F31 ZIN A   1      15.837  -6.438   6.135  0.00  0.00    -0.206 F 
ATOM     18  C32 ZIN A   1      17.777  -5.156   6.590  0.00  0.00     0.045 A 
ENDBRANCH   5   8
ENDBRANCH   4   5
ENDBRANCH   1   4
BRANCH   1  19
ATOM     19  C8  ZIN A   1      18.229   0.255  13.152  0.00  0.00     0.266 C 
BRANCH  19  20
ATOM     20  C9  ZIN A   1      17.377   0.916  12.066  0.00  0.00     0.173 C 
BRANCH  20  21
ATOM     21  O11 ZIN A   1      16.191   0.149  11.859  0.00  0.00    -0.391 OA
ATOM     22  H41 ZIN A   1      15.516   0.275  12.541  0.00  0.00     0.210 HD
ENDBRANCH  20  21
BRANCH  20  23
ATOM     23  C12 ZIN A   1      18.175   0.983  10.762  0.00  0.00     0.159 C 
ATOM     24  O23 ZIN A   1      17.602   0.095   9.801  0.00  0.00    -0.343 OA
ATOM     25  C22 ZIN A   1      18.030   0.188   8.515  0.00  0.00     0.075 A 
ATOM     26  C16 ZIN A   1      18.709   1.301   8.051  0.00  0.00    -0.022 A 
ATOM     27  C21 ZIN A   1      17.768  -0.870   7.651  0.00  0.00     0.040 A 
ATOM     28  C15 ZIN A   1      19.019   2.466   8.957  0.00  0.00     0.044 C 
ATOM     29  C17 ZIN A   1      19.117   1.359   6.729  0.00  0.00     0.052 A 
ATOM     30  C14 ZIN A   1      18.124   2.408  10.197  0.00  0.00     0.040 C 
ATOM     31  C18 ZIN A   1      18.853   0.306   5.871  0.00  0.00     0.117 A 
ATOM     32  F19 ZIN A   1      19.254   0.368   4.583  0.00  0.00    -0.206 F 
ATOM     33  C20 ZIN A   1      18.178  -0.810   6.334  0.00  0.00     0.045 A 
ENDBRANCH  20  23
ENDBRANCH  19  20
ENDBRANCH   1  19
TORSDOF 8
ENDMDL
