MODEL 1
REMARK VINA RESULT:      -9.0      0.000      0.000
REMARK  8 active torsions:
REMARK  status: ('A' for Active; 'I' for Inactive)
REMARK    1  A    between atoms: O1_1  and  C2_2 
REMARK    2  A    between atoms: C2_2  and  C4_3 
REMARK    3  A    between atoms: C2_2  and  C22_19 
REMARK    4  A    between atoms: C4_3  and  N5_4 
REMARK    5  A    between atoms: N5_4  and  C6_5 
REMARK    6  A    between atoms: C6_5  and  C7_6 
REMARK    7  A    between atoms: C7_6  and  O9_7 
REMARK    8  A    between atoms: C7_6  and  C10_8 
ROOT
ATOM      1  N5  ZIN A   1      17.840   4.117  16.718  0.00  0.00     0.088 N 
ATOM      2  H37 ZIN A   1      17.030   3.622  17.059  0.00  0.00     0.316 HD
ENDROOT
BRANCH   1   3
ATOM      3  C4  ZIN A   1      17.753   5.549  17.029  0.00  0.00     0.303 C 
BRANCH   3   4
ATOM      4  C2  ZIN A   1      17.886   6.361  15.739  0.00  0.00     0.175 C 
BRANCH   4   5
ATOM      5  O1  ZIN A   1      19.228   6.837  15.613  0.00  0.00    -0.391 OA
ATOM      6  H34 ZIN A   1      19.796   6.615  16.363  0.00  0.00     0.210 HD
ENDBRANCH   4   5
BRANCH   4   7
ATOM      7  C22 ZIN A   1      17.546   5.474  14.540  0.00  0.00     0.159 C 
ATOM      8  O33 ZIN A   1      18.750   5.018  13.921  0.00  0.00    -0.343 OA
ATOM      9  C32 ZIN A   1      18.650   4.410  12.709  0.00  0.00     0.075 A 
ATOM     10  C26 ZIN A   1      17.518   4.532  11.924  0.00  0.00    -0.022 A 
ATOM     11  C31 ZIN A   1      19.725   3.653  12.257  0.00  0.00     0.040 A 
ATOM     12  C25 ZIN A   1      16.328   5.337  12.379  0.00  0.00     0.044 C 
ATOM     13  C27 ZIN A   1      17.464   3.904  10.690  0.00  0.00     0.052 A 
ATOM     14  C24 ZIN A   1      16.746   6.281  13.510  0.00  0.00     0.040 C 
ATOM     15  C28 ZIN A   1      18.537   3.154  10.242  0.00  0.00     0.117 A 
ATOM     16  F29 ZIN A   1      18.478   2.544   9.038  0.00  0.00    -0.206 F 
ATOM     17  C30 ZIN A   1      19.668   3.027  11.028  0.00  0.00     0.045 A 
ENDBRANCH   4   7
ENDBRANCH   3   4
ENDBRANCH   1   3
BRANCH   1  18
ATOM     18  C6  ZIN A   1      19.077   3.536  17.256  0.00  0.00     0.303 C 
BRANCH  18  19
ATOM     19  C7  ZIN A   1      18.799   2.117  17.756  0.00  0.00     0.175 C 
BRANCH  19  20
ATOM     20  O9  ZIN A   1      19.695   1.804  18.824  0.00  0.00    -0.391 OA
ATOM     21  H40 ZIN A   1      19.661   2.430  19.561  0.00  0.00     0.210 HD
ENDBRANCH  19  20
BRANCH  19  22
ATOM     22  C10 ZIN A   1      19.004   1.123  16.610  0.00  0.00     0.159 C 
ATOM     23  O21 ZIN A   1      18.128   1.448  15.529  0.00  0.00    -0.343 OA
ATOM     24  C20 ZIN A   1      18.002   0.545  14.521  0.00  0.00     0.075 A 
ATOM     25  C14 ZIN A   1      18.394  -0.774  14.671  0.00  0.00    -0.022 A 
ATOM     26  C19 ZIN A   1      17.457   0.971  13.315  0.00  0.00     0.040 A 
ATOM     27  C13 ZIN A   1      18.996  -1.274  15.959  0.00  0.00     0.044 C 
ATOM     28  C15 ZIN A   1      18.237  -1.663  13.620  0.00  0.00     0.052 A 
ATOM     29  C12 ZIN A   1      18.674  -0.296  17.092  0.00  0.00     0.040 C 
ATOM     30  C16 ZIN A   1      17.693  -1.237  12.421  0.00  0.00     0.117 A 
ATOM     31  F17 ZIN A   1      17.542  -2.108  11.400  0.00  0.00    -0.206 F 
ATOM     32  C18 ZIN A   1      17.303   0.083  12.270  0.00  0.00     0.045 A 
ENDBRANCH  19  22
ENDBRANCH  18  19
ENDBRANCH   1  18
TORSDOF 8
ENDMDL
MODEL 2
REMARK VINA RESULT:      -8.9      3.298      7.076
REMARK  8 active torsions:
REMARK  status: ('A' for Active; 'I' for Inactive)
REMARK    1  A    between atoms: O1_1  and  C2_2 
REMARK    2  A    between atoms: C2_2  and  C4_3 
REMARK    3  A    between atoms: C2_2  and  C22_19 
REMARK    4  A    between atoms: C4_3  and  N5_4 
REMARK    5  A    between atoms: N5_4  and  C6_5 
REMARK    6  A    between atoms: C6_5  and  C7_6 
REMARK    7  A    between atoms: C7_6  and  O9_7 
REMARK    8  A    between atoms: C7_6  and  C10_8 
ROOT
ATOM      1  N5  ZIN A   1      19.730  -2.005  11.843  0.00  0.00     0.088 N 
ATOM      2  H37 ZIN A   1      20.681  -1.725  12.028  0.00  0.00     0.316 HD
ENDROOT
BRANCH   1   3
ATOM      3  C4  ZIN A   1      18.867  -1.743  13.001  0.00  0.00     0.303 C 
BRANCH   3   4
ATOM      4  C2  ZIN A   1      19.693  -1.096  14.116  0.00  0.00     0.175 C 
BRANCH   4   5
ATOM      5  O1  ZIN A   1      20.590  -0.138  13.551  0.00  0.00    -0.391 OA
ATOM      6  H34 ZIN A   1      20.964  -0.405  12.700  0.00  0.00     0.210 HD
ENDBRANCH   4   5
BRANCH   4   7
ATOM      7  C22 ZIN A   1      18.757  -0.397  15.104  0.00  0.00     0.159 C 
ATOM      8  O33 ZIN A   1      19.375   0.796  15.591  0.00  0.00    -0.343 OA
ATOM      9  C32 ZIN A   1      18.796   1.426  16.647  0.00  0.00     0.075 A 
ATOM     10  C26 ZIN A   1      17.875   0.789  17.460  0.00  0.00    -0.022 A 
ATOM     11  C31 ZIN A   1      19.152   2.744  16.908  0.00  0.00     0.040 A 
ATOM     12  C25 ZIN A   1      17.457  -0.637  17.207  0.00  0.00     0.044 C 
ATOM     13  C27 ZIN A   1      17.318   1.467  18.532  0.00  0.00     0.052 A 
ATOM     14  C24 ZIN A   1      18.480  -1.321  16.296  0.00  0.00     0.040 C 
ATOM     15  C28 ZIN A   1      17.676   2.777  18.791  0.00  0.00     0.117 A 
ATOM     16  F29 ZIN A   1      17.129   3.433  19.838  0.00  0.00    -0.206 F 
ATOM     17  C30 ZIN A   1      18.593   3.417  17.976  0.00  0.00     0.045 A 
ENDBRANCH   4   7
ENDBRANCH   3   4
ENDBRANCH   1   3
BRANCH   1  18
ATOM     18  C6  ZIN A   1      19.212  -1.341  10.639  0.00  0.00     0.303 C 
BRANCH  18  19
ATOM     19  C7  ZIN A   1      20.292  -0.428  10.055  0.00  0.00     0.175 C 
BRANCH  19  20
ATOM     20  O9  ZIN A   1      21.516  -0.621  10.767  0.00  0.00    -0.391 OA
ATOM     21  H40 ZIN A   1      21.846  -1.530  10.740  0.00  0.00     0.210 HD
ENDBRANCH  19  20
BRANCH  19  22
ATOM     22  C10 ZIN A   1      19.851   1.032  10.185  0.00  0.00     0.159 C 
ATOM     23  O21 ZIN A   1      19.220   1.232  11.452  0.00  0.00    -0.343 OA
ATOM     24  C20 ZIN A   1      18.559   2.403  11.654  0.00  0.00     0.075 A 
ATOM     25  C14 ZIN A   1      18.185   3.219  10.601  0.00  0.00    -0.022 A 
ATOM     26  C19 ZIN A   1      18.252   2.773  12.958  0.00  0.00     0.040 A 
ATOM     27  C13 ZIN A   1      18.504   2.857   9.173  0.00  0.00     0.044 C 
ATOM     28  C15 ZIN A   1      17.502   4.398  10.852  0.00  0.00     0.052 A 
ATOM     29  C12 ZIN A   1      18.839   1.366   9.082  0.00  0.00     0.040 C 
ATOM     30  C16 ZIN A   1      17.196   4.764  12.151  0.00  0.00     0.117 A 
ATOM     31  F17 ZIN A   1      16.531   5.915  12.390  0.00  0.00    -0.206 F 
ATOM     32  C18 ZIN A   1      17.574   3.949  13.205  0.00  0.00     0.045 A 
ENDBRANCH  19  22
ENDBRANCH  18  19
ENDBRANCH   1  18
TORSDOF 8
ENDMDL
MODEL 3
REMARK VINA RESULT:      -8.8      5.436      9.081
REMARK  8 active torsions:
REMARK  status: ('A' for Active; 'I' for Inactive)
REMARK    1  A    between atoms: O1_1  and  C2_2 
REMARK    2  A    between atoms: C2_2  and  C4_3 
REMARK    3  A    between atoms: C2_2  and  C22_19 
REMARK    4  A    between atoms: C4_3  and  N5_4 
REMARK    5  A    between atoms: N5_4  and  C6_5 
REMARK    6  A    between atoms: C6_5  and  C7_6 
REMARK    7  A    between atoms: C7_6  and  O9_7 
REMARK    8  A    between atoms: C7_6  and  C10_8 
ROOT
ATOM      1  N5  ZIN A   1      19.451  -3.270   7.082  0.00  0.00     0.088 N 
ATOM      2  H37 ZIN A   1      19.325  -2.397   7.573  0.00  0.00     0.316 HD
ENDROOT
BRANCH   1   3
ATOM      3  C4  ZIN A   1      18.574  -4.313   7.628  0.00  0.00     0.303 C 
BRANCH   3   4
ATOM      4  C2  ZIN A   1      19.102  -4.762   8.993  0.00  0.00     0.175 C 
BRANCH   4   5
ATOM      5  O1  ZIN A   1      20.517  -4.950   8.917  0.00  0.00    -0.391 OA
ATOM      6  H34 ZIN A   1      20.783  -5.859   8.722  0.00  0.00     0.210 HD
ENDBRANCH   4   5
BRANCH   4   7
ATOM      7  C22 ZIN A   1      18.786  -3.692  10.039  0.00  0.00     0.159 C 
ATOM      8  O33 ZIN A   1      19.832  -2.720  10.066  0.00  0.00    -0.343 OA
ATOM      9  C32 ZIN A   1      19.841  -1.824  11.088  0.00  0.00     0.075 A 
ATOM     10  C26 ZIN A   1      19.114  -2.033  12.247  0.00  0.00    -0.022 A 
ATOM     11  C31 ZIN A   1      20.609  -0.673  10.954  0.00  0.00     0.040 A 
ATOM     12  C25 ZIN A   1      18.263  -3.264  12.430  0.00  0.00     0.044 C 
ATOM     13  C27 ZIN A   1      19.161  -1.098  13.267  0.00  0.00     0.052 A 
ATOM     14  C24 ZIN A   1      18.689  -4.339  11.426  0.00  0.00     0.040 C 
ATOM     15  C28 ZIN A   1      19.928   0.045  13.132  0.00  0.00     0.117 A 
ATOM     16  F29 ZIN A   1      19.970   0.953  14.131  0.00  0.00    -0.206 F 
ATOM     17  C30 ZIN A   1      20.652   0.258  11.972  0.00  0.00     0.045 A 
ENDBRANCH   4   7
ENDBRANCH   3   4
ENDBRANCH   1   3
BRANCH   1  18
ATOM     18  C6  ZIN A   1      19.232  -3.099   5.640  0.00  0.00     0.303 C 
BRANCH  18  19
ATOM     19  C7  ZIN A   1      18.589  -1.735   5.379  0.00  0.00     0.175 C 
BRANCH  19  20
ATOM     20  O9  ZIN A   1      19.130  -1.175   4.181  0.00  0.00    -0.391 OA
ATOM     21  H40 ZIN A   1      19.409  -1.834   3.530  0.00  0.00     0.210 HD
ENDBRANCH  19  20
BRANCH  19  22
ATOM     22  C10 ZIN A   1      18.882  -0.801   6.556  0.00  0.00     0.159 C 
ATOM     23  O21 ZIN A   1      17.857  -0.936   7.543  0.00  0.00    -0.343 OA
ATOM     24  C20 ZIN A   1      17.822  -0.023   8.550  0.00  0.00     0.075 A 
ATOM     25  C14 ZIN A   1      18.487   1.187   8.460  0.00  0.00    -0.022 A 
ATOM     26  C19 ZIN A   1      17.087  -0.324   9.691  0.00  0.00     0.040 A 
ATOM     27  C13 ZIN A   1      19.300   1.549   7.243  0.00  0.00     0.044 C 
ATOM     28  C15 ZIN A   1      18.414   2.093   9.505  0.00  0.00     0.052 A 
ATOM     29  C12 ZIN A   1      18.896   0.654   6.069  0.00  0.00     0.040 C 
ATOM     30  C16 ZIN A   1      17.681   1.792  10.640  0.00  0.00     0.117 A 
ATOM     31  F17 ZIN A   1      17.613   2.679  11.656  0.00  0.00    -0.206 F 
ATOM     32  C18 ZIN A   1      17.017   0.580  10.731  0.00  0.00     0.045 A 
ENDBRANCH  19  22
ENDBRANCH  18  19
ENDBRANCH   1  18
TORSDOF 8
ENDMDL
MODEL 4
REMARK VINA RESULT:      -8.8      1.266      5.255
REMARK  8 active torsions:
REMARK  status: ('A' for Active; 'I' for Inactive)
REMARK    1  A    between atoms: O1_1  and  C2_2 
REMARK    2  A    between atoms: C2_2  and  C4_3 
REMARK    3  A    between atoms: C2_2  and  C22_19 
REMARK    4  A    between atoms: C4_3  and  N5_4 
REMARK    5  A    between atoms: N5_4  and  C6_5 
REMARK    6  A    between atoms: C6_5  and  C7_6 
REMARK    7  A    between atoms: C7_6  and  O9_7 
REMARK    8  A    between atoms: C7_6  and  C10_8 
ROOT
ATOM      1  N5  ZIN A   1      18.055   3.007  16.400  0.00  0.00     0.088 N 
ATOM      2  H37 ZIN A   1      18.032   2.715  15.435  0.00  0.00     0.316 HD
ENDROOT
BRANCH   1   3
ATOM      3  C4  ZIN A   1      18.893   2.108  17.204  0.00  0.00     0.303 C 
BRANCH   3   4
ATOM      4  C2  ZIN A   1      18.442   0.661  16.987  0.00  0.00     0.175 C 
BRANCH   4   5
ATOM      5  O1  ZIN A   1      17.030   0.567  17.186  0.00  0.00    -0.391 OA
ATOM      6  H34 ZIN A   1      16.632  -0.230  16.809  0.00  0.00     0.210 HD
ENDBRANCH   4   5
BRANCH   4   7
ATOM      7  C22 ZIN A   1      18.786   0.228  15.560  0.00  0.00     0.159 C 
ATOM      8  O33 ZIN A   1      17.684   0.506  14.694  0.00  0.00    -0.343 OA
ATOM      9  C32 ZIN A   1      17.714  -0.018  13.440  0.00  0.00     0.075 A 
ATOM     10  C26 ZIN A   1      18.561  -1.059  13.105  0.00  0.00    -0.022 A 
ATOM     11  C31 ZIN A   1      16.861   0.514  12.480  0.00  0.00     0.040 A 
ATOM     12  C25 ZIN A   1      19.506  -1.659  14.115  0.00  0.00     0.044 C 
ATOM     13  C27 ZIN A   1      18.550  -1.569  11.818  0.00  0.00     0.052 A 
ATOM     14  C24 ZIN A   1      19.059  -1.280  15.529  0.00  0.00     0.040 C 
ATOM     15  C28 ZIN A   1      17.698  -1.040  10.865  0.00  0.00     0.117 A 
ATOM     16  F29 ZIN A   1      17.693  -1.542   9.611  0.00  0.00    -0.206 F 
ATOM     17  C30 ZIN A   1      16.853   0.005  11.197  0.00  0.00     0.045 A 
ENDBRANCH   4   7
ENDBRANCH   3   4
ENDBRANCH   1   3
BRANCH   1  18
ATOM     18  C6  ZIN A   1      18.512   4.398  16.518  0.00  0.00     0.303 C 
BRANCH  18  19
ATOM     19  C7  ZIN A   1      17.579   5.311  15.719  0.00  0.00     0.175 C 
BRANCH  19  20
ATOM     20  O9  ZIN A   1      16.337   5.446  16.412  0.00  0.00    -0.391 OA
ATOM     21  H40 ZIN A   1      15.636   4.869  16.078  0.00  0.00     0.210 HD
ENDBRANCH  19  20
BRANCH  19  22
ATOM     22  C10 ZIN A   1      17.329   4.701  14.338  0.00  0.00     0.159 C 
ATOM     23  O21 ZIN A   1      18.542   4.137  13.835  0.00  0.00    -0.343 OA
ATOM     24  C20 ZIN A   1      18.571   3.757  12.530  0.00  0.00     0.075 A 
ATOM     25  C14 ZIN A   1      17.633   4.208  11.618  0.00  0.00    -0.022 A 
ATOM     26  C19 ZIN A   1      19.582   2.898  12.114  0.00  0.00     0.040 A 
ATOM     27  C13 ZIN A   1      16.518   5.135  12.031  0.00  0.00     0.044 C 
ATOM     28  C15 ZIN A   1      17.708   3.804  10.296  0.00  0.00     0.052 A 
ATOM     29  C12 ZIN A   1      16.865   5.795  13.368  0.00  0.00     0.040 C 
ATOM     30  C16 ZIN A   1      18.716   2.950   9.883  0.00  0.00     0.117 A 
ATOM     31  F17 ZIN A   1      18.784   2.559   8.592  0.00  0.00    -0.206 F 
ATOM     32  C18 ZIN A   1      19.653   2.496  10.795  0.00  0.00     0.045 A 
ENDBRANCH  19  22
ENDBRANCH  18  19
ENDBRANCH   1  18
TORSDOF 8
ENDMDL
MODEL 5
REMARK VINA RESULT:      -8.7      3.682      7.465
REMARK  8 active torsions:
REMARK  status: ('A' for Active; 'I' for Inactive)
REMARK    1  A    between atoms: O1_1  and  C2_2 
REMARK    2  A    between atoms: C2_2  and  C4_3 
REMARK    3  A    between atoms: C2_2  and  C22_19 
REMARK    4  A    between atoms: C4_3  and  N5_4 
REMARK    5  A    between atoms: N5_4  and  C6_5 
REMARK    6  A    between atoms: C6_5  and  C7_6 
REMARK    7  A    between atoms: C7_6  and  O9_7 
REMARK    8  A    between atoms: C7_6  and  C10_8 
ROOT
ATOM      1  N5  ZIN A   1      19.675  -2.090   9.182  0.00  0.00     0.088 N 
ATOM      2  H37 ZIN A   1      20.606  -2.007   9.562  0.00  0.00     0.316 HD
ENDROOT
BRANCH   1   3
ATOM      3  C4  ZIN A   1      18.783  -2.789  10.115  0.00  0.00     0.303 C 
BRANCH   3   4
ATOM      4  C2  ZIN A   1      19.485  -2.951  11.466  0.00  0.00     0.175 C 
BRANCH   4   5
ATOM      5  O1  ZIN A   1      20.900  -2.928  11.273  0.00  0.00    -0.391 OA
ATOM      6  H34 ZIN A   1      21.181  -2.451  10.480  0.00  0.00     0.210 HD
ENDBRANCH   4   5
BRANCH   4   7
ATOM      7  C22 ZIN A   1      19.078  -1.804  12.393  0.00  0.00     0.159 C 
ATOM      8  O33 ZIN A   1      19.306  -2.180  13.753  0.00  0.00    -0.343 OA
ATOM      9  C32 ZIN A   1      18.792  -1.384  14.727  0.00  0.00     0.075 A 
ATOM     10  C26 ZIN A   1      17.795  -0.460  14.463  0.00  0.00    -0.022 A 
ATOM     11  C31 ZIN A   1      19.286  -1.515  16.019  0.00  0.00     0.040 A 
ATOM     12  C25 ZIN A   1      17.237  -0.282  13.074  0.00  0.00     0.044 C 
ATOM     13  C27 ZIN A   1      17.293   0.323  15.489  0.00  0.00     0.052 A 
ATOM     14  C24 ZIN A   1      17.585  -1.502  12.218  0.00  0.00     0.040 C 
ATOM     15  C28 ZIN A   1      17.785   0.188  16.775  0.00  0.00     0.117 A 
ATOM     16  F29 ZIN A   1      17.291   0.956  17.771  0.00  0.00    -0.206 F 
ATOM     17  C30 ZIN A   1      18.784  -0.731  17.039  0.00  0.00     0.045 A 
ENDBRANCH   4   7
ENDBRANCH   3   4
ENDBRANCH   1   3
BRANCH   1  18
ATOM     18  C6  ZIN A   1      19.134  -0.771   8.824  0.00  0.00     0.303 C 
BRANCH  18  19
ATOM     19  C7  ZIN A   1      20.049   0.323   9.378  0.00  0.00     0.175 C 
BRANCH  19  20
ATOM     20  O9  ZIN A   1      21.182  -0.278  10.009  0.00  0.00    -0.391 OA
ATOM     21  H40 ZIN A   1      21.257  -0.079  10.953  0.00  0.00     0.210 HD
ENDBRANCH  19  20
BRANCH  19  22
ATOM     22  C10 ZIN A   1      19.280   1.161  10.401  0.00  0.00     0.159 C 
ATOM     23  O21 ZIN A   1      18.834   2.374   9.792  0.00  0.00    -0.343 OA
ATOM     24  C20 ZIN A   1      18.335   3.345  10.602  0.00  0.00     0.075 A 
ATOM     25  C14 ZIN A   1      18.566   3.347  11.966  0.00  0.00    -0.022 A 
ATOM     26  C19 ZIN A   1      17.580   4.362  10.028  0.00  0.00     0.040 A 
ATOM     27  C13 ZIN A   1      19.374   2.259  12.628  0.00  0.00     0.044 C 
ATOM     28  C15 ZIN A   1      18.049   4.363  12.752  0.00  0.00     0.052 A 
ATOM     29  C12 ZIN A   1      20.202   1.519  11.574  0.00  0.00     0.040 C 
ATOM     30  C16 ZIN A   1      17.298   5.375  12.179  0.00  0.00     0.117 A 
ATOM     31  F17 ZIN A   1      16.796   6.363  12.950  0.00  0.00    -0.206 F 
ATOM     32  C18 ZIN A   1      17.064   5.372  10.814  0.00  0.00     0.045 A 
ENDBRANCH  19  22
ENDBRANCH  18  19
ENDBRANCH   1  18
TORSDOF 8
ENDMDL
MODEL 6
REMARK VINA RESULT:      -8.6      1.795      5.328
REMARK  8 active torsions:
REMARK  status: ('A' for Active; 'I' for Inactive)
REMARK    1  A    between atoms: O1_1  and  C2_2 
REMARK    2  A    between atoms: C2_2  and  C4_3 
REMARK    3  A    between atoms: C2_2  and  C22_19 
REMARK    4  A    between atoms: C4_3  and  N5_4 
REMARK    5  A    between atoms: N5_4  and  C6_5 
REMARK    6  A    between atoms: C6_5  and  C7_6 
REMARK    7  A    between atoms: C7_6  and  O9_7 
REMARK    8  A    between atoms: C7_6  and  C10_8 
ROOT
ATOM      1  N5  ZIN A   1      17.752   3.221  15.442  0.00  0.00     0.088 N 
ATOM      2  H37 ZIN A   1      17.561   2.456  14.812  0.00  0.00     0.316 HD
ENDROOT
BRANCH   1   3
ATOM      3  C4  ZIN A   1      18.718   2.826  16.475  0.00  0.00     0.303 C 
BRANCH   3   4
ATOM      4  C2  ZIN A   1      18.535   1.342  16.803  0.00  0.00     0.175 C 
BRANCH   4   5
ATOM      5  O1  ZIN A   1      17.189   1.111  17.225  0.00  0.00    -0.391 OA
ATOM      6  H34 ZIN A   1      16.772   0.345  16.807  0.00  0.00     0.210 HD
ENDBRANCH   4   5
BRANCH   4   7
ATOM      7  C22 ZIN A   1      18.830   0.503  15.558  0.00  0.00     0.159 C 
ATOM      8  O33 ZIN A   1      17.743   0.612  14.636  0.00  0.00    -0.343 OA
ATOM      9  C32 ZIN A   1      17.720  -0.242  13.579  0.00  0.00     0.075 A 
ATOM     10  C26 ZIN A   1      18.482  -1.397  13.557  0.00  0.00    -0.022 A 
ATOM     11  C31 ZIN A   1      16.900   0.064  12.498  0.00  0.00     0.040 A 
ATOM     12  C25 ZIN A   1      19.389  -1.762  14.705  0.00  0.00     0.044 C 
ATOM     13  C27 ZIN A   1      18.419  -2.244  12.464  0.00  0.00     0.052 A 
ATOM     14  C24 ZIN A   1      18.986  -0.970  15.952  0.00  0.00     0.040 C 
ATOM     15  C28 ZIN A   1      17.600  -1.938  11.391  0.00  0.00     0.117 A 
ATOM     16  F29 ZIN A   1      17.543  -2.768  10.327  0.00  0.00    -0.206 F 
ATOM     17  C30 ZIN A   1      16.841  -0.781  11.408  0.00  0.00     0.045 A 
ENDBRANCH   4   7
ENDBRANCH   3   4
ENDBRANCH   1   3
BRANCH   1  18
ATOM     18  C6  ZIN A   1      18.222   4.403  14.706  0.00  0.00     0.303 C 
BRANCH  18  19
ATOM     19  C7  ZIN A   1      19.402   4.013  13.813  0.00  0.00     0.175 C 
BRANCH  19  20
ATOM     20  O9  ZIN A   1      20.083   5.193  13.381  0.00  0.00    -0.391 OA
ATOM     21  H40 ZIN A   1      19.527   5.806  12.881  0.00  0.00     0.210 HD
ENDBRANCH  19  20
BRANCH  19  22
ATOM     22  C10 ZIN A   1      18.887   3.245  12.594  0.00  0.00     0.159 C 
ATOM     23  O21 ZIN A   1      19.830   2.237  12.227  0.00  0.00    -0.343 OA
ATOM     24  C20 ZIN A   1      19.656   1.609  11.033  0.00  0.00     0.075 A 
ATOM     25  C14 ZIN A   1      18.846   2.138  10.044  0.00  0.00    -0.022 A 
ATOM     26  C19 ZIN A   1      20.322   0.409  10.813  0.00  0.00     0.040 A 
ATOM     27  C13 ZIN A   1      18.102   3.433  10.245  0.00  0.00     0.044 C 
ATOM     28  C15 ZIN A   1      18.707   1.470   8.838  0.00  0.00     0.052 A 
ATOM     29  C12 ZIN A   1      18.721   4.208  11.410  0.00  0.00     0.040 C 
ATOM     30  C16 ZIN A   1      19.371   0.276   8.620  0.00  0.00     0.117 A 
ATOM     31  F17 ZIN A   1      19.232  -0.371   7.443  0.00  0.00    -0.206 F 
ATOM     32  C18 ZIN A   1      20.179  -0.255   9.612  0.00  0.00     0.045 A 
ENDBRANCH  19  22
ENDBRANCH  18  19
ENDBRANCH   1  18
TORSDOF 8
ENDMDL
MODEL 7
REMARK VINA RESULT:      -8.6      4.620      7.232
REMARK  8 active torsions:
REMARK  status: ('A' for Active; 'I' for Inactive)
REMARK    1  A    between atoms: O1_1  and  C2_2 
REMARK    2  A    between atoms: C2_2  and  C4_3 
REMARK    3  A    between atoms: C2_2  and  C22_19 
REMARK    4  A    between atoms: C4_3  and  N5_4 
REMARK    5  A    between atoms: N5_4  and  C6_5 
REMARK    6  A    between atoms: C6_5  and  C7_6 
REMARK    7  A    between atoms: C7_6  and  O9_7 
REMARK    8  A    between atoms: C7_6  and  C10_8 
ROOT
ATOM      1  N5  ZIN A   1      17.899  -2.903   7.471  0.00  0.00     0.088 N 
ATOM      2  H37 ZIN A   1      17.206  -2.677   8.169  0.00  0.00     0.316 HD
ENDROOT
BRANCH   1   3
ATOM      3  C4  ZIN A   1      18.895  -1.830   7.349  0.00  0.00     0.303 C 
BRANCH   3   4
ATOM      4  C2  ZIN A   1      18.199  -0.472   7.465  0.00  0.00     0.175 C 
BRANCH   4   5
ATOM      5  O1  ZIN A   1      16.790  -0.642   7.289  0.00  0.00    -0.391 OA
ATOM      6  H34 ZIN A   1      16.325  -0.921   8.090  0.00  0.00     0.210 HD
ENDBRANCH   4   5
BRANCH   4   7
ATOM      7  C22 ZIN A   1      18.471   0.124   8.847  0.00  0.00     0.159 C 
ATOM      8  O33 ZIN A   1      18.142   1.515   8.845  0.00  0.00    -0.343 OA
ATOM      9  C32 ZIN A   1      18.532   2.262   9.911  0.00  0.00     0.075 A 
ATOM     10  C26 ZIN A   1      19.506   1.823  10.791  0.00  0.00    -0.022 A 
ATOM     11  C31 ZIN A   1      17.933   3.501  10.107  0.00  0.00     0.040 A 
ATOM     12  C25 ZIN A   1      20.175   0.483  10.618  0.00  0.00     0.044 C 
ATOM     13  C27 ZIN A   1      19.881   2.622  11.858  0.00  0.00     0.052 A 
ATOM     14  C24 ZIN A   1      19.959  -0.021   9.189  0.00  0.00     0.040 C 
ATOM     15  C28 ZIN A   1      19.285   3.856  12.049  0.00  0.00     0.117 A 
ATOM     16  F29 ZIN A   1      19.655   4.631  13.092  0.00  0.00    -0.206 F 
ATOM     17  C30 ZIN A   1      18.308   4.295  11.173  0.00  0.00     0.045 A 
ENDBRANCH   4   7
ENDBRANCH   3   4
ENDBRANCH   1   3
BRANCH   1  18
ATOM     18  C6  ZIN A   1      18.544  -4.189   7.768  0.00  0.00     0.303 C 
BRANCH  18  19
ATOM     19  C7  ZIN A   1      17.726  -4.939   8.822  0.00  0.00     0.175 C 
BRANCH  19  20
ATOM     20  O9  ZIN A   1      16.333  -4.760   8.559  0.00  0.00    -0.391 OA
ATOM     21  H40 ZIN A   1      15.952  -5.438   7.983  0.00  0.00     0.210 HD
ENDBRANCH  19  20
BRANCH  19  22
ATOM     22  C10 ZIN A   1      18.058  -4.389  10.211  0.00  0.00     0.159 C 
ATOM     23  O21 ZIN A   1      17.485  -3.089  10.363  0.00  0.00    -0.343 OA
ATOM     24  C20 ZIN A   1      17.865  -2.350  11.439  0.00  0.00     0.075 A 
ATOM     25  C14 ZIN A   1      19.006  -2.650  12.162  0.00  0.00    -0.022 A 
ATOM     26  C19 ZIN A   1      17.081  -1.262  11.805  0.00  0.00     0.040 A 
ATOM     27  C13 ZIN A   1      19.880  -3.824  11.802  0.00  0.00     0.044 C 
ATOM     28  C15 ZIN A   1      19.362  -1.862  13.244  0.00  0.00     0.052 A 
ATOM     29  C12 ZIN A   1      19.579  -4.269  10.369  0.00  0.00     0.040 C 
ATOM     30  C16 ZIN A   1      18.581  -0.779  13.607  0.00  0.00     0.117 A 
ATOM     31  F17 ZIN A   1      18.933  -0.014  14.663  0.00  0.00    -0.206 F 
ATOM     32  C18 ZIN A   1      17.438  -0.480  12.885  0.00  0.00     0.045 A 
ENDBRANCH  19  22
ENDBRANCH  18  19
ENDBRANCH   1  18
TORSDOF 8
ENDMDL
MODEL 8
REMARK VINA RESULT:      -8.5      5.327      8.039
REMARK  8 active torsions:
REMARK  status: ('A' for Active; 'I' for Inactive)
REMARK    1  A    between atoms: O1_1  and  C2_2 
REMARK    2  A    between atoms: C2_2  and  C4_3 
REMARK    3  A    between atoms: C2_2  and  C22_19 
REMARK    4  A    between atoms: C4_3  and  N5_4 
REMARK    5  A    between atoms: N5_4  and  C6_5 
REMARK    6  A    between atoms: C6_5  and  C7_6 
REMARK    7  A    between atoms: C7_6  and  O9_7 
REMARK    8  A    between atoms: C7_6  and  C10_8 
ROOT
ATOM      1  N5  ZIN A   1      19.055  -5.008   7.535  0.00  0.00     0.088 N 
ATOM      2  H37 ZIN A   1      18.108  -4.898   7.207  0.00  0.00     0.316 HD
ENDROOT
BRANCH   1   3
ATOM      3  C4  ZIN A   1      19.971  -4.114   6.815  0.00  0.00     0.303 C 
BRANCH   3   4
ATOM      4  C2  ZIN A   1      19.172  -3.241   5.844  0.00  0.00     0.175 C 
BRANCH   4   5
ATOM      5  O1  ZIN A   1      17.799  -3.638   5.865  0.00  0.00    -0.391 OA
ATOM      6  H34 ZIN A   1      17.387  -3.583   6.738  0.00  0.00     0.210 HD
ENDBRANCH   4   5
BRANCH   4   7
ATOM      7  C22 ZIN A   1      19.285  -1.775   6.265  0.00  0.00     0.159 C 
ATOM      8  O33 ZIN A   1      19.509  -1.695   7.674  0.00  0.00    -0.343 OA
ATOM      9  C32 ZIN A   1      19.405  -0.475   8.265  0.00  0.00     0.075 A 
ATOM     10  C26 ZIN A   1      18.768   0.584   7.644  0.00  0.00    -0.022 A 
ATOM     11  C31 ZIN A   1      19.955  -0.303   9.530  0.00  0.00     0.040 A 
ATOM     12  C25 ZIN A   1      18.164   0.442   6.270  0.00  0.00     0.044 C 
ATOM     13  C27 ZIN A   1      18.676   1.807   8.288  0.00  0.00     0.052 A 
ATOM     14  C24 ZIN A   1      17.978  -1.041   5.939  0.00  0.00     0.040 C 
ATOM     15  C28 ZIN A   1      19.221   1.974   9.548  0.00  0.00     0.117 A 
ATOM     16  F29 ZIN A   1      19.129   3.169  10.171  0.00  0.00    -0.206 F 
ATOM     17  C30 ZIN A   1      19.864   0.917  10.169  0.00  0.00     0.045 A 
ENDBRANCH   4   7
ENDBRANCH   3   4
ENDBRANCH   1   3
BRANCH   1  18
ATOM     18  C6  ZIN A   1      19.138  -4.789   8.986  0.00  0.00     0.303 C 
BRANCH  18  19
ATOM     19  C7  ZIN A   1      17.766  -4.374   9.519  0.00  0.00     0.175 C 
BRANCH  19  20
ATOM     20  O9  ZIN A   1      17.135  -3.500   8.580  0.00  0.00    -0.391 OA
ATOM     21  H40 ZIN A   1      16.296  -3.130   8.891  0.00  0.00     0.210 HD
ENDBRANCH  19  20
BRANCH  19  22
ATOM     22  C10 ZIN A   1      17.936  -3.649  10.856  0.00  0.00     0.159 C 
ATOM     23  O21 ZIN A   1      17.387  -2.333  10.763  0.00  0.00    -0.343 OA
ATOM     24  C20 ZIN A   1      17.651  -1.463  11.774  0.00  0.00     0.075 A 
ATOM     25  C14 ZIN A   1      18.682  -1.679  12.671  0.00  0.00    -0.022 A 
ATOM     26  C19 ZIN A   1      16.859  -0.326  11.891  0.00  0.00     0.040 A 
ATOM     27  C13 ZIN A   1      19.559  -2.902  12.582  0.00  0.00     0.044 C 
ATOM     28  C15 ZIN A   1      18.922  -0.759  13.678  0.00  0.00     0.052 A 
ATOM     29  C12 ZIN A   1      19.428  -3.529  11.192  0.00  0.00     0.040 C 
ATOM     30  C16 ZIN A   1      18.134   0.372  13.793  0.00  0.00     0.117 A 
ATOM     31  F17 ZIN A   1      18.373   1.266  14.778  0.00  0.00    -0.206 F 
ATOM     32  C18 ZIN A   1      17.100   0.588  12.898  0.00  0.00     0.045 A 
ENDBRANCH  19  22
ENDBRANCH  18  19
ENDBRANCH   1  18
TORSDOF 8
ENDMDL
MODEL 9
REMARK VINA RESULT:      -8.4      2.253      3.823
REMARK  8 active torsions:
REMARK  status: ('A' for Active; 'I' for Inactive)
REMARK    1  A    between atoms: O1_1  and  C2_2 
REMARK    2  A    between atoms: C2_2  and  C4_3 
REMARK    3  A    between atoms: C2_2  and  C22_19 
REMARK    4  A    between atoms: C4_3  and  N5_4 
REMARK    5  A    between atoms: N5_4  and  C6_5 
REMARK    6  A    between atoms: C6_5  and  C7_6 
REMARK    7  A    between atoms: C7_6  and  O9_7 
REMARK    8  A    between atoms: C7_6  and  C10_8 
ROOT
ATOM      1  N5  ZIN A   1      18.384   5.898  14.106  0.00  0.00     0.088 N 
ATOM      2  H37 ZIN A   1      19.373   6.091  14.056  0.00  0.00     0.316 HD
ENDROOT
BRANCH   1   3
ATOM      3  C4  ZIN A   1      17.995   4.878  13.125  0.00  0.00     0.303 C 
BRANCH   3   4
ATOM      4  C2  ZIN A   1      19.212   4.490  12.282  0.00  0.00     0.175 C 
BRANCH   4   5
ATOM      5  O1  ZIN A   1      20.371   4.437  13.116  0.00  0.00    -0.391 OA
ATOM      6  H34 ZIN A   1      20.357   3.721  13.765  0.00  0.00     0.210 HD
ENDBRANCH   4   5
BRANCH   4   7
ATOM      7  C22 ZIN A   1      18.978   3.117  11.649  0.00  0.00     0.159 C 
ATOM      8  O33 ZIN A   1      19.160   3.202  10.234  0.00  0.00    -0.343 OA
ATOM      9  C32 ZIN A   1      18.771   2.141   9.479  0.00  0.00     0.075 A 
ATOM     10  C26 ZIN A   1      17.913   1.172   9.970  0.00  0.00    -0.022 A 
ATOM     11  C31 ZIN A   1      19.251   2.042   8.178  0.00  0.00     0.040 A 
ATOM     12  C25 ZIN A   1      17.375   1.238  11.377  0.00  0.00     0.044 C 
ATOM     13  C27 ZIN A   1      17.534   0.114   9.161  0.00  0.00     0.052 A 
ATOM     14  C24 ZIN A   1      17.541   2.658  11.926  0.00  0.00     0.040 C 
ATOM     15  C28 ZIN A   1      18.011   0.020   7.866  0.00  0.00     0.117 A 
ATOM     16  F29 ZIN A   1      17.637  -1.015   7.082  0.00  0.00    -0.206 F 
ATOM     17  C30 ZIN A   1      18.872   0.985   7.375  0.00  0.00     0.045 A 
ENDBRANCH   4   7
ENDBRANCH   3   4
ENDBRANCH   1   3
BRANCH   1  18
ATOM     18  C6  ZIN A   1      17.994   5.499  15.465  0.00  0.00     0.303 C 
BRANCH  18  19
ATOM     19  C7  ZIN A   1      19.242   5.393  16.344  0.00  0.00     0.175 C 
BRANCH  19  20
ATOM     20  O9  ZIN A   1      20.374   5.885  15.625  0.00  0.00    -0.391 OA
ATOM     21  H40 ZIN A   1      21.154   5.315  15.683  0.00  0.00     0.210 HD
ENDBRANCH  19  20
BRANCH  19  22
ATOM     22  C10 ZIN A   1      19.474   3.929  16.725  0.00  0.00     0.159 C 
ATOM     23  O21 ZIN A   1      19.169   3.089  15.610  0.00  0.00    -0.343 OA
ATOM     24  C20 ZIN A   1      19.095   1.749  15.828  0.00  0.00     0.075 A 
ATOM     25  C14 ZIN A   1      18.952   1.224  17.101  0.00  0.00    -0.022 A 
ATOM     26  C19 ZIN A   1      19.156   0.895  14.732  0.00  0.00     0.040 A 
ATOM     27  C13 ZIN A   1      18.887   2.114  18.316  0.00  0.00     0.044 C 
ATOM     28  C15 ZIN A   1      18.868  -0.147  17.275  0.00  0.00     0.052 A 
ATOM     29  C12 ZIN A   1      18.551   3.545  17.888  0.00  0.00     0.040 C 
ATOM     30  C16 ZIN A   1      18.929  -0.995  16.183  0.00  0.00     0.117 A 
ATOM     31  F17 ZIN A   1      18.846  -2.331  16.359  0.00  0.00    -0.206 F 
ATOM     32  C18 ZIN A   1      19.074  -0.471  14.910  0.00  0.00     0.045 A 
ENDBRANCH  19  22
ENDBRANCH  18  19
ENDBRANCH   1  18
TORSDOF 8
ENDMDL
