MODEL 1
REMARK VINA RESULT:      -8.2      0.000      0.000
REMARK  5 active torsions:
REMARK  status: ('A' for Active; 'I' for Inactive)
REMARK    1  A    between atoms: C6_6  and  N7_7 
REMARK    2  A    between atoms: N7_7  and  C8_8 
REMARK    3  A    between atoms: C13_13  and  S14_14 
REMARK    4  A    between atoms: S14_14  and  N17_17 
REMARK       I    between atoms: C18_18  and  N20_20 
REMARK    5  A    between atoms: N20_20  and  C21_21 
ROOT
ATOM      1  C8  ZIN A   1      18.681   2.912  10.147  0.00  0.00     0.059 A 
ATOM      2  C9  ZIN A   1      18.115   4.048   9.567  0.00  0.00     0.050 A 
ATOM      3  C10 ZIN A   1      17.372   4.903  10.354  0.00  0.00     0.118 A 
ATOM      4  N11 ZIN A   1      17.195   4.658  11.638  0.00  0.00    -0.271 NA
ATOM      5  C12 ZIN A   1      17.713   3.594  12.224  0.00  0.00     0.144 A 
ATOM      6  C13 ZIN A   1      18.464   2.687  11.506  0.00  0.00     0.125 A 
ENDROOT
BRANCH   6   7
ATOM      7  S14 ZIN A   1      19.151   1.271  12.299  0.00  0.00     0.290 S 
ATOM      8  O15 ZIN A   1      18.370   0.160  11.884  0.00  0.00    -0.198 OA
ATOM      9  O16 ZIN A   1      20.557   1.348  12.108  0.00  0.00    -0.198 OA
BRANCH   7  10
ATOM     10  N17 ZIN A   1      18.890   1.445  13.926  0.00  0.00    -0.115 NA
ATOM     11  C18 ZIN A   1      18.976   0.412  14.712  0.00  0.00     0.284 C 
ATOM     12  O19 ZIN A   1      19.278  -0.802  14.202  0.00  0.00    -0.149 OA
ATOM     13  N20 ZIN A   1      18.760   0.557  16.060  0.00  0.00    -0.348 N 
ATOM     14  H35 ZIN A   1      18.543   1.428  16.426  0.00  0.00     0.163 HD
BRANCH  13  15
ATOM     15  C21 ZIN A   1      18.856  -0.606  16.946  0.00  0.00     0.077 C 
ATOM     16  C22 ZIN A   1      19.213  -0.143  18.359  0.00  0.00     0.032 C 
ATOM     17  C23 ZIN A   1      17.513  -1.338  16.974  0.00  0.00     0.032 C 
ENDBRANCH  13  15
ENDBRANCH   7  10
ENDBRANCH   6   7
BRANCH   1  18
ATOM     18  N7  ZIN A   1      19.437   2.024   9.388  0.00  0.00    -0.355 N 
ATOM     19  H31 ZIN A   1      20.394   1.955   9.531  0.00  0.00     0.166 HD
BRANCH  18  20
ATOM     20  C6  ZIN A   1      18.819   1.229   8.418  0.00  0.00     0.033 A 
ATOM     21  C5  ZIN A   1      17.697   0.477   8.747  0.00  0.00     0.029 A 
ATOM     22  C4  ZIN A   1      17.087  -0.306   7.788  0.00  0.00     0.003 A 
ATOM     23  C3  ZIN A   1      17.592  -0.344   6.501  0.00  0.00     0.007 A 
ATOM     24  C2  ZIN A   1      18.708   0.404   6.170  0.00  0.00    -0.060 A 
ATOM     25  C1  ZIN A   1      19.255   0.360   4.767  0.00  0.00     0.048 C 
ATOM     26  C24 ZIN A   1      19.326   1.185   7.126  0.00  0.00     0.036 A 
ENDBRANCH  18  20
ENDBRANCH   1  18
TORSDOF 5
ENDMDL
MODEL 2
REMARK VINA RESULT:      -8.1      2.513      3.089
REMARK  5 active torsions:
REMARK  status: ('A' for Active; 'I' for Inactive)
REMARK    1  A    between atoms: C6_6  and  N7_7 
REMARK    2  A    between atoms: N7_7  and  C8_8 
REMARK    3  A    between atoms: C13_13  and  S14_14 
REMARK    4  A    between atoms: S14_14  and  N17_17 
REMARK       I    between atoms: C18_18  and  N20_20 
REMARK    5  A    between atoms: N20_20  and  C21_21 
ROOT
ATOM      1  C8  ZIN A   1      18.700   2.584  10.481  0.00  0.00     0.059 A 
ATOM      2  C9  ZIN A   1      18.189   3.768   9.949  0.00  0.00     0.050 A 
ATOM      3  C10 ZIN A   1      17.480   4.620  10.769  0.00  0.00     0.118 A 
ATOM      4  N11 ZIN A   1      17.284   4.328  12.041  0.00  0.00    -0.271 NA
ATOM      5  C12 ZIN A   1      17.751   3.218  12.583  0.00  0.00     0.144 A 
ATOM      6  C13 ZIN A   1      18.465   2.311  11.829  0.00  0.00     0.125 A 
ENDROOT
BRANCH   6   7
ATOM      7  S14 ZIN A   1      19.085   0.833  12.562  0.00  0.00     0.290 S 
ATOM      8  O15 ZIN A   1      20.461   0.761  12.219  0.00  0.00    -0.198 OA
ATOM      9  O16 ZIN A   1      18.617   0.823  13.903  0.00  0.00    -0.198 OA
BRANCH   7  10
ATOM     10  N17 ZIN A   1      18.346  -0.439  11.800  0.00  0.00    -0.115 NA
ATOM     11  C18 ZIN A   1      18.650  -1.660  12.129  0.00  0.00     0.284 C 
ATOM     12  O19 ZIN A   1      19.570  -1.892  13.092  0.00  0.00    -0.149 OA
ATOM     13  N20 ZIN A   1      18.038  -2.715  11.497  0.00  0.00    -0.348 N 
ATOM     14  H35 ZIN A   1      17.379  -2.549  10.805  0.00  0.00     0.163 HD
BRANCH  13  15
ATOM     15  C21 ZIN A   1      18.381  -4.090  11.867  0.00  0.00     0.077 C 
ATOM     16  C22 ZIN A   1      17.144  -4.979  11.731  0.00  0.00     0.032 C 
ATOM     17  C23 ZIN A   1      19.484  -4.607  10.941  0.00  0.00     0.032 C 
ENDBRANCH  13  15
ENDBRANCH   7  10
ENDBRANCH   6   7
BRANCH   1  18
ATOM     18  N7  ZIN A   1      19.421   1.696   9.687  0.00  0.00    -0.355 N 
ATOM     19  H31 ZIN A   1      20.357   1.527   9.876  0.00  0.00     0.166 HD
BRANCH  18  20
ATOM     20  C6  ZIN A   1      18.796   1.048   8.618  0.00  0.00     0.033 A 
ATOM     21  C5  ZIN A   1      17.610   0.352   8.824  0.00  0.00     0.029 A 
ATOM     22  C4  ZIN A   1      16.995  -0.287   7.766  0.00  0.00     0.003 A 
ATOM     23  C3  ZIN A   1      17.557  -0.235   6.503  0.00  0.00     0.007 A 
ATOM     24  C2  ZIN A   1      18.736   0.457   6.296  0.00  0.00    -0.060 A 
ATOM     25  C1  ZIN A   1      19.345   0.511   4.919  0.00  0.00     0.048 C 
ATOM     26  C24 ZIN A   1      19.360   1.094   7.350  0.00  0.00     0.036 A 
ENDBRANCH  18  20
ENDBRANCH   1  18
TORSDOF 5
ENDMDL
MODEL 3
REMARK VINA RESULT:      -7.9      1.813      4.426
REMARK  5 active torsions:
REMARK  status: ('A' for Active; 'I' for Inactive)
REMARK    1  A    between atoms: C6_6  and  N7_7 
REMARK    2  A    between atoms: N7_7  and  C8_8 
REMARK    3  A    between atoms: C13_13  and  S14_14 
REMARK    4  A    between atoms: S14_14  and  N17_17 
REMARK       I    between atoms: C18_18  and  N20_20 
REMARK    5  A    between atoms: N20_20  and  C21_21 
ROOT
ATOM      1  C8  ZIN A   1      19.237   0.795   8.995  0.00  0.00     0.059 A 
ATOM      2  C9  ZIN A   1      18.860   1.223   7.722  0.00  0.00     0.050 A 
ATOM      3  C10 ZIN A   1      18.172   0.356   6.899  0.00  0.00     0.118 A 
ATOM      4  N11 ZIN A   1      17.871  -0.864   7.302  0.00  0.00    -0.271 NA
ATOM      5  C12 ZIN A   1      18.209  -1.307   8.499  0.00  0.00     0.144 A 
ATOM      6  C13 ZIN A   1      18.903  -0.504   9.379  0.00  0.00     0.125 A 
ENDROOT
BRANCH   6   7
ATOM      7  S14 ZIN A   1      19.350  -1.105  10.975  0.00  0.00     0.290 S 
ATOM      8  O15 ZIN A   1      18.779  -2.401  11.089  0.00  0.00    -0.198 OA
ATOM      9  O16 ZIN A   1      20.739  -0.851  11.125  0.00  0.00    -0.198 OA
BRANCH   7  10
ATOM     10  N17 ZIN A   1      18.578  -0.154  12.090  0.00  0.00    -0.115 NA
ATOM     11  C18 ZIN A   1      18.827  -0.307  13.358  0.00  0.00     0.284 C 
ATOM     12  O19 ZIN A   1      19.715  -1.241  13.765  0.00  0.00    -0.149 OA
ATOM     13  N20 ZIN A   1      18.187   0.481  14.283  0.00  0.00    -0.348 N 
ATOM     14  H35 ZIN A   1      17.549   1.151  13.991  0.00  0.00     0.163 HD
BRANCH  13  15
ATOM     15  C21 ZIN A   1      18.467   0.310  15.711  0.00  0.00     0.077 C 
ATOM     16  C22 ZIN A   1      18.928   1.642  16.304  0.00  0.00     0.032 C 
ATOM     17  C23 ZIN A   1      17.198  -0.155  16.427  0.00  0.00     0.032 C 
ENDBRANCH  13  15
ENDBRANCH   7  10
ENDBRANCH   6   7
BRANCH   1  18
ATOM     18  N7  ZIN A   1      19.932   1.639   9.856  0.00  0.00    -0.355 N 
ATOM     19  H31 ZIN A   1      20.881   1.505  10.006  0.00  0.00     0.166 HD
BRANCH  18  20
ATOM     20  C6  ZIN A   1      19.263   2.681  10.504  0.00  0.00     0.033 A 
ATOM     21  C5  ZIN A   1      17.988   3.052  10.094  0.00  0.00     0.029 A 
ATOM     22  C4  ZIN A   1      17.330   4.081  10.736  0.00  0.00     0.003 A 
ATOM     23  C3  ZIN A   1      17.937   4.743  11.788  0.00  0.00     0.007 A 
ATOM     24  C2  ZIN A   1      19.206   4.376  12.199  0.00  0.00    -0.060 A 
ATOM     25  C1  ZIN A   1      19.864   5.099  13.345  0.00  0.00     0.048 C 
ATOM     26  C24 ZIN A   1      19.873   3.351  11.557  0.00  0.00     0.036 A 
ENDBRANCH  18  20
ENDBRANCH   1  18
TORSDOF 5
ENDMDL
MODEL 4
REMARK VINA RESULT:      -7.9      3.110      7.143
REMARK  5 active torsions:
REMARK  status: ('A' for Active; 'I' for Inactive)
REMARK    1  A    between atoms: C6_6  and  N7_7 
REMARK    2  A    between atoms: N7_7  and  C8_8 
REMARK    3  A    between atoms: C13_13  and  S14_14 
REMARK    4  A    between atoms: S14_14  and  N17_17 
REMARK       I    between atoms: C18_18  and  N20_20 
REMARK    5  A    between atoms: N20_20  and  C21_21 
ROOT
ATOM      1  C8  ZIN A   1      19.177  -2.365  11.277  0.00  0.00     0.059 A 
ATOM      2  C9  ZIN A   1      18.965  -3.633  11.817  0.00  0.00     0.050 A 
ATOM      3  C10 ZIN A   1      18.434  -4.623  11.018  0.00  0.00     0.118 A 
ATOM      4  N11 ZIN A   1      18.129  -4.383   9.756  0.00  0.00    -0.271 NA
ATOM      5  C12 ZIN A   1      18.314  -3.197   9.207  0.00  0.00     0.144 A 
ATOM      6  C13 ZIN A   1      18.835  -2.152   9.941  0.00  0.00     0.125 A 
ENDROOT
BRANCH   6   7
ATOM      7  S14 ZIN A   1      19.079  -0.573   9.198  0.00  0.00     0.290 S 
ATOM      8  O15 ZIN A   1      20.435  -0.223   9.435  0.00  0.00    -0.198 OA
ATOM      9  O16 ZIN A   1      18.512  -0.649   7.898  0.00  0.00    -0.198 OA
BRANCH   7  10
ATOM     10  N17 ZIN A   1      18.161   0.515  10.046  0.00  0.00    -0.115 NA
ATOM     11  C18 ZIN A   1      18.450   1.782  10.003  0.00  0.00     0.284 C 
ATOM     12  O19 ZIN A   1      19.499   2.212   9.268  0.00  0.00    -0.149 OA
ATOM     13  N20 ZIN A   1      17.689   2.684  10.706  0.00  0.00    -0.348 N 
ATOM     14  H35 ZIN A   1      16.936   2.375  11.234  0.00  0.00     0.163 HD
BRANCH  13  15
ATOM     15  C21 ZIN A   1      18.015   4.112  10.659  0.00  0.00     0.077 C 
ATOM     16  C22 ZIN A   1      16.723   4.930  10.686  0.00  0.00     0.032 C 
ATOM     17  C23 ZIN A   1      18.875   4.478  11.870  0.00  0.00     0.032 C 
ENDBRANCH  13  15
ENDBRANCH   7  10
ENDBRANCH   6   7
BRANCH   1  18
ATOM     18  N7  ZIN A   1      19.711  -1.339  12.050  0.00  0.00    -0.355 N 
ATOM     19  H31 ZIN A   1      20.523  -0.889  11.768  0.00  0.00     0.166 HD
BRANCH  18  20
ATOM     20  C6  ZIN A   1      19.077  -0.954  13.235  0.00  0.00     0.033 A 
ATOM     21  C5  ZIN A   1      18.001  -0.074  13.195  0.00  0.00     0.029 A 
ATOM     22  C4  ZIN A   1      17.376   0.304  14.366  0.00  0.00     0.003 A 
ATOM     23  C3  ZIN A   1      17.820  -0.190  15.579  0.00  0.00     0.007 A 
ATOM     24  C2  ZIN A   1      18.890  -1.065  15.622  0.00  0.00    -0.060 A 
ATOM     25  C1  ZIN A   1      19.370  -1.602  16.946  0.00  0.00     0.048 C 
ATOM     26  C24 ZIN A   1      19.523  -1.444  14.455  0.00  0.00     0.036 A 
ENDBRANCH  18  20
ENDBRANCH   1  18
TORSDOF 5
ENDMDL
MODEL 5
REMARK VINA RESULT:      -7.8      2.976      5.686
REMARK  5 active torsions:
REMARK  status: ('A' for Active; 'I' for Inactive)
REMARK    1  A    between atoms: C6_6  and  N7_7 
REMARK    2  A    between atoms: N7_7  and  C8_8 
REMARK    3  A    between atoms: C13_13  and  S14_14 
REMARK    4  A    between atoms: S14_14  and  N17_17 
REMARK       I    between atoms: C18_18  and  N20_20 
REMARK    5  A    between atoms: N20_20  and  C21_21 
ROOT
ATOM      1  C8  ZIN A   1      17.986   0.468  11.808  0.00  0.00     0.059 A 
ATOM      2  C9  ZIN A   1      18.138   1.719  12.405  0.00  0.00     0.050 A 
ATOM      3  C10 ZIN A   1      18.911   1.831  13.541  0.00  0.00     0.118 A 
ATOM      4  N11 ZIN A   1      19.504   0.774  14.063  0.00  0.00    -0.271 NA
ATOM      5  C12 ZIN A   1      19.385  -0.428  13.529  0.00  0.00     0.144 A 
ATOM      6  C13 ZIN A   1      18.625  -0.625  12.395  0.00  0.00     0.125 A 
ENDROOT
BRANCH   6   7
ATOM      7  S14 ZIN A   1      18.474  -2.233  11.690  0.00  0.00     0.290 S 
ATOM      8  O15 ZIN A   1      19.279  -3.095  12.480  0.00  0.00    -0.198 OA
ATOM      9  O16 ZIN A   1      17.086  -2.447  11.473  0.00  0.00    -0.198 OA
BRANCH   7  10
ATOM     10  N17 ZIN A   1      19.178  -2.178  10.191  0.00  0.00    -0.115 NA
ATOM     11  C18 ZIN A   1      18.982  -3.147   9.345  0.00  0.00     0.284 C 
ATOM     12  O19 ZIN A   1      18.204  -4.197   9.688  0.00  0.00    -0.149 OA
ATOM     13  N20 ZIN A   1      19.566  -3.101   8.103  0.00  0.00    -0.348 N 
ATOM     14  H35 ZIN A   1      20.125  -2.348   7.857  0.00  0.00     0.163 HD
BRANCH  13  15
ATOM     15  C21 ZIN A   1      19.346  -4.192   7.150  0.00  0.00     0.077 C 
ATOM     16  C22 ZIN A   1      19.248  -3.620   5.734  0.00  0.00     0.032 C 
ATOM     17  C23 ZIN A   1      20.514  -5.176   7.222  0.00  0.00     0.032 C 
ENDBRANCH  13  15
ENDBRANCH   7  10
ENDBRANCH   6   7
BRANCH   1  18
ATOM     18  N7  ZIN A   1      17.214   0.312  10.660  0.00  0.00    -0.355 N 
ATOM     19  H31 ZIN A   1      16.299  -0.001  10.729  0.00  0.00     0.166 HD
BRANCH  18  20
ATOM     20  C6  ZIN A   1      17.758   0.607   9.407  0.00  0.00     0.033 A 
ATOM     21  C5  ZIN A   1      18.761   1.563   9.291  0.00  0.00     0.029 A 
ATOM     22  C4  ZIN A   1      19.296   1.852   8.052  0.00  0.00     0.003 A 
ATOM     23  C3  ZIN A   1      18.836   1.192   6.927  0.00  0.00     0.007 A 
ATOM     24  C2  ZIN A   1      17.838   0.241   7.039  0.00  0.00    -0.060 A 
ATOM     25  C1  ZIN A   1      17.339  -0.475   5.811  0.00  0.00     0.048 C 
ATOM     26  C24 ZIN A   1      17.294  -0.049   8.275  0.00  0.00     0.036 A 
ENDBRANCH  18  20
ENDBRANCH   1  18
TORSDOF 5
ENDMDL
MODEL 6
REMARK VINA RESULT:      -7.7      1.803      6.571
REMARK  5 active torsions:
REMARK  status: ('A' for Active; 'I' for Inactive)
REMARK    1  A    between atoms: C6_6  and  N7_7 
REMARK    2  A    between atoms: N7_7  and  C8_8 
REMARK    3  A    between atoms: C13_13  and  S14_14 
REMARK    4  A    between atoms: S14_14  and  N17_17 
REMARK       I    between atoms: C18_18  and  N20_20 
REMARK    5  A    between atoms: N20_20  and  C21_21 
ROOT
ATOM      1  C8  ZIN A   1      19.029   1.271  13.803  0.00  0.00     0.059 A 
ATOM      2  C9  ZIN A   1      18.527   1.622  15.056  0.00  0.00     0.050 A 
ATOM      3  C10 ZIN A   1      18.023   0.635  15.878  0.00  0.00     0.118 A 
ATOM      4  N11 ZIN A   1      18.013  -0.626  15.492  0.00  0.00    -0.271 NA
ATOM      5  C12 ZIN A   1      18.478  -1.000  14.314  0.00  0.00     0.144 A 
ATOM      6  C13 ZIN A   1      18.994  -0.074  13.432  0.00  0.00     0.125 A 
ENDROOT
BRANCH   6   7
ATOM      7  S14 ZIN A   1      19.613  -0.583  11.863  0.00  0.00     0.290 S 
ATOM      8  O15 ZIN A   1      20.823   0.133  11.657  0.00  0.00    -0.198 OA
ATOM      9  O16 ZIN A   1      19.536  -2.001  11.842  0.00  0.00    -0.198 OA
BRANCH   7  10
ATOM     10  N17 ZIN A   1      18.548  -0.040  10.716  0.00  0.00    -0.115 NA
ATOM     11  C18 ZIN A   1      18.824  -0.182   9.452  0.00  0.00     0.284 C 
ATOM     12  O19 ZIN A   1      19.980  -0.773   9.076  0.00  0.00    -0.149 OA
ATOM     13  N20 ZIN A   1      17.941   0.268   8.502  0.00  0.00    -0.348 N 
ATOM     14  H35 ZIN A   1      17.112   0.693   8.773  0.00  0.00     0.163 HD
BRANCH  13  15
ATOM     15  C21 ZIN A   1      18.252   0.108   7.079  0.00  0.00     0.077 C 
ATOM     16  C22 ZIN A   1      16.955  -0.090   6.293  0.00  0.00     0.032 C 
ATOM     17  C23 ZIN A   1      18.970   1.360   6.571  0.00  0.00     0.032 C 
ENDBRANCH  13  15
ENDBRANCH   7  10
ENDBRANCH   6   7
BRANCH   1  18
ATOM     18  N7  ZIN A   1      19.546   2.236  12.945  0.00  0.00    -0.355 N 
ATOM     19  H31 ZIN A   1      20.501   2.278  12.780  0.00  0.00     0.166 HD
BRANCH  18  20
ATOM     20  C6  ZIN A   1      18.690   3.145  12.318  0.00  0.00     0.033 A 
ATOM     21  C5  ZIN A   1      18.678   3.248  10.931  0.00  0.00     0.029 A 
ATOM     22  C4  ZIN A   1      17.831   4.147  10.314  0.00  0.00     0.003 A 
ATOM     23  C3  ZIN A   1      16.995   4.945  11.074  0.00  0.00     0.007 A 
ATOM     24  C2  ZIN A   1      17.004   4.845  12.453  0.00  0.00    -0.060 A 
ATOM     25  C1  ZIN A   1      16.091   5.716  13.277  0.00  0.00     0.048 C 
ATOM     26  C24 ZIN A   1      17.853   3.952  13.078  0.00  0.00     0.036 A 
ENDBRANCH  18  20
ENDBRANCH   1  18
TORSDOF 5
ENDMDL
MODEL 7
REMARK VINA RESULT:      -7.6      3.139      4.546
REMARK  5 active torsions:
REMARK  status: ('A' for Active; 'I' for Inactive)
REMARK    1  A    between atoms: C6_6  and  N7_7 
REMARK    2  A    between atoms: N7_7  and  C8_8 
REMARK    3  A    between atoms: C13_13  and  S14_14 
REMARK    4  A    between atoms: S14_14  and  N17_17 
REMARK       I    between atoms: C18_18  and  N20_20 
REMARK    5  A    between atoms: N20_20  and  C21_21 
ROOT
ATOM      1  C8  ZIN A   1      18.248  -0.416   9.631  0.00  0.00     0.059 A 
ATOM      2  C9  ZIN A   1      18.515  -1.784   9.580  0.00  0.00     0.050 A 
ATOM      3  C10 ZIN A   1      19.257  -2.361  10.590  0.00  0.00     0.118 A 
ATOM      4  N11 ZIN A   1      19.711  -1.635  11.595  0.00  0.00    -0.271 NA
ATOM      5  C12 ZIN A   1      19.480  -0.338  11.679  0.00  0.00     0.144 A 
ATOM      6  C13 ZIN A   1      18.752   0.315  10.708  0.00  0.00     0.125 A 
ENDROOT
BRANCH   6   7
ATOM      7  S14 ZIN A   1      18.448   2.047  10.831  0.00  0.00     0.290 S 
ATOM      8  O15 ZIN A   1      19.171   2.657   9.771  0.00  0.00    -0.198 OA
ATOM      9  O16 ZIN A   1      17.047   2.197  11.004  0.00  0.00    -0.198 OA
BRANCH   7  10
ATOM     10  N17 ZIN A   1      19.152   2.568  12.237  0.00  0.00    -0.115 NA
ATOM     11  C18 ZIN A   1      19.018   3.807  12.610  0.00  0.00     0.284 C 
ATOM     12  O19 ZIN A   1      18.307   4.669  11.851  0.00  0.00    -0.149 OA
ATOM     13  N20 ZIN A   1      19.601   4.239  13.776  0.00  0.00    -0.348 N 
ATOM     14  H35 ZIN A   1      20.113   3.621  14.321  0.00  0.00     0.163 HD
BRANCH  13  15
ATOM     15  C21 ZIN A   1      19.452   5.635  14.197  0.00  0.00     0.077 C 
ATOM     16  C22 ZIN A   1      18.371   5.729  15.275  0.00  0.00     0.032 C 
ATOM     17  C23 ZIN A   1      20.780   6.142  14.761  0.00  0.00     0.032 C 
ENDBRANCH  13  15
ENDBRANCH   7  10
ENDBRANCH   6   7
BRANCH   1  18
ATOM     18  N7  ZIN A   1      17.504   0.204   8.632  0.00  0.00    -0.355 N 
ATOM     19  H31 ZIN A   1      16.699   0.696   8.860  0.00  0.00     0.166 HD
BRANCH  18  20
ATOM     20  C6  ZIN A   1      17.914   0.119   7.299  0.00  0.00     0.033 A 
ATOM     21  C5  ZIN A   1      18.879   0.992   6.810  0.00  0.00     0.029 A 
ATOM     22  C4  ZIN A   1      19.283   0.906   5.493  0.00  0.00     0.003 A 
ATOM     23  C3  ZIN A   1      18.729  -0.049   4.660  0.00  0.00     0.007 A 
ATOM     24  C2  ZIN A   1      17.769  -0.919   5.143  0.00  0.00    -0.060 A 
ATOM     25  C1  ZIN A   1      17.167  -1.957   4.231  0.00  0.00     0.048 C 
ATOM     26  C24 ZIN A   1      17.356  -0.835   6.458  0.00  0.00     0.036 A 
ENDBRANCH  18  20
ENDBRANCH   1  18
TORSDOF 5
ENDMDL
MODEL 8
REMARK VINA RESULT:      -7.6      3.108      6.461
REMARK  5 active torsions:
REMARK  status: ('A' for Active; 'I' for Inactive)
REMARK    1  A    between atoms: C6_6  and  N7_7 
REMARK    2  A    between atoms: N7_7  and  C8_8 
REMARK    3  A    between atoms: C13_13  and  S14_14 
REMARK    4  A    between atoms: S14_14  and  N17_17 
REMARK       I    between atoms: C18_18  and  N20_20 
REMARK    5  A    between atoms: N20_20  and  C21_21 
ROOT
ATOM      1  C8  ZIN A   1      18.235   3.623  13.993  0.00  0.00     0.059 A 
ATOM      2  C9  ZIN A   1      17.667   4.599  14.812  0.00  0.00     0.050 A 
ATOM      3  C10 ZIN A   1      16.767   5.491  14.268  0.00  0.00     0.118 A 
ATOM      4  N11 ZIN A   1      16.442   5.429  12.991  0.00  0.00    -0.271 NA
ATOM      5  C12 ZIN A   1      16.957   4.521  12.182  0.00  0.00     0.144 A 
ATOM      6  C13 ZIN A   1      17.868   3.597  12.647  0.00  0.00     0.125 A 
ENDROOT
BRANCH   6   7
ATOM      7  S14 ZIN A   1      18.548   2.388  11.560  0.00  0.00     0.290 S 
ATOM      8  O15 ZIN A   1      17.866   2.532  10.322  0.00  0.00    -0.198 OA
ATOM      9  O16 ZIN A   1      19.960   2.485  11.685  0.00  0.00    -0.198 OA
BRANCH   7  10
ATOM     10  N17 ZIN A   1      18.127   0.900  12.155  0.00  0.00    -0.115 NA
ATOM     11  C18 ZIN A   1      18.464  -0.177  11.509  0.00  0.00     0.284 C 
ATOM     12  O19 ZIN A   1      19.156  -0.084  10.353  0.00  0.00    -0.149 OA
ATOM     13  N20 ZIN A   1      18.115  -1.410  12.003  0.00  0.00    -0.348 N 
ATOM     14  H35 ZIN A   1      17.617  -1.477  12.833  0.00  0.00     0.163 HD
BRANCH  13  15
ATOM     15  C21 ZIN A   1      18.493  -2.625  11.276  0.00  0.00     0.077 C 
ATOM     16  C22 ZIN A   1      19.755  -3.221  11.901  0.00  0.00     0.032 C 
ATOM     17  C23 ZIN A   1      17.354  -3.643  11.356  0.00  0.00     0.032 C 
ENDBRANCH  13  15
ENDBRANCH   7  10
ENDBRANCH   6   7
BRANCH   1  18
ATOM     18  N7  ZIN A   1      19.147   2.704  14.503  0.00  0.00    -0.355 N 
ATOM     19  H31 ZIN A   1      19.975   2.527  14.030  0.00  0.00     0.166 HD
BRANCH  18  20
ATOM     20  C6  ZIN A   1      18.871   2.035  15.699  0.00  0.00     0.033 A 
ATOM     21  C5  ZIN A   1      19.354   2.534  16.903  0.00  0.00     0.029 A 
ATOM     22  C4  ZIN A   1      19.080   1.871  18.083  0.00  0.00     0.003 A 
ATOM     23  C3  ZIN A   1      18.325   0.713  18.067  0.00  0.00     0.007 A 
ATOM     24  C2  ZIN A   1      17.842   0.214  16.871  0.00  0.00    -0.060 A 
ATOM     25  C1  ZIN A   1      17.020  -1.048  16.859  0.00  0.00     0.048 C 
ATOM     26  C24 ZIN A   1      18.117   0.869  15.686  0.00  0.00     0.036 A 
ENDBRANCH  18  20
ENDBRANCH   1  18
TORSDOF 5
ENDMDL
MODEL 9
REMARK VINA RESULT:      -7.5      3.259      4.337
REMARK  5 active torsions:
REMARK  status: ('A' for Active; 'I' for Inactive)
REMARK    1  A    between atoms: C6_6  and  N7_7 
REMARK    2  A    between atoms: N7_7  and  C8_8 
REMARK    3  A    between atoms: C13_13  and  S14_14 
REMARK    4  A    between atoms: S14_14  and  N17_17 
REMARK       I    between atoms: C18_18  and  N20_20 
REMARK    5  A    between atoms: N20_20  and  C21_21 
ROOT
ATOM      1  C8  ZIN A   1      19.195  -0.943   9.581  0.00  0.00     0.059 A 
ATOM      2  C9  ZIN A   1      18.822  -1.268   8.277  0.00  0.00     0.050 A 
ATOM      3  C10 ZIN A   1      18.492  -0.255   7.401  0.00  0.00     0.118 A 
ATOM      4  N11 ZIN A   1      18.528   1.008   7.783  0.00  0.00    -0.271 NA
ATOM      5  C12 ZIN A   1      18.876   1.357   9.008  0.00  0.00     0.144 A 
ATOM      6  C13 ZIN A   1      19.214   0.404   9.945  0.00  0.00     0.125 A 
ENDROOT
BRANCH   6   7
ATOM      7  S14 ZIN A   1      19.678   0.882  11.577  0.00  0.00     0.290 S 
ATOM      8  O15 ZIN A   1      21.000   0.402  11.775  0.00  0.00    -0.198 OA
ATOM      9  O16 ZIN A   1      19.319   2.249  11.712  0.00  0.00    -0.198 OA
BRANCH   7  10
ATOM     10  N17 ZIN A   1      18.713   0.038  12.627  0.00  0.00    -0.115 NA
ATOM     11  C18 ZIN A   1      18.896   0.149  13.910  0.00  0.00     0.284 C 
ATOM     12  O19 ZIN A   1      19.874   0.952  14.386  0.00  0.00    -0.149 OA
ATOM     13  N20 ZIN A   1      18.096  -0.550  14.780  0.00  0.00    -0.348 N 
ATOM     14  H35 ZIN A   1      17.395  -1.126  14.438  0.00  0.00     0.163 HD
BRANCH  13  15
ATOM     15  C21 ZIN A   1      18.303  -0.425  16.226  0.00  0.00     0.077 C 
ATOM     16  C22 ZIN A   1      16.956  -0.523  16.943  0.00  0.00     0.032 C 
ATOM     17  C23 ZIN A   1      19.220  -1.551  16.708  0.00  0.00     0.032 C 
ENDBRANCH  13  15
ENDBRANCH   7  10
ENDBRANCH   6   7
BRANCH   1  18
ATOM     18  N7  ZIN A   1      19.535  -1.935  10.496  0.00  0.00    -0.355 N 
ATOM     19  H31 ZIN A   1      20.280  -1.802  11.102  0.00  0.00     0.166 HD
BRANCH  18  20
ATOM     20  C6  ZIN A   1      18.801  -3.124  10.543  0.00  0.00     0.033 A 
ATOM     21  C5  ZIN A   1      17.730  -3.247  11.420  0.00  0.00     0.029 A 
ATOM     22  C4  ZIN A   1      17.007  -4.422  11.464  0.00  0.00     0.003 A 
ATOM     23  C3  ZIN A   1      17.348  -5.476  10.636  0.00  0.00     0.007 A 
ATOM     24  C2  ZIN A   1      18.413  -5.357   9.762  0.00  0.00    -0.060 A 
ATOM     25  C1  ZIN A   1      18.781  -6.509   8.863  0.00  0.00     0.048 C 
ATOM     26  C24 ZIN A   1      19.144  -4.187   9.717  0.00  0.00     0.036 A 
ENDBRANCH  18  20
ENDBRANCH   1  18
TORSDOF 5
ENDMDL
