MODEL 1
REMARK VINA RESULT:      -7.3      0.000      0.000
REMARK  6 active torsions:
REMARK  status: ('A' for Active; 'I' for Inactive)
REMARK    1  A    between atoms: N2_2  and  C4_4 
REMARK    2  A    between atoms: C4_4  and  C5_5 
REMARK    3  A    between atoms: C5_5  and  C6_6 
REMARK    4  A    between atoms: C6_6  and  O7_7 
REMARK    5  A    between atoms: C6_6  and  C8_8 
REMARK    6  A    between atoms: C6_6  and  C14_14 
ROOT
ATOM      1  C6  ZIN A   1      20.035  -0.466  10.818  0.00  0.00     0.115 C 
ENDROOT
BRANCH   1   2
ATOM      2  C5  ZIN A   1      19.610   0.555  11.874  0.00  0.00     0.078 C 
BRANCH   2   3
ATOM      3  C4  ZIN A   1      20.441   0.353  13.143  0.00  0.00     0.275 C 
BRANCH   3   4
ATOM      4  N2  ZIN A   1      19.550   0.296  14.309  0.00  0.00     0.080 N 
ATOM      5  C1  ZIN A   1      18.306   1.038  14.059  0.00  0.00     0.309 C 
ATOM      6  C3  ZIN A   1      19.266  -1.094  14.688  0.00  0.00     0.309 C 
ENDBRANCH   3   4
ENDBRANCH   2   3
ENDBRANCH   1   2
BRANCH   1   7
ATOM      7  O7  ZIN A   1      21.456  -0.620  10.850  0.00  0.00    -0.380 OA
ATOM      8  H31 ZIN A   1      21.752  -1.540  10.832  0.00  0.00     0.211 HD
ENDBRANCH   1   7
BRANCH   1   9
ATOM      9  C8  ZIN A   1      19.613   0.017   9.454  0.00  0.00    -0.019 A 
ATOM     10  C13 ZIN A   1      19.459  -0.885   8.418  0.00  0.00     0.010 A 
ATOM     11  C12 ZIN A   1      19.068  -0.442   7.168  0.00  0.00     0.001 A 
ATOM     12  C11 ZIN A   1      18.840   0.904   6.953  0.00  0.00     0.000 A 
ATOM     13  C10 ZIN A   1      18.998   1.807   7.987  0.00  0.00     0.001 A 
ATOM     14  C9  ZIN A   1      19.385   1.363   9.238  0.00  0.00     0.010 A 
ENDBRANCH   1   9
BRANCH   1  15
ATOM     15  C14 ZIN A   1      19.379  -1.791  11.107  0.00  0.00     0.002 A 
ATOM     16  C19 ZIN A   1      18.004  -1.868  11.238  0.00  0.00     0.043 A 
ATOM     17  C18 ZIN A   1      17.401  -3.087  11.497  0.00  0.00     0.024 A 
ATOM     18 Cl20 ZIN A   1      17.033  -0.440  11.061  0.00  0.00    -0.084 Cl
ATOM     19  C17 ZIN A   1      18.175  -4.224  11.638  0.00  0.00     0.002 A 
ATOM     20  C16 ZIN A   1      19.549  -4.144  11.514  0.00  0.00     0.001 A 
ATOM     21  C15 ZIN A   1      20.151  -2.928  11.248  0.00  0.00     0.012 A 
ENDBRANCH   1  15
TORSDOF 6
ENDMDL
MODEL 2
REMARK VINA RESULT:      -7.0      2.594      3.448
REMARK  6 active torsions:
REMARK  status: ('A' for Active; 'I' for Inactive)
REMARK    1  A    between atoms: N2_2  and  C4_4 
REMARK    2  A    between atoms: C4_4  and  C5_5 
REMARK    3  A    between atoms: C5_5  and  C6_6 
REMARK    4  A    between atoms: C6_6  and  O7_7 
REMARK    5  A    between atoms: C6_6  and  C8_8 
REMARK    6  A    between atoms: C6_6  and  C14_14 
ROOT
ATOM      1  C6  ZIN A   1      18.685   1.736  10.446  0.00  0.00     0.115 C 
ENDROOT
BRANCH   1   2
ATOM      2  C5  ZIN A   1      17.647   2.810  10.778  0.00  0.00     0.078 C 
BRANCH   2   3
ATOM      3  C4  ZIN A   1      18.323   4.181  10.807  0.00  0.00     0.275 C 
BRANCH   3   4
ATOM      4  N2  ZIN A   1      17.943   4.890  12.035  0.00  0.00     0.080 N 
ATOM      5  C1  ZIN A   1      16.497   5.152  12.066  0.00  0.00     0.309 C 
ATOM      6  C3  ZIN A   1      18.368   4.145  13.227  0.00  0.00     0.309 C 
ENDBRANCH   3   4
ENDBRANCH   2   3
ENDBRANCH   1   2
BRANCH   1   7
ATOM      7  O7  ZIN A   1      19.995   2.305  10.508  0.00  0.00    -0.380 OA
ATOM      8  H31 ZIN A   1      20.007   3.237  10.764  0.00  0.00     0.211 HD
ENDBRANCH   1   7
BRANCH   1   9
ATOM      9  C8  ZIN A   1      18.434   1.207   9.057  0.00  0.00    -0.019 A 
ATOM     10  C13 ZIN A   1      17.468   0.241   8.848  0.00  0.00     0.010 A 
ATOM     11  C12 ZIN A   1      17.234  -0.240   7.573  0.00  0.00     0.001 A 
ATOM     12  C11 ZIN A   1      17.974   0.238   6.509  0.00  0.00     0.000 A 
ATOM     13  C10 ZIN A   1      18.943   1.201   6.717  0.00  0.00     0.001 A 
ATOM     14  C9  ZIN A   1      19.174   1.686   7.992  0.00  0.00     0.010 A 
ENDBRANCH   1   9
BRANCH   1  15
ATOM     15  C14 ZIN A   1      18.578   0.609  11.440  0.00  0.00     0.002 A 
ATOM     16  C19 ZIN A   1      19.497  -0.425  11.413  0.00  0.00     0.043 A 
ATOM     17  C18 ZIN A   1      19.403  -1.457  12.331  0.00  0.00     0.024 A 
ATOM     18 Cl20 ZIN A   1      20.777  -0.421  10.240  0.00  0.00    -0.084 Cl
ATOM     19  C17 ZIN A   1      18.384  -1.460  13.265  0.00  0.00     0.002 A 
ATOM     20  C16 ZIN A   1      17.463  -0.429  13.286  0.00  0.00     0.001 A 
ATOM     21  C15 ZIN A   1      17.560   0.605  12.374  0.00  0.00     0.012 A 
ENDBRANCH   1  15
TORSDOF 6
ENDMDL
MODEL 3
REMARK VINA RESULT:      -6.9      2.478      4.325
REMARK  6 active torsions:
REMARK  status: ('A' for Active; 'I' for Inactive)
REMARK    1  A    between atoms: N2_2  and  C4_4 
REMARK    2  A    between atoms: C4_4  and  C5_5 
REMARK    3  A    between atoms: C5_5  and  C6_6 
REMARK    4  A    between atoms: C6_6  and  O7_7 
REMARK    5  A    between atoms: C6_6  and  C8_8 
REMARK    6  A    between atoms: C6_6  and  C14_14 
ROOT
ATOM      1  C6  ZIN A   1      19.055   2.029  11.076  0.00  0.00     0.115 C 
ENDROOT
BRANCH   1   2
ATOM      2  C5  ZIN A   1      18.820   0.992  12.175  0.00  0.00     0.078 C 
BRANCH   2   3
ATOM      3  C4  ZIN A   1      20.165   0.455  12.665  0.00  0.00     0.275 C 
BRANCH   3   4
ATOM      4  N2  ZIN A   1      20.041   0.023  14.063  0.00  0.00     0.080 N 
ATOM      5  C1  ZIN A   1      19.275   1.000  14.851  0.00  0.00     0.309 C 
ATOM      6  C3  ZIN A   1      19.437  -1.313  14.151  0.00  0.00     0.309 C 
ENDBRANCH   3   4
ENDBRANCH   2   3
ENDBRANCH   1   2
BRANCH   1   7
ATOM      7  O7  ZIN A   1      20.430   2.418  11.075  0.00  0.00    -0.380 OA
ATOM      8  H31 ZIN A   1      20.602   3.256  10.622  0.00  0.00     0.211 HD
ENDBRANCH   1   7
BRANCH   1   9
ATOM      9  C8  ZIN A   1      18.192   3.238  11.333  0.00  0.00    -0.019 A 
ATOM     10  C13 ZIN A   1      17.798   4.044  10.282  0.00  0.00     0.010 A 
ATOM     11  C12 ZIN A   1      17.003   5.150  10.517  0.00  0.00     0.001 A 
ATOM     12  C11 ZIN A   1      16.610   5.455  11.806  0.00  0.00     0.000 A 
ATOM     13  C10 ZIN A   1      17.007   4.653  12.859  0.00  0.00     0.001 A 
ATOM     14  C9  ZIN A   1      17.799   3.544  12.623  0.00  0.00     0.010 A 
ENDBRANCH   1   9
BRANCH   1  15
ATOM     15  C14 ZIN A   1      18.700   1.434   9.738  0.00  0.00     0.002 A 
ATOM     16  C19 ZIN A   1      17.635   0.557   9.632  0.00  0.00     0.043 A 
ATOM     17  C18 ZIN A   1      17.305   0.015   8.403  0.00  0.00     0.024 A 
ATOM     18 Cl20 ZIN A   1      16.703   0.148  11.039  0.00  0.00    -0.084 Cl
ATOM     19  C17 ZIN A   1      18.048   0.341   7.283  0.00  0.00     0.002 A 
ATOM     20  C16 ZIN A   1      19.115   1.212   7.392  0.00  0.00     0.001 A 
ATOM     21  C15 ZIN A   1      19.441   1.759   8.618  0.00  0.00     0.012 A 
ENDBRANCH   1  15
TORSDOF 6
ENDMDL
MODEL 4
REMARK VINA RESULT:      -6.8      2.189      5.872
REMARK  6 active torsions:
REMARK  status: ('A' for Active; 'I' for Inactive)
REMARK    1  A    between atoms: N2_2  and  C4_4 
REMARK    2  A    between atoms: C4_4  and  C5_5 
REMARK    3  A    between atoms: C5_5  and  C6_6 
REMARK    4  A    between atoms: C6_6  and  O7_7 
REMARK    5  A    between atoms: C6_6  and  C8_8 
REMARK    6  A    between atoms: C6_6  and  C14_14 
ROOT
ATOM      1  C6  ZIN A   1      20.019   0.470  12.354  0.00  0.00     0.115 C 
ENDROOT
BRANCH   1   2
ATOM      2  C5  ZIN A   1      19.621  -0.640  11.379  0.00  0.00     0.078 C 
BRANCH   2   3
ATOM      3  C4  ZIN A   1      20.294  -0.396  10.027  0.00  0.00     0.275 C 
BRANCH   3   4
ATOM      4  N2  ZIN A   1      19.268  -0.248   8.988  0.00  0.00     0.080 N 
ATOM      5  C1  ZIN A   1      19.376   1.058   8.322  0.00  0.00     0.309 C 
ATOM      6  C3  ZIN A   1      19.344  -1.344   8.012  0.00  0.00     0.309 C 
ENDBRANCH   3   4
ENDBRANCH   2   3
ENDBRANCH   1   2
BRANCH   1   7
ATOM      7  O7  ZIN A   1      21.437   0.643  12.326  0.00  0.00    -0.380 OA
ATOM      8  H31 ZIN A   1      21.731   1.530  12.575  0.00  0.00     0.211 HD
ENDBRANCH   1   7
BRANCH   1   9
ATOM      9  C8  ZIN A   1      19.586   0.094  13.748  0.00  0.00    -0.019 A 
ATOM     10  C13 ZIN A   1      19.390   1.075  14.701  0.00  0.00     0.010 A 
ATOM     11  C12 ZIN A   1      18.989   0.730  15.978  0.00  0.00     0.001 A 
ATOM     12  C11 ZIN A   1      18.793  -0.599  16.303  0.00  0.00     0.000 A 
ATOM     13  C10 ZIN A   1      18.993  -1.582  15.353  0.00  0.00     0.001 A 
ATOM     14  C9  ZIN A   1      19.390  -1.235  14.074  0.00  0.00     0.010 A 
ENDBRANCH   1   9
BRANCH   1  15
ATOM     15  C14 ZIN A   1      19.348   1.758  11.950  0.00  0.00     0.002 A 
ATOM     16  C19 ZIN A   1      17.985   1.784  11.718  0.00  0.00     0.043 A 
ATOM     17  C18 ZIN A   1      17.368   2.968  11.353  0.00  0.00     0.024 A 
ATOM     18 Cl20 ZIN A   1      17.044   0.336  11.899  0.00  0.00    -0.084 Cl
ATOM     19  C17 ZIN A   1      18.118   4.121  11.209  0.00  0.00     0.002 A 
ATOM     20  C16 ZIN A   1      19.481   4.092  11.435  0.00  0.00     0.001 A 
ATOM     21  C15 ZIN A   1      20.096   2.911  11.806  0.00  0.00     0.012 A 
ENDBRANCH   1  15
TORSDOF 6
ENDMDL
MODEL 5
REMARK VINA RESULT:      -6.6      2.283      5.482
REMARK  6 active torsions:
REMARK  status: ('A' for Active; 'I' for Inactive)
REMARK    1  A    between atoms: N2_2  and  C4_4 
REMARK    2  A    between atoms: C4_4  and  C5_5 
REMARK    3  A    between atoms: C5_5  and  C6_6 
REMARK    4  A    between atoms: C6_6  and  O7_7 
REMARK    5  A    between atoms: C6_6  and  C8_8 
REMARK    6  A    between atoms: C6_6  and  C14_14 
ROOT
ATOM      1  C6  ZIN A   1      18.925  -1.739  12.096  0.00  0.00     0.115 C 
ENDROOT
BRANCH   1   2
ATOM      2  C5  ZIN A   1      17.989  -2.921  11.841  0.00  0.00     0.078 C 
BRANCH   2   3
ATOM      3  C4  ZIN A   1      18.818  -4.179  11.573  0.00  0.00     0.275 C 
BRANCH   3   4
ATOM      4  N2  ZIN A   1      18.386  -4.791  10.310  0.00  0.00     0.080 N 
ATOM      5  C1  ZIN A   1      16.931  -4.672  10.137  0.00  0.00     0.309 C 
ATOM      6  C3  ZIN A   1      19.102  -4.206   9.169  0.00  0.00     0.309 C 
ENDBRANCH   3   4
ENDBRANCH   2   3
ENDBRANCH   1   2
BRANCH   1   7
ATOM      7  O7  ZIN A   1      20.282  -2.188  12.058  0.00  0.00    -0.380 OA
ATOM      8  H31 ZIN A   1      20.613  -2.510  12.907  0.00  0.00     0.211 HD
ENDBRANCH   1   7
BRANCH   1   9
ATOM      9  C8  ZIN A   1      18.631  -1.149  13.452  0.00  0.00    -0.019 A 
ATOM     10  C13 ZIN A   1      19.344  -1.568  14.559  0.00  0.00     0.010 A 
ATOM     11  C12 ZIN A   1      19.077  -1.023  15.801  0.00  0.00     0.001 A 
ATOM     12  C11 ZIN A   1      18.089  -0.066  15.937  0.00  0.00     0.000 A 
ATOM     13  C10 ZIN A   1      17.373   0.351  14.831  0.00  0.00     0.001 A 
ATOM     14  C9  ZIN A   1      17.643  -0.191  13.588  0.00  0.00     0.010 A 
ENDBRANCH   1   9
BRANCH   1  15
ATOM     15  C14 ZIN A   1      18.713  -0.691  11.035  0.00  0.00     0.002 A 
ATOM     16  C19 ZIN A   1      19.549   0.410  10.973  0.00  0.00     0.043 A 
ATOM     17  C18 ZIN A   1      19.357   1.369   9.994  0.00  0.00     0.024 A 
ATOM     18 Cl20 ZIN A   1      20.847   0.581  12.113  0.00  0.00    -0.084 Cl
ATOM     19  C17 ZIN A   1      18.324   1.233   9.086  0.00  0.00     0.002 A 
ATOM     20  C16 ZIN A   1      17.486   0.136   9.153  0.00  0.00     0.001 A 
ATOM     21  C15 ZIN A   1      17.680  -0.826  10.127  0.00  0.00     0.012 A 
ENDBRANCH   1  15
TORSDOF 6
ENDMDL
MODEL 6
REMARK VINA RESULT:      -6.6      2.869      4.054
REMARK  6 active torsions:
REMARK  status: ('A' for Active; 'I' for Inactive)
REMARK    1  A    between atoms: N2_2  and  C4_4 
REMARK    2  A    between atoms: C4_4  and  C5_5 
REMARK    3  A    between atoms: C5_5  and  C6_6 
REMARK    4  A    between atoms: C6_6  and  O7_7 
REMARK    5  A    between atoms: C6_6  and  C8_8 
REMARK    6  A    between atoms: C6_6  and  C14_14 
ROOT
ATOM      1  C6  ZIN A   1      18.820   2.277  12.017  0.00  0.00     0.115 C 
ENDROOT
BRANCH   1   2
ATOM      2  C5  ZIN A   1      17.768   3.346  12.318  0.00  0.00     0.078 C 
BRANCH   2   3
ATOM      3  C4  ZIN A   1      18.415   4.731  12.253  0.00  0.00     0.275 C 
BRANCH   3   4
ATOM      4  N2  ZIN A   1      18.221   5.423  13.534  0.00  0.00     0.080 N 
ATOM      5  C1  ZIN A   1      17.082   4.858  14.271  0.00  0.00     0.309 C 
ATOM      6  C3  ZIN A   1      19.444   5.383  14.346  0.00  0.00     0.309 C 
ENDBRANCH   3   4
ENDBRANCH   2   3
ENDBRANCH   1   2
BRANCH   1   7
ATOM      7  O7  ZIN A   1      20.120   2.870  12.038  0.00  0.00    -0.380 OA
ATOM      8  H31 ZIN A   1      20.114   3.835  11.982  0.00  0.00     0.211 HD
ENDBRANCH   1   7
BRANCH   1   9
ATOM      9  C8  ZIN A   1      18.560   1.686  10.655  0.00  0.00    -0.019 A 
ATOM     10  C13 ZIN A   1      19.263   2.143   9.557  0.00  0.00     0.010 A 
ATOM     11  C12 ZIN A   1      19.028   1.596   8.309  0.00  0.00     0.001 A 
ATOM     12  C11 ZIN A   1      18.083   0.600   8.159  0.00  0.00     0.000 A 
ATOM     13  C10 ZIN A   1      17.376   0.145   9.256  0.00  0.00     0.001 A 
ATOM     14  C9  ZIN A   1      17.614   0.689  10.505  0.00  0.00     0.010 A 
ENDBRANCH   1   9
BRANCH   1  15
ATOM     15  C14 ZIN A   1      18.746   1.192  13.059  0.00  0.00     0.002 A 
ATOM     16  C19 ZIN A   1      19.705   0.195  13.089  0.00  0.00     0.043 A 
ATOM     17  C18 ZIN A   1      19.640  -0.798  14.051  0.00  0.00     0.024 A 
ATOM     18 Cl20 ZIN A   1      20.998   0.198  11.931  0.00  0.00    -0.084 Cl
ATOM     19  C17 ZIN A   1      18.610  -0.800  14.973  0.00  0.00     0.002 A 
ATOM     20  C16 ZIN A   1      17.649   0.193  14.938  0.00  0.00     0.001 A 
ATOM     21  C15 ZIN A   1      17.717   1.189  13.982  0.00  0.00     0.012 A 
ENDBRANCH   1  15
TORSDOF 6
ENDMDL
MODEL 7
REMARK VINA RESULT:      -6.5      2.052      4.851
REMARK  6 active torsions:
REMARK  status: ('A' for Active; 'I' for Inactive)
REMARK    1  A    between atoms: N2_2  and  C4_4 
REMARK    2  A    between atoms: C4_4  and  C5_5 
REMARK    3  A    between atoms: C5_5  and  C6_6 
REMARK    4  A    between atoms: C6_6  and  O7_7 
REMARK    5  A    between atoms: C6_6  and  C8_8 
REMARK    6  A    between atoms: C6_6  and  C14_14 
ROOT
ATOM      1  C6  ZIN A   1      19.653  -1.180  11.431  0.00  0.00     0.115 C 
ENDROOT
BRANCH   1   2
ATOM      2  C5  ZIN A   1      18.969  -0.235  10.441  0.00  0.00     0.078 C 
BRANCH   2   3
ATOM      3  C4  ZIN A   1      19.732  -0.247   9.115  0.00  0.00     0.275 C 
BRANCH   3   4
ATOM      4  N2  ZIN A   1      18.808  -0.571   8.021  0.00  0.00     0.080 N 
ATOM      5  C1  ZIN A   1      18.941  -1.979   7.619  0.00  0.00     0.309 C 
ATOM      6  C3  ZIN A   1      17.422  -0.259   8.391  0.00  0.00     0.309 C 
ENDBRANCH   3   4
ENDBRANCH   2   3
ENDBRANCH   1   2
BRANCH   1   7
ATOM      7  O7  ZIN A   1      21.059  -1.201  11.175  0.00  0.00    -0.380 OA
ATOM      8  H31 ZIN A   1      21.295  -1.544  10.302  0.00  0.00     0.211 HD
ENDBRANCH   1   7
BRANCH   1   9
ATOM      9  C8  ZIN A   1      19.093  -2.570  11.269  0.00  0.00    -0.019 A 
ATOM     10  C13 ZIN A   1      19.942  -3.660  11.242  0.00  0.00     0.010 A 
ATOM     11  C12 ZIN A   1      19.427  -4.935  11.098  0.00  0.00     0.001 A 
ATOM     12  C11 ZIN A   1      18.063  -5.118  10.970  0.00  0.00     0.000 A 
ATOM     13  C10 ZIN A   1      17.214  -4.028  10.992  0.00  0.00     0.001 A 
ATOM     14  C9  ZIN A   1      17.729  -2.753  11.141  0.00  0.00     0.010 A 
ENDBRANCH   1   9
BRANCH   1  15
ATOM     15  C14 ZIN A   1      19.406  -0.699  12.837  0.00  0.00     0.002 A 
ATOM     16  C19 ZIN A   1      19.631   0.626  13.165  0.00  0.00     0.043 A 
ATOM     17  C18 ZIN A   1      19.397   1.069  14.455  0.00  0.00     0.024 A 
ATOM     18 Cl20 ZIN A   1      20.190   1.738  11.954  0.00  0.00    -0.084 Cl
ATOM     19  C17 ZIN A   1      18.952   0.184  15.419  0.00  0.00     0.002 A 
ATOM     20  C16 ZIN A   1      18.734  -1.142  15.092  0.00  0.00     0.001 A 
ATOM     21  C15 ZIN A   1      18.961  -1.583  13.801  0.00  0.00     0.012 A 
ENDBRANCH   1  15
TORSDOF 6
ENDMDL
MODEL 8
REMARK VINA RESULT:      -6.4      1.922      4.835
REMARK  6 active torsions:
REMARK  status: ('A' for Active; 'I' for Inactive)
REMARK    1  A    between atoms: N2_2  and  C4_4 
REMARK    2  A    between atoms: C4_4  and  C5_5 
REMARK    3  A    between atoms: C5_5  and  C6_6 
REMARK    4  A    between atoms: C6_6  and  O7_7 
REMARK    5  A    between atoms: C6_6  and  C8_8 
REMARK    6  A    between atoms: C6_6  and  C14_14 
ROOT
ATOM      1  C6  ZIN A   1      19.205  -0.681  12.445  0.00  0.00     0.115 C 
ENDROOT
BRANCH   1   2
ATOM      2  C5  ZIN A   1      18.259   0.251  11.685  0.00  0.00     0.078 C 
BRANCH   2   3
ATOM      3  C4  ZIN A   1      18.713   0.359  10.228  0.00  0.00     0.275 C 
BRANCH   3   4
ATOM      4  N2  ZIN A   1      18.964   1.767   9.896  0.00  0.00     0.080 N 
ATOM      5  C1  ZIN A   1      19.243   1.928   8.462  0.00  0.00     0.309 C 
ATOM      6  C3  ZIN A   1      17.839   2.615  10.312  0.00  0.00     0.309 C 
ENDBRANCH   3   4
ENDBRANCH   2   3
ENDBRANCH   1   2
BRANCH   1   7
ATOM      7  O7  ZIN A   1      20.558  -0.347  12.128  0.00  0.00    -0.380 OA
ATOM      8  H31 ZIN A   1      20.856  -0.686  11.273  0.00  0.00     0.211 HD
ENDBRANCH   1   7
BRANCH   1   9
ATOM      9  C8  ZIN A   1      18.933  -2.108  12.046  0.00  0.00    -0.019 A 
ATOM     10  C13 ZIN A   1      17.632  -2.548  11.891  0.00  0.00     0.010 A 
ATOM     11  C12 ZIN A   1      17.383  -3.857  11.520  0.00  0.00     0.001 A 
ATOM     12  C11 ZIN A   1      18.437  -4.727  11.313  0.00  0.00     0.000 A 
ATOM     13  C10 ZIN A   1      19.738  -4.290  11.472  0.00  0.00     0.001 A 
ATOM     14  C9  ZIN A   1      19.986  -2.980  11.839  0.00  0.00     0.010 A 
ENDBRANCH   1   9
BRANCH   1  15
ATOM     15  C14 ZIN A   1      18.982  -0.522  13.927  0.00  0.00     0.002 A 
ATOM     16  C19 ZIN A   1      19.004   0.737  14.499  0.00  0.00     0.043 A 
ATOM     17  C18 ZIN A   1      18.794   0.883  15.859  0.00  0.00     0.024 A 
ATOM     18 Cl20 ZIN A   1      19.281   2.137  13.509  0.00  0.00    -0.084 Cl
ATOM     19  C17 ZIN A   1      18.573  -0.231  16.647  0.00  0.00     0.002 A 
ATOM     20  C16 ZIN A   1      18.558  -1.490  16.075  0.00  0.00     0.001 A 
ATOM     21  C15 ZIN A   1      18.761  -1.635  14.716  0.00  0.00     0.012 A 
ENDBRANCH   1  15
TORSDOF 6
ENDMDL
MODEL 9
REMARK VINA RESULT:      -6.4      2.426      5.774
REMARK  6 active torsions:
REMARK  status: ('A' for Active; 'I' for Inactive)
REMARK    1  A    between atoms: N2_2  and  C4_4 
REMARK    2  A    between atoms: C4_4  and  C5_5 
REMARK    3  A    between atoms: C5_5  and  C6_6 
REMARK    4  A    between atoms: C6_6  and  O7_7 
REMARK    5  A    between atoms: C6_6  and  C8_8 
REMARK    6  A    between atoms: C6_6  and  C14_14 
ROOT
ATOM      1  C6  ZIN A   1      19.566   0.147  12.990  0.00  0.00     0.115 C 
ENDROOT
BRANCH   1   2
ATOM      2  C5  ZIN A   1      19.062  -1.117  12.292  0.00  0.00     0.078 C 
BRANCH   2   3
ATOM      3  C4  ZIN A   1      20.022  -1.493  11.162  0.00  0.00     0.275 C 
BRANCH   3   4
ATOM      4  N2  ZIN A   1      19.628  -2.788  10.594  0.00  0.00     0.080 N 
ATOM      5  C1  ZIN A   1      20.052  -3.896  11.462  0.00  0.00     0.309 C 
ATOM      6  C3  ZIN A   1      18.181  -2.837  10.347  0.00  0.00     0.309 C 
ENDBRANCH   3   4
ENDBRANCH   2   3
ENDBRANCH   1   2
BRANCH   1   7
ATOM      7  O7  ZIN A   1      20.994   0.126  13.040  0.00  0.00    -0.380 OA
ATOM      8  H31 ZIN A   1      21.420   0.358  12.203  0.00  0.00     0.211 HD
ENDBRANCH   1   7
BRANCH   1   9
ATOM      9  C8  ZIN A   1      19.016   0.200  14.392  0.00  0.00    -0.019 A 
ATOM     10  C13 ZIN A   1      18.428  -0.921  14.948  0.00  0.00     0.010 A 
ATOM     11  C12 ZIN A   1      17.928  -0.873  16.236  0.00  0.00     0.001 A 
ATOM     12  C11 ZIN A   1      18.007   0.298  16.964  0.00  0.00     0.000 A 
ATOM     13  C10 ZIN A   1      18.590   1.421  16.408  0.00  0.00     0.001 A 
ATOM     14  C9  ZIN A   1      19.094   1.372  15.121  0.00  0.00     0.010 A 
ENDBRANCH   1   9
BRANCH   1  15
ATOM     15  C14 ZIN A   1      19.108   1.361  12.224  0.00  0.00     0.002 A 
ATOM     16  C19 ZIN A   1      17.791   1.462  11.812  0.00  0.00     0.043 A 
ATOM     17  C18 ZIN A   1      17.369   2.580  11.114  0.00  0.00     0.024 A 
ATOM     18 Cl20 ZIN A   1      16.664   0.194  12.183  0.00  0.00    -0.084 Cl
ATOM     19  C17 ZIN A   1      18.266   3.589  10.819  0.00  0.00     0.002 A 
ATOM     20  C16 ZIN A   1      19.583   3.484  11.225  0.00  0.00     0.001 A 
ATOM     21  C15 ZIN A   1      20.003   2.371  11.928  0.00  0.00     0.012 A 
ENDBRANCH   1  15
TORSDOF 6
ENDMDL
