MODEL 1
REMARK VINA RESULT:      -7.0      0.000      0.000
REMARK  5 active torsions:
REMARK  status: ('A' for Active; 'I' for Inactive)
REMARK    1  A    between atoms: N2_2  and  C5_5 
REMARK    2  A    between atoms: C5_5  and  C6_6 
REMARK    3  A    between atoms: C6_6  and  C7_7 
REMARK    4  A    between atoms: C7_7  and  C9_8 
REMARK    5  A    between atoms: C7_7  and  C16_15 
ROOT
ATOM      1  C7  ZIN A   1      19.308   2.061  10.676  0.00  0.00     0.072 C 
ENDROOT
BRANCH   1   2
ATOM      2  C6  ZIN A   1      19.333   1.028  11.804  0.00  0.00     0.043 C 
BRANCH   2   3
ATOM      3  C5  ZIN A   1      20.554   0.122  11.638  0.00  0.00     0.235 C 
BRANCH   3   4
ATOM      4  N2  ZIN A   1      20.255  -1.208  12.184  0.00  0.00    -0.079 N 
ATOM      5  C1  ZIN A   1      19.222  -1.091  13.222  0.00  0.00     0.269 C 
ATOM      6  H3  ZIN A   1      21.092  -1.602  12.587  0.00  0.00     0.278 HD
ATOM      7  C4  ZIN A   1      19.772  -2.083  11.108  0.00  0.00     0.269 C 
ENDBRANCH   3   4
ENDBRANCH   2   3
ENDBRANCH   1   2
BRANCH   1   8
ATOM      8  C9  ZIN A   1      18.804   1.412   9.411  0.00  0.00    -0.048 A 
ATOM      9  C15 ZIN A   1      17.733   0.539   9.463  0.00  0.00     0.009 A 
ATOM     10  C14 ZIN A   1      17.268  -0.052   8.304  0.00  0.00     0.024 A 
ATOM     11  C12 ZIN A   1      17.880   0.221   7.093  0.00  0.00     0.034 A 
ATOM     12  C11 ZIN A   1      18.955   1.091   7.044  0.00  0.00     0.024 A 
ATOM     13 Cl13 ZIN A   1      17.301  -0.527   5.638  0.00  0.00    -0.084 Cl
ATOM     14  C10 ZIN A   1      19.416   1.686   8.204  0.00  0.00     0.009 A 
ENDBRANCH   1   8
BRANCH   1  15
ATOM     15  C16 ZIN A   1      18.394   3.198  11.055  0.00  0.00     0.042 A 
ATOM     16  N21 ZIN A   1      17.976   3.310  12.300  0.00  0.00    -0.265 NA
ATOM     17  C20 ZIN A   1      17.180   4.290  12.679  0.00  0.00     0.117 A 
ATOM     18  C19 ZIN A   1      16.742   5.237  11.770  0.00  0.00     0.019 A 
ATOM     19  C18 ZIN A   1      17.156   5.147  10.450  0.00  0.00     0.003 A 
ATOM     20  C17 ZIN A   1      17.998   4.106  10.092  0.00  0.00     0.028 A 
ENDBRANCH   1  15
TORSDOF 5
ENDMDL
MODEL 2
REMARK VINA RESULT:      -6.9      1.473      4.024
REMARK  5 active torsions:
REMARK  status: ('A' for Active; 'I' for Inactive)
REMARK    1  A    between atoms: N2_2  and  C5_5 
REMARK    2  A    between atoms: C5_5  and  C6_6 
REMARK    3  A    between atoms: C6_6  and  C7_7 
REMARK    4  A    between atoms: C7_7  and  C9_8 
REMARK    5  A    between atoms: C7_7  and  C16_15 
ROOT
ATOM      1  C7  ZIN A   1      17.635   1.900  10.995  0.00  0.00     0.072 C 
ENDROOT
BRANCH   1   2
ATOM      2  C6  ZIN A   1      18.162   3.326  11.159  0.00  0.00     0.043 C 
BRANCH   2   3
ATOM      3  C5  ZIN A   1      17.371   4.039  12.257  0.00  0.00     0.235 C 
BRANCH   3   4
ATOM      4  N2  ZIN A   1      18.302   4.617  13.236  0.00  0.00    -0.079 N 
ATOM      5  C1  ZIN A   1      18.324   3.780  14.443  0.00  0.00     0.269 C 
ATOM      6  H3  ZIN A   1      17.999   5.548  13.478  0.00  0.00     0.278 HD
ATOM      7  C4  ZIN A   1      19.650   4.675  12.655  0.00  0.00     0.269 C 
ENDBRANCH   3   4
ENDBRANCH   2   3
ENDBRANCH   1   2
BRANCH   1   8
ATOM      8  C9  ZIN A   1      18.010   1.379   9.630  0.00  0.00    -0.048 A 
ATOM      9  C15 ZIN A   1      17.442   0.211   9.157  0.00  0.00     0.009 A 
ATOM     10  C14 ZIN A   1      17.781  -0.263   7.904  0.00  0.00     0.024 A 
ATOM     11  C12 ZIN A   1      18.697   0.425   7.128  0.00  0.00     0.034 A 
ATOM     12  C11 ZIN A   1      19.269   1.591   7.605  0.00  0.00     0.024 A 
ATOM     13 Cl13 ZIN A   1      19.129  -0.174   5.557  0.00  0.00    -0.084 Cl
ATOM     14  C10 ZIN A   1      18.924   2.067   8.856  0.00  0.00     0.009 A 
ENDBRANCH   1   8
BRANCH   1  15
ATOM     15  C16 ZIN A   1      18.240   1.014  12.053  0.00  0.00     0.042 A 
ATOM     16  N21 ZIN A   1      19.541   1.048  12.264  0.00  0.00    -0.265 NA
ATOM     17  C20 ZIN A   1      20.115   0.295  13.182  0.00  0.00     0.117 A 
ATOM     18  C19 ZIN A   1      19.364  -0.573  13.955  0.00  0.00     0.019 A 
ATOM     19  C18 ZIN A   1      17.994  -0.640  13.757  0.00  0.00     0.003 A 
ATOM     20  C17 ZIN A   1      17.427   0.172  12.787  0.00  0.00     0.028 A 
ENDBRANCH   1  15
TORSDOF 5
ENDMDL
MODEL 3
REMARK VINA RESULT:      -6.8      3.567      7.001
REMARK  5 active torsions:
REMARK  status: ('A' for Active; 'I' for Inactive)
REMARK    1  A    between atoms: N2_2  and  C5_5 
REMARK    2  A    between atoms: C5_5  and  C6_6 
REMARK    3  A    between atoms: C6_6  and  C7_7 
REMARK    4  A    between atoms: C7_7  and  C9_8 
REMARK    5  A    between atoms: C7_7  and  C16_15 
ROOT
ATOM      1  C7  ZIN A   1      19.419  -0.999  12.092  0.00  0.00     0.072 C 
ENDROOT
BRANCH   1   2
ATOM      2  C6  ZIN A   1      18.837  -0.005  11.085  0.00  0.00     0.043 C 
BRANCH   2   3
ATOM      3  C5  ZIN A   1      19.713   0.023   9.832  0.00  0.00     0.235 C 
BRANCH   3   4
ATOM      4  N2  ZIN A   1      19.871   1.410   9.375  0.00  0.00    -0.079 N 
ATOM      5  C1  ZIN A   1      19.297   1.551   8.030  0.00  0.00     0.269 C 
ATOM      6  H3  ZIN A   1      20.852   1.645   9.347  0.00  0.00     0.278 HD
ATOM      7  C4  ZIN A   1      19.177   2.314  10.302  0.00  0.00     0.269 C 
ENDBRANCH   3   4
ENDBRANCH   2   3
ENDBRANCH   1   2
BRANCH   1   8
ATOM      8  C9  ZIN A   1      18.895  -0.682  13.470  0.00  0.00    -0.048 A 
ATOM      9  C15 ZIN A   1      17.949   0.311  13.638  0.00  0.00     0.009 A 
ATOM     10  C14 ZIN A   1      17.465   0.598  14.900  0.00  0.00     0.024 A 
ATOM     11  C12 ZIN A   1      17.936  -0.101  15.998  0.00  0.00     0.034 A 
ATOM     12  C11 ZIN A   1      18.888  -1.091  15.829  0.00  0.00     0.024 A 
ATOM     13 Cl13 ZIN A   1      17.335   0.264  17.584  0.00  0.00    -0.084 Cl
ATOM     14  C10 ZIN A   1      19.366  -1.382  14.565  0.00  0.00     0.009 A 
ENDBRANCH   1   8
BRANCH   1  15
ATOM     15  C16 ZIN A   1      19.011  -2.399  11.710  0.00  0.00     0.042 A 
ATOM     16  N21 ZIN A   1      17.733  -2.688  11.562  0.00  0.00    -0.265 NA
ATOM     17  C20 ZIN A   1      17.330  -3.897  11.225  0.00  0.00     0.117 A 
ATOM     18  C19 ZIN A   1      18.243  -4.916  11.023  0.00  0.00     0.019 A 
ATOM     19  C18 ZIN A   1      19.595  -4.651  11.175  0.00  0.00     0.003 A 
ATOM     20  C17 ZIN A   1      19.981  -3.366  11.525  0.00  0.00     0.028 A 
ENDBRANCH   1  15
TORSDOF 5
ENDMDL
MODEL 4
REMARK VINA RESULT:      -6.8      1.408      4.106
REMARK  5 active torsions:
REMARK  status: ('A' for Active; 'I' for Inactive)
REMARK    1  A    between atoms: N2_2  and  C5_5 
REMARK    2  A    between atoms: C5_5  and  C6_6 
REMARK    3  A    between atoms: C6_6  and  C7_7 
REMARK    4  A    between atoms: C7_7  and  C9_8 
REMARK    5  A    between atoms: C7_7  and  C16_15 
ROOT
ATOM      1  C7  ZIN A   1      17.669   1.534  10.190  0.00  0.00     0.072 C 
ENDROOT
BRANCH   1   2
ATOM      2  C6  ZIN A   1      18.346   2.877  10.469  0.00  0.00     0.043 C 
BRANCH   2   3
ATOM      3  C5  ZIN A   1      17.833   3.441  11.795  0.00  0.00     0.235 C 
BRANCH   3   4
ATOM      4  N2  ZIN A   1      18.910   3.405  12.793  0.00  0.00    -0.079 N 
ATOM      5  C1  ZIN A   1      19.414   4.766  13.019  0.00  0.00     0.269 C 
ATOM      6  H3  ZIN A   1      19.661   2.821  12.456  0.00  0.00     0.278 HD
ATOM      7  C4  ZIN A   1      18.393   2.858  14.054  0.00  0.00     0.269 C 
ENDBRANCH   3   4
ENDBRANCH   2   3
ENDBRANCH   1   2
BRANCH   1   8
ATOM      8  C9  ZIN A   1      18.004   1.083   8.791  0.00  0.00    -0.048 A 
ATOM      9  C15 ZIN A   1      18.942   1.776   8.048  0.00  0.00     0.009 A 
ATOM     10  C14 ZIN A   1      19.253   1.361   6.768  0.00  0.00     0.024 A 
ATOM     11  C12 ZIN A   1      18.619   0.257   6.225  0.00  0.00     0.034 A 
ATOM     12  C11 ZIN A   1      17.677  -0.432   6.967  0.00  0.00     0.024 A 
ATOM     13 Cl13 ZIN A   1      19.004  -0.261   4.614  0.00  0.00    -0.084 Cl
ATOM     14  C10 ZIN A   1      17.371  -0.019   8.250  0.00  0.00     0.009 A 
ENDBRANCH   1   8
BRANCH   1  15
ATOM     15  C16 ZIN A   1      18.160   0.508  11.179  0.00  0.00     0.042 A 
ATOM     16  N21 ZIN A   1      19.454   0.388  11.405  0.00  0.00    -0.265 NA
ATOM     17  C20 ZIN A   1      19.929  -0.492  12.264  0.00  0.00     0.117 A 
ATOM     18  C19 ZIN A   1      19.079  -1.336  12.956  0.00  0.00     0.019 A 
ATOM     19  C18 ZIN A   1      17.712  -1.242  12.739  0.00  0.00     0.003 A 
ATOM     20  C17 ZIN A   1      17.250  -0.301  11.833  0.00  0.00     0.028 A 
ENDBRANCH   1  15
TORSDOF 5
ENDMDL
MODEL 5
REMARK VINA RESULT:      -6.6      3.919      5.931
REMARK  5 active torsions:
REMARK  status: ('A' for Active; 'I' for Inactive)
REMARK    1  A    between atoms: N2_2  and  C5_5 
REMARK    2  A    between atoms: C5_5  and  C6_6 
REMARK    3  A    between atoms: C6_6  and  C7_7 
REMARK    4  A    between atoms: C7_7  and  C9_8 
REMARK    5  A    between atoms: C7_7  and  C16_15 
ROOT
ATOM      1  C7  ZIN A   1      17.783  -0.561  12.695  0.00  0.00     0.072 C 
ENDROOT
BRANCH   1   2
ATOM      2  C6  ZIN A   1      18.593  -1.707  12.088  0.00  0.00     0.043 C 
BRANCH   2   3
ATOM      3  C5  ZIN A   1      17.641  -2.779  11.554  0.00  0.00     0.235 C 
BRANCH   3   4
ATOM      4  N2  ZIN A   1      18.294  -4.092  11.621  0.00  0.00    -0.079 N 
ATOM      5  C1  ZIN A   1      17.821  -4.931  10.512  0.00  0.00     0.269 C 
ATOM      6  H3  ZIN A   1      18.067  -4.537  12.498  0.00  0.00     0.278 HD
ATOM      7  C4  ZIN A   1      19.749  -3.922  11.521  0.00  0.00     0.269 C 
ENDBRANCH   3   4
ENDBRANCH   2   3
ENDBRANCH   1   2
BRANCH   1   8
ATOM      8  C9  ZIN A   1      18.061  -0.478  14.175  0.00  0.00    -0.048 A 
ATOM      9  C15 ZIN A   1      18.861  -1.429  14.782  0.00  0.00     0.009 A 
ATOM     10  C14 ZIN A   1      19.120  -1.351  16.137  0.00  0.00     0.024 A 
ATOM     11  C12 ZIN A   1      18.571  -0.327  16.889  0.00  0.00     0.034 A 
ATOM     12  C11 ZIN A   1      17.766   0.620  16.281  0.00  0.00     0.024 A 
ATOM     13 Cl13 ZIN A   1      18.890  -0.233  18.592  0.00  0.00    -0.084 Cl
ATOM     14  C10 ZIN A   1      17.512   0.544  14.925  0.00  0.00     0.009 A 
ENDBRANCH   1   8
BRANCH   1  15
ATOM     15  C16 ZIN A   1      18.176   0.737  12.038  0.00  0.00     0.042 A 
ATOM     16  N21 ZIN A   1      17.260   1.458  11.421  0.00  0.00    -0.265 NA
ATOM     17  C20 ZIN A   1      17.556   2.602  10.836  0.00  0.00     0.117 A 
ATOM     18  C19 ZIN A   1      18.853   3.083  10.839  0.00  0.00     0.019 A 
ATOM     19  C18 ZIN A   1      19.844   2.348  11.473  0.00  0.00     0.003 A 
ATOM     20  C17 ZIN A   1      19.493   1.154  12.082  0.00  0.00     0.028 A 
ENDBRANCH   1  15
TORSDOF 5
ENDMDL
MODEL 6
REMARK VINA RESULT:      -6.6      2.602      4.273
REMARK  5 active torsions:
REMARK  status: ('A' for Active; 'I' for Inactive)
REMARK    1  A    between atoms: N2_2  and  C5_5 
REMARK    2  A    between atoms: C5_5  and  C6_6 
REMARK    3  A    between atoms: C6_6  and  C7_7 
REMARK    4  A    between atoms: C7_7  and  C9_8 
REMARK    5  A    between atoms: C7_7  and  C16_15 
ROOT
ATOM      1  C7  ZIN A   1      18.208   1.387   9.295  0.00  0.00     0.072 C 
ENDROOT
BRANCH   1   2
ATOM      2  C6  ZIN A   1      19.375   1.455   8.309  0.00  0.00     0.043 C 
BRANCH   2   3
ATOM      3  C5  ZIN A   1      18.832   1.548   6.881  0.00  0.00     0.235 C 
BRANCH   3   4
ATOM      4  N2  ZIN A   1      18.696   0.199   6.319  0.00  0.00    -0.079 N 
ATOM      5  C1  ZIN A   1      17.272  -0.131   6.175  0.00  0.00     0.269 C 
ATOM      6  H3  ZIN A   1      19.134  -0.469   6.937  0.00  0.00     0.278 HD
ATOM      7  C4  ZIN A   1      19.346   0.148   5.003  0.00  0.00     0.269 C 
ENDBRANCH   3   4
ENDBRANCH   2   3
ENDBRANCH   1   2
BRANCH   1   8
ATOM      8  C9  ZIN A   1      18.209   0.045   9.983  0.00  0.00    -0.048 A 
ATOM      9  C15 ZIN A   1      19.169  -0.895   9.660  0.00  0.00     0.009 A 
ATOM     10  C14 ZIN A   1      19.174  -2.123  10.294  0.00  0.00     0.024 A 
ATOM     11  C12 ZIN A   1      18.211  -2.416  11.244  0.00  0.00     0.034 A 
ATOM     12  C11 ZIN A   1      17.247  -1.476  11.562  0.00  0.00     0.024 A 
ATOM     13 Cl13 ZIN A   1      18.212  -3.960  12.035  0.00  0.00    -0.084 Cl
ATOM     14  C10 ZIN A   1      17.248  -0.245  10.931  0.00  0.00     0.009 A 
ENDBRANCH   1   8
BRANCH   1  15
ATOM     15  C16 ZIN A   1      18.355   2.478  10.324  0.00  0.00     0.042 A 
ATOM     16  N21 ZIN A   1      17.311   3.219  10.641  0.00  0.00    -0.265 NA
ATOM     17  C20 ZIN A   1      17.391   4.182  11.539  0.00  0.00     0.117 A 
ATOM     18  C19 ZIN A   1      18.588   4.457  12.175  0.00  0.00     0.019 A 
ATOM     19  C18 ZIN A   1      19.708   3.703  11.863  0.00  0.00     0.003 A 
ATOM     20  C17 ZIN A   1      19.583   2.696  10.919  0.00  0.00     0.028 A 
ENDBRANCH   1  15
TORSDOF 5
ENDMDL
MODEL 7
REMARK VINA RESULT:      -6.5      3.810      5.932
REMARK  5 active torsions:
REMARK  status: ('A' for Active; 'I' for Inactive)
REMARK    1  A    between atoms: N2_2  and  C5_5 
REMARK    2  A    between atoms: C5_5  and  C6_6 
REMARK    3  A    between atoms: C6_6  and  C7_7 
REMARK    4  A    between atoms: C7_7  and  C9_8 
REMARK    5  A    between atoms: C7_7  and  C16_15 
ROOT
ATOM      1  C7  ZIN A   1      17.773  -0.739  12.695  0.00  0.00     0.072 C 
ENDROOT
BRANCH   1   2
ATOM      2  C6  ZIN A   1      18.535  -1.955  12.167  0.00  0.00     0.043 C 
BRANCH   2   3
ATOM      3  C5  ZIN A   1      17.561  -2.903  11.464  0.00  0.00     0.235 C 
BRANCH   3   4
ATOM      4  N2  ZIN A   1      18.191  -3.442  10.252  0.00  0.00    -0.079 N 
ATOM      5  C1  ZIN A   1      18.559  -2.336   9.358  0.00  0.00     0.269 C 
ATOM      6  H3  ZIN A   1      17.541  -4.054   9.780  0.00  0.00     0.278 HD
ATOM      7  C4  ZIN A   1      19.395  -4.197  10.619  0.00  0.00     0.269 C 
ENDBRANCH   3   4
ENDBRANCH   2   3
ENDBRANCH   1   2
BRANCH   1   8
ATOM      8  C9  ZIN A   1      18.029  -0.588  14.174  0.00  0.00    -0.048 A 
ATOM      9  C15 ZIN A   1      17.443   0.449  14.874  0.00  0.00     0.009 A 
ATOM     10  C14 ZIN A   1      17.674   0.585  16.230  0.00  0.00     0.024 A 
ATOM     11  C12 ZIN A   1      18.500  -0.312  16.884  0.00  0.00     0.034 A 
ATOM     12  C11 ZIN A   1      19.091  -1.347  16.181  0.00  0.00     0.024 A 
ATOM     13 Cl13 ZIN A   1      18.796  -0.138  18.585  0.00  0.00    -0.084 Cl
ATOM     14  C10 ZIN A   1      18.854  -1.484  14.826  0.00  0.00     0.009 A 
ENDBRANCH   1   8
BRANCH   1  15
ATOM     15  C16 ZIN A   1      18.240   0.500  11.976  0.00  0.00     0.042 A 
ATOM     16  N21 ZIN A   1      19.459   0.955  12.189  0.00  0.00    -0.265 NA
ATOM     17  C20 ZIN A   1      19.913   2.033  11.579  0.00  0.00     0.117 A 
ATOM     18  C19 ZIN A   1      19.113   2.735  10.695  0.00  0.00     0.019 A 
ATOM     19  C18 ZIN A   1      17.823   2.288  10.451  0.00  0.00     0.003 A 
ATOM     20  C17 ZIN A   1      17.384   1.149  11.107  0.00  0.00     0.028 A 
ENDBRANCH   1  15
TORSDOF 5
ENDMDL
MODEL 8
REMARK VINA RESULT:      -6.5      3.038      5.527
REMARK  5 active torsions:
REMARK  status: ('A' for Active; 'I' for Inactive)
REMARK    1  A    between atoms: N2_2  and  C5_5 
REMARK    2  A    between atoms: C5_5  and  C6_6 
REMARK    3  A    between atoms: C6_6  and  C7_7 
REMARK    4  A    between atoms: C7_7  and  C9_8 
REMARK    5  A    between atoms: C7_7  and  C16_15 
ROOT
ATOM      1  C7  ZIN A   1      19.091   2.241  10.472  0.00  0.00     0.072 C 
ENDROOT
BRANCH   1   2
ATOM      2  C6  ZIN A   1      18.590   2.332   9.030  0.00  0.00     0.043 C 
BRANCH   2   3
ATOM      3  C5  ZIN A   1      19.500   1.505   8.120  0.00  0.00     0.235 C 
BRANCH   3   4
ATOM      4  N2  ZIN A   1      18.707   0.475   7.437  0.00  0.00    -0.079 N 
ATOM      5  C1  ZIN A   1      18.868   0.616   5.984  0.00  0.00     0.269 C 
ATOM      6  H3  ZIN A   1      17.734   0.585   7.679  0.00  0.00     0.278 HD
ATOM      7  C4  ZIN A   1      19.168  -0.856   7.854  0.00  0.00     0.269 C 
ENDBRANCH   3   4
ENDBRANCH   2   3
ENDBRANCH   1   2
BRANCH   1   8
ATOM      8  C9  ZIN A   1      18.473   3.347  11.289  0.00  0.00    -0.048 A 
ATOM      9  C15 ZIN A   1      18.936   3.604  12.566  0.00  0.00     0.009 A 
ATOM     10  C14 ZIN A   1      18.373   4.622  13.313  0.00  0.00     0.024 A 
ATOM     11  C12 ZIN A   1      17.338   5.376  12.788  0.00  0.00     0.034 A 
ATOM     12  C11 ZIN A   1      16.872   5.113  11.512  0.00  0.00     0.024 A 
ATOM     13 Cl13 ZIN A   1      16.626   6.648  13.728  0.00  0.00    -0.084 Cl
ATOM     14  C10 ZIN A   1      17.440   4.099  10.763  0.00  0.00     0.009 A 
ENDBRANCH   1   8
BRANCH   1  15
ATOM     15  C16 ZIN A   1      18.702   0.908  11.057  0.00  0.00     0.042 A 
ATOM     16  N21 ZIN A   1      19.638   0.095  11.505  0.00  0.00    -0.265 NA
ATOM     17  C20 ZIN A   1      19.345  -1.079  12.029  0.00  0.00     0.117 A 
ATOM     18  C19 ZIN A   1      18.033  -1.507  12.116  0.00  0.00     0.019 A 
ATOM     19  C18 ZIN A   1      17.021  -0.681  11.648  0.00  0.00     0.003 A 
ATOM     20  C17 ZIN A   1      17.369   0.548  11.110  0.00  0.00     0.028 A 
ENDBRANCH   1  15
TORSDOF 5
ENDMDL
MODEL 9
REMARK VINA RESULT:      -6.3      3.137      5.642
REMARK  5 active torsions:
REMARK  status: ('A' for Active; 'I' for Inactive)
REMARK    1  A    between atoms: N2_2  and  C5_5 
REMARK    2  A    between atoms: C5_5  and  C6_6 
REMARK    3  A    between atoms: C6_6  and  C7_7 
REMARK    4  A    between atoms: C7_7  and  C9_8 
REMARK    5  A    between atoms: C7_7  and  C16_15 
ROOT
ATOM      1  C7  ZIN A   1      17.747   0.759  13.898  0.00  0.00     0.072 C 
ENDROOT
BRANCH   1   2
ATOM      2  C6  ZIN A   1      18.579   1.911  13.330  0.00  0.00     0.043 C 
BRANCH   2   3
ATOM      3  C5  ZIN A   1      17.742   2.693  12.317  0.00  0.00     0.235 C 
BRANCH   3   4
ATOM      4  N2  ZIN A   1      18.514   2.878  11.081  0.00  0.00    -0.079 N 
ATOM      5  C1  ZIN A   1      17.931   3.976  10.298  0.00  0.00     0.269 C 
ATOM      6  H3  ZIN A   1      18.488   2.028  10.538  0.00  0.00     0.278 HD
ATOM      7  C4  ZIN A   1      19.907   3.201  11.417  0.00  0.00     0.269 C 
ENDBRANCH   3   4
ENDBRANCH   2   3
ENDBRANCH   1   2
BRANCH   1   8
ATOM      8  C9  ZIN A   1      18.105  -0.519  13.182  0.00  0.00    -0.048 A 
ATOM      9  C15 ZIN A   1      17.233  -1.058  12.254  0.00  0.00     0.009 A 
ATOM     10  C14 ZIN A   1      17.563  -2.226  11.594  0.00  0.00     0.024 A 
ATOM     11  C12 ZIN A   1      18.760  -2.863  11.870  0.00  0.00     0.034 A 
ATOM     12  C11 ZIN A   1      19.629  -2.326  12.804  0.00  0.00     0.024 A 
ATOM     13 Cl13 ZIN A   1      19.172  -4.335  11.047  0.00  0.00    -0.084 Cl
ATOM     14  C10 ZIN A   1      19.301  -1.153  13.458  0.00  0.00     0.009 A 
ENDBRANCH   1   8
BRANCH   1  15
ATOM     15  C16 ZIN A   1      18.035   0.608  15.369  0.00  0.00     0.042 A 
ATOM     16  N21 ZIN A   1      18.916   1.402  15.945  0.00  0.00    -0.265 NA
ATOM     17  C20 ZIN A   1      19.197   1.310  17.230  0.00  0.00     0.117 A 
ATOM     18  C19 ZIN A   1      18.580   0.359  18.023  0.00  0.00     0.019 A 
ATOM     19  C18 ZIN A   1      17.652  -0.498  17.450  0.00  0.00     0.003 A 
ATOM     20  C17 ZIN A   1      17.379  -0.366  16.097  0.00  0.00     0.028 A 
ENDBRANCH   1  15
TORSDOF 5
ENDMDL
