MODEL 1
REMARK VINA RESULT:      -4.6      0.000      0.000
REMARK  4 active torsions:
REMARK  status: ('A' for Active; 'I' for Inactive)
REMARK    1  A    between atoms: C5_5  and  N6_6 
REMARK    2  A    between atoms: N9_9  and  C10_10 
REMARK    3  A    between atoms: C10_10  and  C11_11 
REMARK    4  A    between atoms: C11_11  and  O12_12 
ROOT
ATOM      1  C1  <0> d   1      18.941   2.154   8.121  0.00  0.00     0.091 C 
ATOM      2  C2  <0> d   1      19.189   0.675   8.271  0.00  0.00     0.103 A 
ATOM      3  N3  <0> d   1      19.700   0.092   9.321  0.00  0.00    -0.244 NA
ATOM      4  C4  <0> d   1      19.773  -1.229   9.102  0.00  0.00     0.173 A 
ATOM      5  C5  <0> d   1      19.289  -1.475   7.869  0.00  0.00     0.195 A 
ATOM      6  N9  <0> d   1      18.914  -0.268   7.343  0.00  0.00    -0.313 N 
ENDROOT
BRANCH   6   7
ATOM      7  C10 <0> d   1      18.331  -0.040   6.019  0.00  0.00     0.158 C 
BRANCH   7   8
ATOM      8  C11 <0> d   1      19.451   0.156   4.995  0.00  0.00     0.184 C 
BRANCH   8   9
ATOM      9  O12 <0> d   1      19.807  -1.107   4.430  0.00  0.00    -0.399 OA
ATOM     10  H21 <0> d   1      19.091  -1.534   3.939  0.00  0.00     0.209 HD
ENDBRANCH   8   9
ENDBRANCH   7   8
ENDBRANCH   6   7
BRANCH   5  11
ATOM     11  N6  <0> d   1      19.180  -2.797   7.211  0.00  0.00    -0.096 N 
ATOM     12  O7  <0> d   1      18.275  -3.554   7.511  0.00  0.00    -0.530 OA
ATOM     13  O8  <0> d   1      19.996  -3.126   6.369  0.00  0.00    -0.530 OA
ENDBRANCH   5  11
TORSDOF 4
ENDMDL
MODEL 2
REMARK VINA RESULT:      -4.4      3.856      4.617
REMARK  4 active torsions:
REMARK  status: ('A' for Active; 'I' for Inactive)
REMARK    1  A    between atoms: C5_5  and  N6_6 
REMARK    2  A    between atoms: N9_9  and  C10_10 
REMARK    3  A    between atoms: C10_10  and  C11_11 
REMARK    4  A    between atoms: C11_11  and  O12_12 
ROOT
ATOM      1  C1  <0> d   1      18.568   2.359   9.806  0.00  0.00     0.091 C 
ATOM      2  C2  <0> d   1      17.988   1.234  10.624  0.00  0.00     0.103 A 
ATOM      3  N3  <0> d   1      16.968   1.329  11.433  0.00  0.00    -0.244 NA
ATOM      4  C4  <0> d   1      16.733   0.131  11.989  0.00  0.00     0.173 A 
ATOM      5  C5  <0> d   1      17.640  -0.739  11.506  0.00  0.00     0.195 A 
ATOM      6  N9  <0> d   1      18.434  -0.041  10.637  0.00  0.00    -0.313 N 
ENDROOT
BRANCH   6   7
ATOM      7  C10 <0> d   1      19.562  -0.575   9.870  0.00  0.00     0.158 C 
BRANCH   7   8
ATOM      8  C11 <0> d   1      20.813  -0.600  10.751  0.00  0.00     0.184 C 
BRANCH   8   9
ATOM      9  O12 <0> d   1      21.054  -1.935  11.199  0.00  0.00    -0.399 OA
ATOM     10  H21 <0> d   1      21.651  -2.440  10.629  0.00  0.00     0.209 HD
ENDBRANCH   8   9
ENDBRANCH   7   8
ENDBRANCH   6   7
BRANCH   5  11
ATOM     11  N6  <0> d   1      17.755  -2.175  11.848  0.00  0.00    -0.096 N 
ATOM     12  O7  <0> d   1      18.545  -2.537  12.700  0.00  0.00    -0.530 OA
ATOM     13  O8  <0> d   1      17.056  -2.993  11.278  0.00  0.00    -0.530 OA
ENDBRANCH   5  11
TORSDOF 4
ENDMDL
MODEL 3
REMARK VINA RESULT:      -4.4      4.204      5.546
REMARK  4 active torsions:
REMARK  status: ('A' for Active; 'I' for Inactive)
REMARK    1  A    between atoms: C5_5  and  N6_6 
REMARK    2  A    between atoms: N9_9  and  C10_10 
REMARK    3  A    between atoms: C10_10  and  C11_11 
REMARK    4  A    between atoms: C11_11  and  O12_12 
ROOT
ATOM      1  C1  <0> d   1      19.261  -1.274   8.304  0.00  0.00     0.091 C 
ATOM      2  C2  <0> d   1      19.198   0.183   8.681  0.00  0.00     0.103 A 
ATOM      3  N3  <0> d   1      19.028   1.177   7.852  0.00  0.00    -0.244 NA
ATOM      4  C4  <0> d   1      19.023   2.329   8.539  0.00  0.00     0.173 A 
ATOM      5  C5  <0> d   1      19.196   2.039   9.842  0.00  0.00     0.195 A 
ATOM      6  N9  <0> d   1      19.303   0.677   9.934  0.00  0.00    -0.313 N 
ENDROOT
BRANCH   6   7
ATOM      7  C10 <0> d   1      19.501  -0.098  11.160  0.00  0.00     0.158 C 
BRANCH   7   8
ATOM      8  C11 <0> d   1      20.988  -0.420  11.326  0.00  0.00     0.184 C 
BRANCH   8   9
ATOM      9  O12 <0> d   1      21.617   0.611  12.088  0.00  0.00    -0.399 OA
ATOM     10  H21 <0> d   1      22.572   0.498  12.191  0.00  0.00     0.209 HD
ENDBRANCH   8   9
ENDBRANCH   7   8
ENDBRANCH   6   7
BRANCH   5  11
ATOM     11  N6  <0> d   1      19.256   3.006  10.961  0.00  0.00    -0.096 N 
ATOM     12  O7  <0> d   1      18.239   3.552  11.350  0.00  0.00    -0.530 OA
ATOM     13  O8  <0> d   1      20.322   3.256  11.494  0.00  0.00    -0.530 OA
ENDBRANCH   5  11
TORSDOF 4
ENDMDL
MODEL 4
REMARK VINA RESULT:      -4.4      8.594     10.182
REMARK  4 active torsions:
REMARK  status: ('A' for Active; 'I' for Inactive)
REMARK    1  A    between atoms: C5_5  and  N6_6 
REMARK    2  A    between atoms: N9_9  and  C10_10 
REMARK    3  A    between atoms: C10_10  and  C11_11 
REMARK    4  A    between atoms: C11_11  and  O12_12 
ROOT
ATOM      1  C1  <0> d   1      18.383  -1.608  15.531  0.00  0.00     0.091 C 
ATOM      2  C2  <0> d   1      18.771  -0.185  15.217  0.00  0.00     0.103 A 
ATOM      3  N3  <0> d   1      19.256   0.238  14.082  0.00  0.00    -0.244 NA
ATOM      4  C4  <0> d   1      19.482   1.557  14.163  0.00  0.00     0.173 A 
ATOM      5  C5  <0> d   1      19.124   1.967  15.395  0.00  0.00     0.195 A 
ATOM      6  N9  <0> d   1      18.669   0.863  16.063  0.00  0.00    -0.313 N 
ENDROOT
BRANCH   6   7
ATOM      7  C10 <0> d   1      18.171   0.824  17.440  0.00  0.00     0.158 C 
BRANCH   7   8
ATOM      8  C11 <0> d   1      19.351   0.705  18.406  0.00  0.00     0.184 C 
BRANCH   8   9
ATOM      9  O12 <0> d   1      19.632   1.985  18.975  0.00  0.00    -0.399 OA
ATOM     10  H21 <0> d   1      18.944   2.311  19.571  0.00  0.00     0.209 HD
ENDBRANCH   8   9
ENDBRANCH   7   8
ENDBRANCH   6   7
BRANCH   5  11
ATOM     11  N6  <0> d   1      19.205   3.348  15.923  0.00  0.00    -0.096 N 
ATOM     12  O7  <0> d   1      18.319   4.146  15.680  0.00  0.00    -0.530 OA
ATOM     13  O8  <0> d   1      20.158   3.684  16.603  0.00  0.00    -0.530 OA
ENDBRANCH   5  11
TORSDOF 4
ENDMDL
MODEL 5
REMARK VINA RESULT:      -4.4      4.455      5.610
REMARK  4 active torsions:
REMARK  status: ('A' for Active; 'I' for Inactive)
REMARK    1  A    between atoms: C5_5  and  N6_6 
REMARK    2  A    between atoms: N9_9  and  C10_10 
REMARK    3  A    between atoms: C10_10  and  C11_11 
REMARK    4  A    between atoms: C11_11  and  O12_12 
ROOT
ATOM      1  C1  <0> d   1      18.974   2.235   8.689  0.00  0.00     0.091 C 
ATOM      2  C2  <0> d   1      19.105   2.305  10.188  0.00  0.00     0.103 A 
ATOM      3  N3  <0> d   1      19.123   3.399  10.900  0.00  0.00    -0.244 NA
ATOM      4  C4  <0> d   1      19.250   3.081  12.196  0.00  0.00     0.173 A 
ATOM      5  C5  <0> d   1      19.313   1.739  12.293  0.00  0.00     0.195 A 
ATOM      6  N9  <0> d   1      19.216   1.246  11.019  0.00  0.00    -0.313 N 
ENDROOT
BRANCH   6   7
ATOM      7  C10 <0> d   1      19.237  -0.166  10.630  0.00  0.00     0.158 C 
BRANCH   7   8
ATOM      8  C11 <0> d   1      20.586  -0.498   9.988  0.00  0.00     0.184 C 
BRANCH   8   9
ATOM      9  O12 <0> d   1      21.588  -0.583  11.002  0.00  0.00    -0.399 OA
ATOM     10  H21 <0> d   1      22.331   0.023  10.873  0.00  0.00     0.209 HD
ENDBRANCH   8   9
ENDBRANCH   7   8
ENDBRANCH   6   7
BRANCH   5  11
ATOM     11  N6  <0> d   1      19.456   0.949  13.537  0.00  0.00    -0.096 N 
ATOM     12  O7  <0> d   1      18.586   0.989  14.387  0.00  0.00    -0.530 OA
ATOM     13  O8  <0> d   1      20.444   0.258  13.708  0.00  0.00    -0.530 OA
ENDBRANCH   5  11
TORSDOF 4
ENDMDL
MODEL 6
REMARK VINA RESULT:      -4.3      3.202      4.224
REMARK  4 active torsions:
REMARK  status: ('A' for Active; 'I' for Inactive)
REMARK    1  A    between atoms: C5_5  and  N6_6 
REMARK    2  A    between atoms: N9_9  and  C10_10 
REMARK    3  A    between atoms: C10_10  and  C11_11 
REMARK    4  A    between atoms: C11_11  and  O12_12 
ROOT
ATOM      1  C1  <0> d   1      19.319   1.828   8.334  0.00  0.00     0.091 C 
ATOM      2  C2  <0> d   1      18.755   0.476   8.691  0.00  0.00     0.103 A 
ATOM      3  N3  <0> d   1      18.115  -0.320   7.877  0.00  0.00    -0.244 NA
ATOM      4  C4  <0> d   1      17.762  -1.433   8.536  0.00  0.00     0.173 A 
ATOM      5  C5  <0> d   1      18.199  -1.324   9.805  0.00  0.00     0.195 A 
ATOM      6  N9  <0> d   1      18.833  -0.114   9.903  0.00  0.00    -0.313 N 
ENDROOT
BRANCH   6   7
ATOM      7  C10 <0> d   1      19.471   0.439  11.100  0.00  0.00     0.158 C 
BRANCH   7   8
ATOM      8  C11 <0> d   1      20.854  -0.190  11.278  0.00  0.00     0.184 C 
BRANCH   8   9
ATOM      9  O12 <0> d   1      21.652   0.643  12.121  0.00  0.00    -0.399 OA
ATOM     10  H21 <0> d   1      22.601   0.467  12.064  0.00  0.00     0.209 HD
ENDBRANCH   8   9
ENDBRANCH   7   8
ENDBRANCH   6   7
BRANCH   5  11
ATOM     11  N6  <0> d   1      18.029  -2.321  10.886  0.00  0.00    -0.096 N 
ATOM     12  O7  <0> d   1      17.049  -2.277  11.607  0.00  0.00    -0.530 OA
ATOM     13  O8  <0> d   1      18.869  -3.187  11.052  0.00  0.00    -0.530 OA
ENDBRANCH   5  11
TORSDOF 4
ENDMDL
MODEL 7
REMARK VINA RESULT:      -4.3      8.290      9.385
REMARK  4 active torsions:
REMARK  status: ('A' for Active; 'I' for Inactive)
REMARK    1  A    between atoms: C5_5  and  N6_6 
REMARK    2  A    between atoms: N9_9  and  C10_10 
REMARK    3  A    between atoms: C10_10  and  C11_11 
REMARK    4  A    between atoms: C11_11  and  O12_12 
ROOT
ATOM      1  C1  <0> d   1      19.577   3.936  16.606  0.00  0.00     0.091 C 
ATOM      2  C2  <0> d   1      19.348   2.520  17.068  0.00  0.00     0.103 A 
ATOM      3  N3  <0> d   1      19.689   2.036  18.232  0.00  0.00    -0.244 NA
ATOM      4  C4  <0> d   1      19.330   0.746  18.295  0.00  0.00     0.173 A 
ATOM      5  C5  <0> d   1      18.744   0.417  17.128  0.00  0.00     0.195 A 
ATOM      6  N9  <0> d   1      18.752   1.544  16.351  0.00  0.00    -0.313 N 
ENDROOT
BRANCH   6   7
ATOM      7  C10 <0> d   1      18.219   1.666  14.992  0.00  0.00     0.158 C 
BRANCH   7   8
ATOM      8  C11 <0> d   1      19.247   1.137  13.991  0.00  0.00     0.184 C 
BRANCH   8   9
ATOM      9  O12 <0> d   1      19.784   2.225  13.237  0.00  0.00    -0.399 OA
ATOM     10  H21 <0> d   1      20.004   2.000  12.323  0.00  0.00     0.209 HD
ENDBRANCH   8   9
ENDBRANCH   7   8
ENDBRANCH   6   7
BRANCH   5  11
ATOM     11  N6  <0> d   1      18.195  -0.907  16.758  0.00  0.00    -0.096 N 
ATOM     12  O7  <0> d   1      18.936  -1.779  16.344  0.00  0.00    -0.530 OA
ATOM     13  O8  <0> d   1      17.002  -1.123  16.870  0.00  0.00    -0.530 OA
ENDBRANCH   5  11
TORSDOF 4
ENDMDL
MODEL 8
REMARK VINA RESULT:      -4.3      4.323      5.388
REMARK  4 active torsions:
REMARK  status: ('A' for Active; 'I' for Inactive)
REMARK    1  A    between atoms: C5_5  and  N6_6 
REMARK    2  A    between atoms: N9_9  and  C10_10 
REMARK    3  A    between atoms: C10_10  and  C11_11 
REMARK    4  A    between atoms: C11_11  and  O12_12 
ROOT
ATOM      1  C1  <0> d   1      20.377  -3.807  11.483  0.00  0.00     0.091 C 
ATOM      2  C2  <0> d   1      19.260  -2.961  10.929  0.00  0.00     0.103 A 
ATOM      3  N3  <0> d   1      18.448  -3.308   9.967  0.00  0.00    -0.244 NA
ATOM      4  C4  <0> d   1      17.583  -2.310   9.738  0.00  0.00     0.173 A 
ATOM      5  C5  <0> d   1      17.867  -1.307  10.590  0.00  0.00     0.195 A 
ATOM      6  N9  <0> d   1      18.929  -1.721  11.349  0.00  0.00    -0.313 N 
ENDROOT
BRANCH   6   7
ATOM      7  C10 <0> d   1      19.587  -0.959  12.412  0.00  0.00     0.158 C 
BRANCH   7   8
ATOM      8  C11 <0> d   1      20.484   0.114  11.791  0.00  0.00     0.184 C 
BRANCH   8   9
ATOM      9  O12 <0> d   1      21.571  -0.510  11.108  0.00  0.00    -0.399 OA
ATOM     10  H21 <0> d   1      21.299  -1.159  10.445  0.00  0.00     0.209 HD
ENDBRANCH   8   9
ENDBRANCH   7   8
ENDBRANCH   6   7
BRANCH   5  11
ATOM     11  N6  <0> d   1      17.166  -0.007  10.689  0.00  0.00    -0.096 N 
ATOM     12  O7  <0> d   1      16.253   0.134  11.482  0.00  0.00    -0.530 OA
ATOM     13  O8  <0> d   1      17.503   0.922   9.977  0.00  0.00    -0.530 OA
ENDBRANCH   5  11
TORSDOF 4
ENDMDL
MODEL 9
REMARK VINA RESULT:      -4.3      4.508      5.570
REMARK  4 active torsions:
REMARK  status: ('A' for Active; 'I' for Inactive)
REMARK    1  A    between atoms: C5_5  and  N6_6 
REMARK    2  A    between atoms: N9_9  and  C10_10 
REMARK    3  A    between atoms: C10_10  and  C11_11 
REMARK    4  A    between atoms: C11_11  and  O12_12 
ROOT
ATOM      1  C1  <0> d   1      17.385  -0.380   8.961  0.00  0.00     0.091 C 
ATOM      2  C2  <0> d   1      17.476  -0.217  10.456  0.00  0.00     0.103 A 
ATOM      3  N3  <0> d   1      16.594   0.380  11.211  0.00  0.00    -0.244 NA
ATOM      4  C4  <0> d   1      17.002   0.335  12.487  0.00  0.00     0.173 A 
ATOM      5  C5  <0> d   1      18.181  -0.315  12.526  0.00  0.00     0.195 A 
ATOM      6  N9  <0> d   1      18.480  -0.669  11.238  0.00  0.00    -0.313 N 
ENDROOT
BRANCH   6   7
ATOM      7  C10 <0> d   1      19.670  -1.397  10.790  0.00  0.00     0.158 C 
BRANCH   7   8
ATOM      8  C11 <0> d   1      20.751  -0.398  10.370  0.00  0.00     0.184 C 
BRANCH   8   9
ATOM      9  O12 <0> d   1      21.596  -0.113  11.486  0.00  0.00    -0.399 OA
ATOM     10  H21 <0> d   1      22.295   0.528  11.296  0.00  0.00     0.209 HD
ENDBRANCH   8   9
ENDBRANCH   7   8
ENDBRANCH   6   7
BRANCH   5  11
ATOM     11  N6  <0> d   1      18.995  -0.595  13.730  0.00  0.00    -0.096 N 
ATOM     12  O7  <0> d   1      18.681  -1.500  14.481  0.00  0.00    -0.530 OA
ATOM     13  O8  <0> d   1      19.981   0.079  13.969  0.00  0.00    -0.530 OA
ENDBRANCH   5  11
TORSDOF 4
ENDMDL
