MODEL 1
REMARK VINA RESULT:      -5.1      0.000      0.000
REMARK  12 active torsions:
REMARK  status: ('A' for Active; 'I' for Inactive)
REMARK    1  A    between atoms: C2_2  and  C3_3 
REMARK    2  A    between atoms: C15_15  and  O16_16 
REMARK    3  A    between atoms: C18_18  and  C19_19 
REMARK    4  A    between atoms: C19_19  and  C20_20 
REMARK    5  A    between atoms: C20_20  and  O22_22 
REMARK    6  A    between atoms: C31_30  and  O32_31 
REMARK    7  A    between atoms: C31_30  and  C33_32 
REMARK    8  A    between atoms: C52_50  and  O53_51 
REMARK    9  A    between atoms: C52_50  and  C54_52 
REMARK   10  A    between atoms: C54_52  and  O56_54 
REMARK   11  A    between atoms: C58_56  and  O60_57 
REMARK   12  A    between atoms: O60_57  and  C61_58 
ROOT
ATOM      1  C3  ZIN A   1      19.648  -1.815  10.221  0.00  0.00     0.037 C 
ATOM      2  C4  ZIN A   1      19.630  -3.312  10.290  0.00  0.00    -0.015 C 
ATOM      3  C5  ZIN A   1      18.682  -3.971  10.885  0.00  0.00    -0.003 C 
ATOM      4  C6  ZIN A   1      17.523  -3.271  11.530  0.00  0.00     0.262 C 
ATOM      5  N7  ZIN A   1      17.924  -1.958  12.041  0.00  0.00    -0.061 N 
ATOM      6  H8  ZIN A   1      18.514  -2.061  12.853  0.00  0.00     0.280 HD
ATOM      7  C9  ZIN A   1      16.678  -1.221  12.394  0.00  0.00     0.237 C 
ATOM      8  C10 ZIN A   1      16.241  -0.558  11.064  0.00  0.00     0.046 C 
ATOM      9  C11 ZIN A   1      17.598  -0.215  10.386  0.00  0.00     0.040 C 
ATOM     10  C12 ZIN A   1      17.908   1.229  10.669  0.00  0.00    -0.024 A 
ATOM     11  C13 ZIN A   1      18.128   1.874   9.448  0.00  0.00     0.020 A 
ATOM     12  C14 ZIN A   1      18.418   3.240   9.413  0.00  0.00     0.061 A 
ATOM     13  C15 ZIN A   1      18.488   3.907  10.631  0.00  0.00     0.077 A 
ATOM     14  C18 ZIN A   1      18.280   3.252  11.834  0.00  0.00     0.000 A 
ATOM     15  C47 ZIN A   1      17.984   1.896  11.877  0.00  0.00     0.021 A 
ATOM     16  N48 ZIN A   1      18.038   0.987   8.387  0.00  0.00    -0.278 NA
ATOM     17  C49 ZIN A   1      17.256   1.561   7.284  0.00  0.00     0.117 C 
ATOM     18  C50 ZIN A   1      17.425  -0.277   8.874  0.00  0.00     0.125 C 
ATOM     19  C52 ZIN A   1      18.194  -1.432   8.238  0.00  0.00     0.190 C 
ATOM     20  C58 ZIN A   1      19.645  -1.376   8.755  0.00  0.00     0.192 C 
ATOM     21  C64 ZIN A   1      18.575  -1.164  11.013  0.00  0.00     0.218 C 
ENDROOT
BRANCH  14  22
ATOM     22  C19 ZIN A   1      18.378   4.033  13.130  0.00  0.00     0.121 C 
ATOM     23  C39 ZIN A   1      18.397   3.019  14.298  0.00  0.00     0.040 A 
ATOM     24  C38 ZIN A   1      18.861   3.189  15.495  0.00  0.00    -0.020 A 
ATOM     25  N40 ZIN A   1      17.826   1.727  14.112  0.00  0.00    -0.357 N 
ATOM     26  C37 ZIN A   1      19.543   4.155  16.417  0.00  0.00     0.069 C 
ATOM     27  C46 ZIN A   1      18.667   1.843  16.181  0.00  0.00    -0.001 A 
ATOM     28  C36 ZIN A   1      18.879   5.433  16.584  0.00  0.00     0.239 C 
ATOM     29  N28 ZIN A   1      17.500   5.586  16.795  0.00  0.00    -0.068 N 
ATOM     30  C27 ZIN A   1      16.733   4.930  15.779  0.00  0.00     0.239 C 
ATOM     31  H29 ZIN A   1      17.263   5.126  17.687  0.00  0.00     0.280 HD
ATOM     32  C30 ZIN A   1      16.971   6.987  16.908  0.00  0.00     0.272 C 
ATOM     33  C25 ZIN A   1      17.209   5.617  14.500  0.00  0.00     0.016 C 
ATOM     34  C24 ZIN A   1      17.257   4.909  13.227  0.00  0.00     0.037 C 
ATOM     35  C35 ZIN A   1      16.331   6.959  14.456  0.00  0.00     0.045 C 
ATOM     36  C31 ZIN A   1      16.876   7.744  15.641  0.00  0.00     0.082 C 
ATOM     37  C41 ZIN A   1      18.014   0.993  15.241  0.00  0.00     0.043 A 
ATOM     38  C45 ZIN A   1      19.008   1.329  17.395  0.00  0.00     0.014 C 
ATOM     39  C42 ZIN A   1      17.738  -0.375  15.524  0.00  0.00     0.030 C 
ATOM     40  C43 ZIN A   1      18.031  -0.715  16.810  0.00  0.00     0.002 C 
ATOM     41  C44 ZIN A   1      18.671   0.060  17.677  0.00  0.00     0.001 C 
ATOM     42 4H10 ZIN A   1      17.332   1.397  13.354  0.00  0.00     0.166 HD
BRANCH  36  43
ATOM     43  O32 ZIN A   1      18.207   8.199  15.257  0.00  0.00    -0.388 OA
ATOM     44  H92 ZIN A   1      18.556   8.908  15.815  0.00  0.00     0.210 HD
ENDBRANCH  36  43
BRANCH  36  45
ATOM     45  C33 ZIN A   1      16.026   9.006  15.864  0.00  0.00     0.035 C 
ATOM     46  C34 ZIN A   1      14.552   8.680  15.614  0.00  0.00     0.008 C 
ENDBRANCH  36  45
BRANCH  22  47
ATOM     47  C20 ZIN A   1      19.718   4.720  13.118  0.00  0.00     0.278 C 
ATOM     48  O21 ZIN A   1      20.702   4.118  12.757  0.00  0.00    -0.264 OA
BRANCH  47  49
ATOM     49  O22 ZIN A   1      19.820   6.000  13.506  0.00  0.00    -0.325 OA
ATOM     50  C23 ZIN A   1      21.041   6.386  14.190  0.00  0.00     0.213 C 
ENDBRANCH  47  49
ENDBRANCH  22  47
ENDBRANCH  14  22
BRANCH  13  51
ATOM     51  O16 ZIN A   1      18.768   5.237  10.642  0.00  0.00    -0.355 OA
ATOM     52  C17 ZIN A   1      17.723   6.123  10.237  0.00  0.00     0.210 C 
ENDBRANCH  13  51
BRANCH  19  53
ATOM     53  O53 ZIN A   1      17.597  -2.673   8.620  0.00  0.00    -0.376 OA
ATOM     54 3H11 ZIN A   1      18.233  -3.390   8.755  0.00  0.00     0.211 HD
ENDBRANCH  19  53
BRANCH  19  55
ATOM     55  C54 ZIN A   1      18.163  -1.296   6.738  0.00  0.00     0.297 C 
ATOM     56  O55 ZIN A   1      17.246  -1.767   6.107  0.00  0.00    -0.262 OA
BRANCH  55  57
ATOM     57  O56 ZIN A   1      19.154  -0.652   6.102  0.00  0.00    -0.324 OA
ATOM     58  C57 ZIN A   1      18.957  -0.365   4.693  0.00  0.00     0.213 C 
ENDBRANCH  55  57
ENDBRANCH  19  55
BRANCH   1  59
ATOM     59  C2  ZIN A   1      20.981  -1.359  10.816  0.00  0.00     0.014 C 
ATOM     60  C1  ZIN A   1      20.783  -0.037  11.559  0.00  0.00     0.006 C 
ENDBRANCH   1  59
BRANCH  20  61
ATOM     61  O60 ZIN A   1      20.480  -2.268   7.971  0.00  0.00    -0.311 OA
BRANCH  61  62
ATOM     62  C61 ZIN A   1      19.917  -3.407   7.539  0.00  0.00     0.255 C 
ATOM     63  C62 ZIN A   1      19.785  -3.669   6.061  0.00  0.00     0.126 C 
ATOM     64  O63 ZIN A   1      19.516  -4.223   8.336  0.00  0.00    -0.266 OA
ENDBRANCH  61  62
ENDBRANCH  20  61
TORSDOF 12
ENDMDL
MODEL 2
REMARK VINA RESULT:      -5.0      2.862     10.514
REMARK  12 active torsions:
REMARK  status: ('A' for Active; 'I' for Inactive)
REMARK    1  A    between atoms: C2_2  and  C3_3 
REMARK    2  A    between atoms: C15_15  and  O16_16 
REMARK    3  A    between atoms: C18_18  and  C19_19 
REMARK    4  A    between atoms: C19_19  and  C20_20 
REMARK    5  A    between atoms: C20_20  and  O22_22 
REMARK    6  A    between atoms: C31_30  and  O32_31 
REMARK    7  A    between atoms: C31_30  and  C33_32 
REMARK    8  A    between atoms: C52_50  and  O53_51 
REMARK    9  A    between atoms: C52_50  and  C54_52 
REMARK   10  A    between atoms: C54_52  and  O56_54 
REMARK   11  A    between atoms: C58_56  and  O60_57 
REMARK   12  A    between atoms: O60_57  and  C61_58 
ROOT
ATOM      1  C3  ZIN A   1      19.563   1.782  12.484  0.00  0.00     0.037 C 
ATOM      2  C4  ZIN A   1      19.502   3.279  12.447  0.00  0.00    -0.015 C 
ATOM      3  C5  ZIN A   1      18.530   3.924  11.877  0.00  0.00    -0.003 C 
ATOM      4  C6  ZIN A   1      17.385   3.205  11.228  0.00  0.00     0.262 C 
ATOM      5  N7  ZIN A   1      17.817   1.915  10.684  0.00  0.00    -0.061 N 
ATOM      6  H8  ZIN A   1      18.395   2.053   9.868  0.00  0.00     0.280 HD
ATOM      7  C9  ZIN A   1      16.589   1.150  10.327  0.00  0.00     0.237 C 
ATOM      8  C10 ZIN A   1      16.185   0.447  11.646  0.00  0.00     0.046 C 
ATOM      9  C11 ZIN A   1      17.559   0.128  12.303  0.00  0.00     0.040 C 
ATOM     10  C12 ZIN A   1      17.906  -1.300  11.985  0.00  0.00    -0.024 A 
ATOM     11  C13 ZIN A   1      18.157  -1.965  13.190  0.00  0.00     0.020 A 
ATOM     12  C14 ZIN A   1      18.487  -3.323  13.192  0.00  0.00     0.061 A 
ATOM     13  C15 ZIN A   1      18.563  -3.960  11.959  0.00  0.00     0.077 A 
ATOM     14  C18 ZIN A   1      18.323  -3.286  10.773  0.00  0.00     0.000 A 
ATOM     15  C47 ZIN A   1      17.989  -1.938  10.762  0.00  0.00     0.021 A 
ATOM     16  N48 ZIN A   1      18.054  -1.104  14.271  0.00  0.00    -0.278 NA
ATOM     17  C49 ZIN A   1      17.300  -1.724  15.368  0.00  0.00     0.117 C 
ATOM     18  C50 ZIN A   1      17.399   0.152  13.819  0.00  0.00     0.125 C 
ATOM     19  C52 ZIN A   1      18.142   1.315  14.472  0.00  0.00     0.190 C 
ATOM     20  C58 ZIN A   1      19.588   1.312  13.939  0.00  0.00     0.192 C 
ATOM     21  C64 ZIN A   1      18.501   1.118  11.688  0.00  0.00     0.218 C 
ENDROOT
BRANCH  14  22
ATOM     22  C19 ZIN A   1      18.430  -4.035   9.459  0.00  0.00     0.121 C 
ATOM     23  C39 ZIN A   1      18.544  -2.992   8.323  0.00  0.00     0.040 A 
ATOM     24  C38 ZIN A   1      19.044  -3.154   7.139  0.00  0.00    -0.020 A 
ATOM     25  N40 ZIN A   1      18.034  -1.678   8.525  0.00  0.00    -0.357 N 
ATOM     26  C37 ZIN A   1      19.710  -4.128   6.214  0.00  0.00     0.069 C 
ATOM     27  C46 ZIN A   1      18.945  -1.781   6.485  0.00  0.00    -0.001 A 
ATOM     28  C36 ZIN A   1      18.988  -5.365   5.986  0.00  0.00     0.239 C 
ATOM     29  N28 ZIN A   1      17.612  -5.440   5.721  0.00  0.00    -0.068 N 
ATOM     30  C27 ZIN A   1      16.841  -4.773   6.728  0.00  0.00     0.239 C 
ATOM     31  H29 ZIN A   1      17.432  -4.944   4.835  0.00  0.00     0.280 HD
ATOM     32  C30 ZIN A   1      17.016  -6.808   5.548  0.00  0.00     0.272 C 
ATOM     33  C25 ZIN A   1      17.233  -5.518   8.002  0.00  0.00     0.016 C 
ATOM     34  C24 ZIN A   1      17.270  -4.849   9.296  0.00  0.00     0.037 C 
ATOM     35  C35 ZIN A   1      16.287  -6.813   7.975  0.00  0.00     0.045 C 
ATOM     36  C31 ZIN A   1      16.835  -7.593   6.788  0.00  0.00     0.082 C 
ATOM     37  C41 ZIN A   1      18.301  -0.924   7.425  0.00  0.00     0.043 A 
ATOM     38  C45 ZIN A   1      19.358  -1.253   5.301  0.00  0.00     0.014 C 
ATOM     39  C42 ZIN A   1      18.107   0.463   7.173  0.00  0.00     0.030 C 
ATOM     40  C43 ZIN A   1      18.465   0.823   5.908  0.00  0.00     0.002 C 
ATOM     41  C44 ZIN A   1      19.096   0.039   5.043  0.00  0.00     0.001 C 
ATOM     42 4H10 ZIN A   1      17.529  -1.343   9.274  0.00  0.00     0.166 HD
BRANCH  36  43
ATOM     43  O32 ZIN A   1      18.126  -8.127   7.207  0.00  0.00    -0.388 OA
ATOM     44  H92 ZIN A   1      18.481  -8.805   6.615  0.00  0.00     0.210 HD
ENDBRANCH  36  43
BRANCH  36  45
ATOM     45  C33 ZIN A   1      15.931  -8.803   6.498  0.00  0.00     0.035 C 
ATOM     46  C34 ZIN A   1      14.589  -8.620   7.212  0.00  0.00     0.008 C 
ENDBRANCH  36  45
BRANCH  22  47
ATOM     47  C20 ZIN A   1      19.732  -4.791   9.500  0.00  0.00     0.278 C 
ATOM     48  O21 ZIN A   1      20.736  -4.244   9.888  0.00  0.00    -0.264 OA
BRANCH  47  49
ATOM     49  O22 ZIN A   1      19.776  -6.073   9.105  0.00  0.00    -0.325 OA
ATOM     50  C23 ZIN A   1      21.089  -6.644   8.867  0.00  0.00     0.213 C 
ENDBRANCH  47  49
ENDBRANCH  22  47
ENDBRANCH  14  22
BRANCH  13  51
ATOM     51  O16 ZIN A   1      18.881  -5.281  11.916  0.00  0.00    -0.355 OA
ATOM     52  C17 ZIN A   1      17.857  -6.206  12.288  0.00  0.00     0.210 C 
ENDBRANCH  13  51
BRANCH  19  53
ATOM     53  O53 ZIN A   1      17.506   2.546  14.123  0.00  0.00    -0.376 OA
ATOM     54 3H11 ZIN A   1      16.706   2.438  13.589  0.00  0.00     0.211 HD
ENDBRANCH  19  53
BRANCH  19  55
ATOM     55  C54 ZIN A   1      18.131   1.145  15.969  0.00  0.00     0.297 C 
ATOM     56  O55 ZIN A   1      17.228   1.611  16.623  0.00  0.00    -0.262 OA
BRANCH  55  57
ATOM     57  O56 ZIN A   1      19.124   0.477  16.576  0.00  0.00    -0.324 OA
ATOM     58  C57 ZIN A   1      19.004   0.275  18.008  0.00  0.00     0.213 C 
ENDBRANCH  55  57
ENDBRANCH  19  55
BRANCH   1  59
ATOM     59  C2  ZIN A   1      20.903   1.378  11.865  0.00  0.00     0.014 C 
ATOM     60  C1  ZIN A   1      20.917  -0.132  11.621  0.00  0.00     0.006 C 
ENDBRANCH   1  59
BRANCH  20  61
ATOM     61  O60 ZIN A   1      20.406   2.210  14.734  0.00  0.00    -0.311 OA
BRANCH  61  62
ATOM     62  C61 ZIN A   1      19.796   3.282  15.262  0.00  0.00     0.255 C 
ATOM     63  C62 ZIN A   1      19.889   3.550  16.743  0.00  0.00     0.126 C 
ATOM     64  O63 ZIN A   1      19.173   4.034  14.551  0.00  0.00    -0.266 OA
ENDBRANCH  61  62
ENDBRANCH  20  61
TORSDOF 12
ENDMDL
MODEL 3
REMARK VINA RESULT:      -3.2      2.194      5.083
REMARK  12 active torsions:
REMARK  status: ('A' for Active; 'I' for Inactive)
REMARK    1  A    between atoms: C2_2  and  C3_3 
REMARK    2  A    between atoms: C15_15  and  O16_16 
REMARK    3  A    between atoms: C18_18  and  C19_19 
REMARK    4  A    between atoms: C19_19  and  C20_20 
REMARK    5  A    between atoms: C20_20  and  O22_22 
REMARK    6  A    between atoms: C31_30  and  O32_31 
REMARK    7  A    between atoms: C31_30  and  C33_32 
REMARK    8  A    between atoms: C52_50  and  O53_51 
REMARK    9  A    between atoms: C52_50  and  C54_52 
REMARK   10  A    between atoms: C54_52  and  O56_54 
REMARK   11  A    between atoms: C58_56  and  O60_57 
REMARK   12  A    between atoms: O60_57  and  C61_58 
ROOT
ATOM      1  C3  ZIN A   1      17.755  -0.238  10.198  0.00  0.00     0.037 C 
ATOM      2  C4  ZIN A   1      17.910  -0.556   8.741  0.00  0.00    -0.015 C 
ATOM      3  C5  ZIN A   1      18.726   0.095   7.968  0.00  0.00    -0.003 C 
ATOM      4  C6  ZIN A   1      19.588   1.204   8.493  0.00  0.00     0.262 C 
ATOM      5  N7  ZIN A   1      18.930   1.899   9.601  0.00  0.00    -0.061 N 
ATOM      6  H8  ZIN A   1      18.157   2.453   9.261  0.00  0.00     0.280 HD
ATOM      7  C9  ZIN A   1      19.951   2.774  10.245  0.00  0.00     0.237 C 
ATOM      8  C10 ZIN A   1      20.658   1.845  11.261  0.00  0.00     0.046 C 
ATOM      9  C11 ZIN A   1      19.505   0.918  11.743  0.00  0.00     0.040 C 
ATOM     10  C12 ZIN A   1      18.982   1.463  13.043  0.00  0.00    -0.024 A 
ATOM     11  C13 ZIN A   1      19.033   0.440  13.996  0.00  0.00     0.020 A 
ATOM     12  C14 ZIN A   1      18.622   0.677  15.310  0.00  0.00     0.061 A 
ATOM     13  C15 ZIN A   1      18.157   1.952  15.609  0.00  0.00     0.077 A 
ATOM     14  C18 ZIN A   1      18.101   2.952  14.653  0.00  0.00     0.000 A 
ATOM     15  C47 ZIN A   1      18.514   2.727  13.346  0.00  0.00     0.021 A 
ATOM     16  N48 ZIN A   1      19.497  -0.742  13.440  0.00  0.00    -0.278 NA
ATOM     17  C49 ZIN A   1      20.483  -1.386  14.318  0.00  0.00     0.117 C 
ATOM     18  C50 ZIN A   1      20.086  -0.443  12.108  0.00  0.00     0.125 C 
ATOM     19  C52 ZIN A   1      19.642  -1.549  11.154  0.00  0.00     0.190 C 
ATOM     20  C58 ZIN A   1      18.107  -1.475  11.025  0.00  0.00     0.192 C 
ATOM     21  C64 ZIN A   1      18.501   0.969  10.632  0.00  0.00     0.218 C 
ENDROOT
BRANCH  14  22
ATOM     22  C19 ZIN A   1      17.576   4.321  15.040  0.00  0.00     0.121 C 
ATOM     23  C39 ZIN A   1      18.720   5.344  14.845  0.00  0.00     0.040 A 
ATOM     24  C38 ZIN A   1      18.624   6.622  14.663  0.00  0.00    -0.020 A 
ATOM     25  N40 ZIN A   1      20.072   4.897  14.885  0.00  0.00    -0.357 N 
ATOM     26  C37 ZIN A   1      17.671   7.770  14.518  0.00  0.00     0.069 C 
ATOM     27  C46 ZIN A   1      20.060   7.095  14.472  0.00  0.00    -0.001 A 
ATOM     28  C36 ZIN A   1      16.731   7.941  15.610  0.00  0.00     0.239 C 
ATOM     29  N28 ZIN A   1      17.077   7.878  16.968  0.00  0.00    -0.068 N 
ATOM     30  C27 ZIN A   1      17.754   6.656  17.286  0.00  0.00     0.239 C 
ATOM     31  H29 ZIN A   1      17.740   8.642  17.163  0.00  0.00     0.280 HD
ATOM     32  C30 ZIN A   1      15.969   8.038  17.970  0.00  0.00     0.272 C 
ATOM     33  C25 ZIN A   1      16.732   5.591  16.892  0.00  0.00     0.016 C 
ATOM     34  C24 ZIN A   1      17.146   4.283  16.399  0.00  0.00     0.037 C 
ATOM     35  C35 ZIN A   1      15.766   5.520  18.170  0.00  0.00     0.045 C 
ATOM     36  C31 ZIN A   1      15.071   6.874  18.129  0.00  0.00     0.082 C 
ATOM     37  C41 ZIN A   1      20.894   5.949  14.627  0.00  0.00     0.043 A 
ATOM     38  C45 ZIN A   1      20.643   8.286  14.163  0.00  0.00     0.014 C 
ATOM     39  C42 ZIN A   1      22.304   6.010  14.441  0.00  0.00     0.030 C 
ATOM     40  C43 ZIN A   1      22.755   7.281  14.249  0.00  0.00     0.002 C 
ATOM     41  C44 ZIN A   1      21.982   8.345  14.069  0.00  0.00     0.001 C 
ATOM     42 4H10 ZIN A   1      20.404   4.020  15.106  0.00  0.00     0.166 HD
BRANCH  36  43
ATOM     43  O32 ZIN A   1      14.146   6.829  17.003  0.00  0.00    -0.388 OA
ATOM     44  H92 ZIN A   1      14.538   6.494  16.184  0.00  0.00     0.210 HD
ENDBRANCH  36  43
BRANCH  36  45
ATOM     45  C33 ZIN A   1      14.216   7.059  19.394  0.00  0.00     0.035 C 
ATOM     46  C34 ZIN A   1      14.454   5.884  20.347  0.00  0.00     0.008 C 
ENDBRANCH  36  45
BRANCH  22  47
ATOM     47  C20 ZIN A   1      16.499   4.666  14.045  0.00  0.00     0.278 C 
ATOM     48  O21 ZIN A   1      15.467   5.170  14.422  0.00  0.00    -0.264 OA
BRANCH  47  49
ATOM     49  O22 ZIN A   1      16.684   4.414  12.740  0.00  0.00    -0.325 OA
ATOM     50  C23 ZIN A   1      16.576   5.539  11.830  0.00  0.00     0.213 C 
ENDBRANCH  47  49
ENDBRANCH  22  47
ENDBRANCH  14  22
BRANCH  13  51
ATOM     51  O16 ZIN A   1      17.747   2.225  16.876  0.00  0.00    -0.355 OA
ATOM     52  C17 ZIN A   1      17.795   1.152  17.819  0.00  0.00     0.210 C 
ENDBRANCH  13  51
BRANCH  19  53
ATOM     53  O53 ZIN A   1      20.240  -1.346   9.872  0.00  0.00    -0.376 OA
ATOM     54 3H11 ZIN A   1      19.956  -0.533   9.431  0.00  0.00     0.211 HD
ENDBRANCH  19  53
BRANCH  19  55
ATOM     55  C54 ZIN A   1      20.061  -2.889  11.701  0.00  0.00     0.297 C 
ATOM     56  O55 ZIN A   1      19.674  -3.245  12.789  0.00  0.00    -0.262 OA
BRANCH  55  57
ATOM     57  O56 ZIN A   1      20.865  -3.687  10.980  0.00  0.00    -0.324 OA
ATOM     58  C57 ZIN A   1      20.263  -4.866  10.386  0.00  0.00     0.213 C 
ENDBRANCH  55  57
ENDBRANCH  19  55
BRANCH   1  59
ATOM     59  C2  ZIN A   1      16.271   0.045  10.434  0.00  0.00     0.014 C 
ATOM     60  C1  ZIN A   1      15.988   0.061  11.937  0.00  0.00     0.006 C 
ENDBRANCH   1  59
BRANCH  20  61
ATOM     61  O60 ZIN A   1      17.612  -2.669  10.364  0.00  0.00    -0.311 OA
BRANCH  61  62
ATOM     62  C61 ZIN A   1      17.011  -3.588  11.135  0.00  0.00     0.255 C 
ATOM     63  C62 ZIN A   1      16.688  -4.949  10.574  0.00  0.00     0.126 C 
ATOM     64  O63 ZIN A   1      16.728  -3.325  12.281  0.00  0.00    -0.266 OA
ENDBRANCH  61  62
ENDBRANCH  20  61
TORSDOF 12
ENDMDL
MODEL 4
REMARK VINA RESULT:      -2.9      3.060     10.762
REMARK  12 active torsions:
REMARK  status: ('A' for Active; 'I' for Inactive)
REMARK    1  A    between atoms: C2_2  and  C3_3 
REMARK    2  A    between atoms: C15_15  and  O16_16 
REMARK    3  A    between atoms: C18_18  and  C19_19 
REMARK    4  A    between atoms: C19_19  and  C20_20 
REMARK    5  A    between atoms: C20_20  and  O22_22 
REMARK    6  A    between atoms: C31_30  and  O32_31 
REMARK    7  A    between atoms: C31_30  and  C33_32 
REMARK    8  A    between atoms: C52_50  and  O53_51 
REMARK    9  A    between atoms: C52_50  and  C54_52 
REMARK   10  A    between atoms: C54_52  and  O56_54 
REMARK   11  A    between atoms: C58_56  and  O60_57 
REMARK   12  A    between atoms: O60_57  and  C61_58 
ROOT
ATOM      1  C3  ZIN A   1      17.253   7.958  17.219  0.00  0.00     0.037 C 
ATOM      2  C4  ZIN A   1      16.758   9.353  16.987  0.00  0.00    -0.015 C 
ATOM      3  C5  ZIN A   1      15.732   9.613  16.234  0.00  0.00    -0.003 C 
ATOM      4  C6  ZIN A   1      14.958   8.521  15.557  0.00  0.00     0.262 C 
ATOM      5  N7  ZIN A   1      15.827   7.387  15.233  0.00  0.00    -0.061 N 
ATOM      6  H8  ZIN A   1      16.451   7.626  14.476  0.00  0.00     0.280 HD
ATOM      7  C9  ZIN A   1      14.945   6.251  14.840  0.00  0.00     0.237 C 
ATOM      8  C10 ZIN A   1      14.581   5.574  16.184  0.00  0.00     0.046 C 
ATOM      9  C11 ZIN A   1      15.876   5.754  17.026  0.00  0.00     0.040 C 
ATOM     10  C12 ZIN A   1      16.672   4.483  16.933  0.00  0.00    -0.024 A 
ATOM     11  C13 ZIN A   1      16.931   4.035  18.233  0.00  0.00     0.020 A 
ATOM     12  C14 ZIN A   1      17.643   2.852  18.444  0.00  0.00     0.061 A 
ATOM     13  C15 ZIN A   1      18.083   2.165  17.318  0.00  0.00     0.077 A 
ATOM     14  C18 ZIN A   1      17.830   2.627  16.037  0.00  0.00     0.000 A 
ATOM     15  C47 ZIN A   1      17.117   3.799  15.818  0.00  0.00     0.021 A 
ATOM     16  N48 ZIN A   1      16.421   4.912  19.177  0.00  0.00    -0.278 NA
ATOM     17  C49 ZIN A   1      15.733   4.186  20.253  0.00  0.00     0.117 C 
ATOM     18  C50 ZIN A   1      15.498   5.859  18.499  0.00  0.00     0.125 C 
ATOM     19  C52 ZIN A   1      15.760   7.247  19.078  0.00  0.00     0.190 C 
ATOM     20  C58 ZIN A   1      17.204   7.646  18.716  0.00  0.00     0.192 C 
ATOM     21  C64 ZIN A   1      16.563   6.931  16.400  0.00  0.00     0.218 C 
ENDROOT
BRANCH  14  22
ATOM     22  C19 ZIN A   1      18.343   1.837  14.849  0.00  0.00     0.121 C 
ATOM     23  C39 ZIN A   1      18.121   2.689  13.577  0.00  0.00     0.040 A 
ATOM     24  C38 ZIN A   1      18.743   2.607  12.444  0.00  0.00    -0.020 A 
ATOM     25  N40 ZIN A   1      17.106   3.687  13.573  0.00  0.00    -0.357 N 
ATOM     26  C37 ZIN A   1      19.824   1.892  11.689  0.00  0.00     0.069 C 
ATOM     27  C46 ZIN A   1      18.151   3.726  11.596  0.00  0.00    -0.001 A 
ATOM     28  C36 ZIN A   1      19.688   0.450  11.622  0.00  0.00     0.239 C 
ATOM     29  N28 ZIN A   1      18.489  -0.219  11.332  0.00  0.00    -0.068 N 
ATOM     30  C27 ZIN A   1      17.431   0.185  12.210  0.00  0.00     0.239 C 
ATOM     31  H29 ZIN A   1      18.200   0.047  10.379  0.00  0.00     0.280 HD
ATOM     32  C30 ZIN A   1      18.517  -1.721  11.343  0.00  0.00     0.272 C 
ATOM     33  C25 ZIN A   1      17.982  -0.172  13.589  0.00  0.00     0.016 C 
ATOM     34  C24 ZIN A   1      17.633   0.603  14.773  0.00  0.00     0.037 C 
ATOM     35  C35 ZIN A   1      17.648  -1.735  13.723  0.00  0.00     0.045 C 
ATOM     36  C31 ZIN A   1      18.565  -2.355  12.678  0.00  0.00     0.082 C 
ATOM     37  C41 ZIN A   1      17.137   4.346  12.383  0.00  0.00     0.043 A 
ATOM     38  C45 ZIN A   1      18.414   4.231  10.359  0.00  0.00     0.014 C 
ATOM     39  C42 ZIN A   1      16.419   5.487  11.927  0.00  0.00     0.030 C 
ATOM     40  C43 ZIN A   1      16.707   5.808  10.634  0.00  0.00     0.002 C 
ATOM     41  C44 ZIN A   1      17.673   5.258   9.910  0.00  0.00     0.001 C 
ATOM     42 4H10 ZIN A   1      16.447   3.871  14.250  0.00  0.00     0.166 HD
BRANCH  36  43
ATOM     43  O32 ZIN A   1      19.921  -2.252  13.206  0.00  0.00    -0.388 OA
ATOM     44  H92 ZIN A   1      20.351  -1.405  13.024  0.00  0.00     0.210 HD
ENDBRANCH  36  43
BRANCH  36  45
ATOM     45  C33 ZIN A   1      18.259  -3.856  12.540  0.00  0.00     0.035 C 
ATOM     46  C34 ZIN A   1      17.408  -4.090  11.290  0.00  0.00     0.008 C 
ENDBRANCH  36  45
BRANCH  22  47
ATOM     47  C20 ZIN A   1      19.832   1.698  15.036  0.00  0.00     0.278 C 
ATOM     48  O21 ZIN A   1      20.413   0.747  14.569  0.00  0.00    -0.264 OA
BRANCH  47  49
ATOM     49  O22 ZIN A   1      20.512   2.631  15.719  0.00  0.00    -0.325 OA
ATOM     50  C23 ZIN A   1      20.398   4.002  15.256  0.00  0.00     0.213 C 
ENDBRANCH  47  49
ENDBRANCH  22  47
ENDBRANCH  14  22
BRANCH  13  51
ATOM     51  O16 ZIN A   1      18.780   1.010  17.479  0.00  0.00    -0.355 OA
ATOM     52  C17 ZIN A   1      18.193   0.009  18.314  0.00  0.00     0.210 C 
ENDBRANCH  13  51
BRANCH  19  53
ATOM     53  O53 ZIN A   1      14.846   8.185  18.507  0.00  0.00    -0.376 OA
ATOM     54 3H11 ZIN A   1      14.815   8.165  17.541  0.00  0.00     0.211 HD
ENDBRANCH  19  53
BRANCH  19  55
ATOM     55  C54 ZIN A   1      15.581   7.213  20.574  0.00  0.00     0.297 C 
ATOM     56  O55 ZIN A   1      16.147   6.371  21.231  0.00  0.00    -0.262 OA
BRANCH  55  57
ATOM     57  O56 ZIN A   1      14.793   8.117  21.177  0.00  0.00    -0.324 OA
ATOM     58  C57 ZIN A   1      13.374   7.822  21.233  0.00  0.00     0.213 C 
ENDBRANCH  55  57
ENDBRANCH  19  55
BRANCH   1  59
ATOM     59  C2  ZIN A   1      18.727   7.937  16.812  0.00  0.00     0.014 C 
ATOM     60  C1  ZIN A   1      18.895   7.090  15.549  0.00  0.00     0.006 C 
ENDBRANCH   1  59
BRANCH  20  61
ATOM     61  O60 ZIN A   1      17.595   8.819  19.478  0.00  0.00    -0.311 OA
BRANCH  61  62
ATOM     62  C61 ZIN A   1      18.486   8.636  20.464  0.00  0.00     0.255 C 
ATOM     63  C62 ZIN A   1      19.083   7.272  20.697  0.00  0.00     0.126 C 
ATOM     64  O63 ZIN A   1      18.811   9.565  21.165  0.00  0.00    -0.266 OA
ENDBRANCH  61  62
ENDBRANCH  20  61
TORSDOF 12
ENDMDL
MODEL 5
REMARK VINA RESULT:      -2.4      3.900     10.993
REMARK  12 active torsions:
REMARK  status: ('A' for Active; 'I' for Inactive)
REMARK    1  A    between atoms: C2_2  and  C3_3 
REMARK    2  A    between atoms: C15_15  and  O16_16 
REMARK    3  A    between atoms: C18_18  and  C19_19 
REMARK    4  A    between atoms: C19_19  and  C20_20 
REMARK    5  A    between atoms: C20_20  and  O22_22 
REMARK    6  A    between atoms: C31_30  and  O32_31 
REMARK    7  A    between atoms: C31_30  and  C33_32 
REMARK    8  A    between atoms: C52_50  and  O53_51 
REMARK    9  A    between atoms: C52_50  and  C54_52 
REMARK   10  A    between atoms: C54_52  and  O56_54 
REMARK   11  A    between atoms: C58_56  and  O60_57 
REMARK   12  A    between atoms: O60_57  and  C61_58 
ROOT
ATOM      1  C3  ZIN A   1      18.031  -0.560  12.374  0.00  0.00     0.037 C 
ATOM      2  C4  ZIN A   1      18.389  -0.307  13.807  0.00  0.00    -0.015 C 
ATOM      3  C5  ZIN A   1      19.297  -0.995  14.431  0.00  0.00    -0.003 C 
ATOM      4  C6  ZIN A   1      20.065  -2.085  13.746  0.00  0.00     0.262 C 
ATOM      5  N7  ZIN A   1      19.251  -2.728  12.711  0.00  0.00    -0.061 N 
ATOM      6  H8  ZIN A   1      18.527  -3.291  13.132  0.00  0.00     0.280 HD
ATOM      7  C9  ZIN A   1      20.163  -3.580  11.896  0.00  0.00     0.237 C 
ATOM      8  C10 ZIN A   1      20.733  -2.612  10.831  0.00  0.00     0.046 C 
ATOM      9  C11 ZIN A   1      19.536  -1.658  10.553  0.00  0.00     0.040 C 
ATOM     10  C12 ZIN A   1      18.831  -2.144   9.317  0.00  0.00    -0.024 A 
ATOM     11  C13 ZIN A   1      18.762  -1.081   8.410  0.00  0.00     0.020 A 
ATOM     12  C14 ZIN A   1      18.170  -1.259   7.157  0.00  0.00     0.061 A 
ATOM     13  C15 ZIN A   1      17.654  -2.517   6.872  0.00  0.00     0.077 A 
ATOM     14  C18 ZIN A   1      17.718  -3.557   7.784  0.00  0.00     0.000 A 
ATOM     15  C47 ZIN A   1      18.311  -3.391   9.029  0.00  0.00     0.021 A 
ATOM     16  N48 ZIN A   1      19.313   0.073   8.945  0.00  0.00    -0.278 NA
ATOM     17  C49 ZIN A   1      20.175   0.748   7.966  0.00  0.00     0.117 C 
ATOM     18  C50 ZIN A   1      20.076  -0.286  10.169  0.00  0.00     0.125 C 
ATOM     19  C52 ZIN A   1      19.782   0.780  11.221  0.00  0.00     0.190 C 
ATOM     20  C58 ZIN A   1      18.279   0.710  11.558  0.00  0.00     0.192 C 
ATOM     21  C64 ZIN A   1      18.695  -1.752  11.790  0.00  0.00     0.218 C 
ENDROOT
BRANCH  14  22
ATOM     22  C19 ZIN A   1      17.129  -4.905   7.416  0.00  0.00     0.121 C 
ATOM     23  C39 ZIN A   1      17.462  -5.183   5.932  0.00  0.00     0.040 A 
ATOM     24  C38 ZIN A   1      17.521  -6.328   5.328  0.00  0.00    -0.020 A 
ATOM     25  N40 ZIN A   1      17.722  -4.089   5.057  0.00  0.00    -0.357 N 
ATOM     26  C37 ZIN A   1      17.386  -7.811   5.501  0.00  0.00     0.069 C 
ATOM     27  C46 ZIN A   1      17.950  -5.993   3.906  0.00  0.00    -0.001 A 
ATOM     28  C36 ZIN A   1      16.122  -8.261   6.052  0.00  0.00     0.239 C 
ATOM     29  N28 ZIN A   1      14.866  -7.791   5.637  0.00  0.00    -0.068 N 
ATOM     30  C27 ZIN A   1      14.784  -6.363   5.713  0.00  0.00     0.239 C 
ATOM     31  H29 ZIN A   1      14.745  -8.042   4.645  0.00  0.00     0.280 HD
ATOM     32  C30 ZIN A   1      13.658  -8.337   6.343  0.00  0.00     0.272 C 
ATOM     33  C25 ZIN A   1      15.054  -6.087   7.191  0.00  0.00     0.016 C 
ATOM     34  C24 ZIN A   1      15.720  -4.867   7.630  0.00  0.00     0.037 C 
ATOM     35  C35 ZIN A   1      13.622  -6.319   7.875  0.00  0.00     0.045 C 
ATOM     36  C31 ZIN A   1      13.420  -7.818   7.707  0.00  0.00     0.082 C 
ATOM     37  C41 ZIN A   1      18.051  -4.573   3.830  0.00  0.00     0.043 A 
ATOM     38  C45 ZIN A   1      18.272  -6.727   2.805  0.00  0.00     0.014 C 
ATOM     39  C42 ZIN A   1      18.504  -3.910   2.654  0.00  0.00     0.030 C 
ATOM     40  C43 ZIN A   1      18.679  -4.761   1.604  0.00  0.00     0.002 C 
ATOM     41  C44 ZIN A   1      18.621  -6.085   1.678  0.00  0.00     0.001 C 
ATOM     42 4H10 ZIN A   1      17.640  -3.148   5.239  0.00  0.00     0.166 HD
BRANCH  36  43
ATOM     43  O32 ZIN A   1      14.343  -8.465   8.632  0.00  0.00    -0.388 OA
ATOM     44  H92 ZIN A   1      14.810  -9.224   8.255  0.00  0.00     0.210 HD
ENDBRANCH  36  43
BRANCH  36  45
ATOM     45  C33 ZIN A   1      12.001  -8.206   8.159  0.00  0.00     0.035 C 
ATOM     46  C34 ZIN A   1      11.792  -9.708   7.949  0.00  0.00     0.008 C 
ENDBRANCH  36  45
BRANCH  22  47
ATOM     47  C20 ZIN A   1      17.865  -5.933   8.236  0.00  0.00     0.278 C 
ATOM     48  O21 ZIN A   1      19.045  -6.117   8.057  0.00  0.00    -0.264 OA
BRANCH  47  49
ATOM     49  O22 ZIN A   1      17.209  -6.645   9.166  0.00  0.00    -0.325 OA
ATOM     50  C23 ZIN A   1      17.540  -6.379  10.554  0.00  0.00     0.213 C 
ENDBRANCH  47  49
ENDBRANCH  22  47
ENDBRANCH  14  22
BRANCH  13  51
ATOM     51  O16 ZIN A   1      17.069  -2.733   5.664  0.00  0.00    -0.355 OA
ATOM     52  C17 ZIN A   1      16.695  -1.579   4.909  0.00  0.00     0.210 C 
ENDBRANCH  13  51
BRANCH  19  53
ATOM     53  O53 ZIN A   1      20.549   0.518  12.398  0.00  0.00    -0.376 OA
ATOM     54 3H11 ZIN A   1      20.285   1.046  13.164  0.00  0.00     0.211 HD
ENDBRANCH  19  53
BRANCH  19  55
ATOM     55  C54 ZIN A   1      20.137   2.139  10.677  0.00  0.00     0.297 C 
ATOM     56  O55 ZIN A   1      19.664   2.514   9.630  0.00  0.00    -0.262 OA
BRANCH  55  57
ATOM     57  O56 ZIN A   1      20.980   2.935  11.356  0.00  0.00    -0.324 OA
ATOM     58  C57 ZIN A   1      20.465   4.219  11.794  0.00  0.00     0.213 C 
ENDBRANCH  55  57
ENDBRANCH  19  55
BRANCH   1  59
ATOM     59  C2  ZIN A   1      16.525  -0.824  12.334  0.00  0.00     0.014 C 
ATOM     60  C1  ZIN A   1      15.962  -0.362  10.989  0.00  0.00     0.006 C 
ENDBRANCH   1  59
BRANCH  20  61
ATOM     61  O60 ZIN A   1      17.894   1.877  12.331  0.00  0.00    -0.311 OA
BRANCH  61  62
ATOM     62  C61 ZIN A   1      17.271   2.866  11.672  0.00  0.00     0.255 C 
ATOM     63  C62 ZIN A   1      17.066   4.203  12.337  0.00  0.00     0.126 C 
ATOM     64  O63 ZIN A   1      16.874   2.684  10.545  0.00  0.00    -0.266 OA
ENDBRANCH  61  62
ENDBRANCH  20  61
TORSDOF 12
ENDMDL
MODEL 6
REMARK VINA RESULT:      -2.4      3.268     10.284
REMARK  12 active torsions:
REMARK  status: ('A' for Active; 'I' for Inactive)
REMARK    1  A    between atoms: C2_2  and  C3_3 
REMARK    2  A    between atoms: C15_15  and  O16_16 
REMARK    3  A    between atoms: C18_18  and  C19_19 
REMARK    4  A    between atoms: C19_19  and  C20_20 
REMARK    5  A    between atoms: C20_20  and  O22_22 
REMARK    6  A    between atoms: C31_30  and  O32_31 
REMARK    7  A    between atoms: C31_30  and  C33_32 
REMARK    8  A    between atoms: C52_50  and  O53_51 
REMARK    9  A    between atoms: C52_50  and  C54_52 
REMARK   10  A    between atoms: C54_52  and  O56_54 
REMARK   11  A    between atoms: C58_56  and  O60_57 
REMARK   12  A    between atoms: O60_57  and  C61_58 
ROOT
ATOM      1  C3  ZIN A   1      17.723   0.494  12.866  0.00  0.00     0.037 C 
ATOM      2  C4  ZIN A   1      17.911   0.839  14.312  0.00  0.00    -0.015 C 
ATOM      3  C5  ZIN A   1      18.776   0.233  15.067  0.00  0.00    -0.003 C 
ATOM      4  C6  ZIN A   1      19.665  -0.849  14.530  0.00  0.00     0.262 C 
ATOM      5  N7  ZIN A   1      19.001  -1.586  13.453  0.00  0.00    -0.061 N 
ATOM      6  H8  ZIN A   1      18.262  -2.165  13.825  0.00  0.00     0.280 HD
ATOM      7  C9  ZIN A   1      20.036  -2.430  12.789  0.00  0.00     0.237 C 
ATOM      8  C10 ZIN A   1      20.672  -1.488  11.738  0.00  0.00     0.046 C 
ATOM      9  C11 ZIN A   1      19.469  -0.615  11.281  0.00  0.00     0.040 C 
ATOM     10  C12 ZIN A   1      18.927  -1.199  10.006  0.00  0.00    -0.024 A 
ATOM     11  C13 ZIN A   1      18.907  -0.189   9.038  0.00  0.00     0.020 A 
ATOM     12  C14 ZIN A   1      18.465  -0.462   7.741  0.00  0.00     0.061 A 
ATOM     13  C15 ZIN A   1      18.043  -1.759   7.474  0.00  0.00     0.077 A 
ATOM     14  C18 ZIN A   1      18.057  -2.746   8.445  0.00  0.00     0.000 A 
ATOM     15  C47 ZIN A   1      18.501  -2.485   9.735  0.00  0.00     0.021 A 
ATOM     16  N48 ZIN A   1      19.341   1.019   9.563  0.00  0.00    -0.278 NA
ATOM     17  C49 ZIN A   1      20.272   1.688   8.645  0.00  0.00     0.117 C 
ATOM     18  C50 ZIN A   1      19.983   0.763  10.879  0.00  0.00     0.125 C 
ATOM     19  C52 ZIN A   1      19.525   1.864  11.832  0.00  0.00     0.190 C 
ATOM     20  C58 ZIN A   1      17.999   1.732  12.011  0.00  0.00     0.192 C 
ATOM     21  C64 ZIN A   1      18.503  -0.689  12.424  0.00  0.00     0.218 C 
ENDROOT
BRANCH  14  22
ATOM     22  C19 ZIN A   1      17.576  -4.140   8.093  0.00  0.00     0.121 C 
ATOM     23  C39 ZIN A   1      18.764  -5.114   8.270  0.00  0.00     0.040 A 
ATOM     24  C38 ZIN A   1      18.724  -6.393   8.474  0.00  0.00    -0.020 A 
ATOM     25  N40 ZIN A   1      20.095  -4.616   8.184  0.00  0.00    -0.357 N 
ATOM     26  C37 ZIN A   1      17.821  -7.574   8.663  0.00  0.00     0.069 C 
ATOM     27  C46 ZIN A   1      20.182  -6.806   8.630  0.00  0.00    -0.001 A 
ATOM     28  C36 ZIN A   1      16.857  -7.799   7.602  0.00  0.00     0.239 C 
ATOM     29  N28 ZIN A   1      17.162  -7.744   6.233  0.00  0.00    -0.068 N 
ATOM     30  C27 ZIN A   1      17.781  -6.501   5.878  0.00  0.00     0.239 C 
ATOM     31  H29 ZIN A   1      17.849  -8.484   6.031  0.00  0.00     0.280 HD
ATOM     32  C30 ZIN A   1      16.033  -7.962   5.266  0.00  0.00     0.272 C 
ATOM     33  C25 ZIN A   1      16.729  -5.471   6.286  0.00  0.00     0.016 C 
ATOM     34  C24 ZIN A   1      17.105  -4.141   6.748  0.00  0.00     0.037 C 
ATOM     35  C35 ZIN A   1      15.725  -5.458   5.036  0.00  0.00     0.045 C 
ATOM     36  C31 ZIN A   1      15.086  -6.837   5.117  0.00  0.00     0.082 C 
ATOM     37  C41 ZIN A   1      20.965  -5.631   8.433  0.00  0.00     0.043 A 
ATOM     38  C45 ZIN A   1      20.820  -7.968   8.939  0.00  0.00     0.014 C 
ATOM     39  C42 ZIN A   1      22.382  -5.634   8.579  0.00  0.00     0.030 C 
ATOM     40  C43 ZIN A   1      22.887  -6.884   8.776  0.00  0.00     0.002 C 
ATOM     41  C44 ZIN A   1      22.162  -7.974   8.995  0.00  0.00     0.001 C 
ATOM     42 4H10 ZIN A   1      20.386  -3.731   7.940  0.00  0.00     0.166 HD
BRANCH  36  43
ATOM     43  O32 ZIN A   1      14.192  -6.810   6.269  0.00  0.00    -0.388 OA
ATOM     44  H92 ZIN A   1      14.646  -6.864   7.121  0.00  0.00     0.210 HD
ENDBRANCH  36  43
BRANCH  36  45
ATOM     45  C33 ZIN A   1      14.203  -7.075   3.880  0.00  0.00     0.035 C 
ATOM     46  C34 ZIN A   1      14.226  -5.830   2.990  0.00  0.00     0.008 C 
ENDBRANCH  36  45
BRANCH  22  47
ATOM     47  C20 ZIN A   1      16.541  -4.511   9.124  0.00  0.00     0.278 C 
ATOM     48  O21 ZIN A   1      15.524  -5.069   8.786  0.00  0.00    -0.264 OA
BRANCH  47  49
ATOM     49  O22 ZIN A   1      16.749  -4.221  10.418  0.00  0.00    -0.325 OA
ATOM     50  C23 ZIN A   1      16.748  -5.334  11.351  0.00  0.00     0.213 C 
ENDBRANCH  47  49
ENDBRANCH  22  47
ENDBRANCH  14  22
BRANCH  13  51
ATOM     51  O16 ZIN A   1      17.605  -2.066   6.225  0.00  0.00    -0.355 OA
ATOM     52  C17 ZIN A   1      17.627  -1.019   5.253  0.00  0.00     0.210 C 
ENDBRANCH  13  51
BRANCH  19  53
ATOM     53  O53 ZIN A   1      20.170   1.704  13.097  0.00  0.00    -0.376 OA
ATOM     54 3H11 ZIN A   1      20.847   1.013  13.107  0.00  0.00     0.211 HD
ENDBRANCH  19  53
BRANCH  19  55
ATOM     55  C54 ZIN A   1      19.872   3.211  11.253  0.00  0.00     0.297 C 
ATOM     56  O55 ZIN A   1      19.347   3.584  10.231  0.00  0.00    -0.262 OA
BRANCH  55  57
ATOM     57  O56 ZIN A   1      20.767   3.998  11.873  0.00  0.00    -0.324 OA
ATOM     58  C57 ZIN A   1      20.242   5.038  12.739  0.00  0.00     0.213 C 
ENDBRANCH  55  57
ENDBRANCH  19  55
BRANCH   1  59
ATOM     59  C2  ZIN A   1      16.245   0.149  12.680  0.00  0.00     0.014 C 
ATOM     60  C1  ZIN A   1      15.930   0.038  11.188  0.00  0.00     0.006 C 
ENDBRANCH   1  59
BRANCH  20  61
ATOM     61  O60 ZIN A   1      17.477   2.914  12.671  0.00  0.00    -0.311 OA
BRANCH  61  62
ATOM     62  C61 ZIN A   1      16.931   3.858  11.889  0.00  0.00     0.255 C 
ATOM     63  C62 ZIN A   1      16.665   5.235  12.442  0.00  0.00     0.126 C 
ATOM     64  O63 ZIN A   1      16.651   3.604  10.741  0.00  0.00    -0.266 OA
ENDBRANCH  61  62
ENDBRANCH  20  61
TORSDOF 12
ENDMDL
