MODEL 1
REMARK VINA RESULT:      -7.0      0.000      0.000
REMARK  8 active torsions:
REMARK  status: ('A' for Active; 'I' for Inactive)
REMARK    1  A    between atoms: N2_2  and  C4_4 
REMARK    2  A    between atoms: C4_4  and  C5_5 
REMARK    3  A    between atoms: C5_5  and  O6_6 
REMARK    4  A    between atoms: O6_6  and  C7_7 
REMARK    5  A    between atoms: C7_7  and  C9_9 
REMARK    6  A    between atoms: C9_9  and  C11_10 
REMARK    7  A    between atoms: C9_9  and  C17_16 
REMARK    8  A    between atoms: C17_16  and  O18_17 
ROOT
ATOM      1  C9  ZIN A   1      18.532   0.848  10.336  0.00  0.00     0.152 C 
ENDROOT
BRANCH   1   2
ATOM      2  C7  ZIN A   1      19.738   0.053  10.768  0.00  0.00     0.270 C 
ATOM      3  O8  ZIN A   1      20.513  -0.364   9.941  0.00  0.00    -0.264 OA
BRANCH   2   4
ATOM      4  O6  ZIN A   1      19.949  -0.191  12.071  0.00  0.00    -0.319 OA
BRANCH   4   5
ATOM      5  C5  ZIN A   1      19.016  -1.085  12.734  0.00  0.00     0.209 C 
BRANCH   5   6
ATOM      6  C4  ZIN A   1      19.483  -1.337  14.168  0.00  0.00     0.298 C 
BRANCH   6   7
ATOM      7  N2  ZIN A   1      18.361  -1.125  15.093  0.00  0.00     0.082 N 
ATOM      8  C1  ZIN A   1      18.786  -1.310  16.487  0.00  0.00     0.309 C 
ATOM      9  C3  ZIN A   1      17.762   0.202  14.898  0.00  0.00     0.309 C 
ENDBRANCH   6   7
ENDBRANCH   5   6
ENDBRANCH   4   5
ENDBRANCH   2   4
ENDBRANCH   1   2
BRANCH   1  10
ATOM     10  C11 ZIN A   1      18.372   0.747   8.842  0.00  0.00    -0.042 A 
ATOM     11  C16 ZIN A   1      19.236   1.430   8.006  0.00  0.00     0.008 A 
ATOM     12  C15 ZIN A   1      19.091   1.335   6.635  0.00  0.00     0.001 A 
ATOM     13  C14 ZIN A   1      18.078   0.564   6.099  0.00  0.00     0.000 A 
ATOM     14  C13 ZIN A   1      17.210  -0.115   6.934  0.00  0.00     0.001 A 
ATOM     15  C12 ZIN A   1      17.357  -0.024   8.306  0.00  0.00     0.008 A 
ENDBRANCH   1  10
BRANCH   1  16
ATOM     16  C17 ZIN A   1      18.721   2.315  10.731  0.00  0.00     0.074 C 
ATOM     17  C22 ZIN A   1      17.927   2.635  12.014  0.00  0.00     0.039 C 
ATOM     18  C21 ZIN A   1      17.362   4.056  11.838  0.00  0.00     0.003 C 
ATOM     19  C20 ZIN A   1      17.833   4.549  10.454  0.00  0.00     0.003 C 
ATOM     20  C19 ZIN A   1      18.105   3.248   9.659  0.00  0.00     0.039 C 
BRANCH  16  21
ATOM     21  O18 ZIN A   1      20.107   2.607  10.915  0.00  0.00    -0.389 OA
ATOM     22  H38 ZIN A   1      20.675   2.288  10.199  0.00  0.00     0.210 HD
ENDBRANCH  16  21
ENDBRANCH   1  16
TORSDOF 8
ENDMDL
MODEL 2
REMARK VINA RESULT:      -6.9      1.685      2.599
REMARK  8 active torsions:
REMARK  status: ('A' for Active; 'I' for Inactive)
REMARK    1  A    between atoms: N2_2  and  C4_4 
REMARK    2  A    between atoms: C4_4  and  C5_5 
REMARK    3  A    between atoms: C5_5  and  O6_6 
REMARK    4  A    between atoms: O6_6  and  C7_7 
REMARK    5  A    between atoms: C7_7  and  C9_9 
REMARK    6  A    between atoms: C9_9  and  C11_10 
REMARK    7  A    between atoms: C9_9  and  C17_16 
REMARK    8  A    between atoms: C17_16  and  O18_17 
ROOT
ATOM      1  C9  ZIN A   1      18.400   0.682  10.316  0.00  0.00     0.152 C 
ENDROOT
BRANCH   1   2
ATOM      2  C7  ZIN A   1      19.535  -0.205  10.760  0.00  0.00     0.270 C 
ATOM      3  O8  ZIN A   1      20.429  -0.471   9.993  0.00  0.00    -0.264 OA
BRANCH   2   4
ATOM      4  O6  ZIN A   1      19.551  -0.701  12.008  0.00  0.00    -0.319 OA
BRANCH   4   5
ATOM      5  C5  ZIN A   1      18.401  -1.487  12.419  0.00  0.00     0.209 C 
BRANCH   5   6
ATOM      6  C4  ZIN A   1      18.584  -2.935  11.962  0.00  0.00     0.298 C 
BRANCH   6   7
ATOM      7  N2  ZIN A   1      17.514  -3.289  11.019  0.00  0.00     0.082 N 
ATOM      8  C1  ZIN A   1      18.029  -3.373   9.646  0.00  0.00     0.309 C 
ATOM      9  C3  ZIN A   1      16.860  -4.543  11.413  0.00  0.00     0.309 C 
ENDBRANCH   6   7
ENDBRANCH   5   6
ENDBRANCH   4   5
ENDBRANCH   2   4
ENDBRANCH   1   2
BRANCH   1  10
ATOM     10  C11 ZIN A   1      18.295   0.650   8.814  0.00  0.00    -0.042 A 
ATOM     11  C16 ZIN A   1      17.286  -0.075   8.207  0.00  0.00     0.008 A 
ATOM     12  C15 ZIN A   1      17.187  -0.102   6.829  0.00  0.00     0.001 A 
ATOM     13  C14 ZIN A   1      18.101   0.588   6.056  0.00  0.00     0.000 A 
ATOM     14  C13 ZIN A   1      19.113   1.309   6.663  0.00  0.00     0.001 A 
ATOM     15  C12 ZIN A   1      19.210   1.340   8.042  0.00  0.00     0.008 A 
ENDBRANCH   1  10
BRANCH   1  16
ATOM     16  C17 ZIN A   1      18.665   2.118  10.778  0.00  0.00     0.074 C 
ATOM     17  C22 ZIN A   1      17.880   2.422  12.071  0.00  0.00     0.039 C 
ATOM     18  C21 ZIN A   1      17.395   3.878  11.957  0.00  0.00     0.003 C 
ATOM     19  C20 ZIN A   1      17.901   4.407  10.599  0.00  0.00     0.003 C 
ATOM     20  C19 ZIN A   1      18.108   3.130   9.747  0.00  0.00     0.039 C 
BRANCH  16  21
ATOM     21  O18 ZIN A   1      20.064   2.325  10.981  0.00  0.00    -0.389 OA
ATOM     22  H38 ZIN A   1      20.286   3.205  11.318  0.00  0.00     0.210 HD
ENDBRANCH  16  21
ENDBRANCH   1  16
TORSDOF 8
ENDMDL
MODEL 3
REMARK VINA RESULT:      -6.8      1.803      3.894
REMARK  8 active torsions:
REMARK  status: ('A' for Active; 'I' for Inactive)
REMARK    1  A    between atoms: N2_2  and  C4_4 
REMARK    2  A    between atoms: C4_4  and  C5_5 
REMARK    3  A    between atoms: C5_5  and  O6_6 
REMARK    4  A    between atoms: O6_6  and  C7_7 
REMARK    5  A    between atoms: C7_7  and  C9_9 
REMARK    6  A    between atoms: C9_9  and  C11_10 
REMARK    7  A    between atoms: C9_9  and  C17_16 
REMARK    8  A    between atoms: C17_16  and  O18_17 
ROOT
ATOM      1  C9  ZIN A   1      18.852   0.003  10.961  0.00  0.00     0.152 C 
ENDROOT
BRANCH   1   2
ATOM      2  C7  ZIN A   1      19.744   0.673  11.974  0.00  0.00     0.270 C 
ATOM      3  O8  ZIN A   1      20.927   0.424  11.995  0.00  0.00    -0.264 OA
BRANCH   2   4
ATOM      4  O6  ZIN A   1      19.226   1.544  12.854  0.00  0.00    -0.319 OA
BRANCH   4   5
ATOM      5  C5  ZIN A   1      19.133   1.108  14.236  0.00  0.00     0.209 C 
BRANCH   5   6
ATOM      6  C4  ZIN A   1      17.734   0.553  14.502  0.00  0.00     0.298 C 
BRANCH   6   7
ATOM      7  N2  ZIN A   1      17.844  -0.778  15.115  0.00  0.00     0.082 N 
ATOM      8  C1  ZIN A   1      19.210  -1.303  14.993  0.00  0.00     0.309 C 
ATOM      9  C3  ZIN A   1      17.415  -0.748  16.520  0.00  0.00     0.309 C 
ENDBRANCH   6   7
ENDBRANCH   5   6
ENDBRANCH   4   5
ENDBRANCH   2   4
ENDBRANCH   1   2
BRANCH   1  10
ATOM     10  C11 ZIN A   1      18.779  -1.473  11.251  0.00  0.00    -0.042 A 
ATOM     11  C16 ZIN A   1      19.940  -2.217  11.344  0.00  0.00     0.008 A 
ATOM     12  C15 ZIN A   1      19.874  -3.572  11.614  0.00  0.00     0.001 A 
ATOM     13  C14 ZIN A   1      18.647  -4.183  11.782  0.00  0.00     0.000 A 
ATOM     14  C13 ZIN A   1      17.485  -3.440  11.683  0.00  0.00     0.001 A 
ATOM     15  C12 ZIN A   1      17.551  -2.085  11.418  0.00  0.00     0.008 A 
ENDBRANCH   1  10
BRANCH   1  16
ATOM     16  C17 ZIN A   1      19.423   0.219   9.557  0.00  0.00     0.074 C 
ATOM     17  C22 ZIN A   1      19.389   1.716   9.185  0.00  0.00     0.039 C 
ATOM     18  C21 ZIN A   1      19.030   1.788   7.690  0.00  0.00     0.003 C 
ATOM     19  C20 ZIN A   1      18.859   0.333   7.207  0.00  0.00     0.003 C 
ATOM     20  C19 ZIN A   1      18.523  -0.458   8.495  0.00  0.00     0.039 C 
BRANCH  16  21
ATOM     21  O18 ZIN A   1      20.758  -0.285   9.480  0.00  0.00    -0.389 OA
ATOM     22  H38 ZIN A   1      21.417   0.280   9.908  0.00  0.00     0.210 HD
ENDBRANCH  16  21
ENDBRANCH   1  16
TORSDOF 8
ENDMDL
MODEL 4
REMARK VINA RESULT:      -6.6      2.445      4.689
REMARK  8 active torsions:
REMARK  status: ('A' for Active; 'I' for Inactive)
REMARK    1  A    between atoms: N2_2  and  C4_4 
REMARK    2  A    between atoms: C4_4  and  C5_5 
REMARK    3  A    between atoms: C5_5  and  O6_6 
REMARK    4  A    between atoms: O6_6  and  C7_7 
REMARK    5  A    between atoms: C7_7  and  C9_9 
REMARK    6  A    between atoms: C9_9  and  C11_10 
REMARK    7  A    between atoms: C9_9  and  C17_16 
REMARK    8  A    between atoms: C17_16  and  O18_17 
ROOT
ATOM      1  C9  ZIN A   1      18.394  -0.356  11.066  0.00  0.00     0.152 C 
ENDROOT
BRANCH   1   2
ATOM      2  C7  ZIN A   1      17.189   0.204  11.778  0.00  0.00     0.270 C 
ATOM      3  O8  ZIN A   1      16.099   0.141  11.260  0.00  0.00    -0.264 OA
BRANCH   2   4
ATOM      4  O6  ZIN A   1      17.326   0.772  12.987  0.00  0.00    -0.319 OA
BRANCH   4   5
ATOM      5  C5  ZIN A   1      18.439   1.689  13.161  0.00  0.00     0.209 C 
BRANCH   5   6
ATOM      6  C4  ZIN A   1      17.922   3.128  13.137  0.00  0.00     0.298 C 
BRANCH   6   7
ATOM      7  N2  ZIN A   1      18.486   3.832  11.977  0.00  0.00     0.082 N 
ATOM      8  C1  ZIN A   1      19.837   3.343  11.670  0.00  0.00     0.309 C 
ATOM      9  C3  ZIN A   1      17.605   3.711  10.808  0.00  0.00     0.309 C 
ENDBRANCH   6   7
ENDBRANCH   5   6
ENDBRANCH   4   5
ENDBRANCH   2   4
ENDBRANCH   1   2
BRANCH   1  10
ATOM     10  C11 ZIN A   1      18.342   0.030   9.611  0.00  0.00    -0.042 A 
ATOM     11  C16 ZIN A   1      17.340  -0.467   8.799  0.00  0.00     0.008 A 
ATOM     12  C15 ZIN A   1      17.291  -0.111   7.464  0.00  0.00     0.001 A 
ATOM     13  C14 ZIN A   1      18.248   0.735   6.939  0.00  0.00     0.000 A 
ATOM     14  C13 ZIN A   1      19.255   1.228   7.750  0.00  0.00     0.001 A 
ATOM     15  C12 ZIN A   1      19.302   0.875   9.086  0.00  0.00     0.008 A 
ENDBRANCH   1  10
BRANCH   1  16
ATOM     16  C17 ZIN A   1      18.396  -1.881  11.190  0.00  0.00     0.074 C 
ATOM     17  C22 ZIN A   1      19.410  -2.335  12.261  0.00  0.00     0.039 C 
ATOM     18  C21 ZIN A   1      20.057  -3.627  11.733  0.00  0.00     0.003 C 
ATOM     19  C20 ZIN A   1      19.414  -3.914  10.360  0.00  0.00     0.003 C 
ATOM     20  C19 ZIN A   1      18.909  -2.530   9.881  0.00  0.00     0.039 C 
BRANCH  16  21
ATOM     21  O18 ZIN A   1      17.087  -2.357  11.508  0.00  0.00    -0.389 OA
ATOM     22  H38 ZIN A   1      16.946  -3.291  11.299  0.00  0.00     0.210 HD
ENDBRANCH  16  21
ENDBRANCH   1  16
TORSDOF 8
ENDMDL
MODEL 5
REMARK VINA RESULT:      -6.6      2.009      5.153
REMARK  8 active torsions:
REMARK  status: ('A' for Active; 'I' for Inactive)
REMARK    1  A    between atoms: N2_2  and  C4_4 
REMARK    2  A    between atoms: C4_4  and  C5_5 
REMARK    3  A    between atoms: C5_5  and  O6_6 
REMARK    4  A    between atoms: O6_6  and  C7_7 
REMARK    5  A    between atoms: C7_7  and  C9_9 
REMARK    6  A    between atoms: C9_9  and  C11_10 
REMARK    7  A    between atoms: C9_9  and  C17_16 
REMARK    8  A    between atoms: C17_16  and  O18_17 
ROOT
ATOM      1  C9  ZIN A   1      19.047   0.571  12.228  0.00  0.00     0.152 C 
ENDROOT
BRANCH   1   2
ATOM      2  C7  ZIN A   1      20.415   0.209  11.709  0.00  0.00     0.270 C 
ATOM      3  O8  ZIN A   1      21.400   0.692  12.216  0.00  0.00    -0.264 OA
BRANCH   2   4
ATOM      4  O6  ZIN A   1      20.540  -0.649  10.684  0.00  0.00    -0.319 OA
BRANCH   4   5
ATOM      5  C5  ZIN A   1      19.319  -1.251  10.177  0.00  0.00     0.209 C 
BRANCH   5   6
ATOM      6  C4  ZIN A   1      19.233  -1.033   8.666  0.00  0.00     0.298 C 
BRANCH   6   7
ATOM      7  N2  ZIN A   1      18.404   0.148   8.389  0.00  0.00     0.082 N 
ATOM      8  C1  ZIN A   1      19.228   1.274   7.928  0.00  0.00     0.309 C 
ATOM      9  C3  ZIN A   1      17.350  -0.165   7.415  0.00  0.00     0.309 C 
ENDBRANCH   6   7
ENDBRANCH   5   6
ENDBRANCH   4   5
ENDBRANCH   2   4
ENDBRANCH   1   2
BRANCH   1  10
ATOM     10  C11 ZIN A   1      18.737   2.002  11.874  0.00  0.00    -0.042 A 
ATOM     11  C16 ZIN A   1      19.551   3.019  12.334  0.00  0.00     0.008 A 
ATOM     12  C15 ZIN A   1      19.268   4.333  12.006  0.00  0.00     0.001 A 
ATOM     13  C14 ZIN A   1      18.167   4.628  11.226  0.00  0.00     0.000 A 
ATOM     14  C13 ZIN A   1      17.349   3.610  10.770  0.00  0.00     0.001 A 
ATOM     15  C12 ZIN A   1      17.634   2.297  11.094  0.00  0.00     0.008 A 
ENDBRANCH   1  10
BRANCH   1  16
ATOM     16  C17 ZIN A   1      19.019   0.404  13.749  0.00  0.00     0.074 C 
ATOM     17  C22 ZIN A   1      19.380  -1.044  14.141  0.00  0.00     0.039 C 
ATOM     18  C21 ZIN A   1      18.486  -1.411  15.338  0.00  0.00     0.003 C 
ATOM     19  C20 ZIN A   1      17.613  -0.173  15.632  0.00  0.00     0.003 C 
ATOM     20  C19 ZIN A   1      17.580   0.596  14.289  0.00  0.00     0.039 C 
BRANCH  16  21
ATOM     21  O18 ZIN A   1      19.916   1.329  14.368  0.00  0.00    -0.389 OA
ATOM     22  H38 ZIN A   1      20.396   0.963  15.125  0.00  0.00     0.210 HD
ENDBRANCH  16  21
ENDBRANCH   1  16
TORSDOF 8
ENDMDL
MODEL 6
REMARK VINA RESULT:      -6.6      1.458      2.103
REMARK  8 active torsions:
REMARK  status: ('A' for Active; 'I' for Inactive)
REMARK    1  A    between atoms: N2_2  and  C4_4 
REMARK    2  A    between atoms: C4_4  and  C5_5 
REMARK    3  A    between atoms: C5_5  and  O6_6 
REMARK    4  A    between atoms: O6_6  and  C7_7 
REMARK    5  A    between atoms: C7_7  and  C9_9 
REMARK    6  A    between atoms: C9_9  and  C11_10 
REMARK    7  A    between atoms: C9_9  and  C17_16 
REMARK    8  A    between atoms: C17_16  and  O18_17 
ROOT
ATOM      1  C9  ZIN A   1      17.613   1.610  10.890  0.00  0.00     0.152 C 
ENDROOT
BRANCH   1   2
ATOM      2  C7  ZIN A   1      17.308   0.337  11.639  0.00  0.00     0.270 C 
ATOM      3  O8  ZIN A   1      16.164   0.052  11.903  0.00  0.00    -0.264 OA
BRANCH   2   4
ATOM      4  O6  ZIN A   1      18.307  -0.477  12.013  0.00  0.00    -0.319 OA
BRANCH   4   5
ATOM      5  C5  ZIN A   1      18.106  -1.254  13.224  0.00  0.00     0.209 C 
BRANCH   5   6
ATOM      6  C4  ZIN A   1      19.340  -1.131  14.118  0.00  0.00     0.298 C 
BRANCH   6   7
ATOM      7  N2  ZIN A   1      18.949  -0.565  15.417  0.00  0.00     0.082 N 
ATOM      8  C1  ZIN A   1      17.544  -0.136  15.403  0.00  0.00     0.309 C 
ATOM      9  C3  ZIN A   1      19.197  -1.521  16.504  0.00  0.00     0.309 C 
ENDBRANCH   6   7
ENDBRANCH   5   6
ENDBRANCH   4   5
ENDBRANCH   2   4
ENDBRANCH   1   2
BRANCH   1  10
ATOM     10  C11 ZIN A   1      18.017   1.278   9.477  0.00  0.00    -0.042 A 
ATOM     11  C16 ZIN A   1      17.518   0.144   8.864  0.00  0.00     0.008 A 
ATOM     12  C15 ZIN A   1      17.886  -0.159   7.566  0.00  0.00     0.001 A 
ATOM     13  C14 ZIN A   1      18.760   0.667   6.885  0.00  0.00     0.000 A 
ATOM     14  C13 ZIN A   1      19.264   1.797   7.501  0.00  0.00     0.001 A 
ATOM     15  C12 ZIN A   1      18.893   2.103   8.797  0.00  0.00     0.008 A 
ENDBRANCH   1  10
BRANCH   1  16
ATOM     16  C17 ZIN A   1      18.757   2.350  11.587  0.00  0.00     0.074 C 
ATOM     17  C22 ZIN A   1      18.469   2.490  13.097  0.00  0.00     0.039 C 
ATOM     18  C21 ZIN A   1      18.984   3.879  13.514  0.00  0.00     0.003 C 
ATOM     19  C20 ZIN A   1      19.567   4.533  12.245  0.00  0.00     0.003 C 
ATOM     20  C19 ZIN A   1      18.847   3.810  11.080  0.00  0.00     0.039 C 
BRANCH  16  21
ATOM     21  O18 ZIN A   1      19.994   1.666  11.376  0.00  0.00    -0.389 OA
ATOM     22  H38 ZIN A   1      19.938   0.707  11.492  0.00  0.00     0.210 HD
ENDBRANCH  16  21
ENDBRANCH   1  16
TORSDOF 8
ENDMDL
MODEL 7
REMARK VINA RESULT:      -6.5      2.459      5.222
REMARK  8 active torsions:
REMARK  status: ('A' for Active; 'I' for Inactive)
REMARK    1  A    between atoms: N2_2  and  C4_4 
REMARK    2  A    between atoms: C4_4  and  C5_5 
REMARK    3  A    between atoms: C5_5  and  O6_6 
REMARK    4  A    between atoms: O6_6  and  C7_7 
REMARK    5  A    between atoms: C7_7  and  C9_9 
REMARK    6  A    between atoms: C9_9  and  C11_10 
REMARK    7  A    between atoms: C9_9  and  C17_16 
REMARK    8  A    between atoms: C17_16  and  O18_17 
ROOT
ATOM      1  C9  ZIN A   1      19.945  -0.917  11.943  0.00  0.00     0.152 C 
ENDROOT
BRANCH   1   2
ATOM      2  C7  ZIN A   1      19.533   0.024  10.839  0.00  0.00     0.270 C 
ATOM      3  O8  ZIN A   1      19.098  -0.418   9.803  0.00  0.00    -0.264 OA
BRANCH   2   4
ATOM      4  O6  ZIN A   1      19.651   1.350  11.008  0.00  0.00    -0.319 OA
BRANCH   4   5
ATOM      5  C5  ZIN A   1      19.026   2.199  10.009  0.00  0.00     0.209 C 
BRANCH   5   6
ATOM      6  C4  ZIN A   1      17.678   2.696  10.535  0.00  0.00     0.298 C 
BRANCH   6   7
ATOM      7  N2  ZIN A   1      17.868   3.970  11.242  0.00  0.00     0.082 N 
ATOM      8  C1  ZIN A   1      16.970   5.006  10.712  0.00  0.00     0.309 C 
ATOM      9  C3  ZIN A   1      17.682   3.803  12.689  0.00  0.00     0.309 C 
ENDBRANCH   6   7
ENDBRANCH   5   6
ENDBRANCH   4   5
ENDBRANCH   2   4
ENDBRANCH   1   2
BRANCH   1  10
ATOM     10  C11 ZIN A   1      19.280  -2.253  11.741  0.00  0.00    -0.042 A 
ATOM     11  C16 ZIN A   1      20.049  -3.391  11.588  0.00  0.00     0.008 A 
ATOM     12  C15 ZIN A   1      19.438  -4.619  11.406  0.00  0.00     0.001 A 
ATOM     13  C14 ZIN A   1      18.060  -4.706  11.368  0.00  0.00     0.000 A 
ATOM     14  C13 ZIN A   1      17.291  -3.566  11.514  0.00  0.00     0.001 A 
ATOM     15  C12 ZIN A   1      17.901  -2.339  11.701  0.00  0.00     0.008 A 
ENDBRANCH   1  10
BRANCH   1  16
ATOM     16  C17 ZIN A   1      19.520  -0.335  13.294  0.00  0.00     0.074 C 
ATOM     17  C22 ZIN A   1      19.657  -1.395  14.406  0.00  0.00     0.039 C 
ATOM     18  C21 ZIN A   1      18.462  -1.192  15.355  0.00  0.00     0.003 C 
ATOM     19  C20 ZIN A   1      17.642  -0.016  14.787  0.00  0.00     0.003 C 
ATOM     20  C19 ZIN A   1      18.011   0.013  13.283  0.00  0.00     0.039 C 
BRANCH  16  21
ATOM     21  O18 ZIN A   1      20.300   0.821  13.606  0.00  0.00    -0.389 OA
ATOM     22  H38 ZIN A   1      20.016   1.623  13.145  0.00  0.00     0.210 HD
ENDBRANCH  16  21
ENDBRANCH   1  16
TORSDOF 8
ENDMDL
MODEL 8
REMARK VINA RESULT:      -6.5      2.267      4.790
REMARK  8 active torsions:
REMARK  status: ('A' for Active; 'I' for Inactive)
REMARK    1  A    between atoms: N2_2  and  C4_4 
REMARK    2  A    between atoms: C4_4  and  C5_5 
REMARK    3  A    between atoms: C5_5  and  O6_6 
REMARK    4  A    between atoms: O6_6  and  C7_7 
REMARK    5  A    between atoms: C7_7  and  C9_9 
REMARK    6  A    between atoms: C9_9  and  C11_10 
REMARK    7  A    between atoms: C9_9  and  C17_16 
REMARK    8  A    between atoms: C17_16  and  O18_17 
ROOT
ATOM      1  C9  ZIN A   1      18.807  -0.290  11.037  0.00  0.00     0.152 C 
ENDROOT
BRANCH   1   2
ATOM      2  C7  ZIN A   1      19.631   0.327  12.138  0.00  0.00     0.270 C 
ATOM      3  O8  ZIN A   1      20.823   0.464  11.994  0.00  0.00    -0.264 OA
BRANCH   2   4
ATOM      4  O6  ZIN A   1      19.042   0.724  13.276  0.00  0.00    -0.319 OA
BRANCH   4   5
ATOM      5  C5  ZIN A   1      19.002   2.152  13.536  0.00  0.00     0.209 C 
BRANCH   5   6
ATOM      6  C4  ZIN A   1      17.813   2.770  12.799  0.00  0.00     0.298 C 
BRANCH   6   7
ATOM      7  N2  ZIN A   1      18.289   3.838  11.908  0.00  0.00     0.082 N 
ATOM      8  C1  ZIN A   1      17.261   4.871  11.728  0.00  0.00     0.309 C 
ATOM      9  C3  ZIN A   1      19.540   4.421  12.409  0.00  0.00     0.309 C 
ENDBRANCH   6   7
ENDBRANCH   5   6
ENDBRANCH   4   5
ENDBRANCH   2   4
ENDBRANCH   1   2
BRANCH   1  10
ATOM     10  C11 ZIN A   1      18.754  -1.784  11.224  0.00  0.00    -0.042 A 
ATOM     11  C16 ZIN A   1      17.535  -2.433  11.266  0.00  0.00     0.008 A 
ATOM     12  C15 ZIN A   1      17.487  -3.804  11.435  0.00  0.00     0.001 A 
ATOM     13  C14 ZIN A   1      18.658  -4.525  11.570  0.00  0.00     0.000 A 
ATOM     14  C13 ZIN A   1      19.878  -3.875  11.533  0.00  0.00     0.001 A 
ATOM     15  C12 ZIN A   1      19.926  -2.504  11.361  0.00  0.00     0.008 A 
ENDBRANCH   1  10
BRANCH   1  16
ATOM     16  C17 ZIN A   1      19.442   0.032   9.682  0.00  0.00     0.074 C 
ATOM     17  C22 ZIN A   1      19.339   1.543   9.383  0.00  0.00     0.039 C 
ATOM     18  C21 ZIN A   1      19.061   1.672   7.875  0.00  0.00     0.003 C 
ATOM     19  C20 ZIN A   1      19.005   0.238   7.311  0.00  0.00     0.003 C 
ATOM     20  C19 ZIN A   1      18.646  -0.638   8.536  0.00  0.00     0.039 C 
BRANCH  16  21
ATOM     21  O18 ZIN A   1      20.808  -0.389   9.660  0.00  0.00    -0.389 OA
ATOM     22  H38 ZIN A   1      21.272  -0.262  10.499  0.00  0.00     0.210 HD
ENDBRANCH  16  21
ENDBRANCH   1  16
TORSDOF 8
ENDMDL
MODEL 9
REMARK VINA RESULT:      -6.4      2.807      5.943
REMARK  8 active torsions:
REMARK  status: ('A' for Active; 'I' for Inactive)
REMARK    1  A    between atoms: N2_2  and  C4_4 
REMARK    2  A    between atoms: C4_4  and  C5_5 
REMARK    3  A    between atoms: C5_5  and  O6_6 
REMARK    4  A    between atoms: O6_6  and  C7_7 
REMARK    5  A    between atoms: C7_7  and  C9_9 
REMARK    6  A    between atoms: C9_9  and  C11_10 
REMARK    7  A    between atoms: C9_9  and  C17_16 
REMARK    8  A    between atoms: C17_16  and  O18_17 
ROOT
ATOM      1  C9  ZIN A   1      19.812  -0.736  12.186  0.00  0.00     0.152 C 
ENDROOT
BRANCH   1   2
ATOM      2  C7  ZIN A   1      19.313   0.257  11.167  0.00  0.00     0.270 C 
ATOM      3  O8  ZIN A   1      19.407   1.442  11.383  0.00  0.00    -0.264 OA
BRANCH   2   4
ATOM      4  O6  ZIN A   1      18.765  -0.176  10.021  0.00  0.00    -0.319 OA
BRANCH   4   5
ATOM      5  C5  ZIN A   1      19.559  -0.031   8.814  0.00  0.00     0.209 C 
BRANCH   5   6
ATOM      6  C4  ZIN A   1      19.229  -1.169   7.847  0.00  0.00     0.298 C 
BRANCH   6   7
ATOM      7  N2  ZIN A   1      18.666  -0.611   6.610  0.00  0.00     0.082 N 
ATOM      8  C1  ZIN A   1      18.836   0.847   6.563  0.00  0.00     0.309 C 
ATOM      9  C3  ZIN A   1      19.259  -1.248   5.427  0.00  0.00     0.309 C 
ENDBRANCH   6   7
ENDBRANCH   5   6
ENDBRANCH   4   5
ENDBRANCH   2   4
ENDBRANCH   1   2
BRANCH   1  10
ATOM     10  C11 ZIN A   1      19.220  -2.092  11.900  0.00  0.00    -0.042 A 
ATOM     11  C16 ZIN A   1      17.849  -2.250  11.844  0.00  0.00     0.008 A 
ATOM     12  C15 ZIN A   1      17.306  -3.493  11.578  0.00  0.00     0.001 A 
ATOM     13  C14 ZIN A   1      18.135  -4.580  11.376  0.00  0.00     0.000 A 
ATOM     14  C13 ZIN A   1      19.507  -4.423  11.437  0.00  0.00     0.001 A 
ATOM     15  C12 ZIN A   1      20.050  -3.179  11.699  0.00  0.00     0.008 A 
ENDBRANCH   1  10
BRANCH   1  16
ATOM     16  C17 ZIN A   1      19.392  -0.283  13.587  0.00  0.00     0.074 C 
ATOM     17  C22 ZIN A   1      19.606  -1.419  14.609  0.00  0.00     0.039 C 
ATOM     18  C21 ZIN A   1      18.427  -1.349  15.595  0.00  0.00     0.003 C 
ATOM     19  C20 ZIN A   1      17.539  -0.173  15.139  0.00  0.00     0.003 C 
ATOM     20  C19 ZIN A   1      17.869  -0.009  13.635  0.00  0.00     0.039 C 
BRANCH  16  21
ATOM     21  O18 ZIN A   1      20.124   0.882  13.974  0.00  0.00    -0.389 OA
ATOM     22  H38 ZIN A   1      19.567   1.628  14.236  0.00  0.00     0.210 HD
ENDBRANCH  16  21
ENDBRANCH   1  16
TORSDOF 8
ENDMDL
