MODEL 1
REMARK VINA RESULT:      -7.4      0.000      0.000
REMARK  4 active torsions:
REMARK  status: ('A' for Active; 'I' for Inactive)
REMARK    1  A    between atoms: C2_2  and  C3_3 
REMARK    2  A    between atoms: C11_11  and  C12_12 
REMARK    3  A    between atoms: C11_11  and  C14_14 
REMARK    4  A    between atoms: C14_14  and  C15_15 
ROOT
ATOM      1  C3  ZIN A   1      18.399   0.195   7.113  0.00  0.00    -0.031 A 
ATOM      2  C4  ZIN A   1      18.515  -0.991   7.829  0.00  0.00     0.049 A 
ATOM      3  N5  ZIN A   1      18.165  -2.297   7.561  0.00  0.00    -0.355 N 
ATOM      4  C6  ZIN A   1      18.502  -3.094   8.613  0.00  0.00     0.052 A 
ATOM      5  C7  ZIN A   1      19.070  -2.347   9.584  0.00  0.00    -0.018 A 
ATOM      6  C8  ZIN A   1      19.560  -2.915  10.891  0.00  0.00     0.068 C 
ATOM      7  C9  ZIN A   1      18.952  -4.316  11.049  0.00  0.00     0.174 C 
ATOM      8  O10 ZIN A   1      19.119  -5.049   9.833  0.00  0.00    -0.373 OA
ATOM      9  C11 ZIN A   1      18.305  -4.587   8.747  0.00  0.00     0.112 C 
ATOM     10  C18 ZIN A   1      19.098  -0.969   9.113  0.00  0.00    -0.001 A 
ATOM     11  C19 ZIN A   1      19.549   0.239   9.647  0.00  0.00     0.014 A 
ATOM     12  C20 ZIN A   1      19.426   1.392   8.925  0.00  0.00     0.002 A 
ATOM     13  C21 ZIN A   1      18.857   1.374   7.660  0.00  0.00     0.009 A 
ATOM     14  H27 ZIN A   1      17.742  -2.603   6.743  0.00  0.00     0.166 HD
ENDROOT
BRANCH   9  15
ATOM     15  C12 ZIN A   1      16.833  -4.890   9.040  0.00  0.00     0.040 C 
ATOM     16  C13 ZIN A   1      16.610  -6.403   9.017  0.00  0.00     0.008 C 
ENDBRANCH   9  15
BRANCH   9  17
ATOM     17  C14 ZIN A   1      18.728  -5.282   7.452  0.00  0.00     0.157 C 
BRANCH  17  18
ATOM     18  C15 ZIN A   1      20.187  -5.011   7.190  0.00  0.00     0.175 C 
ATOM     19  O16 ZIN A   1      20.520  -4.024   6.556  0.00  0.00    -0.648 OA
ATOM     20  O17 ZIN A   1      21.034  -5.778   7.613  0.00  0.00    -0.648 OA
ENDBRANCH  17  18
ENDBRANCH   9  17
BRANCH   1  21
ATOM     21  C2  ZIN A   1      17.779   0.189   5.739  0.00  0.00     0.036 C 
ATOM     22  C1  ZIN A   1      18.865  -0.064   4.691  0.00  0.00     0.010 C 
ENDBRANCH   1  21
TORSDOF 4
ENDMDL
MODEL 2
REMARK VINA RESULT:      -7.2      7.352     10.293
REMARK  4 active torsions:
REMARK  status: ('A' for Active; 'I' for Inactive)
REMARK    1  A    between atoms: C2_2  and  C3_3 
REMARK    2  A    between atoms: C11_11  and  C12_12 
REMARK    3  A    between atoms: C11_11  and  C14_14 
REMARK    4  A    between atoms: C14_14  and  C15_15 
ROOT
ATOM      1  C3  ZIN A   1      18.125  -0.028  16.034  0.00  0.00    -0.031 A 
ATOM      2  C4  ZIN A   1      18.303   1.154  15.323  0.00  0.00     0.049 A 
ATOM      3  N5  ZIN A   1      17.988   2.471  15.582  0.00  0.00    -0.355 N 
ATOM      4  C6  ZIN A   1      18.384   3.256  14.540  0.00  0.00     0.052 A 
ATOM      5  C7  ZIN A   1      18.956   2.490  13.588  0.00  0.00    -0.018 A 
ATOM      6  C8  ZIN A   1      19.506   3.041  12.297  0.00  0.00     0.068 C 
ATOM      7  C9  ZIN A   1      18.950   4.462  12.121  0.00  0.00     0.174 C 
ATOM      8  O10 ZIN A   1      19.103   5.189  13.343  0.00  0.00    -0.373 OA
ATOM      9  C11 ZIN A   1      18.240   4.754  14.402  0.00  0.00     0.112 C 
ATOM     10  C18 ZIN A   1      18.924   1.112  14.057  0.00  0.00    -0.001 A 
ATOM     11  C19 ZIN A   1      19.352  -0.111  13.537  0.00  0.00     0.014 A 
ATOM     12  C20 ZIN A   1      19.168  -1.258  14.254  0.00  0.00     0.002 A 
ATOM     13  C21 ZIN A   1      18.561  -1.221  15.501  0.00  0.00     0.009 A 
ATOM     14  H27 ZIN A   1      17.550   2.791  16.386  0.00  0.00     0.166 HD
ENDROOT
BRANCH   9  15
ATOM     15  C12 ZIN A   1      16.790   5.106  14.063  0.00  0.00     0.040 C 
ATOM     16  C13 ZIN A   1      16.614   6.625  14.089  0.00  0.00     0.008 C 
ENDBRANCH   9  15
BRANCH   9  17
ATOM     17  C14 ZIN A   1      18.646   5.435  15.711  0.00  0.00     0.157 C 
BRANCH  17  18
ATOM     18  C15 ZIN A   1      20.120   5.237  15.944  0.00  0.00     0.175 C 
ATOM     19  O16 ZIN A   1      20.524   4.207  16.457  0.00  0.00    -0.648 OA
ATOM     20  O17 ZIN A   1      20.912   6.106  15.619  0.00  0.00    -0.648 OA
ENDBRANCH  17  18
ENDBRANCH   9  17
BRANCH   1  21
ATOM     21  C2  ZIN A   1      17.463  -0.001  17.388  0.00  0.00     0.036 C 
ATOM     22  C1  ZIN A   1      18.529   0.166  18.473  0.00  0.00     0.010 C 
ENDBRANCH   1  21
TORSDOF 4
ENDMDL
MODEL 3
REMARK VINA RESULT:      -7.1      3.463      5.257
REMARK  4 active torsions:
REMARK  status: ('A' for Active; 'I' for Inactive)
REMARK    1  A    between atoms: C2_2  and  C3_3 
REMARK    2  A    between atoms: C11_11  and  C12_12 
REMARK    3  A    between atoms: C11_11  and  C14_14 
REMARK    4  A    between atoms: C14_14  and  C15_15 
ROOT
ATOM      1  C3  ZIN A   1      19.019  -1.911   6.238  0.00  0.00    -0.031 A 
ATOM      2  C4  ZIN A   1      18.928  -1.006   7.291  0.00  0.00     0.049 A 
ATOM      3  N5  ZIN A   1      18.777  -1.151   8.653  0.00  0.00    -0.355 N 
ATOM      4  C6  ZIN A   1      18.744   0.073   9.250  0.00  0.00     0.052 A 
ATOM      5  C7  ZIN A   1      18.868   1.037   8.314  0.00  0.00    -0.018 A 
ATOM      6  C8  ZIN A   1      18.870   2.510   8.631  0.00  0.00     0.068 C 
ATOM      7  C9  ZIN A   1      18.327   2.681  10.058  0.00  0.00     0.174 C 
ATOM      8  O10 ZIN A   1      18.974   1.751  10.929  0.00  0.00    -0.373 OA
ATOM      9  C11 ZIN A   1      18.595   0.384  10.722  0.00  0.00     0.112 C 
ATOM     10  C18 ZIN A   1      18.991   0.377   7.021  0.00  0.00    -0.001 A 
ATOM     11  C19 ZIN A   1      19.143   0.819   5.706  0.00  0.00     0.014 A 
ATOM     12  C20 ZIN A   1      19.231  -0.088   4.688  0.00  0.00     0.002 A 
ATOM     13  C21 ZIN A   1      19.174  -1.449   4.950  0.00  0.00     0.009 A 
ATOM     14  H27 ZIN A   1      18.705  -2.000   9.118  0.00  0.00     0.166 HD
ENDROOT
BRANCH   9  15
ATOM     15  C12 ZIN A   1      17.140   0.181  11.149  0.00  0.00     0.040 C 
ATOM     16  C13 ZIN A   1      17.024  -1.109  11.964  0.00  0.00     0.008 C 
ENDBRANCH   9  15
BRANCH   9  17
ATOM     17  C14 ZIN A   1      19.507  -0.534  11.538  0.00  0.00     0.157 C 
BRANCH  17  18
ATOM     18  C15 ZIN A   1      20.334   0.293  12.487  0.00  0.00     0.175 C 
ATOM     19  O16 ZIN A   1      19.902   0.566  13.594  0.00  0.00    -0.648 OA
ATOM     20  O17 ZIN A   1      21.436   0.690  12.149  0.00  0.00    -0.648 OA
ENDBRANCH  17  18
ENDBRANCH   9  17
BRANCH   1  21
ATOM     21  C2  ZIN A   1      18.954  -3.392   6.509  0.00  0.00     0.036 C 
ATOM     22  C1  ZIN A   1      18.471  -4.119   5.252  0.00  0.00     0.010 C 
ENDBRANCH   1  21
TORSDOF 4
ENDMDL
MODEL 4
REMARK VINA RESULT:      -7.0      1.455      3.419
REMARK  4 active torsions:
REMARK  status: ('A' for Active; 'I' for Inactive)
REMARK    1  A    between atoms: C2_2  and  C3_3 
REMARK    2  A    between atoms: C11_11  and  C12_12 
REMARK    3  A    between atoms: C11_11  and  C14_14 
REMARK    4  A    between atoms: C14_14  and  C15_15 
ROOT
ATOM      1  C3  ZIN A   1      18.560   0.587   7.817  0.00  0.00    -0.031 A 
ATOM      2  C4  ZIN A   1      18.678  -0.797   7.883  0.00  0.00     0.049 A 
ATOM      3  N5  ZIN A   1      18.486  -1.716   8.893  0.00  0.00    -0.355 N 
ATOM      4  C6  ZIN A   1      18.739  -2.973   8.431  0.00  0.00     0.052 A 
ATOM      5  C7  ZIN A   1      19.099  -2.915   7.132  0.00  0.00    -0.018 A 
ATOM      6  C8  ZIN A   1      19.450  -4.128   6.310  0.00  0.00     0.068 C 
ATOM      7  C9  ZIN A   1      19.700  -5.293   7.280  0.00  0.00     0.174 C 
ATOM      8  O10 ZIN A   1      18.643  -5.349   8.241  0.00  0.00    -0.373 OA
ATOM      9  C11 ZIN A   1      18.651  -4.276   9.192  0.00  0.00     0.112 C 
ATOM     10  C18 ZIN A   1      19.072  -1.513   6.734  0.00  0.00    -0.001 A 
ATOM     11  C19 ZIN A   1      19.338  -0.826   5.548  0.00  0.00     0.014 A 
ATOM     12  C20 ZIN A   1      19.214   0.533   5.506  0.00  0.00     0.002 A 
ATOM     13  C21 ZIN A   1      18.823   1.241   6.633  0.00  0.00     0.009 A 
ATOM     14  H27 ZIN A   1      18.211  -1.500   9.798  0.00  0.00     0.166 HD
ENDROOT
BRANCH   9  15
ATOM     15  C12 ZIN A   1      19.861  -4.416  10.119  0.00  0.00     0.040 C 
ATOM     16  C13 ZIN A   1      19.479  -3.957  11.527  0.00  0.00     0.008 C 
ENDBRANCH   9  15
BRANCH   9  17
ATOM     17  C14 ZIN A   1      17.362  -4.307  10.016  0.00  0.00     0.157 C 
BRANCH  17  18
ATOM     18  C15 ZIN A   1      16.675  -5.634   9.824  0.00  0.00     0.175 C 
ATOM     19  O16 ZIN A   1      15.721  -5.724   9.070  0.00  0.00    -0.648 OA
ATOM     20  O17 ZIN A   1      17.073  -6.619  10.423  0.00  0.00    -0.648 OA
ENDBRANCH  17  18
ENDBRANCH   9  17
BRANCH   1  21
ATOM     21  C2  ZIN A   1      18.139   1.367   9.036  0.00  0.00     0.036 C 
ATOM     22  C1  ZIN A   1      19.214   2.404   9.372  0.00  0.00     0.010 C 
ENDBRANCH   1  21
TORSDOF 4
ENDMDL
MODEL 5
REMARK VINA RESULT:      -6.8      6.983      9.529
REMARK  4 active torsions:
REMARK  status: ('A' for Active; 'I' for Inactive)
REMARK    1  A    between atoms: C2_2  and  C3_3 
REMARK    2  A    between atoms: C11_11  and  C12_12 
REMARK    3  A    between atoms: C11_11  and  C14_14 
REMARK    4  A    between atoms: C14_14  and  C15_15 
ROOT
ATOM      1  C3  ZIN A   1      18.179   0.668  16.802  0.00  0.00    -0.031 A 
ATOM      2  C4  ZIN A   1      18.447   1.660  15.865  0.00  0.00     0.049 A 
ATOM      3  N5  ZIN A   1      18.372   1.709  14.489  0.00  0.00    -0.355 N 
ATOM      4  C6  ZIN A   1      18.752   2.941  14.047  0.00  0.00     0.052 A 
ATOM      5  C7  ZIN A   1      19.083   3.718  15.099  0.00  0.00    -0.018 A 
ATOM      6  C8  ZIN A   1      19.550   5.144  14.965  0.00  0.00     0.068 C 
ATOM      7  C9  ZIN A   1      19.941   5.372  13.497  0.00  0.00     0.174 C 
ATOM      8  O10 ZIN A   1      18.912   4.864  12.645  0.00  0.00    -0.373 OA
ATOM      9  C11 ZIN A   1      18.819   3.434  12.619  0.00  0.00     0.112 C 
ATOM     10  C18 ZIN A   1      18.898   2.922  16.305  0.00  0.00    -0.001 A 
ATOM     11  C19 ZIN A   1      19.069   3.158  17.671  0.00  0.00     0.014 A 
ATOM     12  C20 ZIN A   1      18.798   2.168  18.572  0.00  0.00     0.002 A 
ATOM     13  C21 ZIN A   1      18.351   0.927  18.144  0.00  0.00     0.009 A 
ATOM     14  H27 ZIN A   1      18.090   0.975  13.921  0.00  0.00     0.166 HD
ENDROOT
BRANCH   9  15
ATOM     15  C12 ZIN A   1      20.051   2.848  11.927  0.00  0.00     0.040 C 
ATOM     16  C13 ZIN A   1      19.706   1.475  11.347  0.00  0.00     0.008 C 
ENDBRANCH   9  15
BRANCH   9  17
ATOM     17  C14 ZIN A   1      17.554   3.012  11.869  0.00  0.00     0.157 C 
BRANCH  17  18
ATOM     18  C15 ZIN A   1      17.161   4.095  10.899  0.00  0.00     0.175 C 
ATOM     19  O16 ZIN A   1      16.190   4.796  11.128  0.00  0.00    -0.648 OA
ATOM     20  O17 ZIN A   1      17.814   4.273   9.885  0.00  0.00    -0.648 OA
ENDBRANCH  17  18
ENDBRANCH   9  17
BRANCH   1  21
ATOM     21  C2  ZIN A   1      17.696  -0.686  16.348  0.00  0.00     0.036 C 
ATOM     22  C1  ZIN A   1      18.898  -1.603  16.112  0.00  0.00     0.010 C 
ENDBRANCH   1  21
TORSDOF 4
ENDMDL
MODEL 6
REMARK VINA RESULT:      -6.5      5.726      8.106
REMARK  4 active torsions:
REMARK  status: ('A' for Active; 'I' for Inactive)
REMARK    1  A    between atoms: C2_2  and  C3_3 
REMARK    2  A    between atoms: C11_11  and  C12_12 
REMARK    3  A    between atoms: C11_11  and  C14_14 
REMARK    4  A    between atoms: C14_14  and  C15_15 
ROOT
ATOM      1  C3  ZIN A   1      18.893   0.904  17.025  0.00  0.00    -0.031 A 
ATOM      2  C4  ZIN A   1      18.946   1.166  15.660  0.00  0.00     0.049 A 
ATOM      3  N5  ZIN A   1      19.044   0.362  14.545  0.00  0.00    -0.355 N 
ATOM      4  C6  ZIN A   1      19.058   1.129  13.418  0.00  0.00     0.052 A 
ATOM      5  C7  ZIN A   1      18.974   2.432  13.757  0.00  0.00    -0.018 A 
ATOM      6  C8  ZIN A   1      18.965   3.554  12.751  0.00  0.00     0.068 C 
ATOM      7  C9  ZIN A   1      19.452   2.984  11.411  0.00  0.00     0.174 C 
ATOM      8  O10 ZIN A   1      18.768   1.759  11.136  0.00  0.00    -0.373 OA
ATOM      9  C11 ZIN A   1      19.150   0.666  11.982  0.00  0.00     0.112 C 
ATOM     10  C18 ZIN A   1      18.899   2.502  15.210  0.00  0.00    -0.001 A 
ATOM     11  C19 ZIN A   1      18.800   3.541  16.138  0.00  0.00     0.014 A 
ATOM     12  C20 ZIN A   1      18.749   3.259  17.473  0.00  0.00     0.002 A 
ATOM     13  C21 ZIN A   1      18.791   1.947  17.919  0.00  0.00     0.009 A 
ATOM     14  H27 ZIN A   1      19.094  -0.607  14.560  0.00  0.00     0.166 HD
ENDROOT
BRANCH   9  15
ATOM     15  C12 ZIN A   1      20.586   0.245  11.665  0.00  0.00     0.040 C 
ATOM     16  C13 ZIN A   1      20.602  -0.585  10.380  0.00  0.00     0.008 C 
ENDBRANCH   9  15
BRANCH   9  17
ATOM     17  C14 ZIN A   1      18.203  -0.515  11.759  0.00  0.00     0.157 C 
BRANCH  17  18
ATOM     18  C15 ZIN A   1      16.989  -0.049  10.998  0.00  0.00     0.175 C 
ATOM     19  O16 ZIN A   1      17.030   0.047   9.783  0.00  0.00    -0.648 OA
ATOM     20  O17 ZIN A   1      15.965   0.232  11.597  0.00  0.00    -0.648 OA
ENDBRANCH  17  18
ENDBRANCH   9  17
BRANCH   1  21
ATOM     21  C2  ZIN A   1      18.942  -0.518  17.522  0.00  0.00     0.036 C 
ATOM     22  C1  ZIN A   1      17.659  -1.245  17.116  0.00  0.00     0.010 C 
ENDBRANCH   1  21
TORSDOF 4
ENDMDL
MODEL 7
REMARK VINA RESULT:      -6.4      1.879      3.959
REMARK  4 active torsions:
REMARK  status: ('A' for Active; 'I' for Inactive)
REMARK    1  A    between atoms: C2_2  and  C3_3 
REMARK    2  A    between atoms: C11_11  and  C12_12 
REMARK    3  A    between atoms: C11_11  and  C14_14 
REMARK    4  A    between atoms: C14_14  and  C15_15 
ROOT
ATOM      1  C3  ZIN A   1      18.603   1.175  10.471  0.00  0.00    -0.031 A 
ATOM      2  C4  ZIN A   1      18.635  -0.138  10.013  0.00  0.00     0.049 A 
ATOM      3  N5  ZIN A   1      18.446  -1.358  10.626  0.00  0.00    -0.355 N 
ATOM      4  C6  ZIN A   1      18.588  -2.362   9.715  0.00  0.00     0.052 A 
ATOM      5  C7  ZIN A   1      18.870  -1.838   8.504  0.00  0.00    -0.018 A 
ATOM      6  C8  ZIN A   1      19.091  -2.671   7.268  0.00  0.00     0.068 C 
ATOM      7  C9  ZIN A   1      19.324  -4.121   7.717  0.00  0.00     0.174 C 
ATOM      8  O10 ZIN A   1      18.327  -4.491   8.672  0.00  0.00    -0.373 OA
ATOM      9  C11 ZIN A   1      18.463  -3.850   9.947  0.00  0.00     0.112 C 
ATOM     10  C18 ZIN A   1      18.910  -0.389   8.653  0.00  0.00    -0.001 A 
ATOM     11  C19 ZIN A   1      19.146   0.679   7.786  0.00  0.00     0.014 A 
ATOM     12  C20 ZIN A   1      19.109   1.960   8.258  0.00  0.00     0.002 A 
ATOM     13  C21 ZIN A   1      18.834   2.212   9.594  0.00  0.00     0.009 A 
ATOM     14  H27 ZIN A   1      18.242  -1.484  11.566  0.00  0.00     0.166 HD
ENDROOT
BRANCH   9  15
ATOM     15  C12 ZIN A   1      19.716  -4.370  10.656  0.00  0.00     0.040 C 
ATOM     16  C13 ZIN A   1      20.087  -3.420  11.797  0.00  0.00     0.008 C 
ENDBRANCH   9  15
BRANCH   9  17
ATOM     17  C14 ZIN A   1      17.228  -4.137  10.804  0.00  0.00     0.157 C 
BRANCH  17  18
ATOM     18  C15 ZIN A   1      17.268  -5.565  11.280  0.00  0.00     0.175 C 
ATOM     19  O16 ZIN A   1      17.420  -5.809  12.466  0.00  0.00    -0.648 OA
ATOM     20  O17 ZIN A   1      17.146  -6.478  10.482  0.00  0.00    -0.648 OA
ENDBRANCH  17  18
ENDBRANCH   9  17
BRANCH   1  21
ATOM     21  C2  ZIN A   1      18.310   1.462  11.921  0.00  0.00     0.036 C 
ATOM     22  C1  ZIN A   1      19.597   1.324  12.738  0.00  0.00     0.010 C 
ENDBRANCH   1  21
TORSDOF 4
ENDMDL
MODEL 8
REMARK VINA RESULT:      -6.3      4.414      6.793
REMARK  4 active torsions:
REMARK  status: ('A' for Active; 'I' for Inactive)
REMARK    1  A    between atoms: C2_2  and  C3_3 
REMARK    2  A    between atoms: C11_11  and  C12_12 
REMARK    3  A    between atoms: C11_11  and  C14_14 
REMARK    4  A    between atoms: C14_14  and  C15_15 
ROOT
ATOM      1  C3  ZIN A   1      17.403   4.812  12.610  0.00  0.00    -0.031 A 
ATOM      2  C4  ZIN A   1      17.877   3.651  12.008  0.00  0.00     0.049 A 
ATOM      3  N5  ZIN A   1      18.278   2.426  12.498  0.00  0.00    -0.355 N 
ATOM      4  C6  ZIN A   1      18.662   1.618  11.470  0.00  0.00     0.052 A 
ATOM      5  C7  ZIN A   1      18.529   2.278  10.300  0.00  0.00    -0.018 A 
ATOM      6  C8  ZIN A   1      18.867   1.675   8.962  0.00  0.00     0.068 C 
ATOM      7  C9  ZIN A   1      19.716   0.421   9.215  0.00  0.00     0.174 C 
ATOM      8  O10 ZIN A   1      19.102  -0.373  10.233  0.00  0.00    -0.373 OA
ATOM      9  C11 ZIN A   1      19.167   0.196  11.547  0.00  0.00     0.112 C 
ATOM     10  C18 ZIN A   1      18.019   3.609  10.605  0.00  0.00    -0.001 A 
ATOM     11  C19 ZIN A   1      17.683   4.728   9.842  0.00  0.00     0.014 A 
ATOM     12  C20 ZIN A   1      17.219   5.856  10.455  0.00  0.00     0.002 A 
ATOM     13  C21 ZIN A   1      17.074   5.901  11.834  0.00  0.00     0.009 A 
ATOM     14  H27 ZIN A   1      18.285   2.177  13.435  0.00  0.00     0.166 HD
ENDROOT
BRANCH   9  15
ATOM     15  C12 ZIN A   1      20.616   0.188  12.042  0.00  0.00     0.040 C 
ATOM     16  C13 ZIN A   1      20.632   0.214  13.572  0.00  0.00     0.008 C 
ENDBRANCH   9  15
BRANCH   9  17
ATOM     17  C14 ZIN A   1      18.289  -0.612  12.504  0.00  0.00     0.157 C 
BRANCH  17  18
ATOM     18  C15 ZIN A   1      17.038  -1.051  11.789  0.00  0.00     0.175 C 
ATOM     19  O16 ZIN A   1      16.140  -0.253  11.585  0.00  0.00    -0.648 OA
ATOM     20  O17 ZIN A   1      16.924  -2.205  11.413  0.00  0.00    -0.648 OA
ENDBRANCH  17  18
ENDBRANCH   9  17
BRANCH   1  21
ATOM     21  C2  ZIN A   1      17.245   4.874  14.107  0.00  0.00     0.036 C 
ATOM     22  C1  ZIN A   1      18.070   6.040  14.659  0.00  0.00     0.010 C 
ENDBRANCH   1  21
TORSDOF 4
ENDMDL
MODEL 9
REMARK VINA RESULT:      -6.2      6.134      8.231
REMARK  4 active torsions:
REMARK  status: ('A' for Active; 'I' for Inactive)
REMARK    1  A    between atoms: C2_2  and  C3_3 
REMARK    2  A    between atoms: C11_11  and  C12_12 
REMARK    3  A    between atoms: C11_11  and  C14_14 
REMARK    4  A    between atoms: C14_14  and  C15_15 
ROOT
ATOM      1  C3  ZIN A   1      18.932   2.499  16.945  0.00  0.00    -0.031 A 
ATOM      2  C4  ZIN A   1      18.909   1.719  15.795  0.00  0.00     0.049 A 
ATOM      3  N5  ZIN A   1      18.845   2.017  14.450  0.00  0.00    -0.355 N 
ATOM      4  C6  ZIN A   1      18.851   0.866  13.719  0.00  0.00     0.052 A 
ATOM      5  C7  ZIN A   1      18.915  -0.197  14.548  0.00  0.00    -0.018 A 
ATOM      6  C8  ZIN A   1      18.937  -1.625  14.068  0.00  0.00     0.068 C 
ATOM      7  C9  ZIN A   1      18.487  -1.632  12.600  0.00  0.00     0.174 C 
ATOM      8  O10 ZIN A   1      19.189  -0.615  11.881  0.00  0.00    -0.373 OA
ATOM      9  C11 ZIN A   1      18.797   0.723  12.215  0.00  0.00     0.112 C 
ATOM     10  C18 ZIN A   1      18.954   0.314  15.911  0.00  0.00    -0.001 A 
ATOM     11  C19 ZIN A   1      19.022  -0.273  17.176  0.00  0.00     0.014 A 
ATOM     12  C20 ZIN A   1      19.044   0.514  18.292  0.00  0.00     0.002 A 
ATOM     13  C21 ZIN A   1      19.003   1.896  18.182  0.00  0.00     0.009 A 
ATOM     14  H27 ZIN A   1      18.803   2.912  14.079  0.00  0.00     0.166 HD
ENDROOT
BRANCH   9  15
ATOM     15  C12 ZIN A   1      17.372   0.983  11.721  0.00  0.00     0.040 C 
ATOM     16  C13 ZIN A   1      17.111   0.155  10.461  0.00  0.00     0.008 C 
ENDBRANCH   9  15
BRANCH   9  17
ATOM     17  C14 ZIN A   1      19.760   1.720  11.567  0.00  0.00     0.157 C 
BRANCH  17  18
ATOM     18  C15 ZIN A   1      19.020   2.990  11.237  0.00  0.00     0.175 C 
ATOM     19  O16 ZIN A   1      18.735   3.778  12.123  0.00  0.00    -0.648 OA
ATOM     20  O17 ZIN A   1      18.707   3.232  10.084  0.00  0.00    -0.648 OA
ENDBRANCH  17  18
ENDBRANCH   9  17
BRANCH   1  21
ATOM     21  C2  ZIN A   1      18.884   4.002  16.839  0.00  0.00     0.036 C 
ATOM     22  C1  ZIN A   1      20.223   4.519  16.308  0.00  0.00     0.010 C 
ENDBRANCH   1  21
TORSDOF 4
ENDMDL
