MODEL 1
REMARK VINA RESULT:      -9.9      0.000      0.000
REMARK  14 active torsions:
REMARK  status: ('A' for Active; 'I' for Inactive)
REMARK    1  A    between atoms: C2_2  and  N5_5 
REMARK       I    between atoms: N5_5  and  C6_6 
REMARK    2  A    between atoms: C6_6  and  C8_8 
REMARK    3  A    between atoms: N11_10  and  C12_11 
REMARK    4  A    between atoms: C12_11  and  C13_12 
REMARK    5  A    between atoms: N21_20  and  C23_22 
REMARK    6  A    between atoms: C23_22  and  C24_23 
REMARK    7  A    between atoms: C24_23  and  O26_24 
REMARK    8  A    between atoms: C24_23  and  C27_25 
REMARK    9  A    between atoms: C27_25  and  C28_26 
REMARK   10  A    between atoms: C28_26  and  C30_27 
REMARK   11  A    between atoms: C28_26  and  C37_34 
REMARK   12  A    between atoms: C30_27  and  C31_28 
REMARK       I    between atoms: C37_34  and  N39_36 
REMARK   13  A    between atoms: N39_36  and  C40_37 
REMARK   14  A    between atoms: C49_45  and  O51_46 
ROOT
ATOM      1  C24 ZIN A   1      18.778  -3.616  11.232  0.00  0.00     0.145 C 
ENDROOT
BRANCH   1   2
ATOM      2  C23 ZIN A   1      19.206  -3.180   9.829  0.00  0.00     0.267 C 
BRANCH   2   3
ATOM      3  N21 ZIN A   1      18.897  -4.248   8.868  0.00  0.00    -0.052 N 
ATOM      4  C8  ZIN A   1      19.647  -4.022   7.626  0.00  0.00     0.307 C 
ATOM      5  C10 ZIN A   1      19.339  -5.143   6.631  0.00  0.00     0.316 C 
ATOM      6  N11 ZIN A   1      17.896  -5.165   6.355  0.00  0.00     0.096 N 
ATOM      7  C19 ZIN A   1      17.130  -5.366   7.592  0.00  0.00     0.300 C 
ATOM      8  C20 ZIN A   1      17.457  -4.242   8.579  0.00  0.00     0.266 C 
ATOM      9  H22 ZIN A   1      19.157  -5.139   9.261  0.00  0.00     0.281 HD
BRANCH   4  10
ATOM     10  C6  ZIN A   1      19.246  -2.697   7.030  0.00  0.00     0.251 C 
ATOM     11  N5  ZIN A   1      18.571  -2.659   5.865  0.00  0.00    -0.351 N 
ATOM     12  H61 ZIN A   1      18.345  -3.485   5.408  0.00  0.00     0.163 HD
ATOM     13  O7  ZIN A   1      19.530  -1.665   7.601  0.00  0.00    -0.271 OA
BRANCH  11  14
ATOM     14  C2  ZIN A   1      18.180  -1.371   5.286  0.00  0.00     0.022 C 
ATOM     15  C1  ZIN A   1      17.243  -1.608   4.101  0.00  0.00     0.037 C 
ATOM     16  C3  ZIN A   1      19.428  -0.627   4.809  0.00  0.00     0.037 C 
ATOM     17  C4  ZIN A   1      17.460  -0.534   6.345  0.00  0.00     0.037 C 
ENDBRANCH  11  14
ENDBRANCH   4  10
BRANCH   6  18
ATOM     18  C12 ZIN A   1      17.567  -6.194   5.359  0.00  0.00     0.312 C 
BRANCH  18  19
ATOM     19  C13 ZIN A   1      16.878  -5.552   4.183  0.00  0.00    -0.013 A 
ATOM     20  C18 ZIN A   1      15.528  -5.253   4.239  0.00  0.00     0.125 A 
ATOM     21  N17 ZIN A   1      14.921  -4.686   3.216  0.00  0.00    -0.273 NA
ATOM     22  C16 ZIN A   1      15.564  -4.393   2.102  0.00  0.00     0.116 A 
ATOM     23  C15 ZIN A   1      16.911  -4.668   1.972  0.00  0.00     0.020 A 
ATOM     24  C14 ZIN A   1      17.587  -5.259   3.028  0.00  0.00     0.012 A 
ENDBRANCH  18  19
ENDBRANCH   6  18
ENDBRANCH   2   3
ENDBRANCH   1   2
BRANCH   1  25
ATOM     25  O26 ZIN A   1      18.920  -5.032  11.355  0.00  0.00    -0.394 OA
ATOM     26  H76 ZIN A   1      19.705  -5.308  11.848  0.00  0.00     0.210 HD
ENDBRANCH   1  25
BRANCH   1  27
ATOM     27  C27 ZIN A   1      19.658  -2.922  12.273  0.00  0.00     0.047 C 
BRANCH  27  28
ATOM     28  C28 ZIN A   1      18.795  -2.002  13.138  0.00  0.00     0.084 C 
BRANCH  28  29
ATOM     29  C30 ZIN A   1      19.690  -1.222  14.104  0.00  0.00     0.052 C 
BRANCH  29  30
ATOM     30  C31 ZIN A   1      18.857  -0.688  15.241  0.00  0.00    -0.057 A 
ATOM     31  C36 ZIN A   1      18.988   0.631  15.632  0.00  0.00     0.007 A 
ATOM     32  C35 ZIN A   1      18.221   1.122  16.671  0.00  0.00     0.001 A 
ATOM     33  C34 ZIN A   1      17.329   0.293  17.325  0.00  0.00     0.000 A 
ATOM     34  C33 ZIN A   1      17.201  -1.028  16.936  0.00  0.00     0.001 A 
ATOM     35  C32 ZIN A   1      17.965  -1.518  15.894  0.00  0.00     0.007 A 
ENDBRANCH  29  30
ENDBRANCH  28  29
BRANCH  28  36
ATOM     36  C37 ZIN A   1      18.048  -1.036  12.255  0.00  0.00     0.222 C 
ATOM     37  O38 ZIN A   1      16.838  -1.095  12.179  0.00  0.00    -0.273 OA
ATOM     38  N39 ZIN A   1      18.723  -0.108  11.549  0.00  0.00    -0.350 N 
ATOM     39  H86 ZIN A   1      19.693  -0.097  11.566  0.00  0.00     0.163 HD
BRANCH  38  40
ATOM     40  C40 ZIN A   1      17.992   0.884  10.757  0.00  0.00     0.147 C 
ATOM     41  C49 ZIN A   1      18.712   1.134   9.415  0.00  0.00     0.149 C 
ATOM     42  C48 ZIN A   1      18.454   2.638   9.177  0.00  0.00     0.073 C 
ATOM     43  C47 ZIN A   1      18.257   3.231  10.556  0.00  0.00    -0.047 A 
ATOM     44  C42 ZIN A   1      17.992   2.223  11.464  0.00  0.00    -0.027 A 
ATOM     45  C46 ZIN A   1      18.305   4.547  10.982  0.00  0.00     0.008 A 
ATOM     46  C43 ZIN A   1      17.775   2.534  12.796  0.00  0.00     0.010 A 
ATOM     47  C44 ZIN A   1      17.824   3.848  13.219  0.00  0.00     0.001 A 
ATOM     48  C45 ZIN A   1      18.089   4.856  12.311  0.00  0.00     0.001 A 
BRANCH  41  49
ATOM     49  O51 ZIN A   1      20.112   0.872   9.531  0.00  0.00    -0.393 OA
ATOM     50  H93 ZIN A   1      20.561   1.417  10.191  0.00  0.00     0.210 HD
ENDBRANCH  41  49
ENDBRANCH  38  40
ENDBRANCH  28  36
ENDBRANCH  27  28
ENDBRANCH   1  27
TORSDOF 14
ENDMDL
MODEL 2
REMARK VINA RESULT:      -9.8      1.224      2.580
REMARK  14 active torsions:
REMARK  status: ('A' for Active; 'I' for Inactive)
REMARK    1  A    between atoms: C2_2  and  N5_5 
REMARK       I    between atoms: N5_5  and  C6_6 
REMARK    2  A    between atoms: C6_6  and  C8_8 
REMARK    3  A    between atoms: N11_10  and  C12_11 
REMARK    4  A    between atoms: C12_11  and  C13_12 
REMARK    5  A    between atoms: N21_20  and  C23_22 
REMARK    6  A    between atoms: C23_22  and  C24_23 
REMARK    7  A    between atoms: C24_23  and  O26_24 
REMARK    8  A    between atoms: C24_23  and  C27_25 
REMARK    9  A    between atoms: C27_25  and  C28_26 
REMARK   10  A    between atoms: C28_26  and  C30_27 
REMARK   11  A    between atoms: C28_26  and  C37_34 
REMARK   12  A    between atoms: C30_27  and  C31_28 
REMARK       I    between atoms: C37_34  and  N39_36 
REMARK   13  A    between atoms: N39_36  and  C40_37 
REMARK   14  A    between atoms: C49_45  and  O51_46 
ROOT
ATOM      1  C24 ZIN A   1      18.557  -4.100  11.344  0.00  0.00     0.145 C 
ENDROOT
BRANCH   1   2
ATOM      2  C23 ZIN A   1      19.352  -4.955  10.356  0.00  0.00     0.267 C 
BRANCH   2   3
ATOM      3  N21 ZIN A   1      19.457  -4.250   9.071  0.00  0.00    -0.052 N 
ATOM      4  C8  ZIN A   1      18.131  -3.757   8.673  0.00  0.00     0.307 C 
ATOM      5  C10 ZIN A   1      18.243  -3.007   7.344  0.00  0.00     0.316 C 
ATOM      6  N11 ZIN A   1      18.776  -3.913   6.318  0.00  0.00     0.096 N 
ATOM      7  C19 ZIN A   1      20.092  -4.433   6.713  0.00  0.00     0.300 C 
ATOM      8  C20 ZIN A   1      19.965  -5.172   8.047  0.00  0.00     0.266 C 
ATOM      9  H22 ZIN A   1      20.090  -3.471   9.166  0.00  0.00     0.281 HD
BRANCH   4  10
ATOM     10  C6  ZIN A   1      17.189  -4.923   8.515  0.00  0.00     0.251 C 
ATOM     11  N5  ZIN A   1      16.601  -5.157   7.326  0.00  0.00    -0.351 N 
ATOM     12  H61 ZIN A   1      16.783  -4.575   6.571  0.00  0.00     0.163 HD
ATOM     13  O7  ZIN A   1      16.961  -5.650   9.459  0.00  0.00    -0.271 OA
BRANCH  11  14
ATOM     14  C2  ZIN A   1      15.685  -6.291   7.172  0.00  0.00     0.022 C 
ATOM     15  C1  ZIN A   1      15.148  -6.320   5.740  0.00  0.00     0.037 C 
ATOM     16  C3  ZIN A   1      14.520  -6.142   8.151  0.00  0.00     0.037 C 
ATOM     17  C4  ZIN A   1      16.434  -7.593   7.462  0.00  0.00     0.037 C 
ENDBRANCH  11  14
ENDBRANCH   4  10
BRANCH   6  18
ATOM     18  C12 ZIN A   1      18.846  -3.244   5.011  0.00  0.00     0.312 C 
BRANCH  18  19
ATOM     19  C13 ZIN A   1      17.834  -3.858   4.079  0.00  0.00    -0.013 A 
ATOM     20  C18 ZIN A   1      16.626  -3.225   3.841  0.00  0.00     0.125 A 
ATOM     21  N17 ZIN A   1      15.739  -3.753   3.023  0.00  0.00    -0.273 NA
ATOM     22  C16 ZIN A   1      15.956  -4.901   2.409  0.00  0.00     0.116 A 
ATOM     23  C15 ZIN A   1      17.137  -5.591   2.602  0.00  0.00     0.020 A 
ATOM     24  C14 ZIN A   1      18.098  -5.065   3.452  0.00  0.00     0.012 A 
ENDBRANCH  18  19
ENDBRANCH   6  18
ENDBRANCH   2   3
ENDBRANCH   1   2
BRANCH   1  25
ATOM     25  O26 ZIN A   1      17.811  -4.951  12.217  0.00  0.00    -0.394 OA
ATOM     26  H76 ZIN A   1      18.340  -5.356  12.918  0.00  0.00     0.210 HD
ENDBRANCH   1  25
BRANCH   1  27
ATOM     27  C27 ZIN A   1      19.521  -3.243  12.167  0.00  0.00     0.047 C 
BRANCH  27  28
ATOM     28  C28 ZIN A   1      18.738  -2.143  12.886  0.00  0.00     0.084 C 
BRANCH  28  29
ATOM     29  C30 ZIN A   1      19.698  -1.301  13.729  0.00  0.00     0.052 C 
BRANCH  29  30
ATOM     30  C31 ZIN A   1      18.952  -0.707  14.897  0.00  0.00    -0.057 A 
ATOM     31  C36 ZIN A   1      19.001   0.654  15.127  0.00  0.00     0.007 A 
ATOM     32  C35 ZIN A   1      18.314   1.199  16.195  0.00  0.00     0.001 A 
ATOM     33  C34 ZIN A   1      17.585   0.381  17.039  0.00  0.00     0.000 A 
ATOM     34  C33 ZIN A   1      17.541  -0.981  16.811  0.00  0.00     0.001 A 
ATOM     35  C32 ZIN A   1      18.225  -1.526  15.741  0.00  0.00     0.007 A 
ENDBRANCH  29  30
ENDBRANCH  28  29
BRANCH  28  36
ATOM     36  C37 ZIN A   1      18.059  -1.263  11.869  0.00  0.00     0.222 C 
ATOM     37  O38 ZIN A   1      16.849  -1.262  11.778  0.00  0.00    -0.273 OA
ATOM     38  N39 ZIN A   1      18.795  -0.477  11.059  0.00  0.00    -0.350 N 
ATOM     39  H86 ZIN A   1      19.764  -0.519  11.093  0.00  0.00     0.163 HD
BRANCH  38  40
ATOM     40  C40 ZIN A   1      18.133   0.441  10.129  0.00  0.00     0.147 C 
ATOM     41  C49 ZIN A   1      19.002   0.648   8.871  0.00  0.00     0.149 C 
ATOM     42  C48 ZIN A   1      18.725   2.125   8.516  0.00  0.00     0.073 C 
ATOM     43  C47 ZIN A   1      18.342   2.783   9.824  0.00  0.00    -0.047 A 
ATOM     44  C42 ZIN A   1      18.002   1.815  10.752  0.00  0.00    -0.027 A 
ATOM     45  C46 ZIN A   1      18.294   4.121  10.175  0.00  0.00     0.008 A 
ATOM     46  C43 ZIN A   1      17.615   2.189  12.027  0.00  0.00     0.010 A 
ATOM     47  C44 ZIN A   1      17.568   3.525  12.376  0.00  0.00     0.001 A 
ATOM     48  C45 ZIN A   1      17.908   4.492  11.449  0.00  0.00     0.001 A 
BRANCH  41  49
ATOM     49  O51 ZIN A   1      20.386   0.448   9.167  0.00  0.00    -0.393 OA
ATOM     50  H93 ZIN A   1      20.849   1.251   9.441  0.00  0.00     0.210 HD
ENDBRANCH  41  49
ENDBRANCH  38  40
ENDBRANCH  28  36
ENDBRANCH  27  28
ENDBRANCH   1  27
TORSDOF 14
ENDMDL
MODEL 3
REMARK VINA RESULT:      -9.6      1.500      4.059
REMARK  14 active torsions:
REMARK  status: ('A' for Active; 'I' for Inactive)
REMARK    1  A    between atoms: C2_2  and  N5_5 
REMARK       I    between atoms: N5_5  and  C6_6 
REMARK    2  A    between atoms: C6_6  and  C8_8 
REMARK    3  A    between atoms: N11_10  and  C12_11 
REMARK    4  A    between atoms: C12_11  and  C13_12 
REMARK    5  A    between atoms: N21_20  and  C23_22 
REMARK    6  A    between atoms: C23_22  and  C24_23 
REMARK    7  A    between atoms: C24_23  and  O26_24 
REMARK    8  A    between atoms: C24_23  and  C27_25 
REMARK    9  A    between atoms: C27_25  and  C28_26 
REMARK   10  A    between atoms: C28_26  and  C30_27 
REMARK   11  A    between atoms: C28_26  and  C37_34 
REMARK   12  A    between atoms: C30_27  and  C31_28 
REMARK       I    between atoms: C37_34  and  N39_36 
REMARK   13  A    between atoms: N39_36  and  C40_37 
REMARK   14  A    between atoms: C49_45  and  O51_46 
ROOT
ATOM      1  C24 ZIN A   1      19.014  -3.301  11.584  0.00  0.00     0.145 C 
ENDROOT
BRANCH   1   2
ATOM      2  C23 ZIN A   1      19.041  -2.754  10.156  0.00  0.00     0.267 C 
BRANCH   2   3
ATOM      3  N21 ZIN A   1      18.858  -3.858   9.204  0.00  0.00    -0.052 N 
ATOM      4  C8  ZIN A   1      19.659  -3.605   7.999  0.00  0.00     0.307 C 
ATOM      5  C10 ZIN A   1      19.482  -4.763   7.015  0.00  0.00     0.316 C 
ATOM      6  N11 ZIN A   1      18.061  -4.889   6.662  0.00  0.00     0.096 N 
ATOM      7  C19 ZIN A   1      17.244  -5.119   7.861  0.00  0.00     0.300 C 
ATOM      8  C20 ZIN A   1      17.439  -3.957   8.838  0.00  0.00     0.266 C 
ATOM      9  H22 ZIN A   1      19.156  -4.722   9.631  0.00  0.00     0.281 HD
BRANCH   4  10
ATOM     10  C6  ZIN A   1      19.202  -2.322   7.353  0.00  0.00     0.251 C 
ATOM     11  N5  ZIN A   1      18.652  -2.346   6.123  0.00  0.00    -0.351 N 
ATOM     12  H61 ZIN A   1      18.551  -3.188   5.653  0.00  0.00     0.163 HD
ATOM     13  O7  ZIN A   1      19.329  -1.268   7.941  0.00  0.00    -0.271 OA
BRANCH  11  14
ATOM     14  C2  ZIN A   1      18.207  -1.099   5.495  0.00  0.00     0.022 C 
ATOM     15  C1  ZIN A   1      19.426  -0.301   5.029  0.00  0.00     0.037 C 
ATOM     16  C3  ZIN A   1      17.413  -0.273   6.508  0.00  0.00     0.037 C 
ATOM     17  C4  ZIN A   1      17.320  -1.423   4.292  0.00  0.00     0.037 C 
ENDBRANCH  11  14
ENDBRANCH   4  10
BRANCH   6  18
ATOM     18  C12 ZIN A   1      17.858  -5.957   5.674  0.00  0.00     0.312 C 
BRANCH  18  19
ATOM     19  C13 ZIN A   1      17.037  -5.429   4.526  0.00  0.00    -0.013 A 
ATOM     20  C18 ZIN A   1      15.657  -5.383   4.614  0.00  0.00     0.125 A 
ATOM     21  N17 ZIN A   1      14.934  -4.916   3.616  0.00  0.00    -0.273 NA
ATOM     22  C16 ZIN A   1      15.487  -4.488   2.498  0.00  0.00     0.116 A 
ATOM     23  C15 ZIN A   1      16.859  -4.510   2.336  0.00  0.00     0.020 A 
ATOM     24  C14 ZIN A   1      17.655  -4.988   3.366  0.00  0.00     0.012 A 
ENDBRANCH  18  19
ENDBRANCH   6  18
ENDBRANCH   2   3
ENDBRANCH   1   2
BRANCH   1  25
ATOM     25  O26 ZIN A   1      20.301  -3.133  12.183  0.00  0.00    -0.394 OA
ATOM     26  H76 ZIN A   1      21.039  -3.327  11.589  0.00  0.00     0.210 HD
ENDBRANCH   1  25
BRANCH   1  27
ATOM     27  C27 ZIN A   1      17.967  -2.543  12.402  0.00  0.00     0.047 C 
BRANCH  27  28
ATOM     28  C28 ZIN A   1      18.401  -1.084  12.558  0.00  0.00     0.084 C 
BRANCH  28  29
ATOM     29  C30 ZIN A   1      17.197  -0.167  12.335  0.00  0.00     0.052 C 
BRANCH  29  30
ATOM     30  C31 ZIN A   1      17.621   1.031  11.525  0.00  0.00    -0.057 A 
ATOM     31  C36 ZIN A   1      17.676   2.279  12.115  0.00  0.00     0.007 A 
ATOM     32  C35 ZIN A   1      18.070   3.377  11.373  0.00  0.00     0.001 A 
ATOM     33  C34 ZIN A   1      18.399   3.228  10.038  0.00  0.00     0.000 A 
ATOM     34  C33 ZIN A   1      18.339   1.980   9.448  0.00  0.00     0.001 A 
ATOM     35  C32 ZIN A   1      17.950   0.881  10.190  0.00  0.00     0.007 A 
ENDBRANCH  29  30
ENDBRANCH  28  29
BRANCH  28  36
ATOM     36  C37 ZIN A   1      18.946  -0.868  13.947  0.00  0.00     0.222 C 
ATOM     37  O38 ZIN A   1      20.002  -1.370  14.269  0.00  0.00    -0.273 OA
ATOM     38  N39 ZIN A   1      18.259  -0.119  14.831  0.00  0.00    -0.350 N 
ATOM     39  H86 ZIN A   1      17.388   0.236  14.593  0.00  0.00     0.163 HD
BRANCH  38  40
ATOM     40  C40 ZIN A   1      18.828   0.161  16.152  0.00  0.00     0.147 C 
ATOM     41  C49 ZIN A   1      17.964  -0.486  17.255  0.00  0.00     0.149 C 
ATOM     42  C48 ZIN A   1      18.077   0.538  18.406  0.00  0.00     0.073 C 
ATOM     43  C47 ZIN A   1      18.357   1.864  17.732  0.00  0.00    -0.047 A 
ATOM     44  C42 ZIN A   1      18.789   1.647  16.436  0.00  0.00    -0.027 A 
ATOM     45  C46 ZIN A   1      18.245   3.157  18.214  0.00  0.00     0.008 A 
ATOM     46  C43 ZIN A   1      19.107   2.725  15.627  0.00  0.00     0.010 A 
ATOM     47  C44 ZIN A   1      18.993   4.014  16.109  0.00  0.00     0.001 A 
ATOM     48  C45 ZIN A   1      18.562   4.231  17.404  0.00  0.00     0.001 A 
BRANCH  41  49
ATOM     49  O51 ZIN A   1      16.608  -0.622  16.828  0.00  0.00    -0.393 OA
ATOM     50  H93 ZIN A   1      16.478  -1.286  16.137  0.00  0.00     0.210 HD
ENDBRANCH  41  49
ENDBRANCH  38  40
ENDBRANCH  28  36
ENDBRANCH  27  28
ENDBRANCH   1  27
TORSDOF 14
ENDMDL
MODEL 4
REMARK VINA RESULT:      -9.3      1.550      3.421
REMARK  14 active torsions:
REMARK  status: ('A' for Active; 'I' for Inactive)
REMARK    1  A    between atoms: C2_2  and  N5_5 
REMARK       I    between atoms: N5_5  and  C6_6 
REMARK    2  A    between atoms: C6_6  and  C8_8 
REMARK    3  A    between atoms: N11_10  and  C12_11 
REMARK    4  A    between atoms: C12_11  and  C13_12 
REMARK    5  A    between atoms: N21_20  and  C23_22 
REMARK    6  A    between atoms: C23_22  and  C24_23 
REMARK    7  A    between atoms: C24_23  and  O26_24 
REMARK    8  A    between atoms: C24_23  and  C27_25 
REMARK    9  A    between atoms: C27_25  and  C28_26 
REMARK   10  A    between atoms: C28_26  and  C30_27 
REMARK   11  A    between atoms: C28_26  and  C37_34 
REMARK   12  A    between atoms: C30_27  and  C31_28 
REMARK       I    between atoms: C37_34  and  N39_36 
REMARK   13  A    between atoms: N39_36  and  C40_37 
REMARK   14  A    between atoms: C49_45  and  O51_46 
ROOT
ATOM      1  C24 ZIN A   1      18.629  -4.060  11.314  0.00  0.00     0.145 C 
ENDROOT
BRANCH   1   2
ATOM      2  C23 ZIN A   1      19.422  -4.877  10.292  0.00  0.00     0.267 C 
BRANCH   2   3
ATOM      3  N21 ZIN A   1      19.435  -4.171   9.004  0.00  0.00    -0.052 N 
ATOM      4  C8  ZIN A   1      18.070  -3.749   8.663  0.00  0.00     0.307 C 
ATOM      5  C10 ZIN A   1      18.085  -2.998   7.330  0.00  0.00     0.316 C 
ATOM      6  N11 ZIN A   1      18.621  -3.878   6.282  0.00  0.00     0.096 N 
ATOM      7  C19 ZIN A   1      19.978  -4.329   6.621  0.00  0.00     0.300 C 
ATOM      8  C20 ZIN A   1      19.946  -5.069   7.960  0.00  0.00     0.266 C 
ATOM      9  H22 ZIN A   1      20.030  -3.360   9.071  0.00  0.00     0.281 HD
BRANCH   4  10
ATOM     10  C6  ZIN A   1      17.183  -4.962   8.546  0.00  0.00     0.251 C 
ATOM     11  N5  ZIN A   1      16.579  -5.245   7.375  0.00  0.00    -0.351 N 
ATOM     12  H61 ZIN A   1      16.713  -4.667   6.608  0.00  0.00     0.163 HD
ATOM     13  O7  ZIN A   1      17.015  -5.685   9.506  0.00  0.00    -0.271 OA
BRANCH  11  14
ATOM     14  C2  ZIN A   1      15.717  -6.425   7.261  0.00  0.00     0.022 C 
ATOM     15  C1  ZIN A   1      14.438  -6.202   8.070  0.00  0.00     0.037 C 
ATOM     16  C3  ZIN A   1      16.456  -7.650   7.802  0.00  0.00     0.037 C 
ATOM     17  C4  ZIN A   1      15.357  -6.653   5.792  0.00  0.00     0.037 C 
ENDBRANCH  11  14
ENDBRANCH   4  10
BRANCH   6  18
ATOM     18  C12 ZIN A   1      18.600  -3.211   4.973  0.00  0.00     0.312 C 
BRANCH  18  19
ATOM     19  C13 ZIN A   1      18.508  -1.720   5.171  0.00  0.00    -0.013 A 
ATOM     20  C18 ZIN A   1      19.624  -0.921   5.001  0.00  0.00     0.125 A 
ATOM     21  N17 ZIN A   1      19.550   0.385   5.167  0.00  0.00    -0.273 NA
ATOM     22  C16 ZIN A   1      18.422   0.978   5.509  0.00  0.00     0.116 A 
ATOM     23  C15 ZIN A   1      17.268   0.243   5.702  0.00  0.00     0.020 A 
ATOM     24  C14 ZIN A   1      17.305  -1.133   5.531  0.00  0.00     0.012 A 
ENDBRANCH  18  19
ENDBRANCH   6  18
ENDBRANCH   2   3
ENDBRANCH   1   2
BRANCH   1  25
ATOM     25  O26 ZIN A   1      17.944  -4.944  12.203  0.00  0.00    -0.394 OA
ATOM     26  H76 ZIN A   1      18.099  -5.882  12.022  0.00  0.00     0.210 HD
ENDBRANCH   1  25
BRANCH   1  27
ATOM     27  C27 ZIN A   1      19.588  -3.175  12.113  0.00  0.00     0.047 C 
BRANCH  27  28
ATOM     28  C28 ZIN A   1      18.785  -2.164  12.934  0.00  0.00     0.084 C 
BRANCH  28  29
ATOM     29  C30 ZIN A   1      19.732  -1.379  13.844  0.00  0.00     0.052 C 
BRANCH  29  30
ATOM     30  C31 ZIN A   1      18.948  -0.771  14.979  0.00  0.00    -0.057 A 
ATOM     31  C36 ZIN A   1      18.127  -1.566  15.756  0.00  0.00     0.007 A 
ATOM     32  C35 ZIN A   1      17.413  -1.009  16.799  0.00  0.00     0.001 A 
ATOM     33  C34 ZIN A   1      17.510   0.345  17.059  0.00  0.00     0.000 A 
ATOM     34  C33 ZIN A   1      18.327   1.141  16.278  0.00  0.00     0.001 A 
ATOM     35  C32 ZIN A   1      19.045   0.584  15.238  0.00  0.00     0.007 A 
ENDBRANCH  29  30
ENDBRANCH  28  29
BRANCH  28  36
ATOM     36  C37 ZIN A   1      18.078  -1.212  12.004  0.00  0.00     0.222 C 
ATOM     37  O38 ZIN A   1      16.869  -1.246  11.905  0.00  0.00    -0.273 OA
ATOM     38  N39 ZIN A   1      18.788  -0.323  11.282  0.00  0.00    -0.350 N 
ATOM     39  H86 ZIN A   1      19.757  -0.333  11.318  0.00  0.00     0.163 HD
BRANCH  38  40
ATOM     40  C40 ZIN A   1      18.095   0.659  10.443  0.00  0.00     0.147 C 
ATOM     41  C49 ZIN A   1      18.905   0.930   9.157  0.00  0.00     0.149 C 
ATOM     42  C48 ZIN A   1      18.634   2.429   8.906  0.00  0.00     0.073 C 
ATOM     43  C47 ZIN A   1      18.327   3.011  10.269  0.00  0.00    -0.047 A 
ATOM     44  C42 ZIN A   1      18.018   1.994  11.153  0.00  0.00    -0.027 A 
ATOM     45  C46 ZIN A   1      18.319   4.326  10.701  0.00  0.00     0.008 A 
ATOM     46  C43 ZIN A   1      17.701   2.295  12.466  0.00  0.00     0.010 A 
ATOM     47  C44 ZIN A   1      17.693   3.608  12.896  0.00  0.00     0.001 A 
ATOM     48  C45 ZIN A   1      18.003   4.625  12.013  0.00  0.00     0.001 A 
BRANCH  41  49
ATOM     49  O51 ZIN A   1      20.297   0.694   9.371  0.00  0.00    -0.393 OA
ATOM     50  H93 ZIN A   1      20.597  -0.180   9.085  0.00  0.00     0.210 HD
ENDBRANCH  41  49
ENDBRANCH  38  40
ENDBRANCH  28  36
ENDBRANCH  27  28
ENDBRANCH   1  27
TORSDOF 14
ENDMDL
MODEL 5
REMARK VINA RESULT:      -9.3      1.609      2.348
REMARK  14 active torsions:
REMARK  status: ('A' for Active; 'I' for Inactive)
REMARK    1  A    between atoms: C2_2  and  N5_5 
REMARK       I    between atoms: N5_5  and  C6_6 
REMARK    2  A    between atoms: C6_6  and  C8_8 
REMARK    3  A    between atoms: N11_10  and  C12_11 
REMARK    4  A    between atoms: C12_11  and  C13_12 
REMARK    5  A    between atoms: N21_20  and  C23_22 
REMARK    6  A    between atoms: C23_22  and  C24_23 
REMARK    7  A    between atoms: C24_23  and  O26_24 
REMARK    8  A    between atoms: C24_23  and  C27_25 
REMARK    9  A    between atoms: C27_25  and  C28_26 
REMARK   10  A    between atoms: C28_26  and  C30_27 
REMARK   11  A    between atoms: C28_26  and  C37_34 
REMARK   12  A    between atoms: C30_27  and  C31_28 
REMARK       I    between atoms: C37_34  and  N39_36 
REMARK   13  A    between atoms: N39_36  and  C40_37 
REMARK   14  A    between atoms: C49_45  and  O51_46 
ROOT
ATOM      1  C24 ZIN A   1      18.479  -2.967  12.021  0.00  0.00     0.145 C 
ENDROOT
BRANCH   1   2
ATOM      2  C23 ZIN A   1      18.174  -2.392  10.637  0.00  0.00     0.267 C 
BRANCH   2   3
ATOM      3  N21 ZIN A   1      18.408  -3.421   9.615  0.00  0.00    -0.052 N 
ATOM      4  C8  ZIN A   1      19.307  -2.889   8.582  0.00  0.00     0.307 C 
ATOM      5  C10 ZIN A   1      19.566  -3.967   7.527  0.00  0.00     0.316 C 
ATOM      6  N11 ZIN A   1      18.289  -4.377   6.926  0.00  0.00     0.096 N 
ATOM      7  C19 ZIN A   1      17.370  -4.889   7.952  0.00  0.00     0.300 C 
ATOM      8  C20 ZIN A   1      17.129  -3.803   9.003  0.00  0.00     0.266 C 
ATOM      9  H22 ZIN A   1      18.830  -4.230  10.044  0.00  0.00     0.281 HD
BRANCH   4  10
ATOM     10  C6  ZIN A   1      18.669  -1.690   7.929  0.00  0.00     0.251 C 
ATOM     11  N5  ZIN A   1      19.128  -1.244   6.744  0.00  0.00    -0.351 N 
ATOM     12  H61 ZIN A   1      19.871  -1.693   6.311  0.00  0.00     0.163 HD
ATOM     13  O7  ZIN A   1      17.740  -1.128   8.471  0.00  0.00    -0.271 OA
BRANCH  11  14
ATOM     14  C2  ZIN A   1      18.507  -0.078   6.109  0.00  0.00     0.022 C 
ATOM     15  C1  ZIN A   1      16.985  -0.206   6.187  0.00  0.00     0.037 C 
ATOM     16  C3  ZIN A   1      18.939  -0.005   4.644  0.00  0.00     0.037 C 
ATOM     17  C4  ZIN A   1      18.949   1.194   6.836  0.00  0.00     0.037 C 
ENDBRANCH  11  14
ENDBRANCH   4  10
BRANCH   6  18
ATOM     18  C12 ZIN A   1      18.502  -5.372   5.866  0.00  0.00     0.312 C 
BRANCH  18  19
ATOM     19  C13 ZIN A   1      17.651  -5.024   4.673  0.00  0.00    -0.013 A 
ATOM     20  C18 ZIN A   1      17.088  -6.023   3.898  0.00  0.00     0.125 A 
ATOM     21  N17 ZIN A   1      16.338  -5.726   2.857  0.00  0.00    -0.273 NA
ATOM     22  C16 ZIN A   1      16.102  -4.476   2.504  0.00  0.00     0.116 A 
ATOM     23  C15 ZIN A   1      16.636  -3.427   3.227  0.00  0.00     0.020 A 
ATOM     24  C14 ZIN A   1      17.426  -3.699   4.333  0.00  0.00     0.012 A 
ENDBRANCH  18  19
ENDBRANCH   6  18
ENDBRANCH   2   3
ENDBRANCH   1   2
BRANCH   1  25
ATOM     25  O26 ZIN A   1      18.909  -4.324  11.888  0.00  0.00    -0.394 OA
ATOM     26  H76 ZIN A   1      19.074  -4.768  12.731  0.00  0.00     0.210 HD
ENDBRANCH   1  25
BRANCH   1  27
ATOM     27  C27 ZIN A   1      19.584  -2.144  12.684  0.00  0.00     0.047 C 
BRANCH  27  28
ATOM     28  C28 ZIN A   1      18.977  -1.260  13.775  0.00  0.00     0.084 C 
BRANCH  28  29
ATOM     29  C30 ZIN A   1      19.331  -1.830  15.150  0.00  0.00     0.052 C 
BRANCH  29  30
ATOM     30  C31 ZIN A   1      18.690  -0.989  16.223  0.00  0.00    -0.057 A 
ATOM     31  C36 ZIN A   1      17.344  -0.682  16.149  0.00  0.00     0.007 A 
ATOM     32  C35 ZIN A   1      16.756   0.086  17.136  0.00  0.00     0.001 A 
ATOM     33  C34 ZIN A   1      17.515   0.556  18.192  0.00  0.00     0.000 A 
ATOM     34  C33 ZIN A   1      18.861   0.252  18.263  0.00  0.00     0.001 A 
ATOM     35  C32 ZIN A   1      19.449  -0.519  17.279  0.00  0.00     0.007 A 
ENDBRANCH  29  30
ENDBRANCH  28  29
BRANCH  28  36
ATOM     36  C37 ZIN A   1      19.528   0.137  13.654  0.00  0.00     0.222 C 
ATOM     37  O38 ZIN A   1      20.728   0.316  13.628  0.00  0.00    -0.273 OA
ATOM     38  N39 ZIN A   1      18.689   1.189  13.576  0.00  0.00    -0.350 N 
ATOM     39  H86 ZIN A   1      17.732   1.052  13.653  0.00  0.00     0.163 HD
BRANCH  38  40
ATOM     40  C40 ZIN A   1      19.223   2.538  13.373  0.00  0.00     0.147 C 
ATOM     41  C49 ZIN A   1      18.746   3.478  14.501  0.00  0.00     0.149 C 
ATOM     42  C48 ZIN A   1      18.571   4.821  13.760  0.00  0.00     0.073 C 
ATOM     43  C47 ZIN A   1      18.295   4.448  12.319  0.00  0.00    -0.047 A 
ATOM     44  C42 ZIN A   1      18.669   3.135  12.097  0.00  0.00    -0.027 A 
ATOM     45  C46 ZIN A   1      17.760   5.196  11.285  0.00  0.00     0.008 A 
ATOM     46  C43 ZIN A   1      18.507   2.576  10.841  0.00  0.00     0.010 A 
ATOM     47  C44 ZIN A   1      17.973   3.325   9.810  0.00  0.00     0.001 A 
ATOM     48  C45 ZIN A   1      17.598   4.637  10.032  0.00  0.00     0.001 A 
BRANCH  41  49
ATOM     49  O51 ZIN A   1      17.501   3.032  15.044  0.00  0.00    -0.393 OA
ATOM     50  H93 ZIN A   1      17.592   2.459  15.817  0.00  0.00     0.210 HD
ENDBRANCH  41  49
ENDBRANCH  38  40
ENDBRANCH  28  36
ENDBRANCH  27  28
ENDBRANCH   1  27
TORSDOF 14
ENDMDL
MODEL 6
REMARK VINA RESULT:      -9.3      2.016      9.495
REMARK  14 active torsions:
REMARK  status: ('A' for Active; 'I' for Inactive)
REMARK    1  A    between atoms: C2_2  and  N5_5 
REMARK       I    between atoms: N5_5  and  C6_6 
REMARK    2  A    between atoms: C6_6  and  C8_8 
REMARK    3  A    between atoms: N11_10  and  C12_11 
REMARK    4  A    between atoms: C12_11  and  C13_12 
REMARK    5  A    between atoms: N21_20  and  C23_22 
REMARK    6  A    between atoms: C23_22  and  C24_23 
REMARK    7  A    between atoms: C24_23  and  O26_24 
REMARK    8  A    between atoms: C24_23  and  C27_25 
REMARK    9  A    between atoms: C27_25  and  C28_26 
REMARK   10  A    between atoms: C28_26  and  C30_27 
REMARK   11  A    between atoms: C28_26  and  C37_34 
REMARK   12  A    between atoms: C30_27  and  C31_28 
REMARK       I    between atoms: C37_34  and  N39_36 
REMARK   13  A    between atoms: N39_36  and  C40_37 
REMARK   14  A    between atoms: C49_45  and  O51_46 
ROOT
ATOM      1  C24 ZIN A   1      19.665  -3.497  11.165  0.00  0.00     0.145 C 
ENDROOT
BRANCH   1   2
ATOM      2  C23 ZIN A   1      18.880  -2.730  12.231  0.00  0.00     0.267 C 
BRANCH   2   3
ATOM      3  N21 ZIN A   1      18.747  -1.324  11.826  0.00  0.00    -0.052 N 
ATOM      4  C8  ZIN A   1      19.529  -0.477  12.737  0.00  0.00     0.307 C 
ATOM      5  C10 ZIN A   1      19.407   0.986  12.305  0.00  0.00     0.316 C 
ATOM      6  N11 ZIN A   1      17.992   1.384  12.330  0.00  0.00     0.096 N 
ATOM      7  C19 ZIN A   1      17.193   0.529  11.442  0.00  0.00     0.300 C 
ATOM      8  C20 ZIN A   1      17.334  -0.930  11.882  0.00  0.00     0.266 C 
ATOM      9  H22 ZIN A   1      19.091  -1.212  10.884  0.00  0.00     0.281 HD
BRANCH   4  10
ATOM     10  C6  ZIN A   1      19.005  -0.632  14.141  0.00  0.00     0.251 C 
ATOM     11  N5  ZIN A   1      19.256   0.319  15.062  0.00  0.00    -0.351 N 
ATOM     12  H61 ZIN A   1      19.775   1.103  14.822  0.00  0.00     0.163 HD
ATOM     13  O7  ZIN A   1      18.357  -1.612  14.442  0.00  0.00    -0.271 OA
BRANCH  11  14
ATOM     14  C2  ZIN A   1      18.746   0.169  16.428  0.00  0.00     0.022 C 
ATOM     15  C1  ZIN A   1      17.217   0.151  16.401  0.00  0.00     0.037 C 
ATOM     16  C3  ZIN A   1      19.228   1.340  17.284  0.00  0.00     0.037 C 
ATOM     17  C4  ZIN A   1      19.261  -1.144  17.022  0.00  0.00     0.037 C 
ENDBRANCH  11  14
ENDBRANCH   4  10
BRANCH   6  18
ATOM     18  C12 ZIN A   1      17.838   2.802  11.975  0.00  0.00     0.312 C 
BRANCH  18  19
ATOM     19  C13 ZIN A   1      18.371   3.660  13.092  0.00  0.00    -0.013 A 
ATOM     20  C18 ZIN A   1      19.378   4.578  12.851  0.00  0.00     0.125 A 
ATOM     21  N17 ZIN A   1      19.846   5.336  13.823  0.00  0.00    -0.273 NA
ATOM     22  C16 ZIN A   1      19.386   5.246  15.056  0.00  0.00     0.116 A 
ATOM     23  C15 ZIN A   1      18.385   4.348  15.372  0.00  0.00     0.020 A 
ATOM     24  C14 ZIN A   1      17.863   3.537  14.376  0.00  0.00     0.012 A 
ENDBRANCH  18  19
ENDBRANCH   6  18
ENDBRANCH   2   3
ENDBRANCH   1   2
BRANCH   1  25
ATOM     25  O26 ZIN A   1      21.065  -3.297  11.369  0.00  0.00    -0.394 OA
ATOM     26  H76 ZIN A   1      21.322  -2.368  11.447  0.00  0.00     0.210 HD
ENDBRANCH   1  25
BRANCH   1  27
ATOM     27  C27 ZIN A   1      19.342  -4.989  11.268  0.00  0.00     0.047 C 
BRANCH  27  28
ATOM     28  C28 ZIN A   1      18.660  -5.453   9.980  0.00  0.00     0.084 C 
BRANCH  28  29
ATOM     29  C30 ZIN A   1      17.164  -5.137  10.052  0.00  0.00     0.052 C 
BRANCH  29  30
ATOM     30  C31 ZIN A   1      16.415  -6.030   9.097  0.00  0.00    -0.057 A 
ATOM     31  C36 ZIN A   1      15.161  -5.662   8.647  0.00  0.00     0.007 A 
ATOM     32  C35 ZIN A   1      14.477  -6.479   7.767  0.00  0.00     0.001 A 
ATOM     33  C34 ZIN A   1      15.042  -7.668   7.344  0.00  0.00     0.000 A 
ATOM     34  C33 ZIN A   1      16.294  -8.037   7.798  0.00  0.00     0.001 A 
ATOM     35  C32 ZIN A   1      16.981  -7.219   8.675  0.00  0.00     0.007 A 
ENDBRANCH  29  30
ENDBRANCH  28  29
BRANCH  28  36
ATOM     36  C37 ZIN A   1      19.268  -4.735   8.803  0.00  0.00     0.222 C 
ATOM     37  O38 ZIN A   1      20.284  -5.158   8.294  0.00  0.00    -0.273 OA
ATOM     38  N39 ZIN A   1      18.683  -3.623   8.316  0.00  0.00    -0.350 N 
ATOM     39  H86 ZIN A   1      17.902  -3.253   8.757  0.00  0.00     0.163 HD
BRANCH  38  40
ATOM     40  C40 ZIN A   1      19.226  -2.974   7.120  0.00  0.00     0.147 C 
ATOM     41  C49 ZIN A   1      19.197  -1.439   7.284  0.00  0.00     0.149 C 
ATOM     42  C48 ZIN A   1      18.901  -0.959   5.846  0.00  0.00     0.073 C 
ATOM     43  C47 ZIN A   1      18.161  -2.104   5.189  0.00  0.00    -0.047 A 
ATOM     44  C42 ZIN A   1      18.348  -3.263   5.921  0.00  0.00    -0.027 A 
ATOM     45  C46 ZIN A   1      17.387  -2.132   4.042  0.00  0.00     0.008 A 
ATOM     46  C43 ZIN A   1      17.760  -4.444   5.503  0.00  0.00     0.010 A 
ATOM     47  C44 ZIN A   1      16.987  -4.470   4.358  0.00  0.00     0.001 A 
ATOM     48  C45 ZIN A   1      16.800  -3.312   3.626  0.00  0.00     0.001 A 
BRANCH  41  49
ATOM     49  O51 ZIN A   1      18.155  -1.041   8.177  0.00  0.00    -0.393 OA
ATOM     50  H93 ZIN A   1      17.435  -1.682   8.252  0.00  0.00     0.210 HD
ENDBRANCH  41  49
ENDBRANCH  38  40
ENDBRANCH  28  36
ENDBRANCH  27  28
ENDBRANCH   1  27
TORSDOF 14
ENDMDL
MODEL 7
REMARK VINA RESULT:      -9.3      1.877      4.772
REMARK  14 active torsions:
REMARK  status: ('A' for Active; 'I' for Inactive)
REMARK    1  A    between atoms: C2_2  and  N5_5 
REMARK       I    between atoms: N5_5  and  C6_6 
REMARK    2  A    between atoms: C6_6  and  C8_8 
REMARK    3  A    between atoms: N11_10  and  C12_11 
REMARK    4  A    between atoms: C12_11  and  C13_12 
REMARK    5  A    between atoms: N21_20  and  C23_22 
REMARK    6  A    between atoms: C23_22  and  C24_23 
REMARK    7  A    between atoms: C24_23  and  O26_24 
REMARK    8  A    between atoms: C24_23  and  C27_25 
REMARK    9  A    between atoms: C27_25  and  C28_26 
REMARK   10  A    between atoms: C28_26  and  C30_27 
REMARK   11  A    between atoms: C28_26  and  C37_34 
REMARK   12  A    between atoms: C30_27  and  C31_28 
REMARK       I    between atoms: C37_34  and  N39_36 
REMARK   13  A    between atoms: N39_36  and  C40_37 
REMARK   14  A    between atoms: C49_45  and  O51_46 
ROOT
ATOM      1  C24 ZIN A   1      19.644  -3.364  11.760  0.00  0.00     0.145 C 
ENDROOT
BRANCH   1   2
ATOM      2  C23 ZIN A   1      19.206  -4.425  10.748  0.00  0.00     0.267 C 
BRANCH   2   3
ATOM      3  N21 ZIN A   1      19.390  -3.908   9.385  0.00  0.00    -0.052 N 
ATOM      4  C8  ZIN A   1      18.101  -3.432   8.864  0.00  0.00     0.307 C 
ATOM      5  C10 ZIN A   1      18.296  -2.877   7.451  0.00  0.00     0.316 C 
ATOM      6  N11 ZIN A   1      18.835  -3.934   6.584  0.00  0.00     0.096 N 
ATOM      7  C19 ZIN A   1      20.113  -4.437   7.106  0.00  0.00     0.300 C 
ATOM      8  C20 ZIN A   1      19.903  -4.979   8.522  0.00  0.00     0.266 C 
ATOM      9  H22 ZIN A   1      20.048  -3.145   9.401  0.00  0.00     0.281 HD
BRANCH   4  10
ATOM     10  C6  ZIN A   1      17.122  -4.577   8.824  0.00  0.00     0.251 C 
ATOM     11  N5  ZIN A   1      16.654  -5.022   7.642  0.00  0.00    -0.351 N 
ATOM     12  H61 ZIN A   1      16.947  -4.606   6.816  0.00  0.00     0.163 HD
ATOM     13  O7  ZIN A   1      16.756  -5.098   9.857  0.00  0.00    -0.271 OA
BRANCH  11  14
ATOM     14  C2  ZIN A   1      15.702  -6.136   7.603  0.00  0.00     0.022 C 
ATOM     15  C1  ZIN A   1      15.134  -6.272   6.190  0.00  0.00     0.037 C 
ATOM     16  C3  ZIN A   1      14.563  -5.867   8.587  0.00  0.00     0.037 C 
ATOM     17  C4  ZIN A   1      16.418  -7.432   7.992  0.00  0.00     0.037 C 
ENDBRANCH  11  14
ENDBRANCH   4  10
BRANCH   6  18
ATOM     18  C12 ZIN A   1      18.983  -3.455   5.202  0.00  0.00     0.312 C 
BRANCH  18  19
ATOM     19  C13 ZIN A   1      17.932  -4.096   4.333  0.00  0.00    -0.013 A 
ATOM     20  C18 ZIN A   1      17.986  -5.449   4.051  0.00  0.00     0.125 A 
ATOM     21  N17 ZIN A   1      17.067  -6.018   3.297  0.00  0.00    -0.273 NA
ATOM     22  C16 ZIN A   1      16.073  -5.326   2.774  0.00  0.00     0.116 A 
ATOM     23  C15 ZIN A   1      15.957  -3.970   3.008  0.00  0.00     0.020 A 
ATOM     24  C14 ZIN A   1      16.902  -3.336   3.802  0.00  0.00     0.012 A 
ENDBRANCH  18  19
ENDBRANCH   6  18
ENDBRANCH   2   3
ENDBRANCH   1   2
BRANCH   1  25
ATOM     25  O26 ZIN A   1      20.428  -2.370  11.098  0.00  0.00    -0.394 OA
ATOM     26  H76 ZIN A   1      21.329  -2.287  11.439  0.00  0.00     0.210 HD
ENDBRANCH   1  25
BRANCH   1  27
ATOM     27  C27 ZIN A   1      18.408  -2.710  12.381  0.00  0.00     0.047 C 
BRANCH  27  28
ATOM     28  C28 ZIN A   1      18.686  -1.226  12.629  0.00  0.00     0.084 C 
BRANCH  28  29
ATOM     29  C30 ZIN A   1      17.416  -0.417  12.362  0.00  0.00     0.052 C 
BRANCH  29  30
ATOM     30  C31 ZIN A   1      17.744   0.754  11.471  0.00  0.00    -0.057 A 
ATOM     31  C36 ZIN A   1      17.625   2.043  11.953  0.00  0.00     0.007 A 
ATOM     32  C35 ZIN A   1      17.931   3.116  11.138  0.00  0.00     0.001 A 
ATOM     33  C34 ZIN A   1      18.346   2.901   9.837  0.00  0.00     0.000 A 
ATOM     34  C33 ZIN A   1      18.459   1.611   9.353  0.00  0.00     0.001 A 
ATOM     35  C32 ZIN A   1      18.158   0.537  10.170  0.00  0.00     0.007 A 
ENDBRANCH  29  30
ENDBRANCH  28  29
BRANCH  28  36
ATOM     36  C37 ZIN A   1      19.116  -1.029  14.060  0.00  0.00     0.222 C 
ATOM     37  O38 ZIN A   1      20.041  -1.671  14.510  0.00  0.00    -0.273 OA
ATOM     38  N39 ZIN A   1      18.471  -0.139  14.840  0.00  0.00    -0.350 N 
ATOM     39  H86 ZIN A   1      17.696   0.334  14.498  0.00  0.00     0.163 HD
BRANCH  38  40
ATOM     40  C40 ZIN A   1      18.942   0.115  16.204  0.00  0.00     0.147 C 
ATOM     41  C49 ZIN A   1      18.011  -0.570  17.228  0.00  0.00     0.149 C 
ATOM     42  C48 ZIN A   1      18.028   0.426  18.408  0.00  0.00     0.073 C 
ATOM     43  C47 ZIN A   1      18.337   1.772  17.788  0.00  0.00    -0.047 A 
ATOM     44  C42 ZIN A   1      18.862   1.593  16.521  0.00  0.00    -0.027 A 
ATOM     45  C46 ZIN A   1      18.174   3.051  18.291  0.00  0.00     0.008 A 
ATOM     46  C43 ZIN A   1      19.222   2.694  15.762  0.00  0.00     0.010 A 
ATOM     47  C44 ZIN A   1      19.057   3.969  16.266  0.00  0.00     0.001 A 
ATOM     48  C45 ZIN A   1      18.532   4.148  17.532  0.00  0.00     0.001 A 
BRANCH  41  49
ATOM     49  O51 ZIN A   1      16.690  -0.711  16.702  0.00  0.00    -0.393 OA
ATOM     50  H93 ZIN A   1      15.997  -0.716  17.375  0.00  0.00     0.210 HD
ENDBRANCH  41  49
ENDBRANCH  38  40
ENDBRANCH  28  36
ENDBRANCH  27  28
ENDBRANCH   1  27
TORSDOF 14
ENDMDL
MODEL 8
REMARK VINA RESULT:      -9.2      2.511      6.035
REMARK  14 active torsions:
REMARK  status: ('A' for Active; 'I' for Inactive)
REMARK    1  A    between atoms: C2_2  and  N5_5 
REMARK       I    between atoms: N5_5  and  C6_6 
REMARK    2  A    between atoms: C6_6  and  C8_8 
REMARK    3  A    between atoms: N11_10  and  C12_11 
REMARK    4  A    between atoms: C12_11  and  C13_12 
REMARK    5  A    between atoms: N21_20  and  C23_22 
REMARK    6  A    between atoms: C23_22  and  C24_23 
REMARK    7  A    between atoms: C24_23  and  O26_24 
REMARK    8  A    between atoms: C24_23  and  C27_25 
REMARK    9  A    between atoms: C27_25  and  C28_26 
REMARK   10  A    between atoms: C28_26  and  C30_27 
REMARK   11  A    between atoms: C28_26  and  C37_34 
REMARK   12  A    between atoms: C30_27  and  C31_28 
REMARK       I    between atoms: C37_34  and  N39_36 
REMARK   13  A    between atoms: N39_36  and  C40_37 
REMARK   14  A    between atoms: C49_45  and  O51_46 
ROOT
ATOM      1  C24 ZIN A   1      18.249   4.001   9.963  0.00  0.00     0.145 C 
ENDROOT
BRANCH   1   2
ATOM      2  C23 ZIN A   1      18.245   2.845   8.961  0.00  0.00     0.267 C 
BRANCH   2   3
ATOM      3  N21 ZIN A   1      18.610   1.599   9.649  0.00  0.00    -0.052 N 
ATOM      4  C8  ZIN A   1      19.695   0.935   8.915  0.00  0.00     0.307 C 
ATOM      5  C10 ZIN A   1      20.088  -0.354   9.641  0.00  0.00     0.316 C 
ATOM      6  N11 ZIN A   1      18.918  -1.239   9.728  0.00  0.00     0.096 N 
ATOM      7  C19 ZIN A   1      17.815  -0.579  10.438  0.00  0.00     0.300 C 
ATOM      8  C20 ZIN A   1      17.441   0.712   9.706  0.00  0.00     0.266 C 
ATOM      9  H22 ZIN A   1      18.917   1.810  10.586  0.00  0.00     0.281 HD
BRANCH   4  10
ATOM     10  C6  ZIN A   1      19.230   0.604   7.521  0.00  0.00     0.251 C 
ATOM     11  N5  ZIN A   1      19.208  -0.677   7.103  0.00  0.00    -0.351 N 
ATOM     12  H61 ZIN A   1      19.492  -1.387   7.701  0.00  0.00     0.163 HD
ATOM     13  O7  ZIN A   1      18.875   1.492   6.774  0.00  0.00    -0.271 OA
BRANCH  11  14
ATOM     14  C2  ZIN A   1      18.755  -0.998   5.747  0.00  0.00     0.022 C 
ATOM     15  C1  ZIN A   1      17.256  -0.718   5.631  0.00  0.00     0.037 C 
ATOM     16  C3  ZIN A   1      19.023  -2.475   5.457  0.00  0.00     0.037 C 
ATOM     17  C4  ZIN A   1      19.514  -0.133   4.738  0.00  0.00     0.037 C 
ENDBRANCH  11  14
ENDBRANCH   4  10
BRANCH   6  18
ATOM     18  C12 ZIN A   1      19.269  -2.514  10.370  0.00  0.00     0.312 C 
BRANCH  18  19
ATOM     19  C13 ZIN A   1      18.197  -3.532  10.083  0.00  0.00    -0.013 A 
ATOM     20  C18 ZIN A   1      17.917  -3.907   8.781  0.00  0.00     0.125 A 
ATOM     21  N17 ZIN A   1      16.985  -4.802   8.523  0.00  0.00    -0.273 NA
ATOM     22  C16 ZIN A   1      16.278  -5.365   9.483  0.00  0.00     0.116 A 
ATOM     23  C15 ZIN A   1      16.498  -5.036  10.807  0.00  0.00     0.020 A 
ATOM     24  C14 ZIN A   1      17.474  -4.102  11.119  0.00  0.00     0.012 A 
ENDBRANCH  18  19
ENDBRANCH   6  18
ENDBRANCH   2   3
ENDBRANCH   1   2
BRANCH   1  25
ATOM     25  O26 ZIN A   1      17.793   5.192   9.318  0.00  0.00    -0.394 OA
ATOM     26  H76 ZIN A   1      18.375   5.954   9.441  0.00  0.00     0.210 HD
ENDBRANCH   1  25
BRANCH   1  27
ATOM     27  C27 ZIN A   1      17.321   3.666  11.132  0.00  0.00     0.047 C 
BRANCH  27  28
ATOM     28  C28 ZIN A   1      18.022   3.998  12.451  0.00  0.00     0.084 C 
BRANCH  28  29
ATOM     29  C30 ZIN A   1      16.974   4.326  13.517  0.00  0.00     0.052 C 
BRANCH  29  30
ATOM     30  C31 ZIN A   1      17.382   5.576  14.254  0.00  0.00    -0.057 A 
ATOM     31  C36 ZIN A   1      18.324   5.507  15.263  0.00  0.00     0.007 A 
ATOM     32  C35 ZIN A   1      18.700   6.655  15.935  0.00  0.00     0.001 A 
ATOM     33  C34 ZIN A   1      18.129   7.869  15.605  0.00  0.00     0.000 A 
ATOM     34  C33 ZIN A   1      17.183   7.936  14.599  0.00  0.00     0.001 A 
ATOM     35  C32 ZIN A   1      16.809   6.790  13.924  0.00  0.00     0.007 A 
ENDBRANCH  29  30
ENDBRANCH  28  29
BRANCH  28  36
ATOM     36  C37 ZIN A   1      18.838   2.812  12.897  0.00  0.00     0.222 C 
ATOM     37  O38 ZIN A   1      19.867   2.532  12.320  0.00  0.00    -0.273 OA
ATOM     38  N39 ZIN A   1      18.425   2.063  13.938  0.00  0.00    -0.350 N 
ATOM     39  H86 ZIN A   1      17.575   2.252  14.365  0.00  0.00     0.163 HD
BRANCH  38  40
ATOM     40  C40 ZIN A   1      19.261   0.963  14.426  0.00  0.00     0.147 C 
ATOM     41  C49 ZIN A   1      18.735  -0.387  13.891  0.00  0.00     0.149 C 
ATOM     42  C48 ZIN A   1      19.026  -1.344  15.067  0.00  0.00     0.073 C 
ATOM     43  C47 ZIN A   1      19.029  -0.468  16.301  0.00  0.00    -0.047 A 
ATOM     44  C42 ZIN A   1      19.164   0.858  15.933  0.00  0.00    -0.027 A 
ATOM     45  C46 ZIN A   1      18.924  -0.804  17.640  0.00  0.00     0.008 A 
ATOM     46  C43 ZIN A   1      19.192   1.844  16.905  0.00  0.00     0.010 A 
ATOM     47  C44 ZIN A   1      19.087   1.507  18.240  0.00  0.00     0.001 A 
ATOM     48  C45 ZIN A   1      18.952   0.181  18.609  0.00  0.00     0.001 A 
BRANCH  41  49
ATOM     49  O51 ZIN A   1      17.333  -0.319  13.626  0.00  0.00    -0.393 OA
ATOM     50  H93 ZIN A   1      16.937  -1.167  13.380  0.00  0.00     0.210 HD
ENDBRANCH  41  49
ENDBRANCH  38  40
ENDBRANCH  28  36
ENDBRANCH  27  28
ENDBRANCH   1  27
TORSDOF 14
ENDMDL
MODEL 9
REMARK VINA RESULT:      -9.2      1.805      5.019
REMARK  14 active torsions:
REMARK  status: ('A' for Active; 'I' for Inactive)
REMARK    1  A    between atoms: C2_2  and  N5_5 
REMARK       I    between atoms: N5_5  and  C6_6 
REMARK    2  A    between atoms: C6_6  and  C8_8 
REMARK    3  A    between atoms: N11_10  and  C12_11 
REMARK    4  A    between atoms: C12_11  and  C13_12 
REMARK    5  A    between atoms: N21_20  and  C23_22 
REMARK    6  A    between atoms: C23_22  and  C24_23 
REMARK    7  A    between atoms: C24_23  and  O26_24 
REMARK    8  A    between atoms: C24_23  and  C27_25 
REMARK    9  A    between atoms: C27_25  and  C28_26 
REMARK   10  A    between atoms: C28_26  and  C30_27 
REMARK   11  A    between atoms: C28_26  and  C37_34 
REMARK   12  A    between atoms: C30_27  and  C31_28 
REMARK       I    between atoms: C37_34  and  N39_36 
REMARK   13  A    between atoms: N39_36  and  C40_37 
REMARK   14  A    between atoms: C49_45  and  O51_46 
ROOT
ATOM      1  C24 ZIN A   1      19.152  -3.101  11.308  0.00  0.00     0.145 C 
ENDROOT
BRANCH   1   2
ATOM      2  C23 ZIN A   1      18.955  -4.335  10.426  0.00  0.00     0.267 C 
BRANCH   2   3
ATOM      3  N21 ZIN A   1      19.155  -3.969   9.018  0.00  0.00    -0.052 N 
ATOM      4  C8  ZIN A   1      17.864  -3.608   8.417  0.00  0.00     0.307 C 
ATOM      5  C10 ZIN A   1      18.074  -3.208   6.955  0.00  0.00     0.316 C 
ATOM      6  N11 ZIN A   1      18.676  -4.333   6.226  0.00  0.00     0.096 N 
ATOM      7  C19 ZIN A   1      19.957  -4.721   6.830  0.00  0.00     0.300 C 
ATOM      8  C20 ZIN A   1      19.731  -5.109   8.293  0.00  0.00     0.266 C 
ATOM      9  H22 ZIN A   1      19.784  -3.182   8.961  0.00  0.00     0.281 HD
BRANCH   4  10
ATOM     10  C6  ZIN A   1      16.930  -4.788   8.487  0.00  0.00     0.251 C 
ATOM     11  N5  ZIN A   1      16.335  -5.243   7.367  0.00  0.00    -0.351 N 
ATOM     12  H61 ZIN A   1      16.507  -4.811   6.516  0.00  0.00     0.163 HD
ATOM     13  O7  ZIN A   1      16.715  -5.330   9.551  0.00  0.00    -0.271 OA
BRANCH  11  14
ATOM     14  C2  ZIN A   1      15.427  -6.392   7.434  0.00  0.00     0.022 C 
ATOM     15  C1  ZIN A   1      16.202  -7.627   7.899  0.00  0.00     0.037 C 
ATOM     16  C3  ZIN A   1      14.833  -6.654   6.050  0.00  0.00     0.037 C 
ATOM     17  C4  ZIN A   1      14.301  -6.094   8.426  0.00  0.00     0.037 C 
ENDBRANCH  11  14
ENDBRANCH   4  10
BRANCH   6  18
ATOM     18  C12 ZIN A   1      18.842  -4.008   4.802  0.00  0.00     0.312 C 
BRANCH  18  19
ATOM     19  C13 ZIN A   1      17.652  -4.513   4.029  0.00  0.00    -0.013 A 
ATOM     20  C18 ZIN A   1      16.581  -3.677   3.766  0.00  0.00     0.125 A 
ATOM     21  N17 ZIN A   1      15.539  -4.110   3.086  0.00  0.00    -0.273 NA
ATOM     22  C16 ZIN A   1      15.467  -5.350   2.641  0.00  0.00     0.116 A 
ATOM     23  C15 ZIN A   1      16.496  -6.243   2.871  0.00  0.00     0.020 A 
ATOM     24  C14 ZIN A   1      17.612  -5.823   3.578  0.00  0.00     0.012 A 
ENDBRANCH  18  19
ENDBRANCH   6  18
ENDBRANCH   2   3
ENDBRANCH   1   2
BRANCH   1  25
ATOM     25  O26 ZIN A   1      20.067  -2.205  10.675  0.00  0.00    -0.394 OA
ATOM     26  H76 ZIN A   1      20.367  -1.481  11.243  0.00  0.00     0.210 HD
ENDBRANCH   1  25
BRANCH   1  27
ATOM     27  C27 ZIN A   1      17.808  -2.399  11.511  0.00  0.00     0.047 C 
BRANCH  27  28
ATOM     28  C28 ZIN A   1      17.913  -0.949  11.035  0.00  0.00     0.084 C 
BRANCH  28  29
ATOM     29  C30 ZIN A   1      17.029  -0.752   9.802  0.00  0.00     0.052 C 
BRANCH  29  30
ATOM     30  C31 ZIN A   1      17.761   0.090   8.788  0.00  0.00    -0.057 A 
ATOM     31  C36 ZIN A   1      18.767   0.944   9.197  0.00  0.00     0.007 A 
ATOM     32  C35 ZIN A   1      19.441   1.712   8.267  0.00  0.00     0.001 A 
ATOM     33  C34 ZIN A   1      19.104   1.632   6.929  0.00  0.00     0.000 A 
ATOM     34  C33 ZIN A   1      18.094   0.781   6.521  0.00  0.00     0.001 A 
ATOM     35  C32 ZIN A   1      17.422   0.010   7.450  0.00  0.00     0.007 A 
ENDBRANCH  29  30
ENDBRANCH  28  29
BRANCH  28  36
ATOM     36  C37 ZIN A   1      17.455  -0.025  12.134  0.00  0.00     0.222 C 
ATOM     37  O38 ZIN A   1      16.346   0.463  12.093  0.00  0.00    -0.273 OA
ATOM     38  N39 ZIN A   1      18.278   0.260  13.163  0.00  0.00    -0.350 N 
ATOM     39  H86 ZIN A   1      19.185  -0.086  13.168  0.00  0.00     0.163 HD
BRANCH  38  40
ATOM     40  C40 ZIN A   1      17.803   1.089  14.273  0.00  0.00     0.147 C 
ATOM     41  C49 ZIN A   1      18.398   2.510  14.173  0.00  0.00     0.149 C 
ATOM     42  C48 ZIN A   1      18.595   2.891  15.656  0.00  0.00     0.073 C 
ATOM     43  C47 ZIN A   1      18.761   1.576  16.386  0.00  0.00    -0.047 A 
ATOM     44  C42 ZIN A   1      18.306   0.539  15.591  0.00  0.00    -0.027 A 
ATOM     45  C46 ZIN A   1      19.267   1.306  17.646  0.00  0.00     0.008 A 
ATOM     46  C43 ZIN A   1      18.360  -0.763  16.058  0.00  0.00     0.010 A 
ATOM     47  C44 ZIN A   1      18.866  -1.030  17.316  0.00  0.00     0.001 A 
ATOM     48  C45 ZIN A   1      19.321   0.006  18.111  0.00  0.00     0.001 A 
BRANCH  41  49
ATOM     49  O51 ZIN A   1      19.650   2.491  13.483  0.00  0.00    -0.393 OA
ATOM     50  H93 ZIN A   1      20.124   3.333  13.506  0.00  0.00     0.210 HD
ENDBRANCH  41  49
ENDBRANCH  38  40
ENDBRANCH  28  36
ENDBRANCH  27  28
ENDBRANCH   1  27
TORSDOF 14
ENDMDL
