MODEL 1
REMARK VINA RESULT:      -7.3      0.000      0.000
REMARK  2 active torsions:
REMARK  status: ('A' for Active; 'I' for Inactive)
REMARK    1  A    between atoms: N1_1  and  C2_2 
REMARK    2  A    between atoms: C8_8  and  N9_9 
ROOT
ATOM      1  C2  ZIN A   1      20.219   0.667  11.717  0.00  0.00     0.028 A 
ATOM      2  C3  ZIN A   1      20.243  -0.339  10.779  0.00  0.00     0.061 A 
ATOM      3  C4  ZIN A   1      19.748  -0.093   9.484  0.00  0.00     0.070 A 
ATOM      4  N5  ZIN A   1      19.758  -1.047   8.559  0.00  0.00    -0.247 NA
ATOM      5  C6  ZIN A   1      19.294  -0.829   7.330  0.00  0.00     0.070 A 
ATOM      6  C7  ZIN A   1      19.312  -1.850   6.361  0.00  0.00     0.061 A 
ATOM      7  C8  ZIN A   1      18.824  -1.597   5.100  0.00  0.00     0.028 A 
ATOM      8  C10 ZIN A   1      18.308  -0.341   4.754  0.00  0.00     0.030 A 
ATOM      9  C11 ZIN A   1      18.267   0.679   5.647  0.00  0.00     0.016 A 
ATOM     10  C12 ZIN A   1      18.751   0.481   6.958  0.00  0.00    -0.006 A 
ATOM     11  C13 ZIN A   1      18.723   1.511   7.901  0.00  0.00     0.027 A 
ATOM     12  C14 ZIN A   1      19.219   1.241   9.179  0.00  0.00    -0.006 A 
ATOM     13  C15 ZIN A   1      19.223   2.231  10.183  0.00  0.00     0.016 A 
ATOM     14  C16 ZIN A   1      19.707   1.937  11.415  0.00  0.00     0.030 A 
ENDROOT
BRANCH   1  15
ATOM     15  N1  ZIN A   1      20.710   0.417  12.996  0.00  0.00    -0.399 N 
ATOM     16  H17 ZIN A   1      20.341   0.891  13.758  0.00  0.00     0.156 HD
ATOM     17  H18 ZIN A   1      21.416  -0.234  13.126  0.00  0.00     0.156 HD
ENDBRANCH   1  15
BRANCH   7  18
ATOM     18  N9  ZIN A   1      18.844  -2.611   4.146  0.00  0.00    -0.399 N 
ATOM     19  H21 ZIN A   1      19.392  -2.518   3.350  0.00  0.00     0.156 HD
ATOM     20  H22 ZIN A   1      18.311  -3.411   4.276  0.00  0.00     0.156 HD
ENDBRANCH   7  18
TORSDOF 2
ENDMDL
MODEL 2
REMARK VINA RESULT:      -7.2      0.151      5.603
REMARK  2 active torsions:
REMARK  status: ('A' for Active; 'I' for Inactive)
REMARK    1  A    between atoms: N1_1  and  C2_2 
REMARK    2  A    between atoms: C8_8  and  N9_9 
ROOT
ATOM      1  C2  ZIN A   1      18.844  -1.715   4.997  0.00  0.00     0.028 A 
ATOM      2  C3  ZIN A   1      19.318  -1.954   6.266  0.00  0.00     0.061 A 
ATOM      3  C4  ZIN A   1      19.298  -0.919   7.221  0.00  0.00     0.070 A 
ATOM      4  N5  ZIN A   1      19.749  -1.123   8.455  0.00  0.00    -0.247 NA
ATOM      5  C6  ZIN A   1      19.737  -0.155   9.368  0.00  0.00     0.070 A 
ATOM      6  C7  ZIN A   1      20.219  -0.386  10.670  0.00  0.00     0.061 A 
ATOM      7  C8  ZIN A   1      20.195   0.633  11.593  0.00  0.00     0.028 A 
ATOM      8  C10 ZIN A   1      19.699   1.903  11.268  0.00  0.00     0.030 A 
ATOM      9  C11 ZIN A   1      19.222   2.181  10.029  0.00  0.00     0.016 A 
ATOM     10  C12 ZIN A   1      19.221   1.178   9.038  0.00  0.00    -0.006 A 
ATOM     11  C13 ZIN A   1      18.737   1.432   7.753  0.00  0.00     0.027 A 
ATOM     12  C14 ZIN A   1      18.768   0.389   6.824  0.00  0.00    -0.006 A 
ATOM     13  C15 ZIN A   1      18.296   0.572   5.507  0.00  0.00     0.016 A 
ATOM     14  C16 ZIN A   1      18.344  -0.458   4.627  0.00  0.00     0.030 A 
ENDROOT
BRANCH   1  15
ATOM     15  N1  ZIN A   1      18.867  -2.743   4.056  0.00  0.00    -0.399 N 
ATOM     16  H17 ZIN A   1      19.701  -2.984   3.623  0.00  0.00     0.156 HD
ATOM     17  H18 ZIN A   1      18.052  -3.220   3.840  0.00  0.00     0.156 HD
ENDBRANCH   1  15
BRANCH   7  18
ATOM     18  N9  ZIN A   1      20.674   0.399  12.880  0.00  0.00    -0.399 N 
ATOM     19  H21 ZIN A   1      20.241  -0.260  13.446  0.00  0.00     0.156 HD
ATOM     20  H22 ZIN A   1      21.439   0.894  13.210  0.00  0.00     0.156 HD
ENDBRANCH   7  18
TORSDOF 2
ENDMDL
MODEL 3
REMARK VINA RESULT:      -7.2      4.323      6.940
REMARK  2 active torsions:
REMARK  status: ('A' for Active; 'I' for Inactive)
REMARK    1  A    between atoms: N1_1  and  C2_2 
REMARK    2  A    between atoms: C8_8  and  N9_9 
ROOT
ATOM      1  C2  ZIN A   1      18.604   1.789  17.954  0.00  0.00     0.028 A 
ATOM      2  C3  ZIN A   1      19.175   2.002  16.720  0.00  0.00     0.061 A 
ATOM      3  C4  ZIN A   1      19.143   0.978  15.754  0.00  0.00     0.070 A 
ATOM      4  N5  ZIN A   1      19.687   1.157  14.554  0.00  0.00    -0.247 NA
ATOM      5  C6  ZIN A   1      19.665   0.198  13.632  0.00  0.00     0.070 A 
ATOM      6  C7  ZIN A   1      20.246   0.403  12.366  0.00  0.00     0.061 A 
ATOM      7  C8  ZIN A   1      20.209  -0.606  11.432  0.00  0.00     0.028 A 
ATOM      8  C10 ZIN A   1      19.604  -1.839  11.710  0.00  0.00     0.030 A 
ATOM      9  C11 ZIN A   1      19.028  -2.091  12.912  0.00  0.00     0.016 A 
ATOM     10  C12 ZIN A   1      19.035  -1.096  13.913  0.00  0.00    -0.006 A 
ATOM     11  C13 ZIN A   1      18.451  -1.324  15.161  0.00  0.00     0.027 A 
ATOM     12  C14 ZIN A   1      18.496  -0.291  16.102  0.00  0.00    -0.006 A 
ATOM     13  C15 ZIN A   1      17.928  -0.449  17.383  0.00  0.00     0.016 A 
ATOM     14  C16 ZIN A   1      17.993   0.570  18.276  0.00  0.00     0.030 A 
ENDROOT
BRANCH   1  15
ATOM     15  N1  ZIN A   1      18.639   2.807  18.905  0.00  0.00    -0.399 N 
ATOM     16  H17 ZIN A   1      18.516   2.596  19.844  0.00  0.00     0.156 HD
ATOM     17  H18 ZIN A   1      18.791   3.723  18.628  0.00  0.00     0.156 HD
ENDBRANCH   1  15
BRANCH   7  18
ATOM     18  N9  ZIN A   1      20.786  -0.398  10.181  0.00  0.00    -0.399 N 
ATOM     19  H21 ZIN A   1      20.756  -1.099   9.511  0.00  0.00     0.156 HD
ATOM     20  H22 ZIN A   1      21.217   0.447   9.980  0.00  0.00     0.156 HD
ENDBRANCH   7  18
TORSDOF 2
ENDMDL
MODEL 4
REMARK VINA RESULT:      -7.2      4.323      8.771
REMARK  2 active torsions:
REMARK  status: ('A' for Active; 'I' for Inactive)
REMARK    1  A    between atoms: N1_1  and  C2_2 
REMARK    2  A    between atoms: C8_8  and  N9_9 
ROOT
ATOM      1  C2  ZIN A   1      20.199  -0.603  11.436  0.00  0.00     0.028 A 
ATOM      2  C3  ZIN A   1      20.243   0.408  12.368  0.00  0.00     0.061 A 
ATOM      3  C4  ZIN A   1      19.671   0.207  13.639  0.00  0.00     0.070 A 
ATOM      4  N5  ZIN A   1      19.699   1.167  14.557  0.00  0.00    -0.247 NA
ATOM      5  C6  ZIN A   1      19.163   0.991  15.763  0.00  0.00     0.070 A 
ATOM      6  C7  ZIN A   1      19.200   2.018  16.725  0.00  0.00     0.061 A 
ATOM      7  C8  ZIN A   1      18.637   1.808  17.962  0.00  0.00     0.028 A 
ATOM      8  C10 ZIN A   1      18.025   0.592  18.291  0.00  0.00     0.030 A 
ATOM      9  C11 ZIN A   1      17.960  -0.432  17.403  0.00  0.00     0.016 A 
ATOM     10  C12 ZIN A   1      18.519  -0.278  16.117  0.00  0.00    -0.006 A 
ATOM     11  C13 ZIN A   1      18.469  -1.312  15.180  0.00  0.00     0.027 A 
ATOM     12  C14 ZIN A   1      19.043  -1.087  13.926  0.00  0.00    -0.006 A 
ATOM     13  C15 ZIN A   1      19.030  -2.085  12.929  0.00  0.00     0.016 A 
ATOM     14  C16 ZIN A   1      19.592  -1.834  11.720  0.00  0.00     0.030 A 
ENDROOT
BRANCH   1  15
ATOM     15  N1  ZIN A   1      20.766  -0.397  10.180  0.00  0.00    -0.399 N 
ATOM     16  H17 ZIN A   1      20.216  -0.082   9.446  0.00  0.00     0.156 HD
ATOM     17  H18 ZIN A   1      21.711  -0.563  10.042  0.00  0.00     0.156 HD
ENDBRANCH   1  15
BRANCH   7  18
ATOM     18  N9  ZIN A   1      18.677   2.828  18.911  0.00  0.00    -0.399 N 
ATOM     19  H21 ZIN A   1      18.439   3.734  18.659  0.00  0.00     0.156 HD
ATOM     20  H22 ZIN A   1      18.944   2.633  19.822  0.00  0.00     0.156 HD
ENDBRANCH   7  18
TORSDOF 2
ENDMDL
MODEL 5
REMARK VINA RESULT:      -7.0      2.201      2.828
REMARK  2 active torsions:
REMARK  status: ('A' for Active; 'I' for Inactive)
REMARK    1  A    between atoms: N1_1  and  C2_2 
REMARK    2  A    between atoms: C8_8  and  N9_9 
ROOT
ATOM      1  C2  ZIN A   1      17.826   1.352  13.803  0.00  0.00     0.028 A 
ATOM      2  C3  ZIN A   1      17.333   0.611  12.754  0.00  0.00     0.061 A 
ATOM      3  C4  ZIN A   1      17.773   0.883  11.445  0.00  0.00     0.070 A 
ATOM      4  N5  ZIN A   1      17.312   0.182  10.413  0.00  0.00    -0.247 NA
ATOM      5  C6  ZIN A   1      17.719   0.428   9.170  0.00  0.00     0.070 A 
ATOM      6  C7  ZIN A   1      17.221  -0.322   8.087  0.00  0.00     0.061 A 
ATOM      7  C8  ZIN A   1      17.659  -0.046   6.813  0.00  0.00     0.028 A 
ATOM      8  C10 ZIN A   1      18.593   0.970   6.564  0.00  0.00     0.030 A 
ATOM      9  C11 ZIN A   1      19.105   1.723   7.568  0.00  0.00     0.016 A 
ATOM     10  C12 ZIN A   1      18.695   1.489   8.898  0.00  0.00    -0.006 A 
ATOM     11  C13 ZIN A   1      19.204   2.247   9.954  0.00  0.00     0.027 A 
ATOM     12  C14 ZIN A   1      18.751   1.957  11.244  0.00  0.00    -0.006 A 
ATOM     13  C15 ZIN A   1      19.219   2.681  12.361  0.00  0.00     0.016 A 
ATOM     14  C16 ZIN A   1      18.757   2.380  13.599  0.00  0.00     0.030 A 
ENDROOT
BRANCH   1  15
ATOM     15  N1  ZIN A   1      17.386   1.078  15.097  0.00  0.00    -0.399 N 
ATOM     16  H17 ZIN A   1      17.185   1.807  15.705  0.00  0.00     0.156 HD
ATOM     17  H18 ZIN A   1      17.276   0.160  15.387  0.00  0.00     0.156 HD
ENDBRANCH   1  15
BRANCH   7  18
ATOM     18  N9  ZIN A   1      17.163  -0.791   5.746  0.00  0.00    -0.399 N 
ATOM     19  H21 ZIN A   1      16.578  -0.375   5.093  0.00  0.00     0.156 HD
ATOM     20  H22 ZIN A   1      17.403  -1.727   5.655  0.00  0.00     0.156 HD
ENDBRANCH   7  18
TORSDOF 2
ENDMDL
MODEL 6
REMARK VINA RESULT:      -6.8      2.134      6.201
REMARK  2 active torsions:
REMARK  status: ('A' for Active; 'I' for Inactive)
REMARK    1  A    between atoms: N1_1  and  C2_2 
REMARK    2  A    between atoms: C8_8  and  N9_9 
ROOT
ATOM      1  C2  ZIN A   1      18.706   0.344   5.931  0.00  0.00     0.028 A 
ATOM      2  C3  ZIN A   1      19.252   1.281   6.778  0.00  0.00     0.061 A 
ATOM      3  C4  ZIN A   1      18.833   1.330   8.122  0.00  0.00     0.070 A 
ATOM      4  N5  ZIN A   1      19.343   2.226   8.961  0.00  0.00    -0.247 NA
ATOM      5  C6  ZIN A   1      18.957   2.285  10.234  0.00  0.00     0.070 A 
ATOM      6  C7  ZIN A   1      19.507   3.239  11.110  0.00  0.00     0.061 A 
ATOM      7  C8  ZIN A   1      19.088   3.277  12.420  0.00  0.00     0.028 A 
ATOM      8  C10 ZIN A   1      18.123   2.384  12.906  0.00  0.00     0.030 A 
ATOM      9  C11 ZIN A   1      17.561   1.445  12.106  0.00  0.00     0.016 A 
ATOM     10  C12 ZIN A   1      17.948   1.356  10.752  0.00  0.00    -0.006 A 
ATOM     11  C13 ZIN A   1      17.388   0.400   9.903  0.00  0.00     0.027 A 
ATOM     12  C14 ZIN A   1      17.820   0.372   8.574  0.00  0.00    -0.006 A 
ATOM     13  C15 ZIN A   1      17.299  -0.566   7.658  0.00  0.00     0.016 A 
ATOM     14  C16 ZIN A   1      17.735  -0.564   6.374  0.00  0.00     0.030 A 
ENDROOT
BRANCH   1  15
ATOM     15  N1  ZIN A   1      19.125   0.301   4.603  0.00  0.00    -0.399 N 
ATOM     16  H17 ZIN A   1      18.475   0.174   3.894  0.00  0.00     0.156 HD
ATOM     17  H18 ZIN A   1      20.064   0.404   4.388  0.00  0.00     0.156 HD
ENDBRANCH   1  15
BRANCH   7  18
ATOM     18  N9  ZIN A   1      19.636   4.224  13.283  0.00  0.00    -0.399 N 
ATOM     19  H21 ZIN A   1      20.546   4.121  13.601  0.00  0.00     0.156 HD
ATOM     20  H22 ZIN A   1      19.106   4.986  13.566  0.00  0.00     0.156 HD
ENDBRANCH   7  18
TORSDOF 2
ENDMDL
MODEL 7
REMARK VINA RESULT:      -6.7      1.990      6.003
REMARK  2 active torsions:
REMARK  status: ('A' for Active; 'I' for Inactive)
REMARK    1  A    between atoms: N1_1  and  C2_2 
REMARK    2  A    between atoms: C8_8  and  N9_9 
ROOT
ATOM      1  C2  ZIN A   1      18.207  -1.129   7.042  0.00  0.00     0.028 A 
ATOM      2  C3  ZIN A   1      17.933  -1.071   8.389  0.00  0.00     0.061 A 
ATOM      3  C4  ZIN A   1      18.146   0.131   9.090  0.00  0.00     0.070 A 
ATOM      4  N5  ZIN A   1      17.891   0.214  10.391  0.00  0.00    -0.247 NA
ATOM      5  C6  ZIN A   1      18.088   1.344  11.067  0.00  0.00     0.070 A 
ATOM      6  C7  ZIN A   1      17.812   1.417  12.446  0.00  0.00     0.061 A 
ATOM      7  C8  ZIN A   1      18.026   2.597  13.119  0.00  0.00     0.028 A 
ATOM      8  C10 ZIN A   1      18.512   3.736  12.462  0.00  0.00     0.030 A 
ATOM      9  C11 ZIN A   1      18.794   3.723  11.136  0.00  0.00     0.016 A 
ATOM     10  C12 ZIN A   1      18.597   2.542  10.390  0.00  0.00    -0.006 A 
ATOM     11  C13 ZIN A   1      18.877   2.495   9.023  0.00  0.00     0.027 A 
ATOM     12  C14 ZIN A   1      18.657   1.290   8.351  0.00  0.00    -0.006 A 
ATOM     13  C15 ZIN A   1      18.918   1.168   6.970  0.00  0.00     0.016 A 
ATOM     14  C16 ZIN A   1      18.700  -0.016   6.347  0.00  0.00     0.030 A 
ENDROOT
BRANCH   1  15
ATOM     15  N1  ZIN A   1      17.994  -2.322   6.354  0.00  0.00    -0.399 N 
ATOM     16  H17 ZIN A   1      18.095  -3.171   6.814  0.00  0.00     0.156 HD
ATOM     17  H18 ZIN A   1      17.740  -2.304   5.419  0.00  0.00     0.156 HD
ENDBRANCH   1  15
BRANCH   7  18
ATOM     18  N9  ZIN A   1      17.752   2.663  14.483  0.00  0.00    -0.399 N 
ATOM     19  H21 ZIN A   1      18.447   2.929  15.105  0.00  0.00     0.156 HD
ATOM     20  H22 ZIN A   1      16.866   2.442  14.811  0.00  0.00     0.156 HD
ENDBRANCH   7  18
TORSDOF 2
ENDMDL
MODEL 8
REMARK VINA RESULT:      -6.6      2.223      2.868
REMARK  2 active torsions:
REMARK  status: ('A' for Active; 'I' for Inactive)
REMARK    1  A    between atoms: N1_1  and  C2_2 
REMARK    2  A    between atoms: C8_8  and  N9_9 
ROOT
ATOM      1  C2  ZIN A   1      18.457   3.511  12.075  0.00  0.00     0.028 A 
ATOM      2  C3  ZIN A   1      18.873   3.512  10.763  0.00  0.00     0.061 A 
ATOM      3  C4  ZIN A   1      18.582   2.407   9.941  0.00  0.00     0.070 A 
ATOM      4  N5  ZIN A   1      18.972   2.383   8.671  0.00  0.00    -0.247 NA
ATOM      5  C6  ZIN A   1      18.705   1.344   7.882  0.00  0.00     0.070 A 
ATOM      6  C7  ZIN A   1      19.125   1.333   6.538  0.00  0.00     0.061 A 
ATOM      7  C8  ZIN A   1      18.835   0.246   5.746  0.00  0.00     0.028 A 
ATOM      8  C10 ZIN A   1      18.129  -0.856   6.247  0.00  0.00     0.030 A 
ATOM      9  C11 ZIN A   1      17.700  -0.898   7.532  0.00  0.00     0.016 A 
ATOM     10  C12 ZIN A   1      17.967   0.185   8.395  0.00  0.00    -0.006 A 
ATOM     11  C13 ZIN A   1      17.539   0.173   9.724  0.00  0.00     0.027 A 
ATOM     12  C14 ZIN A   1      17.840   1.282  10.519  0.00  0.00    -0.006 A 
ATOM     13  C15 ZIN A   1      17.441   1.339  11.871  0.00  0.00     0.016 A 
ATOM     14  C16 ZIN A   1      17.752   2.427  12.618  0.00  0.00     0.030 A 
ENDROOT
BRANCH   1  15
ATOM     15  N1  ZIN A   1      18.748   4.608  12.883  0.00  0.00    -0.399 N 
ATOM     16  H17 ZIN A   1      18.079   4.947  13.498  0.00  0.00     0.156 HD
ATOM     17  H18 ZIN A   1      19.620   5.028  12.834  0.00  0.00     0.156 HD
ENDBRANCH   1  15
BRANCH   7  18
ATOM     18  N9  ZIN A   1      19.254   0.241   4.418  0.00  0.00    -0.399 N 
ATOM     19  H21 ZIN A   1      19.041  -0.513   3.846  0.00  0.00     0.156 HD
ATOM     20  H22 ZIN A   1      19.757   0.991   4.065  0.00  0.00     0.156 HD
ENDBRANCH   7  18
TORSDOF 2
ENDMDL
MODEL 9
REMARK VINA RESULT:      -6.6      2.810      4.452
REMARK  2 active torsions:
REMARK  status: ('A' for Active; 'I' for Inactive)
REMARK    1  A    between atoms: N1_1  and  C2_2 
REMARK    2  A    between atoms: C8_8  and  N9_9 
ROOT
ATOM      1  C2  ZIN A   1      17.720   4.210  14.580  0.00  0.00     0.028 A 
ATOM      2  C3  ZIN A   1      18.161   2.989  14.124  0.00  0.00     0.061 A 
ATOM      3  C4  ZIN A   1      18.333   2.784  12.741  0.00  0.00     0.070 A 
ATOM      4  N5  ZIN A   1      18.756   1.614  12.275  0.00  0.00    -0.247 NA
ATOM      5  C6  ZIN A   1      18.923   1.406  10.970  0.00  0.00     0.070 A 
ATOM      6  C7  ZIN A   1      19.373   0.161  10.491  0.00  0.00     0.061 A 
ATOM      7  C8  ZIN A   1      19.536  -0.026   9.138  0.00  0.00     0.028 A 
ATOM      8  C10 ZIN A   1      19.265   0.998   8.220  0.00  0.00     0.030 A 
ATOM      9  C11 ZIN A   1      18.830   2.217   8.626  0.00  0.00     0.016 A 
ATOM     10  C12 ZIN A   1      18.642   2.470  10.001  0.00  0.00    -0.006 A 
ATOM     11  C13 ZIN A   1      18.196   3.714  10.451  0.00  0.00     0.027 A 
ATOM     12  C14 ZIN A   1      18.033   3.892  11.828  0.00  0.00    -0.006 A 
ATOM     13  C15 ZIN A   1      17.585   5.121  12.356  0.00  0.00     0.016 A 
ATOM     14  C16 ZIN A   1      17.433   5.260  13.696  0.00  0.00     0.030 A 
ENDROOT
BRANCH   1  15
ATOM     15  N1  ZIN A   1      17.552   4.406  15.949  0.00  0.00    -0.399 N 
ATOM     16  H17 ZIN A   1      18.100   5.056  16.416  0.00  0.00     0.156 HD
ATOM     17  H18 ZIN A   1      16.884   3.897  16.432  0.00  0.00     0.156 HD
ENDBRANCH   1  15
BRANCH   7  18
ATOM     18  N9  ZIN A   1      19.980  -1.260   8.670  0.00  0.00    -0.399 N 
ATOM     19  H21 ZIN A   1      19.567  -1.660   7.889  0.00  0.00     0.156 HD
ATOM     20  H22 ZIN A   1      20.703  -1.720   9.125  0.00  0.00     0.156 HD
ENDBRANCH   7  18
TORSDOF 2
ENDMDL
