MODEL 1
REMARK VINA RESULT:      -6.9      0.000      0.000
REMARK  6 active torsions:
REMARK  status: ('A' for Active; 'I' for Inactive)
REMARK    1  A    between atoms: N2_2  and  C5_5 
REMARK    2  A    between atoms: C5_5  and  C6_6 
REMARK    3  A    between atoms: C6_6  and  O7_7 
REMARK    4  A    between atoms: O7_7  and  C8_8 
REMARK    5  A    between atoms: C8_8  and  C9_9 
REMARK    6  A    between atoms: C8_8  and  C15_15 
ROOT
ATOM      1  C8  ZIN A   1      18.900  -0.769  12.715  0.00  0.00     0.187 C 
ENDROOT
BRANCH   1   2
ATOM      2  O7  ZIN A   1      20.226  -0.280  12.503  0.00  0.00    -0.375 OA
BRANCH   2   3
ATOM      3  C6  ZIN A   1      20.279   1.026  11.923  0.00  0.00     0.196 C 
BRANCH   3   4
ATOM      4  C5  ZIN A   1      19.253   1.124  10.793  0.00  0.00     0.260 C 
BRANCH   4   5
ATOM      5  N2  ZIN A   1      19.933   0.975   9.500  0.00  0.00    -0.077 N 
ATOM      6  C1  ZIN A   1      19.827  -0.419   9.049  0.00  0.00     0.269 C 
ATOM      7  H3  ZIN A   1      20.905   1.224   9.601  0.00  0.00     0.279 HD
ATOM      8  C4  ZIN A   1      19.302   1.859   8.510  0.00  0.00     0.269 C 
ENDBRANCH   4   5
ENDBRANCH   3   4
ENDBRANCH   2   3
ENDBRANCH   1   2
BRANCH   1   9
ATOM      9  C9  ZIN A   1      18.794  -2.177  12.190  0.00  0.00    -0.025 A 
ATOM     10  C14 ZIN A   1      19.939  -2.903  11.924  0.00  0.00     0.010 A 
ATOM     11  C13 ZIN A   1      19.843  -4.196  11.447  0.00  0.00     0.001 A 
ATOM     12  C12 ZIN A   1      18.600  -4.761  11.225  0.00  0.00     0.000 A 
ATOM     13  C11 ZIN A   1      17.454  -4.032  11.487  0.00  0.00     0.001 A 
ATOM     14  C10 ZIN A   1      17.551  -2.740  11.968  0.00  0.00     0.010 A 
ENDBRANCH   1   9
BRANCH   1  15
ATOM     15  C15 ZIN A   1      18.591  -0.757  14.191  0.00  0.00    -0.025 A 
ATOM     16  C20 ZIN A   1      17.564   0.032  14.676  0.00  0.00     0.010 A 
ATOM     17  C19 ZIN A   1      17.278   0.039  16.028  0.00  0.00     0.001 A 
ATOM     18  C18 ZIN A   1      18.023  -0.736  16.897  0.00  0.00     0.000 A 
ATOM     19  C17 ZIN A   1      19.053  -1.522  16.412  0.00  0.00     0.001 A 
ATOM     20  C16 ZIN A   1      19.337  -1.532  15.059  0.00  0.00     0.010 A 
ENDBRANCH   1  15
TORSDOF 6
ENDMDL
MODEL 2
REMARK VINA RESULT:      -6.8      0.709      4.090
REMARK  6 active torsions:
REMARK  status: ('A' for Active; 'I' for Inactive)
REMARK    1  A    between atoms: N2_2  and  C5_5 
REMARK    2  A    between atoms: C5_5  and  C6_6 
REMARK    3  A    between atoms: C6_6  and  O7_7 
REMARK    4  A    between atoms: O7_7  and  C8_8 
REMARK    5  A    between atoms: C8_8  and  C9_9 
REMARK    6  A    between atoms: C8_8  and  C15_15 
ROOT
ATOM      1  C8  ZIN A   1      19.319  -0.961  12.658  0.00  0.00     0.187 C 
ENDROOT
BRANCH   1   2
ATOM      2  O7  ZIN A   1      18.703   0.040  11.845  0.00  0.00    -0.375 OA
BRANCH   2   3
ATOM      3  C6  ZIN A   1      19.629   0.851  11.119  0.00  0.00     0.196 C 
BRANCH   3   4
ATOM      4  C5  ZIN A   1      19.635   0.427   9.649  0.00  0.00     0.260 C 
BRANCH   4   5
ATOM      5  N2  ZIN A   1      19.650   1.622   8.794  0.00  0.00    -0.077 N 
ATOM      6  C1  ZIN A   1      19.094   1.287   7.476  0.00  0.00     0.269 C 
ATOM      7  H3  ZIN A   1      20.599   1.946   8.687  0.00  0.00     0.279 HD
ATOM      8  C4  ZIN A   1      18.839   2.679   9.414  0.00  0.00     0.269 C 
ENDBRANCH   4   5
ENDBRANCH   3   4
ENDBRANCH   2   3
ENDBRANCH   1   2
BRANCH   1   9
ATOM      9  C9  ZIN A   1      18.819  -0.835  14.073  0.00  0.00    -0.025 A 
ATOM     10  C14 ZIN A   1      19.380  -1.604  15.076  0.00  0.00     0.010 A 
ATOM     11  C13 ZIN A   1      18.925  -1.485  16.375  0.00  0.00     0.001 A 
ATOM     12  C12 ZIN A   1      17.901  -0.606  16.671  0.00  0.00     0.000 A 
ATOM     13  C11 ZIN A   1      17.335   0.159  15.668  0.00  0.00     0.001 A 
ATOM     14  C10 ZIN A   1      17.793   0.044  14.369  0.00  0.00     0.010 A 
ENDBRANCH   1   9
BRANCH   1  15
ATOM     15  C15 ZIN A   1      18.973  -2.327  12.121  0.00  0.00    -0.025 A 
ATOM     16  C20 ZIN A   1      17.650  -2.671  11.909  0.00  0.00     0.010 A 
ATOM     17  C19 ZIN A   1      17.334  -3.921  11.411  0.00  0.00     0.001 A 
ATOM     18  C18 ZIN A   1      18.337  -4.830  11.134  0.00  0.00     0.000 A 
ATOM     19  C17 ZIN A   1      19.659  -4.487  11.351  0.00  0.00     0.001 A 
ATOM     20  C16 ZIN A   1      19.976  -3.235  11.844  0.00  0.00     0.010 A 
ENDBRANCH   1  15
TORSDOF 6
ENDMDL
MODEL 3
REMARK VINA RESULT:      -6.8      0.709      4.194
REMARK  6 active torsions:
REMARK  status: ('A' for Active; 'I' for Inactive)
REMARK    1  A    between atoms: N2_2  and  C5_5 
REMARK    2  A    between atoms: C5_5  and  C6_6 
REMARK    3  A    between atoms: C6_6  and  O7_7 
REMARK    4  A    between atoms: O7_7  and  C8_8 
REMARK    5  A    between atoms: C8_8  and  C9_9 
REMARK    6  A    between atoms: C8_8  and  C15_15 
ROOT
ATOM      1  C8  ZIN A   1      19.331  -0.928  12.714  0.00  0.00     0.187 C 
ENDROOT
BRANCH   1   2
ATOM      2  O7  ZIN A   1      18.709   0.079  11.913  0.00  0.00    -0.375 OA
BRANCH   2   3
ATOM      3  C6  ZIN A   1      19.629   0.885  11.174  0.00  0.00     0.196 C 
BRANCH   3   4
ATOM      4  C5  ZIN A   1      19.589   0.482   9.699  0.00  0.00     0.260 C 
BRANCH   4   5
ATOM      5  N2  ZIN A   1      19.624   1.687   8.860  0.00  0.00    -0.077 N 
ATOM      6  C1  ZIN A   1      19.088   1.373   7.529  0.00  0.00     0.269 C 
ATOM      7  H3  ZIN A   1      20.577   2.007   8.772  0.00  0.00     0.279 HD
ATOM      8  C4  ZIN A   1      18.810   2.741   9.481  0.00  0.00     0.269 C 
ENDBRANCH   4   5
ENDBRANCH   3   4
ENDBRANCH   2   3
ENDBRANCH   1   2
BRANCH   1   9
ATOM      9  C9  ZIN A   1      18.824  -0.827  14.129  0.00  0.00    -0.025 A 
ATOM     10  C14 ZIN A   1      17.795   0.043  14.435  0.00  0.00     0.010 A 
ATOM     11  C13 ZIN A   1      17.326   0.132  15.731  0.00  0.00     0.001 A 
ATOM     12  C12 ZIN A   1      17.894  -0.642  16.726  0.00  0.00     0.000 A 
ATOM     13  C11 ZIN A   1      18.927  -1.508  16.423  0.00  0.00     0.001 A 
ATOM     14  C10 ZIN A   1      19.393  -1.601  15.124  0.00  0.00     0.010 A 
ENDBRANCH   1   9
BRANCH   1  15
ATOM     15  C15 ZIN A   1      19.001  -2.289  12.156  0.00  0.00    -0.025 A 
ATOM     16  C20 ZIN A   1      17.683  -2.640  11.925  0.00  0.00     0.010 A 
ATOM     17  C19 ZIN A   1      17.381  -3.886  11.409  0.00  0.00     0.001 A 
ATOM     18  C18 ZIN A   1      18.394  -4.784  11.131  0.00  0.00     0.000 A 
ATOM     19  C17 ZIN A   1      19.711  -4.434  11.366  0.00  0.00     0.001 A 
ATOM     20  C16 ZIN A   1      20.014  -3.186  11.879  0.00  0.00     0.010 A 
ENDBRANCH   1  15
TORSDOF 6
ENDMDL
MODEL 4
REMARK VINA RESULT:      -6.8      0.706      4.314
REMARK  6 active torsions:
REMARK  status: ('A' for Active; 'I' for Inactive)
REMARK    1  A    between atoms: N2_2  and  C5_5 
REMARK    2  A    between atoms: C5_5  and  C6_6 
REMARK    3  A    between atoms: C6_6  and  O7_7 
REMARK    4  A    between atoms: O7_7  and  C8_8 
REMARK    5  A    between atoms: C8_8  and  C9_9 
REMARK    6  A    between atoms: C8_8  and  C15_15 
ROOT
ATOM      1  C8  ZIN A   1      19.317  -0.939  12.677  0.00  0.00     0.187 C 
ENDROOT
BRANCH   1   2
ATOM      2  O7  ZIN A   1      18.694   0.063  11.870  0.00  0.00    -0.375 OA
BRANCH   2   3
ATOM      3  C6  ZIN A   1      19.615   0.879  11.143  0.00  0.00     0.196 C 
BRANCH   3   4
ATOM      4  C5  ZIN A   1      19.641   0.438   9.679  0.00  0.00     0.260 C 
BRANCH   4   5
ATOM      5  N2  ZIN A   1      19.641   1.622   8.810  0.00  0.00    -0.077 N 
ATOM      6  C1  ZIN A   1      19.106   1.260   7.490  0.00  0.00     0.269 C 
ATOM      7  H3  ZIN A   1      20.584   1.964   8.709  0.00  0.00     0.279 HD
ATOM      8  C4  ZIN A   1      18.802   2.669   9.408  0.00  0.00     0.269 C 
ENDBRANCH   4   5
ENDBRANCH   3   4
ENDBRANCH   2   3
ENDBRANCH   1   2
BRANCH   1   9
ATOM      9  C9  ZIN A   1      18.815  -0.827  14.093  0.00  0.00    -0.025 A 
ATOM     10  C14 ZIN A   1      17.803   0.062  14.399  0.00  0.00     0.010 A 
ATOM     11  C13 ZIN A   1      17.338   0.162  15.697  0.00  0.00     0.001 A 
ATOM     12  C12 ZIN A   1      17.894  -0.621  16.692  0.00  0.00     0.000 A 
ATOM     13  C11 ZIN A   1      18.911  -1.507  16.387  0.00  0.00     0.001 A 
ATOM     14  C10 ZIN A   1      19.372  -1.609  15.088  0.00  0.00     0.010 A 
ENDBRANCH   1   9
BRANCH   1  15
ATOM     15  C15 ZIN A   1      18.983  -2.303  12.130  0.00  0.00    -0.025 A 
ATOM     16  C20 ZIN A   1      19.996  -3.195  11.831  0.00  0.00     0.010 A 
ATOM     17  C19 ZIN A   1      19.688  -4.448  11.334  0.00  0.00     0.001 A 
ATOM     18  C18 ZIN A   1      18.369  -4.806  11.129  0.00  0.00     0.000 A 
ATOM     19  C17 ZIN A   1      17.356  -3.913  11.425  0.00  0.00     0.001 A 
ATOM     20  C16 ZIN A   1      17.664  -2.661  11.926  0.00  0.00     0.010 A 
ENDBRANCH   1  15
TORSDOF 6
ENDMDL
MODEL 5
REMARK VINA RESULT:      -6.8      2.598      6.751
REMARK  6 active torsions:
REMARK  status: ('A' for Active; 'I' for Inactive)
REMARK    1  A    between atoms: N2_2  and  C5_5 
REMARK    2  A    between atoms: C5_5  and  C6_6 
REMARK    3  A    between atoms: C6_6  and  O7_7 
REMARK    4  A    between atoms: O7_7  and  C8_8 
REMARK    5  A    between atoms: C8_8  and  C9_9 
REMARK    6  A    between atoms: C8_8  and  C15_15 
ROOT
ATOM      1  C8  ZIN A   1      18.766   0.679  10.386  0.00  0.00     0.187 C 
ENDROOT
BRANCH   1   2
ATOM      2  O7  ZIN A   1      20.077   0.166  10.636  0.00  0.00    -0.375 OA
BRANCH   2   3
ATOM      3  C6  ZIN A   1      20.106  -1.227  10.952  0.00  0.00     0.196 C 
BRANCH   3   4
ATOM      4  C5  ZIN A   1      19.257  -1.486  12.197  0.00  0.00     0.260 C 
BRANCH   4   5
ATOM      5  N2  ZIN A   1      18.720  -2.852  12.150  0.00  0.00    -0.077 N 
ATOM      6  C1  ZIN A   1      17.528  -2.880  11.291  0.00  0.00     0.269 C 
ATOM      7  H3  ZIN A   1      18.470  -3.147  13.082  0.00  0.00     0.279 HD
ATOM      8  C4  ZIN A   1      19.738  -3.761  11.605  0.00  0.00     0.269 C 
ENDBRANCH   4   5
ENDBRANCH   3   4
ENDBRANCH   2   3
ENDBRANCH   1   2
BRANCH   1   9
ATOM      9  C9  ZIN A   1      18.680   2.099  10.881  0.00  0.00    -0.025 A 
ATOM     10  C14 ZIN A   1      17.541   2.846  10.644  0.00  0.00     0.010 A 
ATOM     11  C13 ZIN A   1      17.459   4.146  11.102  0.00  0.00     0.001 A 
ATOM     12  C12 ZIN A   1      18.520   4.706  11.789  0.00  0.00     0.000 A 
ATOM     13  C11 ZIN A   1      19.662   3.961  12.022  0.00  0.00     0.001 A 
ATOM     14  C10 ZIN A   1      19.742   2.658  11.567  0.00  0.00     0.010 A 
ENDBRANCH   1   9
BRANCH   1  15
ATOM     15  C15 ZIN A   1      18.489   0.645   8.904  0.00  0.00    -0.025 A 
ATOM     16  C20 ZIN A   1      19.276   1.380   8.037  0.00  0.00     0.010 A 
ATOM     17  C19 ZIN A   1      19.024   1.344   6.678  0.00  0.00     0.001 A 
ATOM     18  C18 ZIN A   1      17.982   0.580   6.187  0.00  0.00     0.000 A 
ATOM     19  C17 ZIN A   1      17.193  -0.151   7.055  0.00  0.00     0.001 A 
ATOM     20  C16 ZIN A   1      17.447  -0.119   8.414  0.00  0.00     0.010 A 
ENDBRANCH   1  15
TORSDOF 6
ENDMDL
MODEL 6
REMARK VINA RESULT:      -6.8      2.505      5.582
REMARK  6 active torsions:
REMARK  status: ('A' for Active; 'I' for Inactive)
REMARK    1  A    between atoms: N2_2  and  C5_5 
REMARK    2  A    between atoms: C5_5  and  C6_6 
REMARK    3  A    between atoms: C6_6  and  O7_7 
REMARK    4  A    between atoms: O7_7  and  C8_8 
REMARK    5  A    between atoms: C8_8  and  C9_9 
REMARK    6  A    between atoms: C8_8  and  C15_15 
ROOT
ATOM      1  C8  ZIN A   1      18.288   0.573  10.322  0.00  0.00     0.187 C 
ENDROOT
BRANCH   1   2
ATOM      2  O7  ZIN A   1      17.073   0.036  10.847  0.00  0.00    -0.375 OA
BRANCH   2   3
ATOM      3  C6  ZIN A   1      17.250  -0.772  12.013  0.00  0.00     0.196 C 
BRANCH   3   4
ATOM      4  C5  ZIN A   1      17.593  -2.202  11.595  0.00  0.00     0.260 C 
BRANCH   4   5
ATOM      5  N2  ZIN A   1      18.733  -2.684  12.387  0.00  0.00    -0.077 N 
ATOM      6  C1  ZIN A   1      19.845  -3.022  11.488  0.00  0.00     0.269 C 
ATOM      7  H3  ZIN A   1      18.458  -3.504  12.906  0.00  0.00     0.279 HD
ATOM      8  C4  ZIN A   1      19.160  -1.634  13.321  0.00  0.00     0.269 C 
ENDBRANCH   4   5
ENDBRANCH   3   4
ENDBRANCH   2   3
ENDBRANCH   1   2
BRANCH   1   9
ATOM      9  C9  ZIN A   1      18.223   0.587   8.817  0.00  0.00    -0.025 A 
ATOM     10  C14 ZIN A   1      17.255  -0.151   8.161  0.00  0.00     0.010 A 
ATOM     11  C13 ZIN A   1      17.191  -0.135   6.780  0.00  0.00     0.001 A 
ATOM     12  C12 ZIN A   1      18.103   0.609   6.055  0.00  0.00     0.000 A 
ATOM     13  C11 ZIN A   1      19.074   1.342   6.710  0.00  0.00     0.001 A 
ATOM     14  C10 ZIN A   1      19.135   1.330   8.092  0.00  0.00     0.010 A 
ENDBRANCH   1   9
BRANCH   1  15
ATOM     15  C15 ZIN A   1      18.475   1.980  10.830  0.00  0.00    -0.025 A 
ATOM     16  C20 ZIN A   1      19.654   2.338  11.457  0.00  0.00     0.010 A 
ATOM     17  C19 ZIN A   1      19.828   3.629  11.919  0.00  0.00     0.001 A 
ATOM     18  C18 ZIN A   1      18.819   4.561  11.760  0.00  0.00     0.000 A 
ATOM     19  C17 ZIN A   1      17.638   4.202  11.137  0.00  0.00     0.001 A 
ATOM     20  C16 ZIN A   1      17.467   2.912  10.672  0.00  0.00     0.010 A 
ENDBRANCH   1  15
TORSDOF 6
ENDMDL
MODEL 7
REMARK VINA RESULT:      -6.5      1.084      1.780
REMARK  6 active torsions:
REMARK  status: ('A' for Active; 'I' for Inactive)
REMARK    1  A    between atoms: N2_2  and  C5_5 
REMARK    2  A    between atoms: C5_5  and  C6_6 
REMARK    3  A    between atoms: C6_6  and  O7_7 
REMARK    4  A    between atoms: O7_7  and  C8_8 
REMARK    5  A    between atoms: C8_8  and  C9_9 
REMARK    6  A    between atoms: C8_8  and  C15_15 
ROOT
ATOM      1  C8  ZIN A   1      18.894  -0.741  12.712  0.00  0.00     0.187 C 
ENDROOT
BRANCH   1   2
ATOM      2  O7  ZIN A   1      20.225  -0.262  12.506  0.00  0.00    -0.375 OA
BRANCH   2   3
ATOM      3  C6  ZIN A   1      20.290   1.053  11.949  0.00  0.00     0.196 C 
BRANCH   3   4
ATOM      4  C5  ZIN A   1      19.003   1.342  11.174  0.00  0.00     0.260 C 
BRANCH   4   5
ATOM      5  N2  ZIN A   1      18.641   2.757  11.335  0.00  0.00    -0.077 N 
ATOM      6  C1  ZIN A   1      19.796   3.501  11.854  0.00  0.00     0.269 C 
ATOM      7  H3  ZIN A   1      17.871   2.835  11.982  0.00  0.00     0.279 HD
ATOM      8  C4  ZIN A   1      18.245   3.313  10.033  0.00  0.00     0.269 C 
ENDBRANCH   4   5
ENDBRANCH   3   4
ENDBRANCH   2   3
ENDBRANCH   1   2
BRANCH   1   9
ATOM      9  C9  ZIN A   1      18.776  -2.142  12.172  0.00  0.00    -0.025 A 
ATOM     10  C14 ZIN A   1      19.915  -2.875  11.896  0.00  0.00     0.010 A 
ATOM     11  C13 ZIN A   1      19.808  -4.162  11.405  0.00  0.00     0.001 A 
ATOM     12  C12 ZIN A   1      18.561  -4.714  11.180  0.00  0.00     0.000 A 
ATOM     13  C11 ZIN A   1      17.421  -3.980  11.450  0.00  0.00     0.001 A 
ATOM     14  C10 ZIN A   1      17.529  -2.693  11.946  0.00  0.00     0.010 A 
ENDBRANCH   1   9
BRANCH   1  15
ATOM     15  C15 ZIN A   1      18.584  -0.742  14.187  0.00  0.00    -0.025 A 
ATOM     16  C20 ZIN A   1      19.324  -1.530  15.049  0.00  0.00     0.010 A 
ATOM     17  C19 ZIN A   1      19.042  -1.527  16.402  0.00  0.00     0.001 A 
ATOM     18  C18 ZIN A   1      18.016  -0.742  16.893  0.00  0.00     0.000 A 
ATOM     19  C17 ZIN A   1      17.273   0.043  16.031  0.00  0.00     0.001 A 
ATOM     20  C16 ZIN A   1      17.557   0.043  14.678  0.00  0.00     0.010 A 
ENDBRANCH   1  15
TORSDOF 6
ENDMDL
MODEL 8
REMARK VINA RESULT:      -6.5      2.414      6.683
REMARK  6 active torsions:
REMARK  status: ('A' for Active; 'I' for Inactive)
REMARK    1  A    between atoms: N2_2  and  C5_5 
REMARK    2  A    between atoms: C5_5  and  C6_6 
REMARK    3  A    between atoms: C6_6  and  O7_7 
REMARK    4  A    between atoms: O7_7  and  C8_8 
REMARK    5  A    between atoms: C8_8  and  C9_9 
REMARK    6  A    between atoms: C8_8  and  C15_15 
ROOT
ATOM      1  C8  ZIN A   1      18.646   0.682  10.365  0.00  0.00     0.187 C 
ENDROOT
BRANCH   1   2
ATOM      2  O7  ZIN A   1      19.905   0.083  10.675  0.00  0.00    -0.375 OA
BRANCH   2   3
ATOM      3  C6  ZIN A   1      19.845  -0.890  11.720  0.00  0.00     0.196 C 
BRANCH   3   4
ATOM      4  C5  ZIN A   1      18.383  -1.168  12.074  0.00  0.00     0.260 C 
BRANCH   4   5
ATOM      5  N2  ZIN A   1      18.214  -1.116  13.532  0.00  0.00    -0.077 N 
ATOM      6  C1  ZIN A   1      19.511  -1.341  14.184  0.00  0.00     0.269 C 
ATOM      7  H3  ZIN A   1      17.564  -1.832  13.820  0.00  0.00     0.279 HD
ATOM      8  C4  ZIN A   1      17.692   0.202  13.919  0.00  0.00     0.269 C 
ENDBRANCH   4   5
ENDBRANCH   3   4
ENDBRANCH   2   3
ENDBRANCH   1   2
BRANCH   1   9
ATOM      9  C9  ZIN A   1      18.635   2.108  10.851  0.00  0.00    -0.025 A 
ATOM     10  C14 ZIN A   1      19.718   2.609  11.547  0.00  0.00     0.010 A 
ATOM     11  C13 ZIN A   1      19.711   3.918  11.989  0.00  0.00     0.001 A 
ATOM     12  C12 ZIN A   1      18.614   4.725  11.745  0.00  0.00     0.000 A 
ATOM     13  C11 ZIN A   1      17.527   4.222  11.053  0.00  0.00     0.001 A 
ATOM     14  C10 ZIN A   1      17.537   2.913  10.607  0.00  0.00     0.010 A 
ENDBRANCH   1   9
BRANCH   1  15
ATOM     15  C15 ZIN A   1      18.432   0.657   8.873  0.00  0.00    -0.025 A 
ATOM     16  C20 ZIN A   1      17.392  -0.079   8.336  0.00  0.00     0.010 A 
ATOM     17  C19 ZIN A   1      17.193  -0.097   6.968  0.00  0.00     0.001 A 
ATOM     18  C18 ZIN A   1      18.038   0.613   6.137  0.00  0.00     0.000 A 
ATOM     19  C17 ZIN A   1      19.081   1.345   6.673  0.00  0.00     0.001 A 
ATOM     20  C16 ZIN A   1      19.277   1.367   8.042  0.00  0.00     0.010 A 
ENDBRANCH   1  15
TORSDOF 6
ENDMDL
MODEL 9
REMARK VINA RESULT:      -6.4      2.661      5.703
REMARK  6 active torsions:
REMARK  status: ('A' for Active; 'I' for Inactive)
REMARK    1  A    between atoms: N2_2  and  C5_5 
REMARK    2  A    between atoms: C5_5  and  C6_6 
REMARK    3  A    between atoms: C6_6  and  O7_7 
REMARK    4  A    between atoms: O7_7  and  C8_8 
REMARK    5  A    between atoms: C8_8  and  C9_9 
REMARK    6  A    between atoms: C8_8  and  C15_15 
ROOT
ATOM      1  C8  ZIN A   1      18.467   1.318  10.287  0.00  0.00     0.187 C 
ENDROOT
BRANCH   1   2
ATOM      2  O7  ZIN A   1      17.313   2.031  10.736  0.00  0.00    -0.375 OA
BRANCH   2   3
ATOM      3  C6  ZIN A   1      17.514   3.440  10.866  0.00  0.00     0.196 C 
BRANCH   3   4
ATOM      4  C5  ZIN A   1      18.864   3.702  11.536  0.00  0.00     0.260 C 
BRANCH   4   5
ATOM      5  N2  ZIN A   1      18.650   4.095  12.935  0.00  0.00    -0.077 N 
ATOM      6  C1  ZIN A   1      18.760   2.911  13.797  0.00  0.00     0.269 C 
ATOM      7  H3  ZIN A   1      17.731   4.499  13.033  0.00  0.00     0.279 HD
ATOM      8  C4  ZIN A   1      19.664   5.083  13.327  0.00  0.00     0.269 C 
ENDBRANCH   4   5
ENDBRANCH   3   4
ENDBRANCH   2   3
ENDBRANCH   1   2
BRANCH   1   9
ATOM      9  C9  ZIN A   1      18.605   0.040  11.072  0.00  0.00    -0.025 A 
ATOM     10  C14 ZIN A   1      19.650  -0.826  10.808  0.00  0.00     0.010 A 
ATOM     11  C13 ZIN A   1      19.779  -1.996  11.531  0.00  0.00     0.001 A 
ATOM     12  C12 ZIN A   1      18.856  -2.307  12.512  0.00  0.00     0.000 A 
ATOM     13  C11 ZIN A   1      17.808  -1.445  12.774  0.00  0.00     0.001 A 
ATOM     14  C10 ZIN A   1      17.681  -0.272  12.053  0.00  0.00     0.010 A 
ENDBRANCH   1   9
BRANCH   1  15
ATOM     15  C15 ZIN A   1      18.320   0.995   8.822  0.00  0.00    -0.025 A 
ATOM     16  C20 ZIN A   1      19.146   1.602   7.894  0.00  0.00     0.010 A 
ATOM     17  C19 ZIN A   1      19.014   1.302   6.551  0.00  0.00     0.001 A 
ATOM     18  C18 ZIN A   1      18.050   0.403   6.135  0.00  0.00     0.000 A 
ATOM     19  C17 ZIN A   1      17.221  -0.200   7.062  0.00  0.00     0.001 A 
ATOM     20  C16 ZIN A   1      17.356   0.096   8.406  0.00  0.00     0.010 A 
ENDBRANCH   1  15
TORSDOF 6
ENDMDL
