MODEL 1
REMARK VINA RESULT:      -8.7      0.000      0.000
REMARK  11 active torsions:
REMARK  status: ('A' for Active; 'I' for Inactive)
REMARK    1  A    between atoms: O2_2  and  C3_3 
REMARK    2  A    between atoms: C3_3  and  C5_5 
REMARK    3  A    between atoms: C11_11  and  C12_12 
REMARK    4  A    between atoms: C12_12  and  O14_14 
REMARK    5  A    between atoms: O14_14  and  C15_15 
REMARK    6  A    between atoms: C15_15  and  C16_16 
REMARK    7  A    between atoms: C16_16  and  N17_17 
REMARK    8  A    between atoms: N17_17  and  C19_19 
REMARK    9  A    between atoms: C19_19  and  C20_20 
REMARK   10  A    between atoms: C26_26  and  C28_27 
REMARK   11  A    between atoms: C32_31  and  N33_32 
ROOT
ATOM      1  C5  ZIN A   1      17.883   5.078  14.555  0.00  0.00     0.052 C 
ATOM      2  C6  ZIN A   1      16.873   5.493  13.772  0.00  0.00     0.018 C 
ATOM      3  C7  ZIN A   1      15.907   6.528  14.290  0.00  0.00     0.069 C 
ATOM      4  N8  ZIN A   1      16.710   4.990  12.510  0.00  0.00    -0.362 N 
ATOM      5  C9  ZIN A   1      17.743   4.343  11.887  0.00  0.00     0.018 C 
ATOM      6  C10 ZIN A   1      17.706   4.147  10.393  0.00  0.00     0.069 C 
ATOM      7  C11 ZIN A   1      18.789   3.877  12.592  0.00  0.00     0.052 C 
ATOM      8  C26 ZIN A   1      18.868   4.046  14.081  0.00  0.00     0.101 C 
ATOM      9  H43 ZIN A   1      15.859   5.090  12.055  0.00  0.00     0.165 HD
ENDROOT
BRANCH   7  10
ATOM     10  C12 ZIN A   1      19.842   3.220  11.914  0.00  0.00     0.292 C 
ATOM     11  O13 ZIN A   1      20.929   3.758  11.812  0.00  0.00    -0.259 OA
BRANCH  10  12
ATOM     12  O14 ZIN A   1      19.641   1.996  11.381  0.00  0.00    -0.316 OA
BRANCH  12  13
ATOM     13  C15 ZIN A   1      20.403   0.919  11.929  0.00  0.00     0.209 C 
BRANCH  13  14
ATOM     14  C16 ZIN A   1      19.543  -0.347  11.964  0.00  0.00     0.299 C 
BRANCH  14  15
ATOM     15  N17 ZIN A   1      19.275  -0.796  10.592  0.00  0.00     0.090 N 
ATOM     16  C18 ZIN A   1      19.383  -2.257  10.486  0.00  0.00     0.310 C 
BRANCH  15  17
ATOM     17  C19 ZIN A   1      17.960  -0.330  10.133  0.00  0.00     0.310 C 
BRANCH  17  18
ATOM     18  C20 ZIN A   1      18.046   0.067   8.682  0.00  0.00    -0.030 A 
ATOM     19  C25 ZIN A   1      17.167  -0.475   7.764  0.00  0.00     0.009 A 
ATOM     20  C24 ZIN A   1      17.244  -0.107   6.433  0.00  0.00     0.001 A 
ATOM     21  C23 ZIN A   1      18.204   0.796   6.020  0.00  0.00     0.000 A 
ATOM     22  C22 ZIN A   1      19.087   1.335   6.938  0.00  0.00     0.001 A 
ATOM     23  C21 ZIN A   1      19.008   0.970   8.269  0.00  0.00     0.009 A 
ENDBRANCH  17  18
ENDBRANCH  15  17
ENDBRANCH  14  15
ENDBRANCH  13  14
ENDBRANCH  12  13
ENDBRANCH  10  12
ENDBRANCH   7  10
BRANCH   8  24
ATOM     24  C28 ZIN A   1      18.550   2.731  14.747  0.00  0.00    -0.042 A 
ATOM     25  C36 ZIN A   1      19.134   2.412  15.958  0.00  0.00     0.044 A 
ATOM     26  C32 ZIN A   1      18.840   1.208  16.571  0.00  0.00     0.103 A 
ATOM     27  C31 ZIN A   1      17.968   0.321  15.967  0.00  0.00     0.036 A 
ATOM     28  C30 ZIN A   1      17.388   0.639  14.754  0.00  0.00     0.003 A 
ATOM     29  C29 ZIN A   1      17.679   1.844  14.144  0.00  0.00     0.008 A 
BRANCH  26  30
ATOM     30  N33 ZIN A   1      19.461   0.868  17.870  0.00  0.00    -0.116 N 
ATOM     31  O34 ZIN A   1      19.856   1.753  18.607  0.00  0.00    -0.532 OA
ATOM     32  O35 ZIN A   1      19.579  -0.298  18.203  0.00  0.00    -0.532 OA
ENDBRANCH  26  30
ENDBRANCH   8  24
BRANCH   1  33
ATOM     33  C3  ZIN A   1      18.026   5.627  15.850  0.00  0.00     0.291 C 
ATOM     34  O4  ZIN A   1      18.896   6.448  16.070  0.00  0.00    -0.260 OA
BRANCH  33  35
ATOM     35  O2  ZIN A   1      17.197   5.240  16.842  0.00  0.00    -0.323 OA
ATOM     36  C1  ZIN A   1      17.770   5.080  18.141  0.00  0.00     0.213 C 
ENDBRANCH  33  35
ENDBRANCH   1  33
TORSDOF 11
ENDMDL
MODEL 2
REMARK VINA RESULT:      -8.5      4.223      9.614
REMARK  11 active torsions:
REMARK  status: ('A' for Active; 'I' for Inactive)
REMARK    1  A    between atoms: O2_2  and  C3_3 
REMARK    2  A    between atoms: C3_3  and  C5_5 
REMARK    3  A    between atoms: C11_11  and  C12_12 
REMARK    4  A    between atoms: C12_12  and  O14_14 
REMARK    5  A    between atoms: O14_14  and  C15_15 
REMARK    6  A    between atoms: C15_15  and  C16_16 
REMARK    7  A    between atoms: C16_16  and  N17_17 
REMARK    8  A    between atoms: N17_17  and  C19_19 
REMARK    9  A    between atoms: C19_19  and  C20_20 
REMARK   10  A    between atoms: C26_26  and  C28_27 
REMARK   11  A    between atoms: C32_31  and  N33_32 
ROOT
ATOM      1  C5  ZIN A   1      17.876  -5.134   7.887  0.00  0.00     0.052 C 
ATOM      2  C6  ZIN A   1      16.818  -5.679   8.510  0.00  0.00     0.018 C 
ATOM      3  C7  ZIN A   1      15.923  -6.633   7.762  0.00  0.00     0.069 C 
ATOM      4  N8  ZIN A   1      16.542  -5.379   9.817  0.00  0.00    -0.362 N 
ATOM      5  C9  ZIN A   1      17.505  -4.824  10.615  0.00  0.00     0.018 C 
ATOM      6  C10 ZIN A   1      17.344  -4.863  12.113  0.00  0.00     0.069 C 
ATOM      7  C11 ZIN A   1      18.592  -4.242  10.079  0.00  0.00     0.052 C 
ATOM      8  C26 ZIN A   1      18.794  -4.176   8.593  0.00  0.00     0.101 C 
ATOM      9  H43 ZIN A   1      15.661  -5.560  10.179  0.00  0.00     0.165 HD
ENDROOT
BRANCH   7  10
ATOM     10  C12 ZIN A   1      19.571  -3.684  10.934  0.00  0.00     0.292 C 
ATOM     11  O13 ZIN A   1      20.414  -4.400  11.442  0.00  0.00    -0.259 OA
BRANCH  10  12
ATOM     12  O14 ZIN A   1      19.569  -2.358  11.187  0.00  0.00    -0.316 OA
BRANCH  12  13
ATOM     13  C15 ZIN A   1      19.250  -1.954  12.520  0.00  0.00     0.209 C 
BRANCH  13  14
ATOM     14  C16 ZIN A   1      17.876  -1.280  12.533  0.00  0.00     0.299 C 
BRANCH  14  15
ATOM     15  N17 ZIN A   1      17.949  -0.032  13.305  0.00  0.00     0.090 N 
ATOM     16  C18 ZIN A   1      17.902  -0.302  14.747  0.00  0.00     0.310 C 
BRANCH  15  17
ATOM     17  C19 ZIN A   1      19.151   0.735  12.951  0.00  0.00     0.310 C 
BRANCH  17  18
ATOM     18  C20 ZIN A   1      18.828   1.681  11.823  0.00  0.00    -0.030 A 
ATOM     19  C25 ZIN A   1      19.447   1.530  10.597  0.00  0.00     0.009 A 
ATOM     20  C24 ZIN A   1      19.148   2.394   9.560  0.00  0.00     0.001 A 
ATOM     21  C23 ZIN A   1      18.235   3.414   9.752  0.00  0.00     0.000 A 
ATOM     22  C22 ZIN A   1      17.619   3.568  10.980  0.00  0.00     0.001 A 
ATOM     23  C21 ZIN A   1      17.916   2.701  12.015  0.00  0.00     0.009 A 
ENDBRANCH  17  18
ENDBRANCH  15  17
ENDBRANCH  14  15
ENDBRANCH  13  14
ENDBRANCH  12  13
ENDBRANCH  10  12
ENDBRANCH   7  10
BRANCH   8  24
ATOM     24  C28 ZIN A   1      18.497  -2.779   8.114  0.00  0.00    -0.042 A 
ATOM     25  C36 ZIN A   1      19.105  -2.298   6.970  0.00  0.00     0.044 A 
ATOM     26  C32 ZIN A   1      18.830  -1.017   6.527  0.00  0.00     0.103 A 
ATOM     27  C31 ZIN A   1      17.954  -0.215   7.233  0.00  0.00     0.036 A 
ATOM     28  C30 ZIN A   1      17.349  -0.695   8.380  0.00  0.00     0.003 A 
ATOM     29  C29 ZIN A   1      17.621  -1.977   8.820  0.00  0.00     0.008 A 
BRANCH  26  30
ATOM     30  N33 ZIN A   1      19.477  -0.504   5.298  0.00  0.00    -0.116 N 
ATOM     31  O34 ZIN A   1      19.573   0.696   5.117  0.00  0.00    -0.532 OA
ATOM     32  O35 ZIN A   1      19.912  -1.282   4.468  0.00  0.00    -0.532 OA
ENDBRANCH  26  30
ENDBRANCH   8  24
BRANCH   1  33
ATOM     33  C3  ZIN A   1      18.136  -5.474   6.539  0.00  0.00     0.291 C 
ATOM     34  O4  ZIN A   1      19.040  -6.242   6.269  0.00  0.00    -0.260 OA
BRANCH  33  35
ATOM     35  O2  ZIN A   1      17.381  -4.948   5.553  0.00  0.00    -0.323 OA
ATOM     36  C1  ZIN A   1      18.062  -4.520   4.372  0.00  0.00     0.213 C 
ENDBRANCH  33  35
ENDBRANCH   1  33
TORSDOF 11
ENDMDL
MODEL 3
REMARK VINA RESULT:      -8.3      4.270     10.192
REMARK  11 active torsions:
REMARK  status: ('A' for Active; 'I' for Inactive)
REMARK    1  A    between atoms: O2_2  and  C3_3 
REMARK    2  A    between atoms: C3_3  and  C5_5 
REMARK    3  A    between atoms: C11_11  and  C12_12 
REMARK    4  A    between atoms: C12_12  and  O14_14 
REMARK    5  A    between atoms: O14_14  and  C15_15 
REMARK    6  A    between atoms: C15_15  and  C16_16 
REMARK    7  A    between atoms: C16_16  and  N17_17 
REMARK    8  A    between atoms: N17_17  and  C19_19 
REMARK    9  A    between atoms: C19_19  and  C20_20 
REMARK   10  A    between atoms: C26_26  and  C28_27 
REMARK   11  A    between atoms: C32_31  and  N33_32 
ROOT
ATOM      1  C5  ZIN A   1      17.915  -5.176   7.900  0.00  0.00     0.052 C 
ATOM      2  C6  ZIN A   1      16.843  -5.713   8.507  0.00  0.00     0.018 C 
ATOM      3  C7  ZIN A   1      15.988  -6.707   7.765  0.00  0.00     0.069 C 
ATOM      4  N8  ZIN A   1      16.519  -5.370   9.792  0.00  0.00    -0.362 N 
ATOM      5  C9  ZIN A   1      17.447  -4.771  10.601  0.00  0.00     0.018 C 
ATOM      6  C10 ZIN A   1      17.235  -4.758  12.093  0.00  0.00     0.069 C 
ATOM      7  C11 ZIN A   1      18.543  -4.192  10.080  0.00  0.00     0.052 C 
ATOM      8  C26 ZIN A   1      18.794  -4.179   8.601  0.00  0.00     0.101 C 
ATOM      9  H43 ZIN A   1      15.628  -5.551  10.131  0.00  0.00     0.165 HD
ENDROOT
BRANCH   7  10
ATOM     10  C12 ZIN A   1      19.484  -3.589  10.947  0.00  0.00     0.292 C 
ATOM     11  O13 ZIN A   1      20.515  -4.172  11.225  0.00  0.00    -0.259 OA
BRANCH  10  12
ATOM     12  O14 ZIN A   1      19.237  -2.367  11.465  0.00  0.00    -0.316 OA
BRANCH  12  13
ATOM     13  C15 ZIN A   1      20.234  -1.364  11.262  0.00  0.00     0.209 C 
BRANCH  13  14
ATOM     14  C16 ZIN A   1      19.561   0.005  11.139  0.00  0.00     0.299 C 
BRANCH  14  15
ATOM     15  N17 ZIN A   1      19.313   0.551  12.480  0.00  0.00     0.090 N 
ATOM     16  C18 ZIN A   1      19.424   2.015  12.481  0.00  0.00     0.310 C 
BRANCH  15  17
ATOM     17  C19 ZIN A   1      18.003   0.121  12.989  0.00  0.00     0.310 C 
BRANCH  17  18
ATOM     18  C20 ZIN A   1      18.121  -0.218  14.453  0.00  0.00    -0.030 A 
ATOM     19  C25 ZIN A   1      17.432   0.526  15.391  0.00  0.00     0.009 A 
ATOM     20  C24 ZIN A   1      17.537   0.212  16.734  0.00  0.00     0.001 A 
ATOM     21  C23 ZIN A   1      18.335  -0.841  17.138  0.00  0.00     0.000 A 
ATOM     22  C22 ZIN A   1      19.027  -1.583  16.198  0.00  0.00     0.001 A 
ATOM     23  C21 ZIN A   1      18.921  -1.271  14.856  0.00  0.00     0.009 A 
ENDBRANCH  17  18
ENDBRANCH  15  17
ENDBRANCH  14  15
ENDBRANCH  13  14
ENDBRANCH  12  13
ENDBRANCH  10  12
ENDBRANCH   7  10
BRANCH   8  24
ATOM     24  C28 ZIN A   1      18.494  -2.804   8.060  0.00  0.00    -0.042 A 
ATOM     25  C36 ZIN A   1      19.102  -2.372   6.896  0.00  0.00     0.044 A 
ATOM     26  C32 ZIN A   1      18.824  -1.113   6.397  0.00  0.00     0.103 A 
ATOM     27  C31 ZIN A   1      17.946  -0.283   7.068  0.00  0.00     0.036 A 
ATOM     28  C30 ZIN A   1      17.342  -0.713   8.234  0.00  0.00     0.003 A 
ATOM     29  C29 ZIN A   1      17.617  -1.974   8.730  0.00  0.00     0.008 A 
BRANCH  26  30
ATOM     30  N33 ZIN A   1      19.470  -0.653   5.147  0.00  0.00    -0.116 N 
ATOM     31  O34 ZIN A   1      19.905  -1.466   4.352  0.00  0.00    -0.532 OA
ATOM     32  O35 ZIN A   1      19.568   0.538   4.915  0.00  0.00    -0.532 OA
ENDBRANCH  26  30
ENDBRANCH   8  24
BRANCH   1  33
ATOM     33  C3  ZIN A   1      18.226  -5.560   6.575  0.00  0.00     0.291 C 
ATOM     34  O4  ZIN A   1      19.105  -6.376   6.369  0.00  0.00    -0.260 OA
BRANCH  33  35
ATOM     35  O2  ZIN A   1      17.546  -5.024   5.541  0.00  0.00    -0.323 OA
ATOM     36  C1  ZIN A   1      17.474  -5.799   4.341  0.00  0.00     0.213 C 
ENDBRANCH  33  35
ENDBRANCH   1  33
TORSDOF 11
ENDMDL
MODEL 4
REMARK VINA RESULT:      -8.1      1.459      2.843
REMARK  11 active torsions:
REMARK  status: ('A' for Active; 'I' for Inactive)
REMARK    1  A    between atoms: O2_2  and  C3_3 
REMARK    2  A    between atoms: C3_3  and  C5_5 
REMARK    3  A    between atoms: C11_11  and  C12_12 
REMARK    4  A    between atoms: C12_12  and  O14_14 
REMARK    5  A    between atoms: O14_14  and  C15_15 
REMARK    6  A    between atoms: C15_15  and  C16_16 
REMARK    7  A    between atoms: C16_16  and  N17_17 
REMARK    8  A    between atoms: N17_17  and  C19_19 
REMARK    9  A    between atoms: C19_19  and  C20_20 
REMARK   10  A    between atoms: C26_26  and  C28_27 
REMARK   11  A    between atoms: C32_31  and  N33_32 
ROOT
ATOM      1  C5  ZIN A   1      17.878   4.953  14.497  0.00  0.00     0.052 C 
ATOM      2  C6  ZIN A   1      16.889   5.305  13.658  0.00  0.00     0.018 C 
ATOM      3  C7  ZIN A   1      15.884   6.344  14.085  0.00  0.00     0.069 C 
ATOM      4  N8  ZIN A   1      16.783   4.733  12.419  0.00  0.00    -0.362 N 
ATOM      5  C9  ZIN A   1      17.851   4.077  11.869  0.00  0.00     0.018 C 
ATOM      6  C10 ZIN A   1      17.873   3.803  10.387  0.00  0.00     0.069 C 
ATOM      7  C11 ZIN A   1      18.879   3.672  12.635  0.00  0.00     0.052 C 
ATOM      8  C26 ZIN A   1      18.900   3.920  14.115  0.00  0.00     0.101 C 
ATOM      9  H43 ZIN A   1      15.948   4.791  11.929  0.00  0.00     0.165 HD
ENDROOT
BRANCH   7  10
ATOM     10  C12 ZIN A   1      19.969   3.003  12.031  0.00  0.00     0.292 C 
ATOM     11  O13 ZIN A   1      20.828   3.641  11.450  0.00  0.00    -0.259 OA
BRANCH  10  12
ATOM     12  O14 ZIN A   1      20.057   1.658  12.099  0.00  0.00    -0.316 OA
BRANCH  12  13
ATOM     13  C15 ZIN A   1      19.700   0.925  10.925  0.00  0.00     0.209 C 
BRANCH  13  14
ATOM     14  C16 ZIN A   1      18.725  -0.193  11.300  0.00  0.00     0.299 C 
BRANCH  14  15
ATOM     15  N17 ZIN A   1      18.842  -1.291  10.331  0.00  0.00     0.090 N 
ATOM     16  C18 ZIN A   1      19.521  -0.843   9.108  0.00  0.00     0.310 C 
BRANCH  15  17
ATOM     17  C19 ZIN A   1      19.532  -2.444  10.924  0.00  0.00     0.310 C 
BRANCH  17  18
ATOM     18  C20 ZIN A   1      18.678  -3.676  10.766  0.00  0.00    -0.030 A 
ATOM     19  C25 ZIN A   1      19.086  -4.695   9.927  0.00  0.00     0.009 A 
ATOM     20  C24 ZIN A   1      18.304  -5.827   9.785  0.00  0.00     0.001 A 
ATOM     21  C23 ZIN A   1      17.112  -5.935  10.476  0.00  0.00     0.000 A 
ATOM     22  C22 ZIN A   1      16.702  -4.913  11.311  0.00  0.00     0.001 A 
ATOM     23  C21 ZIN A   1      17.485  -3.783  11.456  0.00  0.00     0.009 A 
ENDBRANCH  17  18
ENDBRANCH  15  17
ENDBRANCH  14  15
ENDBRANCH  13  14
ENDBRANCH  12  13
ENDBRANCH  10  12
ENDBRANCH   7  10
BRANCH   8  24
ATOM     24  C28 ZIN A   1      18.583   2.635  14.837  0.00  0.00    -0.042 A 
ATOM     25  C36 ZIN A   1      19.163   2.372  16.063  0.00  0.00     0.044 A 
ATOM     26  C32 ZIN A   1      18.870   1.196  16.728  0.00  0.00     0.103 A 
ATOM     27  C31 ZIN A   1      18.005   0.279  16.161  0.00  0.00     0.036 A 
ATOM     28  C30 ZIN A   1      17.429   0.540  14.933  0.00  0.00     0.003 A 
ATOM     29  C29 ZIN A   1      17.719   1.718  14.270  0.00  0.00     0.008 A 
BRANCH  26  30
ATOM     30  N33 ZIN A   1      19.487   0.916  18.045  0.00  0.00    -0.116 N 
ATOM     31  O34 ZIN A   1      19.629  -0.234  18.418  0.00  0.00    -0.532 OA
ATOM     32  O35 ZIN A   1      19.850   1.837  18.755  0.00  0.00    -0.532 OA
ENDBRANCH  26  30
ENDBRANCH   8  24
BRANCH   1  33
ATOM     33  C3  ZIN A   1      17.962   5.571  15.766  0.00  0.00     0.291 C 
ATOM     34  O4  ZIN A   1      18.755   6.476  15.950  0.00  0.00    -0.260 OA
BRANCH  33  35
ATOM     35  O2  ZIN A   1      17.163   5.160  16.772  0.00  0.00    -0.323 OA
ATOM     36  C1  ZIN A   1      16.789   6.137  17.745  0.00  0.00     0.213 C 
ENDBRANCH  33  35
ENDBRANCH   1  33
TORSDOF 11
ENDMDL
MODEL 5
REMARK VINA RESULT:      -8.0      2.987      4.292
REMARK  11 active torsions:
REMARK  status: ('A' for Active; 'I' for Inactive)
REMARK    1  A    between atoms: O2_2  and  C3_3 
REMARK    2  A    between atoms: C3_3  and  C5_5 
REMARK    3  A    between atoms: C11_11  and  C12_12 
REMARK    4  A    between atoms: C12_12  and  O14_14 
REMARK    5  A    between atoms: O14_14  and  C15_15 
REMARK    6  A    between atoms: C15_15  and  C16_16 
REMARK    7  A    between atoms: C16_16  and  N17_17 
REMARK    8  A    between atoms: N17_17  and  C19_19 
REMARK    9  A    between atoms: C19_19  and  C20_20 
REMARK   10  A    between atoms: C26_26  and  C28_27 
REMARK   11  A    between atoms: C32_31  and  N33_32 
ROOT
ATOM      1  C5  ZIN A   1      18.767   3.017  12.143  0.00  0.00     0.052 C 
ATOM      2  C6  ZIN A   1      17.837   3.073  11.174  0.00  0.00     0.018 C 
ATOM      3  C7  ZIN A   1      17.214   4.398  10.817  0.00  0.00     0.069 C 
ATOM      4  N8  ZIN A   1      17.448   1.943  10.508  0.00  0.00    -0.362 N 
ATOM      5  C9  ZIN A   1      18.226   0.818  10.547  0.00  0.00     0.018 C 
ATOM      6  C10 ZIN A   1      18.018  -0.266   9.520  0.00  0.00     0.069 C 
ATOM      7  C11 ZIN A   1      19.172   0.666  11.490  0.00  0.00     0.052 C 
ATOM      8  C26 ZIN A   1      19.413   1.717  12.534  0.00  0.00     0.101 C 
ATOM      9  H43 ZIN A   1      16.617   1.939  10.007  0.00  0.00     0.165 HD
ENDROOT
BRANCH   7  10
ATOM     10  C12 ZIN A   1      19.962  -0.507  11.495  0.00  0.00     0.292 C 
ATOM     11  O13 ZIN A   1      20.963  -0.568  10.806  0.00  0.00    -0.259 OA
BRANCH  10  12
ATOM     12  O14 ZIN A   1      19.605  -1.557  12.263  0.00  0.00    -0.316 OA
BRANCH  12  13
ATOM     13  C15 ZIN A   1      19.702  -2.855  11.672  0.00  0.00     0.209 C 
BRANCH  13  14
ATOM     14  C16 ZIN A   1      18.298  -3.432  11.477  0.00  0.00     0.299 C 
BRANCH  14  15
ATOM     15  N17 ZIN A   1      18.321  -4.419  10.390  0.00  0.00     0.090 N 
ATOM     16  C18 ZIN A   1      19.699  -4.721   9.981  0.00  0.00     0.310 C 
BRANCH  15  17
ATOM     17  C19 ZIN A   1      17.606  -5.644  10.776  0.00  0.00     0.310 C 
BRANCH  17  18
ATOM     18  C20 ZIN A   1      16.823  -6.161   9.597  0.00  0.00    -0.030 A 
ATOM     19  C25 ZIN A   1      15.668  -5.514   9.198  0.00  0.00     0.009 A 
ATOM     20  C24 ZIN A   1      14.952  -5.986   8.114  0.00  0.00     0.001 A 
ATOM     21  C23 ZIN A   1      15.387  -7.108   7.433  0.00  0.00     0.000 A 
ATOM     22  C22 ZIN A   1      16.540  -7.756   7.835  0.00  0.00     0.001 A 
ATOM     23  C21 ZIN A   1      17.257  -7.283   8.917  0.00  0.00     0.009 A 
ENDBRANCH  17  18
ENDBRANCH  15  17
ENDBRANCH  14  15
ENDBRANCH  13  14
ENDBRANCH  12  13
ENDBRANCH  10  12
ENDBRANCH   7  10
BRANCH   8  24
ATOM     24  C28 ZIN A   1      18.824   1.259  13.844  0.00  0.00    -0.042 A 
ATOM     25  C36 ZIN A   1      19.425   1.620  15.035  0.00  0.00     0.044 A 
ATOM     26  C32 ZIN A   1      18.883   1.204  16.236  0.00  0.00     0.103 A 
ATOM     27  C31 ZIN A   1      17.745   0.419  16.246  0.00  0.00     0.036 A 
ATOM     28  C30 ZIN A   1      17.147   0.054  15.055  0.00  0.00     0.003 A 
ATOM     29  C29 ZIN A   1      17.687   0.474  13.854  0.00  0.00     0.008 A 
BRANCH  26  30
ATOM     30  N33 ZIN A   1      19.523   1.595  17.512  0.00  0.00    -0.116 N 
ATOM     31  O34 ZIN A   1      19.818   2.759  17.714  0.00  0.00    -0.532 OA
ATOM     32  O35 ZIN A   1      19.757   0.753  18.360  0.00  0.00    -0.532 OA
ENDBRANCH  26  30
ENDBRANCH   8  24
BRANCH   1  33
ATOM     33  C3  ZIN A   1      19.152   4.206  12.804  0.00  0.00     0.291 C 
ATOM     34  O4  ZIN A   1      20.199   4.752  12.513  0.00  0.00    -0.260 OA
BRANCH  33  35
ATOM     35  O2  ZIN A   1      18.356   4.736  13.756  0.00  0.00    -0.323 OA
ATOM     36  C1  ZIN A   1      18.996   5.234  14.933  0.00  0.00     0.213 C 
ENDBRANCH  33  35
ENDBRANCH   1  33
TORSDOF 11
ENDMDL
MODEL 6
REMARK VINA RESULT:      -7.9      2.292      3.394
REMARK  11 active torsions:
REMARK  status: ('A' for Active; 'I' for Inactive)
REMARK    1  A    between atoms: O2_2  and  C3_3 
REMARK    2  A    between atoms: C3_3  and  C5_5 
REMARK    3  A    between atoms: C11_11  and  C12_12 
REMARK    4  A    between atoms: C12_12  and  O14_14 
REMARK    5  A    between atoms: O14_14  and  C15_15 
REMARK    6  A    between atoms: C15_15  and  C16_16 
REMARK    7  A    between atoms: C16_16  and  N17_17 
REMARK    8  A    between atoms: N17_17  and  C19_19 
REMARK    9  A    between atoms: C19_19  and  C20_20 
REMARK   10  A    between atoms: C26_26  and  C28_27 
REMARK   11  A    between atoms: C32_31  and  N33_32 
ROOT
ATOM      1  C5  ZIN A   1      18.509   3.274  12.796  0.00  0.00     0.052 C 
ATOM      2  C6  ZIN A   1      17.579   3.342  11.828  0.00  0.00     0.018 C 
ATOM      3  C7  ZIN A   1      16.878   4.650  11.561  0.00  0.00     0.069 C 
ATOM      4  N8  ZIN A   1      17.262   2.241  11.081  0.00  0.00    -0.362 N 
ATOM      5  C9  ZIN A   1      18.106   1.165  11.045  0.00  0.00     0.018 C 
ATOM      6  C10 ZIN A   1      17.967   0.146   9.943  0.00  0.00     0.069 C 
ATOM      7  C11 ZIN A   1      19.057   1.004  11.982  0.00  0.00     0.052 C 
ATOM      8  C26 ZIN A   1      19.231   1.991  13.099  0.00  0.00     0.101 C 
ATOM      9  H43 ZIN A   1      16.434   2.222  10.575  0.00  0.00     0.165 HD
ENDROOT
BRANCH   7  10
ATOM     10  C12 ZIN A   1      19.917  -0.116  11.909  0.00  0.00     0.292 C 
ATOM     11  O13 ZIN A   1      20.917  -0.072  11.217  0.00  0.00    -0.259 OA
BRANCH  10  12
ATOM     12  O14 ZIN A   1      19.629  -1.234  12.608  0.00  0.00    -0.316 OA
BRANCH  12  13
ATOM     13  C15 ZIN A   1      19.573  -2.460  11.875  0.00  0.00     0.209 C 
BRANCH  13  14
ATOM     14  C16 ZIN A   1      18.147  -3.015  11.920  0.00  0.00     0.299 C 
BRANCH  14  15
ATOM     15  N17 ZIN A   1      18.086  -4.271  11.161  0.00  0.00     0.090 N 
ATOM     16  C18 ZIN A   1      17.499  -5.347  11.970  0.00  0.00     0.310 C 
BRANCH  15  17
ATOM     17  C19 ZIN A   1      17.345  -4.092   9.905  0.00  0.00     0.310 C 
BRANCH  17  18
ATOM     18  C20 ZIN A   1      18.311  -4.088   8.748  0.00  0.00    -0.030 A 
ATOM     19  C25 ZIN A   1      18.548  -2.919   8.051  0.00  0.00     0.009 A 
ATOM     20  C24 ZIN A   1      19.438  -2.915   6.992  0.00  0.00     0.001 A 
ATOM     21  C23 ZIN A   1      20.084  -4.081   6.627  0.00  0.00     0.000 A 
ATOM     22  C22 ZIN A   1      19.843  -5.251   7.323  0.00  0.00     0.001 A 
ATOM     23  C21 ZIN A   1      18.956  -5.255   8.383  0.00  0.00     0.009 A 
ENDBRANCH  17  18
ENDBRANCH  15  17
ENDBRANCH  14  15
ENDBRANCH  13  14
ENDBRANCH  12  13
ENDBRANCH  10  12
ENDBRANCH   7  10
BRANCH   8  24
ATOM     24  C28 ZIN A   1      18.668   1.406  14.369  0.00  0.00    -0.042 A 
ATOM     25  C36 ZIN A   1      19.284   1.662  15.579  0.00  0.00     0.044 A 
ATOM     26  C32 ZIN A   1      18.765   1.130  16.745  0.00  0.00     0.103 A 
ATOM     27  C31 ZIN A   1      17.636   0.334  16.698  0.00  0.00     0.036 A 
ATOM     28  C30 ZIN A   1      17.023   0.075  15.487  0.00  0.00     0.003 A 
ATOM     29  C29 ZIN A   1      17.539   0.611  14.322  0.00  0.00     0.008 A 
BRANCH  26  30
ATOM     30  N33 ZIN A   1      19.422   1.409  18.042  0.00  0.00    -0.116 N 
ATOM     31  O34 ZIN A   1      20.008   0.520  18.631  0.00  0.00    -0.532 OA
ATOM     32  O35 ZIN A   1      19.374   2.528  18.520  0.00  0.00    -0.532 OA
ENDBRANCH  26  30
ENDBRANCH   8  24
BRANCH   1  33
ATOM     33  C3  ZIN A   1      18.819   4.434  13.542  0.00  0.00     0.291 C 
ATOM     34  O4  ZIN A   1      18.071   4.806  14.426  0.00  0.00    -0.260 OA
BRANCH  33  35
ATOM     35  O2  ZIN A   1      19.945   5.128  13.274  0.00  0.00    -0.323 OA
ATOM     36  C1  ZIN A   1      20.355   6.097  14.241  0.00  0.00     0.213 C 
ENDBRANCH  33  35
ENDBRANCH   1  33
TORSDOF 11
ENDMDL
MODEL 7
REMARK VINA RESULT:      -7.7      3.313      9.344
REMARK  11 active torsions:
REMARK  status: ('A' for Active; 'I' for Inactive)
REMARK    1  A    between atoms: O2_2  and  C3_3 
REMARK    2  A    between atoms: C3_3  and  C5_5 
REMARK    3  A    between atoms: C11_11  and  C12_12 
REMARK    4  A    between atoms: C12_12  and  O14_14 
REMARK    5  A    between atoms: O14_14  and  C15_15 
REMARK    6  A    between atoms: C15_15  and  C16_16 
REMARK    7  A    between atoms: C16_16  and  N17_17 
REMARK    8  A    between atoms: N17_17  and  C19_19 
REMARK    9  A    between atoms: C19_19  and  C20_20 
REMARK   10  A    between atoms: C26_26  and  C28_27 
REMARK   11  A    between atoms: C32_31  and  N33_32 
ROOT
ATOM      1  C5  ZIN A   1      18.607  -3.515   9.838  0.00  0.00     0.052 C 
ATOM      2  C6  ZIN A   1      17.696  -3.776  10.791  0.00  0.00     0.018 C 
ATOM      3  C7  ZIN A   1      17.096  -5.155  10.890  0.00  0.00     0.069 C 
ATOM      4  N8  ZIN A   1      17.306  -2.806  11.674  0.00  0.00    -0.362 N 
ATOM      5  C9  ZIN A   1      18.070  -1.683  11.846  0.00  0.00     0.018 C 
ATOM      6  C10 ZIN A   1      17.869  -0.826  13.070  0.00  0.00     0.069 C 
ATOM      7  C11 ZIN A   1      18.996  -1.334  10.936  0.00  0.00     0.052 C 
ATOM      8  C26 ZIN A   1      19.229  -2.154   9.701  0.00  0.00     0.101 C 
ATOM      9  H43 ZIN A   1      16.486  -2.913  12.180  0.00  0.00     0.165 HD
ENDROOT
BRANCH   7  10
ATOM     10  C12 ZIN A   1      19.772  -0.171  11.150  0.00  0.00     0.292 C 
ATOM     11  O13 ZIN A   1      20.855  -0.255  11.699  0.00  0.00    -0.259 OA
BRANCH  10  12
ATOM     12  O14 ZIN A   1      19.311   1.032  10.745  0.00  0.00    -0.316 OA
BRANCH  12  13
ATOM     13  C15 ZIN A   1      19.357   2.097  11.697  0.00  0.00     0.209 C 
BRANCH  13  14
ATOM     14  C16 ZIN A   1      17.949   2.661  11.898  0.00  0.00     0.299 C 
BRANCH  14  15
ATOM     15  N17 ZIN A   1      17.904   3.431  13.148  0.00  0.00     0.090 N 
ATOM     16  C18 ZIN A   1      18.505   2.675  14.255  0.00  0.00     0.310 C 
BRANCH  15  17
ATOM     17  C19 ZIN A   1      18.559   4.737  12.986  0.00  0.00     0.310 C 
BRANCH  17  18
ATOM     18  C20 ZIN A   1      17.869   5.756  13.856  0.00  0.00    -0.030 A 
ATOM     19  C25 ZIN A   1      16.494   5.886  13.808  0.00  0.00     0.009 A 
ATOM     20  C24 ZIN A   1      15.860   6.818  14.610  0.00  0.00     0.001 A 
ATOM     21  C23 ZIN A   1      16.602   7.623  15.453  0.00  0.00     0.000 A 
ATOM     22  C22 ZIN A   1      17.978   7.495  15.498  0.00  0.00     0.001 A 
ATOM     23  C21 ZIN A   1      18.611   6.562  14.699  0.00  0.00     0.009 A 
ENDBRANCH  17  18
ENDBRANCH  15  17
ENDBRANCH  14  15
ENDBRANCH  13  14
ENDBRANCH  12  13
ENDBRANCH  10  12
ENDBRANCH   7  10
BRANCH   8  24
ATOM     24  C28 ZIN A   1      18.610  -1.455   8.518  0.00  0.00    -0.042 A 
ATOM     25  C36 ZIN A   1      19.241  -1.488   7.289  0.00  0.00     0.044 A 
ATOM     26  C32 ZIN A   1      18.672  -0.851   6.202  0.00  0.00     0.103 A 
ATOM     27  C31 ZIN A   1      17.475  -0.174   6.347  0.00  0.00     0.036 A 
ATOM     28  C30 ZIN A   1      16.847  -0.137   7.577  0.00  0.00     0.003 A 
ATOM     29  C29 ZIN A   1      17.415  -0.778   8.663  0.00  0.00     0.008 A 
BRANCH  26  30
ATOM     30  N33 ZIN A   1      19.345  -0.892   4.884  0.00  0.00    -0.116 N 
ATOM     31  O34 ZIN A   1      19.513   0.137   4.255  0.00  0.00    -0.532 OA
ATOM     32  O35 ZIN A   1      19.728  -1.954   4.428  0.00  0.00    -0.532 OA
ENDBRANCH  26  30
ENDBRANCH   8  24
BRANCH   1  33
ATOM     33  C3  ZIN A   1      18.993  -4.544   8.949  0.00  0.00     0.291 C 
ATOM     34  O4  ZIN A   1      20.000  -5.191   9.167  0.00  0.00    -0.260 OA
BRANCH  33  35
ATOM     35  O2  ZIN A   1      18.243  -4.810   7.859  0.00  0.00    -0.323 OA
ATOM     36  C1  ZIN A   1      18.336  -6.128   7.314  0.00  0.00     0.213 C 
ENDBRANCH  33  35
ENDBRANCH   1  33
TORSDOF 11
ENDMDL
MODEL 8
REMARK VINA RESULT:      -7.7      3.021      6.026
REMARK  11 active torsions:
REMARK  status: ('A' for Active; 'I' for Inactive)
REMARK    1  A    between atoms: O2_2  and  C3_3 
REMARK    2  A    between atoms: C3_3  and  C5_5 
REMARK    3  A    between atoms: C11_11  and  C12_12 
REMARK    4  A    between atoms: C12_12  and  O14_14 
REMARK    5  A    between atoms: O14_14  and  C15_15 
REMARK    6  A    between atoms: C15_15  and  C16_16 
REMARK    7  A    between atoms: C16_16  and  N17_17 
REMARK    8  A    between atoms: N17_17  and  C19_19 
REMARK    9  A    between atoms: C19_19  and  C20_20 
REMARK   10  A    between atoms: C26_26  and  C28_27 
REMARK   11  A    between atoms: C32_31  and  N33_32 
ROOT
ATOM      1  C5  ZIN A   1      18.267  -0.309  14.279  0.00  0.00     0.052 C 
ATOM      2  C6  ZIN A   1      19.225  -1.140  14.723  0.00  0.00     0.018 C 
ATOM      3  C7  ZIN A   1      19.535  -1.199  16.196  0.00  0.00     0.069 C 
ATOM      4  N8  ZIN A   1      19.922  -1.935  13.854  0.00  0.00    -0.362 N 
ATOM      5  C9  ZIN A   1      19.436  -2.173  12.596  0.00  0.00     0.018 C 
ATOM      6  C10 ZIN A   1      19.973  -3.335  11.799  0.00  0.00     0.069 C 
ATOM      7  C11 ZIN A   1      18.488  -1.383  12.063  0.00  0.00     0.052 C 
ATOM      8  C26 ZIN A   1      17.926  -0.215  12.818  0.00  0.00     0.101 C 
ATOM      9  H43 ZIN A   1      20.763  -2.331  14.129  0.00  0.00     0.165 HD
ENDROOT
BRANCH   7  10
ATOM     10  C12 ZIN A   1      18.004  -1.664  10.764  0.00  0.00     0.292 C 
ATOM     11  O13 ZIN A   1      17.032  -2.380  10.618  0.00  0.00    -0.259 OA
BRANCH  10  12
ATOM     12  O14 ZIN A   1      18.622  -1.136   9.686  0.00  0.00    -0.316 OA
BRANCH  12  13
ATOM     13  C15 ZIN A   1      18.002  -1.347   8.416  0.00  0.00     0.209 C 
BRANCH  13  14
ATOM     14  C16 ZIN A   1      19.055  -1.240   7.311  0.00  0.00     0.299 C 
BRANCH  14  15
ATOM     15  N17 ZIN A   1      18.399  -0.904   6.040  0.00  0.00     0.090 N 
ATOM     16  C18 ZIN A   1      18.428   0.544   5.799  0.00  0.00     0.310 C 
BRANCH  15  17
ATOM     17  C19 ZIN A   1      19.011  -1.636   4.923  0.00  0.00     0.310 C 
BRANCH  17  18
ATOM     18  C20 ZIN A   1      18.164  -2.837   4.587  0.00  0.00    -0.030 A 
ATOM     19  C25 ZIN A   1      18.505  -4.082   5.082  0.00  0.00     0.009 A 
ATOM     20  C24 ZIN A   1      17.726  -5.183   4.777  0.00  0.00     0.001 A 
ATOM     21  C23 ZIN A   1      16.612  -5.041   3.973  0.00  0.00     0.000 A 
ATOM     22  C22 ZIN A   1      16.274  -3.796   3.474  0.00  0.00     0.001 A 
ATOM     23  C21 ZIN A   1      17.051  -2.695   3.781  0.00  0.00     0.009 A 
ENDBRANCH  17  18
ENDBRANCH  15  17
ENDBRANCH  14  15
ENDBRANCH  13  14
ENDBRANCH  12  13
ENDBRANCH  10  12
ENDBRANCH   7  10
BRANCH   8  24
ATOM     24  C28 ZIN A   1      18.510   1.060  12.265  0.00  0.00    -0.042 A 
ATOM     25  C36 ZIN A   1      17.677   2.035  11.751  0.00  0.00     0.044 A 
ATOM     26  C32 ZIN A   1      18.212   3.207  11.248  0.00  0.00     0.103 A 
ATOM     27  C31 ZIN A   1      19.581   3.398  11.251  0.00  0.00     0.036 A 
ATOM     28  C30 ZIN A   1      20.414   2.421  11.761  0.00  0.00     0.003 A 
ATOM     29  C29 ZIN A   1      19.879   1.252  12.268  0.00  0.00     0.008 A 
BRANCH  26  30
ATOM     30  N33 ZIN A   1      17.319   4.253  10.702  0.00  0.00    -0.116 N 
ATOM     31  O34 ZIN A   1      17.652   4.884   9.715  0.00  0.00    -0.532 OA
ATOM     32  O35 ZIN A   1      16.251   4.485  11.240  0.00  0.00    -0.532 OA
ENDBRANCH  26  30
ENDBRANCH   8  24
BRANCH   1  33
ATOM     33  C3  ZIN A   1      17.561   0.492  15.206  0.00  0.00     0.291 C 
ATOM     34  O4  ZIN A   1      16.793  -0.026  15.995  0.00  0.00    -0.260 OA
BRANCH  33  35
ATOM     35  O2  ZIN A   1      17.740   1.829  15.218  0.00  0.00    -0.323 OA
ATOM     36  C1  ZIN A   1      18.958   2.315  15.787  0.00  0.00     0.213 C 
ENDBRANCH  33  35
ENDBRANCH   1  33
TORSDOF 11
ENDMDL
MODEL 9
REMARK VINA RESULT:      -7.5      4.832     10.158
REMARK  11 active torsions:
REMARK  status: ('A' for Active; 'I' for Inactive)
REMARK    1  A    between atoms: O2_2  and  C3_3 
REMARK    2  A    between atoms: C3_3  and  C5_5 
REMARK    3  A    between atoms: C11_11  and  C12_12 
REMARK    4  A    between atoms: C12_12  and  O14_14 
REMARK    5  A    between atoms: O14_14  and  C15_15 
REMARK    6  A    between atoms: C15_15  and  C16_16 
REMARK    7  A    between atoms: C16_16  and  N17_17 
REMARK    8  A    between atoms: N17_17  and  C19_19 
REMARK    9  A    between atoms: C19_19  and  C20_20 
REMARK   10  A    between atoms: C26_26  and  C28_27 
REMARK   11  A    between atoms: C32_31  and  N33_32 
ROOT
ATOM      1  C5  ZIN A   1      17.533  -4.099   4.976  0.00  0.00     0.052 C 
ATOM      2  C6  ZIN A   1      18.217  -3.745   3.874  0.00  0.00     0.018 C 
ATOM      3  C7  ZIN A   1      18.048  -4.542   2.606  0.00  0.00     0.069 C 
ATOM      4  N8  ZIN A   1      19.063  -2.670   3.889  0.00  0.00    -0.362 N 
ATOM      5  C9  ZIN A   1      18.969  -1.731   4.880  0.00  0.00     0.018 C 
ATOM      6  C10 ZIN A   1      19.605  -0.378   4.687  0.00  0.00     0.069 C 
ATOM      7  C11 ZIN A   1      18.319  -2.002   6.025  0.00  0.00     0.052 C 
ATOM      8  C26 ZIN A   1      17.672  -3.335   6.263  0.00  0.00     0.101 C 
ATOM      9  H43 ZIN A   1      19.733  -2.573   3.194  0.00  0.00     0.165 HD
ENDROOT
BRANCH   7  10
ATOM     10  C12 ZIN A   1      18.235  -1.005   7.025  0.00  0.00     0.292 C 
ATOM     11  O13 ZIN A   1      17.179  -0.436   7.229  0.00  0.00    -0.259 OA
BRANCH  10  12
ATOM     12  O14 ZIN A   1      19.326  -0.686   7.752  0.00  0.00    -0.316 OA
BRANCH  12  13
ATOM     13  C15 ZIN A   1      19.318  -1.062   9.131  0.00  0.00     0.209 C 
BRANCH  13  14
ATOM     14  C16 ZIN A   1      18.771   0.095   9.971  0.00  0.00     0.299 C 
BRANCH  14  15
ATOM     15  N17 ZIN A   1      18.310  -0.416  11.268  0.00  0.00     0.090 N 
ATOM     16  C18 ZIN A   1      17.644  -1.716  11.115  0.00  0.00     0.310 C 
BRANCH  15  17
ATOM     17  C19 ZIN A   1      19.422  -0.504  12.225  0.00  0.00     0.310 C 
BRANCH  17  18
ATOM     18  C20 ZIN A   1      18.877  -0.494  13.630  0.00  0.00    -0.030 A 
ATOM     19  C25 ZIN A   1      19.365  -1.385  14.566  0.00  0.00     0.009 A 
ATOM     20  C24 ZIN A   1      18.869  -1.373  15.856  0.00  0.00     0.001 A 
ATOM     21  C23 ZIN A   1      17.878  -0.475  16.208  0.00  0.00     0.000 A 
ATOM     22  C22 ZIN A   1      17.387   0.413  15.269  0.00  0.00     0.001 A 
ATOM     23  C21 ZIN A   1      17.886   0.404  13.980  0.00  0.00     0.009 A 
ENDBRANCH  17  18
ENDBRANCH  15  17
ENDBRANCH  14  15
ENDBRANCH  13  14
ENDBRANCH  12  13
ENDBRANCH  10  12
ENDBRANCH   7  10
BRANCH   8  24
ATOM     24  C28 ZIN A   1      18.526  -4.137   7.212  0.00  0.00    -0.042 A 
ATOM     25  C36 ZIN A   1      18.089  -4.375   8.501  0.00  0.00     0.044 A 
ATOM     26  C32 ZIN A   1      18.869  -5.114   9.371  0.00  0.00     0.103 A 
ATOM     27  C31 ZIN A   1      20.091  -5.607   8.953  0.00  0.00     0.036 A 
ATOM     28  C30 ZIN A   1      20.531  -5.365   7.666  0.00  0.00     0.003 A 
ATOM     29  C29 ZIN A   1      19.748  -4.629   6.795  0.00  0.00     0.008 A 
BRANCH  26  30
ATOM     30  N33 ZIN A   1      18.398  -5.374  10.750  0.00  0.00    -0.116 N 
ATOM     31  O34 ZIN A   1      18.990  -4.890  11.697  0.00  0.00    -0.532 OA
ATOM     32  O35 ZIN A   1      17.418  -6.073  10.937  0.00  0.00    -0.532 OA
ENDBRANCH  26  30
ENDBRANCH   8  24
BRANCH   1  33
ATOM     33  C3  ZIN A   1      16.660  -5.210   4.923  0.00  0.00     0.291 C 
ATOM     34  O4  ZIN A   1      17.079  -6.325   5.171  0.00  0.00    -0.260 OA
BRANCH  33  35
ATOM     35  O2  ZIN A   1      15.363  -5.033   4.598  0.00  0.00    -0.323 OA
ATOM     36  C1  ZIN A   1      14.735  -6.073   3.846  0.00  0.00     0.213 C 
ENDBRANCH  33  35
ENDBRANCH   1  33
TORSDOF 11
ENDMDL
