MODEL 1
REMARK VINA RESULT:      -7.8      0.000      0.000
REMARK  9 active torsions:
REMARK  status: ('A' for Active; 'I' for Inactive)
REMARK    1  A    between atoms: N2_2  and  C5_5 
REMARK    2  A    between atoms: C5_5  and  C6_6 
REMARK    3  A    between atoms: C6_6  and  O7_7 
REMARK    4  A    between atoms: O7_7  and  C8_8 
REMARK    5  A    between atoms: C11_11  and  C12_12 
REMARK    6  A    between atoms: C12_12  and  C23_23 
REMARK    7  A    between atoms: C13_13  and  C14_14 
REMARK    8  A    between atoms: C13_13  and  C17_17 
REMARK    9  A    between atoms: C14_14  and  C15_15 
ROOT
ATOM      1  C12 ZIN A   1      18.743   0.465  11.359  0.00  0.00    -0.009 C 
ATOM      2  C13 ZIN A   1      18.871  -0.468  12.334  0.00  0.00    -0.035 C 
ENDROOT
BRANCH   1   3
ATOM      3  C11 ZIN A   1      18.560   0.045   9.952  0.00  0.00    -0.024 A 
ATOM      4  C10 ZIN A   1      19.652  -0.406   9.208  0.00  0.00     0.015 A 
ATOM      5  C9  ZIN A   1      19.477  -0.795   7.897  0.00  0.00     0.037 A 
ATOM      6  C8  ZIN A   1      18.215  -0.742   7.317  0.00  0.00     0.068 A 
ATOM      7  C30 ZIN A   1      17.127  -0.294   8.055  0.00  0.00     0.037 A 
ATOM      8  C29 ZIN A   1      17.293   0.092   9.368  0.00  0.00     0.015 A 
BRANCH   6   9
ATOM      9  O7  ZIN A   1      18.047  -1.128   6.026  0.00  0.00    -0.350 OA
BRANCH   9  10
ATOM     10  C6  ZIN A   1      19.042  -1.990   5.472  0.00  0.00     0.203 C 
BRANCH  10  11
ATOM     11  C5  ZIN A   1      18.363  -3.142   4.728  0.00  0.00     0.260 C 
BRANCH  11  12
ATOM     12  N2  ZIN A   1      18.856  -4.422   5.253  0.00  0.00    -0.077 N 
ATOM     13  C1  ZIN A   1      19.660  -4.180   6.459  0.00  0.00     0.269 C 
ATOM     14  H3  ZIN A   1      19.425  -4.876   4.554  0.00  0.00     0.279 HD
ATOM     15  C4  ZIN A   1      17.715  -5.285   5.590  0.00  0.00     0.269 C 
ENDBRANCH  11  12
ENDBRANCH  10  11
ENDBRANCH   9  10
ENDBRANCH   6   9
ENDBRANCH   1   3
BRANCH   1  16
ATOM     16  C23 ZIN A   1      18.786   1.904  11.701  0.00  0.00    -0.025 A 
ATOM     17  C28 ZIN A   1      19.992   2.604  11.632  0.00  0.00     0.012 A 
ATOM     18  C27 ZIN A   1      20.025   3.947  11.951  0.00  0.00     0.001 A 
ATOM     19  C26 ZIN A   1      18.868   4.598  12.340  0.00  0.00     0.000 A 
ATOM     20  C25 ZIN A   1      17.670   3.908  12.410  0.00  0.00     0.001 A 
ATOM     21  C24 ZIN A   1      17.622   2.568  12.087  0.00  0.00     0.012 A 
ENDBRANCH   1  16
BRANCH   2  22
ATOM     22  C14 ZIN A   1      19.058  -0.039  13.767  0.00  0.00     0.055 C 
BRANCH  22  23
ATOM     23  C15 ZIN A   1      17.797  -0.371  14.567  0.00  0.00     0.119 C 
ATOM     24 Cl16 ZIN A   1      18.217  -1.500  15.909  0.00  0.00    -0.130 Cl
ENDBRANCH  22  23
ENDBRANCH   2  22
BRANCH   2  25
ATOM     25  C17 ZIN A   1      18.828  -1.898  11.994  0.00  0.00    -0.029 A 
ATOM     26  C22 ZIN A   1      20.015  -2.630  11.886  0.00  0.00     0.012 A 
ATOM     27  C21 ZIN A   1      19.968  -3.971  11.567  0.00  0.00     0.001 A 
ATOM     28  C20 ZIN A   1      18.749  -4.591  11.354  0.00  0.00     0.000 A 
ATOM     29  C19 ZIN A   1      17.570  -3.875  11.462  0.00  0.00     0.001 A 
ATOM     30  C18 ZIN A   1      17.602  -2.533  11.777  0.00  0.00     0.012 A 
ENDBRANCH   2  25
TORSDOF 9
ENDMDL
MODEL 2
REMARK VINA RESULT:      -7.7      3.774      7.165
REMARK  9 active torsions:
REMARK  status: ('A' for Active; 'I' for Inactive)
REMARK    1  A    between atoms: N2_2  and  C5_5 
REMARK    2  A    between atoms: C5_5  and  C6_6 
REMARK    3  A    between atoms: C6_6  and  O7_7 
REMARK    4  A    between atoms: O7_7  and  C8_8 
REMARK    5  A    between atoms: C11_11  and  C12_12 
REMARK    6  A    between atoms: C12_12  and  C23_23 
REMARK    7  A    between atoms: C13_13  and  C14_14 
REMARK    8  A    between atoms: C13_13  and  C17_17 
REMARK    9  A    between atoms: C14_14  and  C15_15 
ROOT
ATOM      1  C12 ZIN A   1      18.369   0.466  10.043  0.00  0.00    -0.009 C 
ATOM      2  C13 ZIN A   1      18.361  -0.708  10.721  0.00  0.00    -0.035 C 
ENDROOT
BRANCH   1   3
ATOM      3  C11 ZIN A   1      18.492   1.744  10.779  0.00  0.00    -0.024 A 
ATOM      4  C10 ZIN A   1      19.715   2.111  11.345  0.00  0.00     0.015 A 
ATOM      5  C9  ZIN A   1      19.825   3.302  12.030  0.00  0.00     0.037 A 
ATOM      6  C8  ZIN A   1      18.723   4.138  12.157  0.00  0.00     0.068 A 
ATOM      7  C30 ZIN A   1      17.505   3.776  11.594  0.00  0.00     0.037 A 
ATOM      8  C29 ZIN A   1      17.388   2.589  10.903  0.00  0.00     0.015 A 
BRANCH   6   9
ATOM      9  O7  ZIN A   1      18.836   5.311  12.831  0.00  0.00    -0.350 OA
BRANCH   9  10
ATOM     10  C6  ZIN A   1      19.071   5.230  14.238  0.00  0.00     0.203 C 
BRANCH  10  11
ATOM     11  C5  ZIN A   1      17.734   5.132  14.973  0.00  0.00     0.260 C 
BRANCH  11  12
ATOM     12  N2  ZIN A   1      17.836   4.131  16.044  0.00  0.00    -0.077 N 
ATOM     13  C1  ZIN A   1      18.848   3.129  15.681  0.00  0.00     0.269 C 
ATOM     14  H3  ZIN A   1      16.943   3.678  16.167  0.00  0.00     0.279 HD
ATOM     15  C4  ZIN A   1      18.228   4.791  17.296  0.00  0.00     0.269 C 
ENDBRANCH  11  12
ENDBRANCH  10  11
ENDBRANCH   9  10
ENDBRANCH   6   9
ENDBRANCH   1   3
BRANCH   1  16
ATOM     16  C23 ZIN A   1      18.254   0.470   8.568  0.00  0.00    -0.025 A 
ATOM     17  C28 ZIN A   1      17.172  -0.156   7.948  0.00  0.00     0.012 A 
ATOM     18  C27 ZIN A   1      17.070  -0.148   6.572  0.00  0.00     0.001 A 
ATOM     19  C26 ZIN A   1      18.038   0.476   5.807  0.00  0.00     0.000 A 
ATOM     20  C25 ZIN A   1      19.114   1.099   6.416  0.00  0.00     0.001 A 
ATOM     21  C24 ZIN A   1      19.224   1.104   7.792  0.00  0.00     0.012 A 
ENDBRANCH   1  16
BRANCH   2  22
ATOM     22  C14 ZIN A   1      18.235  -2.009   9.973  0.00  0.00     0.055 C 
BRANCH  22  23
ATOM     23  C15 ZIN A   1      17.478  -3.022  10.833  0.00  0.00     0.119 C 
ATOM     24 Cl16 ZIN A   1      18.618  -4.294  11.409  0.00  0.00    -0.130 Cl
ENDBRANCH  22  23
ENDBRANCH   2  22
BRANCH   2  25
ATOM     25  C17 ZIN A   1      18.475  -0.711  12.187  0.00  0.00    -0.029 A 
ATOM     26  C22 ZIN A   1      17.419  -0.241  12.975  0.00  0.00     0.012 A 
ATOM     27  C21 ZIN A   1      17.532  -0.246  14.349  0.00  0.00     0.001 A 
ATOM     28  C20 ZIN A   1      18.688  -0.717  14.949  0.00  0.00     0.000 A 
ATOM     29  C19 ZIN A   1      19.735  -1.188  14.177  0.00  0.00     0.001 A 
ATOM     30  C18 ZIN A   1      19.638  -1.184  12.802  0.00  0.00     0.012 A 
ENDBRANCH   2  25
TORSDOF 9
ENDMDL
MODEL 3
REMARK VINA RESULT:      -7.6      1.179      4.728
REMARK  9 active torsions:
REMARK  status: ('A' for Active; 'I' for Inactive)
REMARK    1  A    between atoms: N2_2  and  C5_5 
REMARK    2  A    between atoms: C5_5  and  C6_6 
REMARK    3  A    between atoms: C6_6  and  O7_7 
REMARK    4  A    between atoms: O7_7  and  C8_8 
REMARK    5  A    between atoms: C11_11  and  C12_12 
REMARK    6  A    between atoms: C12_12  and  C23_23 
REMARK    7  A    between atoms: C13_13  and  C14_14 
REMARK    8  A    between atoms: C13_13  and  C17_17 
REMARK    9  A    between atoms: C14_14  and  C15_15 
ROOT
ATOM      1  C12 ZIN A   1      18.575  -0.916  10.966  0.00  0.00    -0.009 C 
ATOM      2  C13 ZIN A   1      18.607  -0.050  12.008  0.00  0.00    -0.035 C 
ENDROOT
BRANCH   1   3
ATOM      3  C11 ZIN A   1      18.562  -0.404   9.578  0.00  0.00    -0.024 A 
ATOM      4  C10 ZIN A   1      17.410  -0.526   8.798  0.00  0.00     0.015 A 
ATOM      5  C9  ZIN A   1      17.402  -0.048   7.505  0.00  0.00     0.037 A 
ATOM      6  C8  ZIN A   1      18.537   0.555   6.977  0.00  0.00     0.068 A 
ATOM      7  C30 ZIN A   1      19.684   0.678   7.751  0.00  0.00     0.037 A 
ATOM      8  C29 ZIN A   1      19.699   0.207   9.046  0.00  0.00     0.015 A 
BRANCH   6   9
ATOM      9  O7  ZIN A   1      18.524   1.026   5.704  0.00  0.00    -0.350 OA
BRANCH   9  10
ATOM     10  C6  ZIN A   1      18.240   0.085   4.667  0.00  0.00     0.203 C 
BRANCH  10  11
ATOM     11  C5  ZIN A   1      19.357  -0.959   4.607  0.00  0.00     0.260 C 
BRANCH  11  12
ATOM     12  N2  ZIN A   1      18.782  -2.272   4.283  0.00  0.00    -0.077 N 
ATOM     13  C1  ZIN A   1      19.115  -3.227   5.349  0.00  0.00     0.269 C 
ATOM     14  H3  ZIN A   1      19.162  -2.599   3.408  0.00  0.00     0.279 HD
ATOM     15  C4  ZIN A   1      17.322  -2.154   4.170  0.00  0.00     0.269 C 
ENDBRANCH  11  12
ENDBRANCH  10  11
ENDBRANCH   9  10
ENDBRANCH   6   9
ENDBRANCH   1   3
BRANCH   1  16
ATOM     16  C23 ZIN A   1      18.555  -2.375  11.215  0.00  0.00    -0.025 A 
ATOM     17  C28 ZIN A   1      19.747  -3.101  11.221  0.00  0.00     0.012 A 
ATOM     18  C27 ZIN A   1      19.721  -4.461  11.456  0.00  0.00     0.001 A 
ATOM     19  C26 ZIN A   1      18.518  -5.104  11.683  0.00  0.00     0.000 A 
ATOM     20  C25 ZIN A   1      17.333  -4.389  11.678  0.00  0.00     0.001 A 
ATOM     21  C24 ZIN A   1      17.346  -3.028  11.452  0.00  0.00     0.012 A 
ENDBRANCH   1  16
BRANCH   2  22
ATOM     22  C14 ZIN A   1      18.621  -0.573  13.421  0.00  0.00     0.055 C 
BRANCH  22  23
ATOM     23  C15 ZIN A   1      17.645   0.239  14.274  0.00  0.00     0.119 C 
ATOM     24 Cl16 ZIN A   1      17.524  -0.499  15.915  0.00  0.00    -0.130 Cl
ENDBRANCH  22  23
ENDBRANCH   2  22
BRANCH   2  25
ATOM     25  C17 ZIN A   1      18.627   1.399  11.759  0.00  0.00    -0.029 A 
ATOM     26  C22 ZIN A   1      17.471   2.053  11.320  0.00  0.00     0.012 A 
ATOM     27  C21 ZIN A   1      17.496   3.412  11.089  0.00  0.00     0.001 A 
ATOM     28  C20 ZIN A   1      18.663   4.128  11.291  0.00  0.00     0.000 A 
ATOM     29  C19 ZIN A   1      19.810   3.491  11.729  0.00  0.00     0.001 A 
ATOM     30  C18 ZIN A   1      19.801   2.131  11.960  0.00  0.00     0.012 A 
ENDBRANCH   2  25
TORSDOF 9
ENDMDL
MODEL 4
REMARK VINA RESULT:      -7.6      2.213      4.745
REMARK  9 active torsions:
REMARK  status: ('A' for Active; 'I' for Inactive)
REMARK    1  A    between atoms: N2_2  and  C5_5 
REMARK    2  A    between atoms: C5_5  and  C6_6 
REMARK    3  A    between atoms: C6_6  and  O7_7 
REMARK    4  A    between atoms: O7_7  and  C8_8 
REMARK    5  A    between atoms: C11_11  and  C12_12 
REMARK    6  A    between atoms: C12_12  and  C23_23 
REMARK    7  A    between atoms: C13_13  and  C14_14 
REMARK    8  A    between atoms: C13_13  and  C17_17 
REMARK    9  A    between atoms: C14_14  and  C15_15 
ROOT
ATOM      1  C12 ZIN A   1      18.394  -0.815  12.941  0.00  0.00    -0.009 C 
ATOM      2  C13 ZIN A   1      18.400   0.349  12.245  0.00  0.00    -0.035 C 
ENDROOT
BRANCH   1   3
ATOM      3  C11 ZIN A   1      18.453  -2.106  12.221  0.00  0.00    -0.024 A 
ATOM      4  C10 ZIN A   1      17.274  -2.741  11.824  0.00  0.00     0.015 A 
ATOM      5  C9  ZIN A   1      17.334  -3.945  11.155  0.00  0.00     0.037 A 
ATOM      6  C8  ZIN A   1      18.564  -4.527  10.876  0.00  0.00     0.068 A 
ATOM      7  C30 ZIN A   1      19.739  -3.898  11.270  0.00  0.00     0.037 A 
ATOM      8  C29 ZIN A   1      19.688  -2.691  11.934  0.00  0.00     0.015 A 
BRANCH   6   9
ATOM      9  O7  ZIN A   1      18.619  -5.712  10.215  0.00  0.00    -0.350 OA
BRANCH   9  10
ATOM     10  C6  ZIN A   1      17.651  -5.926   9.186  0.00  0.00     0.203 C 
BRANCH  10  11
ATOM     11  C5  ZIN A   1      18.312  -5.742   7.818  0.00  0.00     0.260 C 
BRANCH  11  12
ATOM     12  N2  ZIN A   1      17.688  -4.609   7.121  0.00  0.00    -0.077 N 
ATOM     13  C1  ZIN A   1      18.468  -3.391   7.373  0.00  0.00     0.269 C 
ATOM     14  H3  ZIN A   1      16.746  -4.483   7.460  0.00  0.00     0.279 HD
ATOM     15  C4  ZIN A   1      17.656  -4.881   5.677  0.00  0.00     0.269 C 
ENDBRANCH  11  12
ENDBRANCH  10  11
ENDBRANCH   9  10
ENDBRANCH   6   9
ENDBRANCH   1   3
BRANCH   1  16
ATOM     16  C23 ZIN A   1      18.329  -0.794  14.419  0.00  0.00    -0.025 A 
ATOM     17  C28 ZIN A   1      17.283  -0.132  15.064  0.00  0.00     0.012 A 
ATOM     18  C27 ZIN A   1      17.228  -0.117  16.443  0.00  0.00     0.001 A 
ATOM     19  C26 ZIN A   1      18.205  -0.755  17.185  0.00  0.00     0.000 A 
ATOM     20  C25 ZIN A   1      19.245  -1.413  16.550  0.00  0.00     0.001 A 
ATOM     21  C24 ZIN A   1      19.308  -1.440  15.172  0.00  0.00     0.012 A 
ENDBRANCH   1  16
BRANCH   2  22
ATOM     22  C14 ZIN A   1      18.340   1.664  12.978  0.00  0.00     0.055 C 
BRANCH  22  23
ATOM     23  C15 ZIN A   1      17.723   2.727  12.068  0.00  0.00     0.119 C 
ATOM     24 Cl16 ZIN A   1      19.020   3.817  11.451  0.00  0.00    -0.130 Cl
ENDBRANCH  22  23
ENDBRANCH   2  22
BRANCH   2  25
ATOM     25  C17 ZIN A   1      18.465   0.328  10.777  0.00  0.00    -0.029 A 
ATOM     26  C22 ZIN A   1      17.296   0.175  10.024  0.00  0.00     0.012 A 
ATOM     27  C21 ZIN A   1      17.363   0.156   8.647  0.00  0.00     0.001 A 
ATOM     28  C20 ZIN A   1      18.585   0.288   8.010  0.00  0.00     0.000 A 
ATOM     29  C19 ZIN A   1      19.746   0.444   8.746  0.00  0.00     0.001 A 
ATOM     30  C18 ZIN A   1      19.694   0.460  10.124  0.00  0.00     0.012 A 
ENDBRANCH   2  25
TORSDOF 9
ENDMDL
MODEL 5
REMARK VINA RESULT:      -7.6      2.454      4.628
REMARK  9 active torsions:
REMARK  status: ('A' for Active; 'I' for Inactive)
REMARK    1  A    between atoms: N2_2  and  C5_5 
REMARK    2  A    between atoms: C5_5  and  C6_6 
REMARK    3  A    between atoms: C6_6  and  O7_7 
REMARK    4  A    between atoms: O7_7  and  C8_8 
REMARK    5  A    between atoms: C11_11  and  C12_12 
REMARK    6  A    between atoms: C12_12  and  C23_23 
REMARK    7  A    between atoms: C13_13  and  C14_14 
REMARK    8  A    between atoms: C13_13  and  C17_17 
REMARK    9  A    between atoms: C14_14  and  C15_15 
ROOT
ATOM      1  C12 ZIN A   1      18.446  -0.879  12.726  0.00  0.00    -0.009 C 
ATOM      2  C13 ZIN A   1      18.469   0.277  12.019  0.00  0.00    -0.035 C 
ENDROOT
BRANCH   1   3
ATOM      3  C11 ZIN A   1      18.461  -2.179  12.018  0.00  0.00    -0.024 A 
ATOM      4  C10 ZIN A   1      19.675  -2.758  11.644  0.00  0.00     0.015 A 
ATOM      5  C9  ZIN A   1      19.684  -3.968  10.984  0.00  0.00     0.037 A 
ATOM      6  C8  ZIN A   1      18.488  -4.612  10.691  0.00  0.00     0.068 A 
ATOM      7  C30 ZIN A   1      17.279  -4.038  11.062  0.00  0.00     0.037 A 
ATOM      8  C29 ZIN A   1      17.261  -2.831  11.727  0.00  0.00     0.015 A 
BRANCH   6   9
ATOM      9  O7  ZIN A   1      18.502  -5.805  10.042  0.00  0.00    -0.350 OA
BRANCH   9  10
ATOM     10  C6  ZIN A   1      18.440  -5.767   8.615  0.00  0.00     0.203 C 
BRANCH  10  11
ATOM     11  C5  ZIN A   1      17.253  -6.604   8.134  0.00  0.00     0.260 C 
BRANCH  11  12
ATOM     12  N2  ZIN A   1      16.199  -5.713   7.630  0.00  0.00    -0.077 N 
ATOM     13  C1  ZIN A   1      15.881  -6.070   6.241  0.00  0.00     0.269 C 
ATOM     14  H3  ZIN A   1      16.520  -4.757   7.666  0.00  0.00     0.279 HD
ATOM     15  C4  ZIN A   1      14.996  -5.858   8.461  0.00  0.00     0.269 C 
ENDBRANCH  11  12
ENDBRANCH  10  11
ENDBRANCH   9  10
ENDBRANCH   6   9
ENDBRANCH   1   3
BRANCH   1  16
ATOM     16  C23 ZIN A   1      18.406  -0.843  14.204  0.00  0.00    -0.025 A 
ATOM     17  C28 ZIN A   1      19.423  -1.444  14.947  0.00  0.00     0.012 A 
ATOM     18  C27 ZIN A   1      19.380  -1.406  16.326  0.00  0.00     0.001 A 
ATOM     19  C26 ZIN A   1      18.332  -0.776  16.972  0.00  0.00     0.000 A 
ATOM     20  C25 ZIN A   1      17.320  -0.178  16.240  0.00  0.00     0.001 A 
ATOM     21  C24 ZIN A   1      17.354  -0.204  14.861  0.00  0.00     0.012 A 
ENDBRANCH   1  16
BRANCH   2  22
ATOM     22  C14 ZIN A   1      18.454   1.601  12.740  0.00  0.00     0.055 C 
BRANCH  22  23
ATOM     23  C15 ZIN A   1      17.599   2.598  11.957  0.00  0.00     0.119 C 
ATOM     24 Cl16 ZIN A   1      18.672   3.757  11.088  0.00  0.00    -0.130 Cl
ENDBRANCH  22  23
ENDBRANCH   2  22
BRANCH   2  25
ATOM     25  C17 ZIN A   1      18.509   0.241  10.550  0.00  0.00    -0.029 A 
ATOM     26  C22 ZIN A   1      19.724   0.400   9.875  0.00  0.00     0.012 A 
ATOM     27  C21 ZIN A   1      19.754   0.365   8.497  0.00  0.00     0.001 A 
ATOM     28  C20 ZIN A   1      18.585   0.173   7.782  0.00  0.00     0.000 A 
ATOM     29  C19 ZIN A   1      17.379   0.011   8.441  0.00  0.00     0.001 A 
ATOM     30  C18 ZIN A   1      17.333   0.048   9.819  0.00  0.00     0.012 A 
ENDBRANCH   2  25
TORSDOF 9
ENDMDL
MODEL 6
REMARK VINA RESULT:      -7.5      4.330      8.596
REMARK  9 active torsions:
REMARK  status: ('A' for Active; 'I' for Inactive)
REMARK    1  A    between atoms: N2_2  and  C5_5 
REMARK    2  A    between atoms: C5_5  and  C6_6 
REMARK    3  A    between atoms: C6_6  and  O7_7 
REMARK    4  A    between atoms: O7_7  and  C8_8 
REMARK    5  A    between atoms: C11_11  and  C12_12 
REMARK    6  A    between atoms: C12_12  and  C23_23 
REMARK    7  A    between atoms: C13_13  and  C14_14 
REMARK    8  A    between atoms: C13_13  and  C17_17 
REMARK    9  A    between atoms: C14_14  and  C15_15 
ROOT
ATOM      1  C12 ZIN A   1      18.624  -1.110  11.727  0.00  0.00    -0.009 C 
ATOM      2  C13 ZIN A   1      18.781  -0.238  10.702  0.00  0.00    -0.035 C 
ENDROOT
BRANCH   1   3
ATOM      3  C11 ZIN A   1      18.480  -0.607  13.111  0.00  0.00    -0.024 A 
ATOM      4  C10 ZIN A   1      17.353   0.134  13.473  0.00  0.00     0.015 A 
ATOM      5  C9  ZIN A   1      17.223   0.602  14.763  0.00  0.00     0.037 A 
ATOM      6  C8  ZIN A   1      18.211   0.337  15.703  0.00  0.00     0.068 A 
ATOM      7  C30 ZIN A   1      19.333  -0.400  15.347  0.00  0.00     0.037 A 
ATOM      8  C29 ZIN A   1      19.468  -0.876  14.060  0.00  0.00     0.015 A 
BRANCH   6   9
ATOM      9  O7  ZIN A   1      18.078   0.799  16.973  0.00  0.00    -0.350 OA
BRANCH   9  10
ATOM     10  C6  ZIN A   1      19.176   1.538  17.513  0.00  0.00     0.203 C 
BRANCH  10  11
ATOM     11  C5  ZIN A   1      18.645   2.652  18.416  0.00  0.00     0.260 C 
BRANCH  11  12
ATOM     12  N2  ZIN A   1      19.040   3.957  17.869  0.00  0.00    -0.077 N 
ATOM     13  C1  ZIN A   1      19.760   3.758  16.604  0.00  0.00     0.269 C 
ATOM     14  H3  ZIN A   1      19.640   4.430  18.527  0.00  0.00     0.279 HD
ATOM     15  C4  ZIN A   1      17.841   4.770  17.627  0.00  0.00     0.269 C 
ENDBRANCH  11  12
ENDBRANCH  10  11
ENDBRANCH   9  10
ENDBRANCH   6   9
ENDBRANCH   1   3
BRANCH   1  16
ATOM     16  C23 ZIN A   1      18.597  -2.566  11.463  0.00  0.00    -0.025 A 
ATOM     17  C28 ZIN A   1      17.377  -3.236  11.359  0.00  0.00     0.012 A 
ATOM     18  C27 ZIN A   1      17.358  -4.594  11.112  0.00  0.00     0.001 A 
ATOM     19  C26 ZIN A   1      18.545  -5.291  10.969  0.00  0.00     0.000 A 
ATOM     20  C25 ZIN A   1      19.757  -4.631  11.072  0.00  0.00     0.001 A 
ATOM     21  C24 ZIN A   1      19.790  -3.273  11.312  0.00  0.00     0.012 A 
ENDBRANCH   1  16
BRANCH   2  22
ATOM     22  C14 ZIN A   1      18.928  -0.751   9.292  0.00  0.00     0.055 C 
BRANCH  22  23
ATOM     23  C15 ZIN A   1      17.591  -0.622   8.561  0.00  0.00     0.119 C 
ATOM     24 Cl16 ZIN A   1      17.789   0.461   7.133  0.00  0.00    -0.130 Cl
ENDBRANCH  22  23
ENDBRANCH   2  22
BRANCH   2  25
ATOM     25  C17 ZIN A   1      18.808   1.208  10.964  0.00  0.00    -0.029 A 
ATOM     26  C22 ZIN A   1      17.689   1.997  10.674  0.00  0.00     0.012 A 
ATOM     27  C21 ZIN A   1      17.722   3.353  10.922  0.00  0.00     0.001 A 
ATOM     28  C20 ZIN A   1      18.859   3.933  11.458  0.00  0.00     0.000 A 
ATOM     29  C19 ZIN A   1      19.968   3.161  11.752  0.00  0.00     0.001 A 
ATOM     30  C18 ZIN A   1      19.952   1.804  11.504  0.00  0.00     0.012 A 
ENDBRANCH   2  25
TORSDOF 9
ENDMDL
MODEL 7
REMARK VINA RESULT:      -7.3      4.346      8.457
REMARK  9 active torsions:
REMARK  status: ('A' for Active; 'I' for Inactive)
REMARK    1  A    between atoms: N2_2  and  C5_5 
REMARK    2  A    between atoms: C5_5  and  C6_6 
REMARK    3  A    between atoms: C6_6  and  O7_7 
REMARK    4  A    between atoms: O7_7  and  C8_8 
REMARK    5  A    between atoms: C11_11  and  C12_12 
REMARK    6  A    between atoms: C12_12  and  C23_23 
REMARK    7  A    between atoms: C13_13  and  C14_14 
REMARK    8  A    between atoms: C13_13  and  C17_17 
REMARK    9  A    between atoms: C14_14  and  C15_15 
ROOT
ATOM      1  C12 ZIN A   1      18.401  -1.635  11.354  0.00  0.00    -0.009 C 
ATOM      2  C13 ZIN A   1      18.427  -0.707  10.367  0.00  0.00    -0.035 C 
ENDROOT
BRANCH   1   3
ATOM      3  C11 ZIN A   1      18.532  -1.216  12.767  0.00  0.00    -0.024 A 
ATOM      4  C10 ZIN A   1      19.653  -1.593  13.509  0.00  0.00     0.015 A 
ATOM      5  C9  ZIN A   1      19.770  -1.202  14.825  0.00  0.00     0.037 A 
ATOM      6  C8  ZIN A   1      18.776  -0.431  15.414  0.00  0.00     0.068 A 
ATOM      7  C30 ZIN A   1      17.659  -0.054  14.680  0.00  0.00     0.037 A 
ATOM      8  C29 ZIN A   1      17.536  -0.437  13.361  0.00  0.00     0.015 A 
BRANCH   6   9
ATOM      9  O7  ZIN A   1      18.896  -0.046  16.711  0.00  0.00    -0.350 OA
BRANCH   9  10
ATOM     10  C6  ZIN A   1      18.358   1.231  17.060  0.00  0.00     0.203 C 
BRANCH  10  11
ATOM     11  C5  ZIN A   1      18.985   1.707  18.372  0.00  0.00     0.260 C 
BRANCH  11  12
ATOM     12  N2  ZIN A   1      19.189   3.161  18.318  0.00  0.00    -0.077 N 
ATOM     13  C1  ZIN A   1      19.436   3.569  16.929  0.00  0.00     0.269 C 
ATOM     14  H3  ZIN A   1      19.983   3.411  18.889  0.00  0.00     0.279 HD
ATOM     15  C4  ZIN A   1      17.989   3.842  18.823  0.00  0.00     0.269 C 
ENDBRANCH  11  12
ENDBRANCH  10  11
ENDBRANCH   9  10
ENDBRANCH   6   9
ENDBRANCH   1   3
BRANCH   1  16
ATOM     16  C23 ZIN A   1      18.241  -3.067  11.020  0.00  0.00    -0.025 A 
ATOM     17  C28 ZIN A   1      19.293  -3.771  10.433  0.00  0.00     0.012 A 
ATOM     18  C27 ZIN A   1      19.138  -5.108  10.125  0.00  0.00     0.001 A 
ATOM     19  C26 ZIN A   1      17.942  -5.749  10.394  0.00  0.00     0.000 A 
ATOM     20  C25 ZIN A   1      16.895  -5.055  10.976  0.00  0.00     0.001 A 
ATOM     21  C24 ZIN A   1      17.039  -3.721  11.295  0.00  0.00     0.012 A 
ENDBRANCH   1  16
BRANCH   2  22
ATOM     22  C14 ZIN A   1      18.294  -1.134   8.928  0.00  0.00     0.055 C 
BRANCH  22  23
ATOM     23  C15 ZIN A   1      17.458  -0.105   8.165  0.00  0.00     0.119 C 
ATOM     24 Cl16 ZIN A   1      18.541   0.909   7.140  0.00  0.00    -0.130 Cl
ENDBRANCH  22  23
ENDBRANCH   2  22
BRANCH   2  25
ATOM     25  C17 ZIN A   1      18.586   0.717  10.699  0.00  0.00    -0.029 A 
ATOM     26  C22 ZIN A   1      19.845   1.221  11.043  0.00  0.00     0.012 A 
ATOM     27  C21 ZIN A   1      19.987   2.557  11.354  0.00  0.00     0.001 A 
ATOM     28  C20 ZIN A   1      18.888   3.398  11.326  0.00  0.00     0.000 A 
ATOM     29  C19 ZIN A   1      17.640   2.908  10.983  0.00  0.00     0.001 A 
ATOM     30  C18 ZIN A   1      17.481   1.573  10.674  0.00  0.00     0.012 A 
ENDBRANCH   2  25
TORSDOF 9
ENDMDL
MODEL 8
REMARK VINA RESULT:      -7.2      2.696      5.284
REMARK  9 active torsions:
REMARK  status: ('A' for Active; 'I' for Inactive)
REMARK    1  A    between atoms: N2_2  and  C5_5 
REMARK    2  A    between atoms: C5_5  and  C6_6 
REMARK    3  A    between atoms: C6_6  and  O7_7 
REMARK    4  A    between atoms: O7_7  and  C8_8 
REMARK    5  A    between atoms: C11_11  and  C12_12 
REMARK    6  A    between atoms: C12_12  and  C23_23 
REMARK    7  A    between atoms: C13_13  and  C14_14 
REMARK    8  A    between atoms: C13_13  and  C17_17 
REMARK    9  A    between atoms: C14_14  and  C15_15 
ROOT
ATOM      1  C12 ZIN A   1      18.306   1.168  14.525  0.00  0.00    -0.009 C 
ATOM      2  C13 ZIN A   1      18.339   2.453  14.095  0.00  0.00    -0.035 C 
ENDROOT
BRANCH   1   3
ATOM      3  C11 ZIN A   1      18.338   0.060  13.546  0.00  0.00    -0.024 A 
ATOM      4  C10 ZIN A   1      17.254  -0.150  12.690  0.00  0.00     0.015 A 
ATOM      5  C9  ZIN A   1      17.288  -1.185  11.780  0.00  0.00     0.037 A 
ATOM      6  C8  ZIN A   1      18.397  -2.018  11.712  0.00  0.00     0.068 A 
ATOM      7  C30 ZIN A   1      19.477  -1.812  12.561  0.00  0.00     0.037 A 
ATOM      8  C29 ZIN A   1      19.454  -0.776  13.471  0.00  0.00     0.015 A 
BRANCH   6   9
ATOM      9  O7  ZIN A   1      18.427  -3.035  10.813  0.00  0.00    -0.350 OA
BRANCH   9  10
ATOM     10  C6  ZIN A   1      17.978  -2.742   9.488  0.00  0.00     0.203 C 
BRANCH  10  11
ATOM     11  C5  ZIN A   1      18.667  -3.683   8.497  0.00  0.00     0.260 C 
BRANCH  11  12
ATOM     12  N2  ZIN A   1      19.649  -2.928   7.707  0.00  0.00    -0.077 N 
ATOM     13  C1  ZIN A   1      19.677  -3.450   6.334  0.00  0.00     0.269 C 
ATOM     14  H3  ZIN A   1      20.563  -3.027   8.123  0.00  0.00     0.279 HD
ATOM     15  C4  ZIN A   1      19.272  -1.508   7.684  0.00  0.00     0.269 C 
ENDBRANCH  11  12
ENDBRANCH  10  11
ENDBRANCH   9  10
ENDBRANCH   6   9
ENDBRANCH   1   3
BRANCH   1  16
ATOM     16  C23 ZIN A   1      18.240   0.873  15.974  0.00  0.00    -0.025 A 
ATOM     17  C28 ZIN A   1      19.308   1.209  16.806  0.00  0.00     0.012 A 
ATOM     18  C27 ZIN A   1      19.239   0.932  18.157  0.00  0.00     0.001 A 
ATOM     19  C26 ZIN A   1      18.116   0.322  18.685  0.00  0.00     0.000 A 
ATOM     20  C25 ZIN A   1      17.054  -0.014  17.863  0.00  0.00     0.001 A 
ATOM     21  C24 ZIN A   1      17.107   0.263  16.513  0.00  0.00     0.012 A 
ENDBRANCH   1  16
BRANCH   2  22
ATOM     22  C14 ZIN A   1      18.306   3.582  15.093  0.00  0.00     0.055 C 
BRANCH  22  23
ATOM     23  C15 ZIN A   1      19.638   4.334  15.056  0.00  0.00     0.119 C 
ATOM     24 Cl16 ZIN A   1      19.507   5.733  13.926  0.00  0.00    -0.130 Cl
ENDBRANCH  22  23
ENDBRANCH   2  22
BRANCH   2  25
ATOM     25  C17 ZIN A   1      18.404   2.746  12.656  0.00  0.00    -0.029 A 
ATOM     26  C22 ZIN A   1      19.545   2.406  11.921  0.00  0.00     0.012 A 
ATOM     27  C21 ZIN A   1      19.600   2.683  10.571  0.00  0.00     0.001 A 
ATOM     28  C20 ZIN A   1      18.529   3.297   9.944  0.00  0.00     0.000 A 
ATOM     29  C19 ZIN A   1      17.396   3.634  10.663  0.00  0.00     0.001 A 
ATOM     30  C18 ZIN A   1      17.328   3.366  12.014  0.00  0.00     0.012 A 
ENDBRANCH   2  25
TORSDOF 9
ENDMDL
MODEL 9
REMARK VINA RESULT:      -6.9      3.765      7.006
REMARK  9 active torsions:
REMARK  status: ('A' for Active; 'I' for Inactive)
REMARK    1  A    between atoms: N2_2  and  C5_5 
REMARK    2  A    between atoms: C5_5  and  C6_6 
REMARK    3  A    between atoms: C6_6  and  O7_7 
REMARK    4  A    between atoms: O7_7  and  C8_8 
REMARK    5  A    between atoms: C11_11  and  C12_12 
REMARK    6  A    between atoms: C12_12  and  C23_23 
REMARK    7  A    between atoms: C13_13  and  C14_14 
REMARK    8  A    between atoms: C13_13  and  C17_17 
REMARK    9  A    between atoms: C14_14  and  C15_15 
ROOT
ATOM      1  C12 ZIN A   1      18.362  -1.954   8.288  0.00  0.00    -0.009 C 
ATOM      2  C13 ZIN A   1      18.124  -3.288   8.251  0.00  0.00    -0.035 C 
ENDROOT
BRANCH   1   3
ATOM      3  C11 ZIN A   1      18.486  -1.261   9.589  0.00  0.00    -0.024 A 
ATOM      4  C10 ZIN A   1      19.740  -0.849  10.046  0.00  0.00     0.015 A 
ATOM      5  C9  ZIN A   1      19.851  -0.205  11.259  0.00  0.00     0.037 A 
ATOM      6  C8  ZIN A   1      18.719   0.038  12.026  0.00  0.00     0.068 A 
ATOM      7  C30 ZIN A   1      17.470  -0.370  11.574  0.00  0.00     0.037 A 
ATOM      8  C29 ZIN A   1      17.350  -1.011  10.360  0.00  0.00     0.015 A 
BRANCH   6   9
ATOM      9  O7  ZIN A   1      18.833   0.675  13.220  0.00  0.00    -0.350 OA
BRANCH   9  10
ATOM     10  C6  ZIN A   1      18.177   0.077  14.340  0.00  0.00     0.203 C 
BRANCH  10  11
ATOM     11  C5  ZIN A   1      18.935   0.428  15.622  0.00  0.00     0.260 C 
BRANCH  11  12
ATOM     12  N2  ZIN A   1      18.656  -0.586  16.648  0.00  0.00    -0.077 N 
ATOM     13  C1  ZIN A   1      19.225  -0.152  17.931  0.00  0.00     0.269 C 
ATOM     14  H3  ZIN A   1      19.070  -1.464  16.375  0.00  0.00     0.279 HD
ATOM     15  C4  ZIN A   1      17.202  -0.753  16.789  0.00  0.00     0.269 C 
ENDBRANCH  11  12
ENDBRANCH  10  11
ENDBRANCH   9  10
ENDBRANCH   6   9
ENDBRANCH   1   3
BRANCH   1  16
ATOM     16  C23 ZIN A   1      18.499  -1.192   7.027  0.00  0.00    -0.025 A 
ATOM     17  C28 ZIN A   1      19.494  -1.529   6.109  0.00  0.00     0.012 A 
ATOM     18  C27 ZIN A   1      19.616  -0.815   4.935  0.00  0.00     0.001 A 
ATOM     19  C26 ZIN A   1      18.755   0.235   4.667  0.00  0.00     0.000 A 
ATOM     20  C25 ZIN A   1      17.766   0.574   5.574  0.00  0.00     0.001 A 
ATOM     21  C24 ZIN A   1      17.630  -0.136   6.749  0.00  0.00     0.012 A 
ENDBRANCH   1  16
BRANCH   2  22
ATOM     22  C14 ZIN A   1      17.997  -3.995   6.926  0.00  0.00     0.055 C 
BRANCH  22  23
ATOM     23  C15 ZIN A   1      18.888  -5.238   6.924  0.00  0.00     0.119 C 
ATOM     24 Cl16 ZIN A   1      20.618  -4.738   7.025  0.00  0.00    -0.130 Cl
ENDBRANCH  22  23
ENDBRANCH   2  22
BRANCH   2  25
ATOM     25  C17 ZIN A   1      17.987  -4.046   9.504  0.00  0.00    -0.029 A 
ATOM     26  C22 ZIN A   1      16.748  -4.580   9.872  0.00  0.00     0.012 A 
ATOM     27  C21 ZIN A   1      16.627  -5.289  11.048  0.00  0.00     0.001 A 
ATOM     28  C20 ZIN A   1      17.730  -5.473  11.864  0.00  0.00     0.000 A 
ATOM     29  C19 ZIN A   1      18.961  -4.952  11.506  0.00  0.00     0.001 A 
ATOM     30  C18 ZIN A   1      19.096  -4.236  10.335  0.00  0.00     0.012 A 
ENDBRANCH   2  25
TORSDOF 9
ENDMDL
