MODEL 1
REMARK VINA RESULT:      -6.8      0.000      0.000
REMARK  6 active torsions:
REMARK  status: ('A' for Active; 'I' for Inactive)
REMARK    1  A    between atoms: N2_2  and  C4_4 
REMARK    2  A    between atoms: C4_4  and  C5_5 
REMARK    3  A    between atoms: C5_5  and  O6_6 
REMARK    4  A    between atoms: O6_6  and  C7_7 
REMARK    5  A    between atoms: C12_12  and  C13_13 
REMARK    6  A    between atoms: C13_13  and  C14_14 
ROOT
ATOM      1  C7  ZIN A   1      18.129   3.322  12.196  0.00  0.00     0.075 A 
ATOM      2  C8  ZIN A   1      17.182   4.185  12.727  0.00  0.00     0.037 A 
ATOM      3  C9  ZIN A   1      16.571   5.123  11.916  0.00  0.00     0.003 A 
ATOM      4  C10 ZIN A   1      16.903   5.199  10.576  0.00  0.00     0.001 A 
ATOM      5  C11 ZIN A   1      17.846   4.340  10.044  0.00  0.00     0.010 A 
ATOM      6  C12 ZIN A   1      18.464   3.405  10.852  0.00  0.00    -0.021 A 
ENDROOT
BRANCH   6   7
ATOM      7  C13 ZIN A   1      19.493   2.469  10.272  0.00  0.00     0.080 C 
BRANCH   7   8
ATOM      8  C14 ZIN A   1      18.849   1.606   9.217  0.00  0.00    -0.054 A 
ATOM      9  C19 ZIN A   1      17.860   0.708   9.568  0.00  0.00     0.007 A 
ATOM     10  C18 ZIN A   1      17.267  -0.081   8.600  0.00  0.00     0.001 A 
ATOM     11  C17 ZIN A   1      17.672   0.022   7.282  0.00  0.00     0.000 A 
ATOM     12  C16 ZIN A   1      18.665   0.916   6.932  0.00  0.00     0.001 A 
ATOM     13  C15 ZIN A   1      19.255   1.708   7.899  0.00  0.00     0.007 A 
ENDBRANCH   7   8
ENDBRANCH   6   7
BRANCH   1  14
ATOM     14  O6  ZIN A   1      18.732   2.400  12.992  0.00  0.00    -0.349 OA
BRANCH  14  15
ATOM     15  C5  ZIN A   1      17.959   1.256  13.361  0.00  0.00     0.206 C 
BRANCH  15  16
ATOM     16  C4  ZIN A   1      17.909   1.146  14.885  0.00  0.00     0.297 C 
BRANCH  16  17
ATOM     17  N2  ZIN A   1      17.619  -0.244  15.266  0.00  0.00     0.082 N 
ATOM     18  C1  ZIN A   1      18.785  -1.107  15.036  0.00  0.00     0.309 C 
ATOM     19  C3  ZIN A   1      17.172  -0.324  16.663  0.00  0.00     0.309 C 
ENDBRANCH  16  17
ENDBRANCH  15  16
ENDBRANCH  14  15
ENDBRANCH   1  14
TORSDOF 6
ENDMDL
MODEL 2
REMARK VINA RESULT:      -6.7      1.913      4.962
REMARK  6 active torsions:
REMARK  status: ('A' for Active; 'I' for Inactive)
REMARK    1  A    between atoms: N2_2  and  C4_4 
REMARK    2  A    between atoms: C4_4  and  C5_5 
REMARK    3  A    between atoms: C5_5  and  O6_6 
REMARK    4  A    between atoms: O6_6  and  C7_7 
REMARK    5  A    between atoms: C12_12  and  C13_13 
REMARK    6  A    between atoms: C13_13  and  C14_14 
ROOT
ATOM      1  C7  ZIN A   1      17.749   2.180  10.315  0.00  0.00     0.075 A 
ATOM      2  C8  ZIN A   1      18.614   2.798   9.424  0.00  0.00     0.037 A 
ATOM      3  C9  ZIN A   1      19.331   2.038   8.519  0.00  0.00     0.003 A 
ATOM      4  C10 ZIN A   1      19.187   0.664   8.503  0.00  0.00     0.001 A 
ATOM      5  C11 ZIN A   1      18.325   0.046   9.390  0.00  0.00     0.010 A 
ATOM      6  C12 ZIN A   1      17.611   0.799  10.300  0.00  0.00    -0.021 A 
ENDROOT
BRANCH   6   7
ATOM      7  C13 ZIN A   1      16.673   0.125  11.267  0.00  0.00     0.080 C 
BRANCH   7   8
ATOM      8  C14 ZIN A   1      17.440  -0.323  12.484  0.00  0.00    -0.054 A 
ATOM      9  C19 ZIN A   1      17.487   0.482  13.606  0.00  0.00     0.007 A 
ATOM     10  C18 ZIN A   1      18.188   0.069  14.724  0.00  0.00     0.001 A 
ATOM     11  C17 ZIN A   1      18.851  -1.144  14.715  0.00  0.00     0.000 A 
ATOM     12  C16 ZIN A   1      18.808  -1.947  13.590  0.00  0.00     0.001 A 
ATOM     13  C15 ZIN A   1      18.104  -1.536  12.475  0.00  0.00     0.007 A 
ENDBRANCH   7   8
ENDBRANCH   6   7
BRANCH   1  14
ATOM     14  O6  ZIN A   1      17.043   2.925  11.207  0.00  0.00    -0.349 OA
BRANCH  14  15
ATOM     15  C5  ZIN A   1      17.126   4.345  11.074  0.00  0.00     0.206 C 
BRANCH  15  16
ATOM     16  C4  ZIN A   1      17.196   4.983  12.462  0.00  0.00     0.297 C 
BRANCH  16  17
ATOM     17  N2  ZIN A   1      18.192   4.275  13.277  0.00  0.00     0.082 N 
ATOM     18  C1  ZIN A   1      19.542   4.800  13.032  0.00  0.00     0.309 C 
ATOM     19  C3  ZIN A   1      17.851   4.344  14.704  0.00  0.00     0.309 C 
ENDBRANCH  16  17
ENDBRANCH  15  16
ENDBRANCH  14  15
ENDBRANCH   1  14
TORSDOF 6
ENDMDL
MODEL 3
REMARK VINA RESULT:      -6.7      1.718      4.466
REMARK  6 active torsions:
REMARK  status: ('A' for Active; 'I' for Inactive)
REMARK    1  A    between atoms: N2_2  and  C4_4 
REMARK    2  A    between atoms: C4_4  and  C5_5 
REMARK    3  A    between atoms: C5_5  and  O6_6 
REMARK    4  A    between atoms: O6_6  and  C7_7 
REMARK    5  A    between atoms: C12_12  and  C13_13 
REMARK    6  A    between atoms: C13_13  and  C14_14 
ROOT
ATOM      1  C7  ZIN A   1      17.684   0.350   9.107  0.00  0.00     0.075 A 
ATOM      2  C8  ZIN A   1      17.171  -0.214   7.948  0.00  0.00     0.037 A 
ATOM      3  C9  ZIN A   1      17.712   0.119   6.721  0.00  0.00     0.003 A 
ATOM      4  C10 ZIN A   1      18.763   1.014   6.648  0.00  0.00     0.001 A 
ATOM      5  C11 ZIN A   1      19.276   1.577   7.801  0.00  0.00     0.010 A 
ATOM      6  C12 ZIN A   1      18.736   1.252   9.030  0.00  0.00    -0.021 A 
ENDROOT
BRANCH   6   7
ATOM      7  C13 ZIN A   1      19.296   1.867  10.287  0.00  0.00     0.080 C 
BRANCH   7   8
ATOM      8  C14 ZIN A   1      18.431   3.026  10.708  0.00  0.00    -0.054 A 
ATOM      9  C19 ZIN A   1      17.935   3.086  11.997  0.00  0.00     0.007 A 
ATOM     10  C18 ZIN A   1      17.144   4.152  12.385  0.00  0.00     0.001 A 
ATOM     11  C17 ZIN A   1      16.842   5.152  11.480  0.00  0.00     0.000 A 
ATOM     12  C16 ZIN A   1      17.333   5.090  10.190  0.00  0.00     0.001 A 
ATOM     13  C15 ZIN A   1      18.127   4.027   9.804  0.00  0.00     0.007 A 
ENDBRANCH   7   8
ENDBRANCH   6   7
BRANCH   1  14
ATOM     14  O6  ZIN A   1      17.154   0.025  10.315  0.00  0.00    -0.349 OA
BRANCH  14  15
ATOM     15  C5  ZIN A   1      17.596  -1.197  10.910  0.00  0.00     0.206 C 
BRANCH  15  16
ATOM     16  C4  ZIN A   1      17.569  -1.062  12.433  0.00  0.00     0.297 C 
BRANCH  16  17
ATOM     17  N2  ZIN A   1      18.523  -2.009  13.025  0.00  0.00     0.082 N 
ATOM     18  C1  ZIN A   1      19.331  -2.662  11.987  0.00  0.00     0.309 C 
ATOM     19  C3  ZIN A   1      19.379  -1.344  14.016  0.00  0.00     0.309 C 
ENDBRANCH  16  17
ENDBRANCH  15  16
ENDBRANCH  14  15
ENDBRANCH   1  14
TORSDOF 6
ENDMDL
MODEL 4
REMARK VINA RESULT:      -6.6      3.084      5.602
REMARK  6 active torsions:
REMARK  status: ('A' for Active; 'I' for Inactive)
REMARK    1  A    between atoms: N2_2  and  C4_4 
REMARK    2  A    between atoms: C4_4  and  C5_5 
REMARK    3  A    between atoms: C5_5  and  O6_6 
REMARK    4  A    between atoms: O6_6  and  C7_7 
REMARK    5  A    between atoms: C12_12  and  C13_13 
REMARK    6  A    between atoms: C13_13  and  C14_14 
ROOT
ATOM      1  C7  ZIN A   1      17.985   0.275  13.866  0.00  0.00     0.075 A 
ATOM      2  C8  ZIN A   1      17.449   0.548  15.116  0.00  0.00     0.037 A 
ATOM      3  C9  ZIN A   1      17.838  -0.197  16.212  0.00  0.00     0.003 A 
ATOM      4  C10 ZIN A   1      18.763  -1.214  16.064  0.00  0.00     0.001 A 
ATOM      5  C11 ZIN A   1      19.300  -1.487  14.820  0.00  0.00     0.010 A 
ATOM      6  C12 ZIN A   1      18.909  -0.750  13.720  0.00  0.00    -0.021 A 
ENDROOT
BRANCH   6   7
ATOM      7  C13 ZIN A   1      19.494  -1.049  12.364  0.00  0.00     0.080 C 
BRANCH   7   8
ATOM      8  C14 ZIN A   1      19.048  -2.416  11.913  0.00  0.00    -0.054 A 
ATOM      9  C19 ZIN A   1      17.703  -2.681  11.739  0.00  0.00     0.007 A 
ATOM     10  C18 ZIN A   1      17.294  -3.934  11.322  0.00  0.00     0.001 A 
ATOM     11  C17 ZIN A   1      18.230  -4.924  11.089  0.00  0.00     0.000 A 
ATOM     12  C16 ZIN A   1      19.575  -4.661  11.269  0.00  0.00     0.001 A 
ATOM     13  C15 ZIN A   1      19.984  -3.407  11.681  0.00  0.00     0.007 A 
ENDBRANCH   7   8
ENDBRANCH   6   7
BRANCH   1  14
ATOM     14  O6  ZIN A   1      17.602   1.006  12.786  0.00  0.00    -0.349 OA
BRANCH  14  15
ATOM     15  C5  ZIN A   1      17.933   2.397  12.794  0.00  0.00     0.206 C 
BRANCH  15  16
ATOM     16  C4  ZIN A   1      19.164   2.632  11.917  0.00  0.00     0.297 C 
BRANCH  16  17
ATOM     17  N2  ZIN A   1      18.766   3.345  10.695  0.00  0.00     0.082 N 
ATOM     18  C1  ZIN A   1      18.805   2.453   9.528  0.00  0.00     0.309 C 
ATOM     19  C3  ZIN A   1      17.437   3.952  10.849  0.00  0.00     0.309 C 
ENDBRANCH  16  17
ENDBRANCH  15  16
ENDBRANCH  14  15
ENDBRANCH   1  14
TORSDOF 6
ENDMDL
MODEL 5
REMARK VINA RESULT:      -6.6      3.158      5.007
REMARK  6 active torsions:
REMARK  status: ('A' for Active; 'I' for Inactive)
REMARK    1  A    between atoms: N2_2  and  C4_4 
REMARK    2  A    between atoms: C4_4  and  C5_5 
REMARK    3  A    between atoms: C5_5  and  O6_6 
REMARK    4  A    between atoms: O6_6  and  C7_7 
REMARK    5  A    between atoms: C12_12  and  C13_13 
REMARK    6  A    between atoms: C13_13  and  C14_14 
ROOT
ATOM      1  C7  ZIN A   1      17.877  -1.280  12.457  0.00  0.00     0.075 A 
ATOM      2  C8  ZIN A   1      18.740  -1.826  13.395  0.00  0.00     0.037 A 
ATOM      3  C9  ZIN A   1      19.584  -1.005  14.118  0.00  0.00     0.003 A 
ATOM      4  C10 ZIN A   1      19.568   0.361  13.906  0.00  0.00     0.001 A 
ATOM      5  C11 ZIN A   1      18.708   0.909  12.972  0.00  0.00     0.010 A 
ATOM      6  C12 ZIN A   1      17.867   0.091  12.243  0.00  0.00    -0.021 A 
ENDROOT
BRANCH   6   7
ATOM      7  C13 ZIN A   1      16.930   0.689  11.225  0.00  0.00     0.080 C 
BRANCH   7   8
ATOM      8  C14 ZIN A   1      17.661   0.881   9.921  0.00  0.00    -0.054 A 
ATOM      9  C19 ZIN A   1      18.511   1.958   9.757  0.00  0.00     0.007 A 
ATOM     10  C18 ZIN A   1      19.184   2.132   8.562  0.00  0.00     0.001 A 
ATOM     11  C17 ZIN A   1      18.997   1.234   7.527  0.00  0.00     0.000 A 
ATOM     12  C16 ZIN A   1      18.143   0.160   7.689  0.00  0.00     0.001 A 
ATOM     13  C15 ZIN A   1      17.474  -0.016   8.885  0.00  0.00     0.007 A 
ENDBRANCH   7   8
ENDBRANCH   6   7
BRANCH   1  14
ATOM     14  O6  ZIN A   1      17.046  -2.086  11.744  0.00  0.00    -0.349 OA
BRANCH  14  15
ATOM     15  C5  ZIN A   1      17.532  -3.389  11.416  0.00  0.00     0.206 C 
BRANCH  15  16
ATOM     16  C4  ZIN A   1      18.084  -3.381   9.989  0.00  0.00     0.297 C 
BRANCH  16  17
ATOM     17  N2  ZIN A   1      19.255  -4.266   9.913  0.00  0.00     0.082 N 
ATOM     18  C1  ZIN A   1      19.868  -4.444  11.236  0.00  0.00     0.309 C 
ATOM     19  C3  ZIN A   1      18.899  -5.561   9.319  0.00  0.00     0.309 C 
ENDBRANCH  16  17
ENDBRANCH  15  16
ENDBRANCH  14  15
ENDBRANCH   1  14
TORSDOF 6
ENDMDL
MODEL 6
REMARK VINA RESULT:      -6.5      3.095      5.763
REMARK  6 active torsions:
REMARK  status: ('A' for Active; 'I' for Inactive)
REMARK    1  A    between atoms: N2_2  and  C4_4 
REMARK    2  A    between atoms: C4_4  and  C5_5 
REMARK    3  A    between atoms: C5_5  and  O6_6 
REMARK    4  A    between atoms: O6_6  and  C7_7 
REMARK    5  A    between atoms: C12_12  and  C13_13 
REMARK    6  A    between atoms: C13_13  and  C14_14 
ROOT
ATOM      1  C7  ZIN A   1      18.052  -0.143   9.211  0.00  0.00     0.075 A 
ATOM      2  C8  ZIN A   1      18.861   0.449   8.252  0.00  0.00     0.037 A 
ATOM      3  C9  ZIN A   1      19.215   1.779   8.373  0.00  0.00     0.003 A 
ATOM      4  C10 ZIN A   1      18.762   2.520   9.449  0.00  0.00     0.001 A 
ATOM      5  C11 ZIN A   1      17.956   1.933  10.406  0.00  0.00     0.010 A 
ATOM      6  C12 ZIN A   1      17.595   0.605  10.287  0.00  0.00    -0.021 A 
ENDROOT
BRANCH   6   7
ATOM      7  C13 ZIN A   1      16.716  -0.034  11.330  0.00  0.00     0.080 C 
BRANCH   7   8
ATOM      8  C14 ZIN A   1      17.540  -0.370  12.546  0.00  0.00    -0.054 A 
ATOM      9  C19 ZIN A   1      18.413  -1.441  12.515  0.00  0.00     0.007 A 
ATOM     10  C18 ZIN A   1      19.172  -1.747  13.628  0.00  0.00     0.001 A 
ATOM     11  C17 ZIN A   1      19.051  -0.988  14.777  0.00  0.00     0.000 A 
ATOM     12  C16 ZIN A   1      18.174   0.081  14.810  0.00  0.00     0.001 A 
ATOM     13  C15 ZIN A   1      17.418   0.389  13.695  0.00  0.00     0.007 A 
ENDBRANCH   7   8
ENDBRANCH   6   7
BRANCH   1  14
ATOM     14  O6  ZIN A   1      17.702  -1.451   9.094  0.00  0.00    -0.349 OA
BRANCH  14  15
ATOM     15  C5  ZIN A   1      18.686  -2.340   8.562  0.00  0.00     0.206 C 
BRANCH  15  16
ATOM     16  C4  ZIN A   1      18.173  -3.778   8.650  0.00  0.00     0.297 C 
BRANCH  16  17
ATOM     17  N2  ZIN A   1      18.191  -4.220  10.052  0.00  0.00     0.082 N 
ATOM     18  C1  ZIN A   1      17.411  -5.453  10.226  0.00  0.00     0.309 C 
ATOM     19  C3  ZIN A   1      19.568  -4.396  10.531  0.00  0.00     0.309 C 
ENDBRANCH  16  17
ENDBRANCH  15  16
ENDBRANCH  14  15
ENDBRANCH   1  14
TORSDOF 6
ENDMDL
MODEL 7
REMARK VINA RESULT:      -6.5      3.108      6.430
REMARK  6 active torsions:
REMARK  status: ('A' for Active; 'I' for Inactive)
REMARK    1  A    between atoms: N2_2  and  C4_4 
REMARK    2  A    between atoms: C4_4  and  C5_5 
REMARK    3  A    between atoms: C5_5  and  O6_6 
REMARK    4  A    between atoms: O6_6  and  C7_7 
REMARK    5  A    between atoms: C12_12  and  C13_13 
REMARK    6  A    between atoms: C13_13  and  C14_14 
ROOT
ATOM      1  C7  ZIN A   1      18.013   0.430   9.301  0.00  0.00     0.075 A 
ATOM      2  C8  ZIN A   1      18.745   1.268   8.471  0.00  0.00     0.037 A 
ATOM      3  C9  ZIN A   1      18.972   2.580   8.842  0.00  0.00     0.003 A 
ATOM      4  C10 ZIN A   1      18.471   3.057  10.039  0.00  0.00     0.001 A 
ATOM      5  C11 ZIN A   1      17.742   2.224  10.867  0.00  0.00     0.010 A 
ATOM      6  C12 ZIN A   1      17.507   0.914  10.499  0.00  0.00    -0.021 A 
ENDROOT
BRANCH   6   7
ATOM      7  C13 ZIN A   1      16.712   0.007  11.402  0.00  0.00     0.080 C 
BRANCH   7   8
ATOM      8  C14 ZIN A   1      17.569  -0.421  12.565  0.00  0.00    -0.054 A 
ATOM      9  C19 ZIN A   1      18.495  -1.433  12.406  0.00  0.00     0.007 A 
ATOM     10  C18 ZIN A   1      19.284  -1.823  13.472  0.00  0.00     0.001 A 
ATOM     11  C17 ZIN A   1      19.138  -1.207  14.701  0.00  0.00     0.000 A 
ATOM     12  C16 ZIN A   1      18.207  -0.198  14.862  0.00  0.00     0.001 A 
ATOM     13  C15 ZIN A   1      17.422   0.194  13.795  0.00  0.00     0.007 A 
ENDBRANCH   7   8
ENDBRANCH   6   7
BRANCH   1  14
ATOM     14  O6  ZIN A   1      17.788  -0.860   8.938  0.00  0.00    -0.349 OA
BRANCH  14  15
ATOM     15  C5  ZIN A   1      18.036  -1.202   7.572  0.00  0.00     0.206 C 
BRANCH  15  16
ATOM     16  C4  ZIN A   1      19.078  -2.320   7.509  0.00  0.00     0.297 C 
BRANCH  16  17
ATOM     17  N2  ZIN A   1      19.483  -2.534   6.113  0.00  0.00     0.082 N 
ATOM     18  C1  ZIN A   1      18.779  -3.685   5.531  0.00  0.00     0.309 C 
ATOM     19  C3  ZIN A   1      19.265  -1.323   5.310  0.00  0.00     0.309 C 
ENDBRANCH  16  17
ENDBRANCH  15  16
ENDBRANCH  14  15
ENDBRANCH   1  14
TORSDOF 6
ENDMDL
MODEL 8
REMARK VINA RESULT:      -6.3      2.436      4.003
REMARK  6 active torsions:
REMARK  status: ('A' for Active; 'I' for Inactive)
REMARK    1  A    between atoms: N2_2  and  C4_4 
REMARK    2  A    between atoms: C4_4  and  C5_5 
REMARK    3  A    between atoms: C5_5  and  O6_6 
REMARK    4  A    between atoms: O6_6  and  C7_7 
REMARK    5  A    between atoms: C12_12  and  C13_13 
REMARK    6  A    between atoms: C13_13  and  C14_14 
ROOT
ATOM      1  C7  ZIN A   1      17.772   1.769  10.609  0.00  0.00     0.075 A 
ATOM      2  C8  ZIN A   1      18.414   2.673   9.774  0.00  0.00     0.037 A 
ATOM      3  C9  ZIN A   1      18.947   2.246   8.574  0.00  0.00     0.003 A 
ATOM      4  C10 ZIN A   1      18.841   0.918   8.204  0.00  0.00     0.001 A 
ATOM      5  C11 ZIN A   1      18.203   0.015   9.033  0.00  0.00     0.010 A 
ATOM      6  C12 ZIN A   1      17.674   0.436  10.237  0.00  0.00    -0.021 A 
ENDROOT
BRANCH   6   7
ATOM      7  C13 ZIN A   1      16.978  -0.549  11.141  0.00  0.00     0.080 C 
BRANCH   7   8
ATOM      8  C14 ZIN A   1      17.845  -1.769  11.318  0.00  0.00    -0.054 A 
ATOM      9  C19 ZIN A   1      17.417  -2.995  10.847  0.00  0.00     0.007 A 
ATOM     10  C18 ZIN A   1      18.214  -4.113  11.006  0.00  0.00     0.001 A 
ATOM     11  C17 ZIN A   1      19.435  -4.006  11.646  0.00  0.00     0.000 A 
ATOM     12  C16 ZIN A   1      19.861  -2.780  12.122  0.00  0.00     0.001 A 
ATOM     13  C15 ZIN A   1      19.066  -1.662  11.959  0.00  0.00     0.007 A 
ENDBRANCH   7   8
ENDBRANCH   6   7
BRANCH   1  14
ATOM     14  O6  ZIN A   1      17.248   2.187  11.791  0.00  0.00    -0.349 OA
BRANCH  14  15
ATOM     15  C5  ZIN A   1      18.137   2.838  12.701  0.00  0.00     0.206 C 
BRANCH  15  16
ATOM     16  C4  ZIN A   1      18.852   1.788  13.553  0.00  0.00     0.297 C 
BRANCH  16  17
ATOM     17  N2  ZIN A   1      18.075   1.537  14.774  0.00  0.00     0.082 N 
ATOM     18  C1  ZIN A   1      17.742   0.112  14.902  0.00  0.00     0.309 C 
ATOM     19  C3  ZIN A   1      18.791   2.018  15.963  0.00  0.00     0.309 C 
ENDBRANCH  16  17
ENDBRANCH  15  16
ENDBRANCH  14  15
ENDBRANCH   1  14
TORSDOF 6
ENDMDL
MODEL 9
REMARK VINA RESULT:      -6.2      2.902      5.143
REMARK  6 active torsions:
REMARK  status: ('A' for Active; 'I' for Inactive)
REMARK    1  A    between atoms: N2_2  and  C4_4 
REMARK    2  A    between atoms: C4_4  and  C5_5 
REMARK    3  A    between atoms: C5_5  and  O6_6 
REMARK    4  A    between atoms: O6_6  and  C7_7 
REMARK    5  A    between atoms: C12_12  and  C13_13 
REMARK    6  A    between atoms: C13_13  and  C14_14 
ROOT
ATOM      1  C7  ZIN A   1      18.837   1.069   9.846  0.00  0.00     0.075 A 
ATOM      2  C8  ZIN A   1      19.297   1.680   8.688  0.00  0.00     0.037 A 
ATOM      3  C9  ZIN A   1      18.869   1.231   7.454  0.00  0.00     0.003 A 
ATOM      4  C10 ZIN A   1      17.982   0.174   7.373  0.00  0.00     0.001 A 
ATOM      5  C11 ZIN A   1      17.521  -0.436   8.525  0.00  0.00     0.010 A 
ATOM      6  C12 ZIN A   1      17.951   0.005   9.761  0.00  0.00    -0.021 A 
ENDROOT
BRANCH   6   7
ATOM      7  C13 ZIN A   1      17.449  -0.661  11.016  0.00  0.00     0.080 C 
BRANCH   7   8
ATOM      8  C14 ZIN A   1      18.125  -1.997  11.182  0.00  0.00    -0.054 A 
ATOM      9  C19 ZIN A   1      19.501  -2.067  11.289  0.00  0.00     0.007 A 
ATOM     10  C18 ZIN A   1      20.121  -3.293  11.446  0.00  0.00     0.001 A 
ATOM     11  C17 ZIN A   1      19.364  -4.450  11.484  0.00  0.00     0.000 A 
ATOM     12  C16 ZIN A   1      17.988  -4.380  11.371  0.00  0.00     0.001 A 
ATOM     13  C15 ZIN A   1      17.369  -3.155  11.219  0.00  0.00     0.007 A 
ENDBRANCH   7   8
ENDBRANCH   6   7
BRANCH   1  14
ATOM     14  O6  ZIN A   1      19.258   1.509  11.062  0.00  0.00    -0.349 OA
BRANCH  14  15
ATOM     15  C5  ZIN A   1      19.303   2.923  11.260  0.00  0.00     0.206 C 
BRANCH  15  16
ATOM     16  C4  ZIN A   1      17.983   3.394  11.872  0.00  0.00     0.297 C 
BRANCH  16  17
ATOM     17  N2  ZIN A   1      18.152   4.746  12.421  0.00  0.00     0.082 N 
ATOM     18  C1  ZIN A   1      16.989   5.136  13.231  0.00  0.00     0.309 C 
ATOM     19  C3  ZIN A   1      19.393   4.847  13.201  0.00  0.00     0.309 C 
ENDBRANCH  16  17
ENDBRANCH  15  16
ENDBRANCH  14  15
ENDBRANCH   1  14
TORSDOF 6
ENDMDL
