MODEL 1
REMARK VINA RESULT:      -3.7      0.000      0.000
REMARK  1 active torsions:
REMARK  status: ('A' for Active; 'I' for Inactive)
REMARK    1  A    between atoms: N1_1  and  C5_5 
ROOT
ATOM      1  C5  <0> d   1      18.545  -0.542   6.155  0.00  0.00     0.304 C 
ATOM      2  C7  <0> d   1      19.304  -0.180   4.858  0.00  0.00     0.246 C 
ATOM      3  O8  <0> d   1      19.674  -1.473   4.341  0.00  0.00    -0.251 OA
ATOM      4  N9  <0> d   1      19.772  -2.365   5.435  0.00  0.00    -0.092 NA
ATOM      5  C10 <0> d   1      19.124  -1.895   6.525  0.00  0.00     0.299 C 
ATOM      6  O11 <0> d   1      19.024  -2.454   7.596  0.00  0.00    -0.267 OA
ENDROOT
BRANCH   1   7
ATOM      7  N1  <0> d   1      17.102  -0.645   5.903  0.00  0.00    -0.064 N 
ATOM      8  H2  <0> d   1      16.628   0.136   6.331  0.00  0.00     0.275 HD
ATOM      9  H3  <0> d   1      16.752  -1.506   6.295  0.00  0.00     0.275 HD
ATOM     10  H4  <0> d   1      16.933  -0.636   4.908  0.00  0.00     0.275 HD
ENDBRANCH   1   7
TORSDOF 1
ENDMDL
MODEL 2
REMARK VINA RESULT:      -3.7     11.471     12.195
REMARK  1 active torsions:
REMARK  status: ('A' for Active; 'I' for Inactive)
REMARK    1  A    between atoms: N1_1  and  C5_5 
ROOT
ATOM      1  C5  <0> d   1      18.765   2.461  16.835  0.00  0.00     0.304 C 
ATOM      2  C7  <0> d   1      18.822   3.083  18.249  0.00  0.00     0.246 C 
ATOM      3  O8  <0> d   1      19.751   2.221  18.932  0.00  0.00    -0.251 OA
ATOM      4  N9  <0> d   1      19.697   0.949  18.316  0.00  0.00    -0.092 NA
ATOM      5  C10 <0> d   1      19.147   1.014  17.082  0.00  0.00     0.299 C 
ATOM      6  O11 <0> d   1      18.993   0.086  16.317  0.00  0.00    -0.267 OA
ENDROOT
BRANCH   1   7
ATOM      7  N1  <0> d   1      19.732   3.110  15.941  0.00  0.00    -0.064 N 
ATOM      8  H2  <0> d   1      19.779   4.095  16.153  0.00  0.00     0.275 HD
ATOM      9  H3  <0> d   1      19.442   2.985  14.983  0.00  0.00     0.275 HD
ATOM     10  H4  <0> d   1      20.643   2.695  16.073  0.00  0.00     0.275 HD
ENDBRANCH   1   7
TORSDOF 1
ENDMDL
MODEL 3
REMARK VINA RESULT:      -3.7     11.322     12.088
REMARK  1 active torsions:
REMARK  status: ('A' for Active; 'I' for Inactive)
REMARK    1  A    between atoms: N1_1  and  C5_5 
ROOT
ATOM      1  C5  <0> d   1      18.520   0.707  16.930  0.00  0.00     0.304 C 
ATOM      2  C7  <0> d   1      19.405   0.349  18.145  0.00  0.00     0.246 C 
ATOM      3  O8  <0> d   1      19.718   1.642  18.696  0.00  0.00    -0.251 OA
ATOM      4  N9  <0> d   1      19.663   2.586  17.644  0.00  0.00    -0.092 NA
ATOM      5  C10 <0> d   1      18.966   2.116  16.585  0.00  0.00     0.299 C 
ATOM      6  O11 <0> d   1      18.739   2.713  15.554  0.00  0.00    -0.267 OA
ENDROOT
BRANCH   1   7
ATOM      7  N1  <0> d   1      17.099   0.686  17.296  0.00  0.00    -0.064 N 
ATOM      8  H2  <0> d   1      16.808  -0.265  17.468  0.00  0.00     0.275 HD
ATOM      9  H3  <0> d   1      16.550   1.074  16.543  0.00  0.00     0.275 HD
ATOM     10  H4  <0> d   1      16.958   1.236  18.131  0.00  0.00     0.275 HD
ENDBRANCH   1   7
TORSDOF 1
ENDMDL
MODEL 4
REMARK VINA RESULT:      -3.7      1.895      2.315
REMARK  1 active torsions:
REMARK  status: ('A' for Active; 'I' for Inactive)
REMARK    1  A    between atoms: N1_1  and  C5_5 
ROOT
ATOM      1  C5  <0> d   1      18.685  -1.611   6.459  0.00  0.00     0.304 C 
ATOM      2  C7  <0> d   1      18.705  -2.594   5.267  0.00  0.00     0.246 C 
ATOM      3  O8  <0> d   1      19.704  -2.018   4.403  0.00  0.00    -0.251 OA
ATOM      4  N9  <0> d   1      19.742  -0.627   4.653  0.00  0.00    -0.092 NA
ATOM      5  C10 <0> d   1      19.179  -0.315   5.842  0.00  0.00     0.299 C 
ATOM      6  O11 <0> d   1      19.090   0.794   6.324  0.00  0.00    -0.267 OA
ENDROOT
BRANCH   1   7
ATOM      7  N1  <0> d   1      19.593  -2.061   7.521  0.00  0.00    -0.064 N 
ATOM      8  H2  <0> d   1      19.085  -2.634   8.178  0.00  0.00     0.275 HD
ATOM      9  H3  <0> d   1      19.974  -1.259   8.001  0.00  0.00     0.275 HD
ATOM     10  H4  <0> d   1      20.344  -2.599   7.117  0.00  0.00     0.275 HD
ENDBRANCH   1   7
TORSDOF 1
ENDMDL
MODEL 5
REMARK VINA RESULT:      -3.5      5.563      6.376
REMARK  1 active torsions:
REMARK  status: ('A' for Active; 'I' for Inactive)
REMARK    1  A    between atoms: N1_1  and  C5_5 
ROOT
ATOM      1  C5  <0> d   1      20.186   0.342  11.743  0.00  0.00     0.304 C 
ATOM      2  C7  <0> d   1      19.422  -0.434  12.840  0.00  0.00     0.246 C 
ATOM      3  O8  <0> d   1      19.586  -1.804  12.426  0.00  0.00    -0.251 OA
ATOM      4  N9  <0> d   1      19.762  -1.814  11.023  0.00  0.00    -0.092 NA
ATOM      5  C10 <0> d   1      20.128  -0.599  10.555  0.00  0.00     0.299 C 
ATOM      6  O11 <0> d   1      20.367  -0.319   9.399  0.00  0.00    -0.267 OA
ENDROOT
BRANCH   1   7
ATOM      7  N1  <0> d   1      21.577   0.583  12.148  0.00  0.00    -0.064 N 
ATOM      8  H2  <0> d   1      21.817  -0.031  12.912  0.00  0.00     0.275 HD
ATOM      9  H3  <0> d   1      21.680   1.543  12.445  0.00  0.00     0.275 HD
ATOM     10  H4  <0> d   1      22.191   0.405  11.367  0.00  0.00     0.275 HD
ENDBRANCH   1   7
TORSDOF 1
ENDMDL
MODEL 6
REMARK VINA RESULT:      -3.4      6.570      7.381
REMARK  1 active torsions:
REMARK  status: ('A' for Active; 'I' for Inactive)
REMARK    1  A    between atoms: N1_1  and  C5_5 
ROOT
ATOM      1  C5  <0> d   1      20.120   0.475  12.382  0.00  0.00     0.304 C 
ATOM      2  C7  <0> d   1      19.793   0.443  13.893  0.00  0.00     0.246 C 
ATOM      3  O8  <0> d   1      19.743  -0.969  14.171  0.00  0.00    -0.251 OA
ATOM      4  N9  <0> d   1      19.382  -1.634  12.976  0.00  0.00    -0.092 NA
ATOM      5  C10 <0> d   1      19.589  -0.858  11.889  0.00  0.00     0.299 C 
ATOM      6  O11 <0> d   1      19.390  -1.173  10.735  0.00  0.00    -0.267 OA
ENDROOT
BRANCH   1   7
ATOM      7  N1  <0> d   1      21.569   0.571  12.165  0.00  0.00    -0.064 N 
ATOM      8  H2  <0> d   1      21.994   1.067  12.934  0.00  0.00     0.275 HD
ATOM      9  H3  <0> d   1      21.749   1.068  11.305  0.00  0.00     0.275 HD
ATOM     10  H4  <0> d   1      21.963  -0.356  12.105  0.00  0.00     0.275 HD
ENDBRANCH   1   7
TORSDOF 1
ENDMDL
MODEL 7
REMARK VINA RESULT:      -3.4      5.975      6.609
REMARK  1 active torsions:
REMARK  status: ('A' for Active; 'I' for Inactive)
REMARK    1  A    between atoms: N1_1  and  C5_5 
ROOT
ATOM      1  C5  <0> d   1      20.181  -0.352  11.337  0.00  0.00     0.304 C 
ATOM      2  C7  <0> d   1      19.410   0.419  10.242  0.00  0.00     0.246 C 
ATOM      3  O8  <0> d   1      19.556   1.789  10.663  0.00  0.00    -0.251 OA
ATOM      4  N9  <0> d   1      19.728   1.795  12.066  0.00  0.00    -0.092 NA
ATOM      5  C10 <0> d   1      20.108   0.583  12.530  0.00  0.00     0.299 C 
ATOM      6  O11 <0> d   1      20.347   0.301  13.685  0.00  0.00    -0.267 OA
ENDROOT
BRANCH   1   7
ATOM      7  N1  <0> d   1      21.576  -0.574  10.935  0.00  0.00    -0.064 N 
ATOM      8  H2  <0> d   1      21.668  -1.495  10.533  0.00  0.00     0.275 HD
ATOM      9  H3  <0> d   1      22.175  -0.499  11.743  0.00  0.00     0.275 HD
ATOM     10  H4  <0> d   1      21.843   0.120  10.252  0.00  0.00     0.275 HD
ENDBRANCH   1   7
TORSDOF 1
ENDMDL
MODEL 8
REMARK VINA RESULT:      -3.4      6.328      7.167
REMARK  1 active torsions:
REMARK  status: ('A' for Active; 'I' for Inactive)
REMARK    1  A    between atoms: N1_1  and  C5_5 
ROOT
ATOM      1  C5  <0> d   1      19.477   3.207  11.256  0.00  0.00     0.304 C 
ATOM      2  C7  <0> d   1      18.399   3.569  12.303  0.00  0.00     0.246 C 
ATOM      3  O8  <0> d   1      17.333   2.656  11.981  0.00  0.00    -0.251 OA
ATOM      4  N9  <0> d   1      17.437   2.334  10.608  0.00  0.00    -0.092 NA
ATOM      5  C10 <0> d   1      18.666   2.615  10.119  0.00  0.00     0.299 C 
ATOM      6  O11 <0> d   1      19.046   2.424   8.984  0.00  0.00    -0.267 OA
ENDROOT
BRANCH   1   7
ATOM      7  N1  <0> d   1      20.416   2.216  11.797  0.00  0.00    -0.064 N 
ATOM      8  H2  <0> d   1      20.403   1.389  11.220  0.00  0.00     0.275 HD
ATOM      9  H3  <0> d   1      20.145   1.973  12.738  0.00  0.00     0.275 HD
ATOM     10  H4  <0> d   1      21.348   2.605  11.806  0.00  0.00     0.275 HD
ENDBRANCH   1   7
TORSDOF 1
ENDMDL
MODEL 9
REMARK VINA RESULT:      -3.4      5.465      6.085
REMARK  1 active torsions:
REMARK  status: ('A' for Active; 'I' for Inactive)
REMARK    1  A    between atoms: N1_1  and  C5_5 
ROOT
ATOM      1  C5  <0> d   1      20.217   0.197  11.831  0.00  0.00     0.304 C 
ATOM      2  C7  <0> d   1      20.248  -1.019  10.876  0.00  0.00     0.246 C 
ATOM      3  O8  <0> d   1      20.161  -0.400   9.579  0.00  0.00    -0.251 OA
ATOM      4  N9  <0> d   1      19.486   0.834   9.731  0.00  0.00    -0.092 NA
ATOM      5  C10 <0> d   1      19.491   1.252  11.017  0.00  0.00     0.299 C 
ATOM      6  O11 <0> d   1      19.006   2.281  11.437  0.00  0.00    -0.267 OA
ENDROOT
BRANCH   1   7
ATOM      7  N1  <0> d   1      21.578   0.638  12.158  0.00  0.00    -0.064 N 
ATOM      8  H2  <0> d   1      22.228  -0.113  11.979  0.00  0.00     0.275 HD
ATOM      9  H3  <0> d   1      21.624   0.896  13.132  0.00  0.00     0.275 HD
ATOM     10  H4  <0> d   1      21.820   1.435  11.587  0.00  0.00     0.275 HD
ENDBRANCH   1   7
TORSDOF 1
ENDMDL
