MODEL 1
REMARK VINA RESULT:      -7.7      0.000      0.000
REMARK  21 active torsions:
REMARK  status: ('A' for Active; 'I' for Inactive)
REMARK    1  A    between atoms: O2_2  and  C3_3 
REMARK    2  A    between atoms: C3_3  and  C4_4 
REMARK    3  A    between atoms: C4_4  and  C5_5 
REMARK    4  A    between atoms: C5_5  and  O6_6 
REMARK    5  A    between atoms: O6_6  and  C7_7 
REMARK    6  A    between atoms: C9_9  and  C10_10 
REMARK    7  A    between atoms: C10_10  and  C11_11 
REMARK    8  A    between atoms: C11_11  and  C13_12 
REMARK    9  A    between atoms: C11_11  and  C39_35 
REMARK   10  A    between atoms: C13_12  and  C14_13 
REMARK   11  A    between atoms: C14_13  and  N16_14 
REMARK   12  A    between atoms: C14_13  and  C20_18 
REMARK   13  A    between atoms: C20_18  and  O22_19 
REMARK   14  A    between atoms: C20_18  and  C23_20 
REMARK   15  A    between atoms: C23_20  and  C24_21 
REMARK   16  A    between atoms: C24_21  and  C26_22 
REMARK   17  A    between atoms: C24_21  and  C36_32 
REMARK       I    between atoms: C26_22  and  N28_24 
REMARK   18  A    between atoms: N28_24  and  C29_25 
REMARK   19  A    between atoms: C29_25  and  C30_26 
REMARK   20  A    between atoms: C30_26  and  C33_29 
REMARK       I    between atoms: C33_29  and  N34_30 
REMARK   21  A    between atoms: C44_40  and  O45_41 
ROOT
ATOM      1  C14 ZIN A   1      20.160   0.852  11.589  0.00  0.00     0.212 C 
ENDROOT
BRANCH   1   2
ATOM      2  C13 ZIN A   1      19.078  -0.072  12.152  0.00  0.00     0.040 C 
BRANCH   2   3
ATOM      3  C11 ZIN A   1      18.814  -1.210  11.164  0.00  0.00    -0.005 C 
BRANCH   3   4
ATOM      4  C10 ZIN A   1      17.665  -0.817  10.231  0.00  0.00     0.043 C 
BRANCH   4   5
ATOM      5  C9  ZIN A   1      18.182  -0.700   8.820  0.00  0.00    -0.055 A 
ATOM      6  C8  ZIN A   1      18.791  -1.785   8.216  0.00  0.00     0.046 A 
ATOM      7  C7  ZIN A   1      19.266  -1.679   6.919  0.00  0.00     0.102 A 
ATOM      8  C44 ZIN A   1      19.134  -0.476   6.229  0.00  0.00     0.101 A 
ATOM      9  C43 ZIN A   1      18.520   0.605   6.838  0.00  0.00     0.040 A 
ATOM     10  C42 ZIN A   1      18.048   0.492   8.133  0.00  0.00     0.010 A 
BRANCH   7  11
ATOM     11  O6  ZIN A   1      19.865  -2.744   6.323  0.00  0.00    -0.348 OA
BRANCH  11  12
ATOM     12  C5  ZIN A   1      19.047  -3.887   6.065  0.00  0.00     0.178 C 
BRANCH  12  13
ATOM     13  C4  ZIN A   1      19.652  -5.113   6.753  0.00  0.00     0.053 C 
BRANCH  13  14
ATOM     14  C3  ZIN A   1      18.531  -5.965   7.353  0.00  0.00     0.169 C 
BRANCH  14  15
ATOM     15  O2  ZIN A   1      18.262  -5.527   8.687  0.00  0.00    -0.396 OA
ATOM     16  C1  ZIN A   1      16.969  -4.943   8.857  0.00  0.00     0.201 C 
ENDBRANCH  14  15
ENDBRANCH  13  14
ENDBRANCH  12  13
ENDBRANCH  11  12
ENDBRANCH   7  11
BRANCH   8  17
ATOM     17  O45 ZIN A   1      19.600  -0.368   4.956  0.00  0.00    -0.353 OA
ATOM     18  C46 ZIN A   1      18.625  -0.213   3.921  0.00  0.00     0.210 C 
ENDBRANCH   8  17
ENDBRANCH   4   5
ENDBRANCH   3   4
BRANCH   3  19
ATOM     19  C39 ZIN A   1      18.436  -2.477  11.932  0.00  0.00    -0.018 C 
ATOM     20  C40 ZIN A   1      19.333  -3.632  11.483  0.00  0.00     0.010 C 
ATOM     21  C41 ZIN A   1      18.625  -2.239  13.432  0.00  0.00     0.010 C 
ENDBRANCH   3  19
ENDBRANCH   2   3
ENDBRANCH   1   2
BRANCH   1  22
ATOM     22  N16 ZIN A   1      21.483   0.266  11.840  0.00  0.00    -0.073 N 
ATOM     23  H17 ZIN A   1      22.171   0.732  11.268  0.00  0.00     0.274 HD
ATOM     24  H18 ZIN A   1      21.723   0.378  12.813  0.00  0.00     0.274 HD
ATOM     25  H19 ZIN A   1      21.464  -0.716  11.609  0.00  0.00     0.274 HD
ENDBRANCH   1  22
BRANCH   1  26
ATOM     26  C20 ZIN A   1      20.069   2.218  12.272  0.00  0.00     0.149 C 
BRANCH  26  27
ATOM     27  O22 ZIN A   1      20.848   3.168  11.543  0.00  0.00    -0.393 OA
ATOM     28  H61 ZIN A   1      20.858   3.018  10.587  0.00  0.00     0.210 HD
ENDBRANCH  26  27
BRANCH  26  29
ATOM     29  C23 ZIN A   1      18.609   2.675  12.306  0.00  0.00     0.048 C 
BRANCH  29  30
ATOM     30  C24 ZIN A   1      18.509   4.012  13.044  0.00  0.00     0.083 C 
BRANCH  30  31
ATOM     31  C26 ZIN A   1      18.714   3.786  14.520  0.00  0.00     0.222 C 
ATOM     32  O27 ZIN A   1      19.475   4.497  15.142  0.00  0.00    -0.273 OA
ATOM     33  N28 ZIN A   1      18.054   2.794  15.148  0.00  0.00    -0.360 N 
ATOM     34  H64 ZIN A   1      17.403   2.262  14.664  0.00  0.00     0.162 HD
BRANCH  33  35
ATOM     35  C29 ZIN A   1      18.318   2.519  16.563  0.00  0.00     0.141 C 
BRANCH  35  36
ATOM     36  C30 ZIN A   1      18.494   1.013  16.765  0.00  0.00     0.049 C 
ATOM     37  C31 ZIN A   1      17.123   0.359  16.953  0.00  0.00     0.027 C 
ATOM     38  C32 ZIN A   1      19.182   0.410  15.538  0.00  0.00     0.027 C 
BRANCH  36  39
ATOM     39  C33 ZIN A   1      19.339   0.765  17.988  0.00  0.00     0.225 C 
ATOM     40  N34 ZIN A   1      19.613  -0.497  18.375  0.00  0.00    -0.369 N 
ATOM     41  H73 ZIN A   1      19.264  -1.246  17.866  0.00  0.00     0.159 HD
ATOM     42  H74 ZIN A   1      20.157  -0.656  19.162  0.00  0.00     0.159 HD
ATOM     43  O35 ZIN A   1      19.775   1.701  18.623  0.00  0.00    -0.273 OA
ENDBRANCH  36  39
ENDBRANCH  35  36
ENDBRANCH  33  35
ENDBRANCH  30  31
BRANCH  30  44
ATOM     44  C36 ZIN A   1      17.127   4.622  12.808  0.00  0.00    -0.010 C 
ATOM     45  C37 ZIN A   1      17.051   5.991  13.489  0.00  0.00     0.010 C 
ATOM     46  C38 ZIN A   1      16.891   4.786  11.305  0.00  0.00     0.010 C 
ENDBRANCH  30  44
ENDBRANCH  29  30
ENDBRANCH  26  29
ENDBRANCH   1  26
TORSDOF 21
ENDMDL
MODEL 2
REMARK VINA RESULT:      -7.5      2.410      9.518
REMARK  21 active torsions:
REMARK  status: ('A' for Active; 'I' for Inactive)
REMARK    1  A    between atoms: O2_2  and  C3_3 
REMARK    2  A    between atoms: C3_3  and  C4_4 
REMARK    3  A    between atoms: C4_4  and  C5_5 
REMARK    4  A    between atoms: C5_5  and  O6_6 
REMARK    5  A    between atoms: O6_6  and  C7_7 
REMARK    6  A    between atoms: C9_9  and  C10_10 
REMARK    7  A    between atoms: C10_10  and  C11_11 
REMARK    8  A    between atoms: C11_11  and  C13_12 
REMARK    9  A    between atoms: C11_11  and  C39_35 
REMARK   10  A    between atoms: C13_12  and  C14_13 
REMARK   11  A    between atoms: C14_13  and  N16_14 
REMARK   12  A    between atoms: C14_13  and  C20_18 
REMARK   13  A    between atoms: C20_18  and  O22_19 
REMARK   14  A    between atoms: C20_18  and  C23_20 
REMARK   15  A    between atoms: C23_20  and  C24_21 
REMARK   16  A    between atoms: C24_21  and  C26_22 
REMARK   17  A    between atoms: C24_21  and  C36_32 
REMARK       I    between atoms: C26_22  and  N28_24 
REMARK   18  A    between atoms: N28_24  and  C29_25 
REMARK   19  A    between atoms: C29_25  and  C30_26 
REMARK   20  A    between atoms: C30_26  and  C33_29 
REMARK       I    between atoms: C33_29  and  N34_30 
REMARK   21  A    between atoms: C44_40  and  O45_41 
ROOT
ATOM      1  C14 ZIN A   1      19.995  -0.393  10.965  0.00  0.00     0.212 C 
ENDROOT
BRANCH   1   2
ATOM      2  C13 ZIN A   1      19.691   1.077  10.671  0.00  0.00     0.040 C 
BRANCH   2   3
ATOM      3  C11 ZIN A   1      19.118   1.742  11.925  0.00  0.00    -0.005 C 
BRANCH   3   4
ATOM      4  C10 ZIN A   1      18.073   0.820  12.557  0.00  0.00     0.043 C 
BRANCH   4   5
ATOM      5  C9  ZIN A   1      18.325   0.717  14.040  0.00  0.00    -0.055 A 
ATOM      6  C8  ZIN A   1      18.949   1.756  14.707  0.00  0.00     0.046 A 
ATOM      7  C7  ZIN A   1      19.181   1.662  16.069  0.00  0.00     0.102 A 
ATOM      8  C44 ZIN A   1      18.790   0.519  16.762  0.00  0.00     0.101 A 
ATOM      9  C43 ZIN A   1      18.163  -0.515  16.088  0.00  0.00     0.040 A 
ATOM     10  C42 ZIN A   1      17.934  -0.415  14.728  0.00  0.00     0.010 A 
BRANCH   7  11
ATOM     11  O6  ZIN A   1      19.794   2.681  16.728  0.00  0.00    -0.348 OA
BRANCH  11  12
ATOM     12  C5  ZIN A   1      19.736   3.974  16.120  0.00  0.00     0.178 C 
BRANCH  12  13
ATOM     13  C4  ZIN A   1      18.604   4.785  16.754  0.00  0.00     0.053 C 
BRANCH  13  14
ATOM     14  C3  ZIN A   1      17.566   5.133  15.685  0.00  0.00     0.169 C 
BRANCH  14  15
ATOM     15  O2  ZIN A   1      18.043   6.224  14.895  0.00  0.00    -0.396 OA
ATOM     16  C1  ZIN A   1      17.027   7.155  14.517  0.00  0.00     0.201 C 
ENDBRANCH  14  15
ENDBRANCH  13  14
ENDBRANCH  12  13
ENDBRANCH  11  12
ENDBRANCH   7  11
BRANCH   8  17
ATOM     17  O45 ZIN A   1      19.017   0.423  18.100  0.00  0.00    -0.353 OA
ATOM     18  C46 ZIN A   1      17.932   0.765  18.967  0.00  0.00     0.210 C 
ENDBRANCH   8  17
ENDBRANCH   4   5
ENDBRANCH   3   4
BRANCH   3  19
ATOM     19  C39 ZIN A   1      18.464   3.070  11.545  0.00  0.00    -0.018 C 
ATOM     20  C40 ZIN A   1      19.337   4.227  12.035  0.00  0.00     0.010 C 
ATOM     21  C41 ZIN A   1      18.318   3.151  10.023  0.00  0.00     0.010 C 
ENDBRANCH   3  19
ENDBRANCH   2   3
ENDBRANCH   1   2
BRANCH   1  22
ATOM     22  N16 ZIN A   1      21.448  -0.581  11.064  0.00  0.00    -0.073 N 
ATOM     23  H17 ZIN A   1      21.777  -1.094  10.260  0.00  0.00     0.274 HD
ATOM     24  H18 ZIN A   1      21.904   0.318  11.098  0.00  0.00     0.274 HD
ATOM     25  H19 ZIN A   1      21.664  -1.099  11.904  0.00  0.00     0.274 HD
ENDBRANCH   1  22
BRANCH   1  26
ATOM     26  C20 ZIN A   1      19.443  -1.264   9.836  0.00  0.00     0.149 C 
BRANCH  26  27
ATOM     27  O22 ZIN A   1      18.042  -1.465  10.031  0.00  0.00    -0.393 OA
ATOM     28  H61 ZIN A   1      17.812  -2.342  10.368  0.00  0.00     0.210 HD
ENDBRANCH  26  27
BRANCH  26  29
ATOM     29  C23 ZIN A   1      19.676  -0.567   8.494  0.00  0.00     0.048 C 
BRANCH  29  30
ATOM     30  C24 ZIN A   1      18.644  -1.060   7.477  0.00  0.00     0.083 C 
BRANCH  30  31
ATOM     31  C26 ZIN A   1      18.854  -2.530   7.221  0.00  0.00     0.222 C 
ATOM     32  O27 ZIN A   1      19.893  -2.918   6.733  0.00  0.00    -0.273 OA
ATOM     33  N28 ZIN A   1      17.884  -3.412   7.534  0.00  0.00    -0.360 N 
ATOM     34  H64 ZIN A   1      17.077  -3.109   7.977  0.00  0.00     0.162 HD
BRANCH  33  35
ATOM     35  C29 ZIN A   1      18.052  -4.831   7.206  0.00  0.00     0.141 C 
BRANCH  35  36
ATOM     36  C30 ZIN A   1      17.806  -5.676   8.457  0.00  0.00     0.049 C 
ATOM     37  C31 ZIN A   1      17.451  -7.106   8.046  0.00  0.00     0.027 C 
ATOM     38  C32 ZIN A   1      19.072  -5.693   9.318  0.00  0.00     0.027 C 
BRANCH  36  39
ATOM     39  C33 ZIN A   1      16.668  -5.084   9.248  0.00  0.00     0.225 C 
ATOM     40  N34 ZIN A   1      15.395  -5.388   8.929  0.00  0.00    -0.369 N 
ATOM     41  H73 ZIN A   1      15.211  -5.988   8.188  0.00  0.00     0.159 HD
ATOM     42  H74 ZIN A   1      14.662  -5.007   9.438  0.00  0.00     0.159 HD
ATOM     43  O35 ZIN A   1      16.898  -4.334  10.173  0.00  0.00    -0.273 OA
ENDBRANCH  36  39
ENDBRANCH  35  36
ENDBRANCH  33  35
ENDBRANCH  30  31
BRANCH  30  44
ATOM     44  C36 ZIN A   1      18.809  -0.285   6.168  0.00  0.00    -0.010 C 
ATOM     45  C37 ZIN A   1      17.606  -0.554   5.262  0.00  0.00     0.010 C 
ATOM     46  C38 ZIN A   1      18.895   1.213   6.470  0.00  0.00     0.010 C 
ENDBRANCH  30  44
ENDBRANCH  29  30
ENDBRANCH  26  29
ENDBRANCH   1  26
TORSDOF 21
ENDMDL
MODEL 3
REMARK VINA RESULT:      -7.5      1.858      4.120
REMARK  21 active torsions:
REMARK  status: ('A' for Active; 'I' for Inactive)
REMARK    1  A    between atoms: O2_2  and  C3_3 
REMARK    2  A    between atoms: C3_3  and  C4_4 
REMARK    3  A    between atoms: C4_4  and  C5_5 
REMARK    4  A    between atoms: C5_5  and  O6_6 
REMARK    5  A    between atoms: O6_6  and  C7_7 
REMARK    6  A    between atoms: C9_9  and  C10_10 
REMARK    7  A    between atoms: C10_10  and  C11_11 
REMARK    8  A    between atoms: C11_11  and  C13_12 
REMARK    9  A    between atoms: C11_11  and  C39_35 
REMARK   10  A    between atoms: C13_12  and  C14_13 
REMARK   11  A    between atoms: C14_13  and  N16_14 
REMARK   12  A    between atoms: C14_13  and  C20_18 
REMARK   13  A    between atoms: C20_18  and  O22_19 
REMARK   14  A    between atoms: C20_18  and  C23_20 
REMARK   15  A    between atoms: C23_20  and  C24_21 
REMARK   16  A    between atoms: C24_21  and  C26_22 
REMARK   17  A    between atoms: C24_21  and  C36_32 
REMARK       I    between atoms: C26_22  and  N28_24 
REMARK   18  A    between atoms: N28_24  and  C29_25 
REMARK   19  A    between atoms: C29_25  and  C30_26 
REMARK   20  A    between atoms: C30_26  and  C33_29 
REMARK       I    between atoms: C33_29  and  N34_30 
REMARK   21  A    between atoms: C44_40  and  O45_41 
ROOT
ATOM      1  C14 ZIN A   1      20.226   0.710  11.961  0.00  0.00     0.212 C 
ENDROOT
BRANCH   1   2
ATOM      2  C13 ZIN A   1      20.012   0.122  10.564  0.00  0.00     0.040 C 
BRANCH   2   3
ATOM      3  C11 ZIN A   1      18.913   0.905   9.843  0.00  0.00    -0.005 C 
BRANCH   3   4
ATOM      4  C10 ZIN A   1      19.413   1.329   8.461  0.00  0.00     0.043 C 
BRANCH   4   5
ATOM      5  C9  ZIN A   1      18.944   0.334   7.430  0.00  0.00    -0.055 A 
ATOM      6  C8  ZIN A   1      18.763  -0.991   7.783  0.00  0.00     0.046 A 
ATOM      7  C7  ZIN A   1      18.332  -1.906   6.837  0.00  0.00     0.102 A 
ATOM      8  C44 ZIN A   1      18.088  -1.490   5.531  0.00  0.00     0.101 A 
ATOM      9  C43 ZIN A   1      18.268  -0.161   5.185  0.00  0.00     0.040 A 
ATOM     10  C42 ZIN A   1      18.698   0.747   6.135  0.00  0.00     0.010 A 
BRANCH   7  11
ATOM     11  O6  ZIN A   1      18.154  -3.209   7.181  0.00  0.00    -0.348 OA
BRANCH  11  12
ATOM     12  C5  ZIN A   1      19.319  -3.948   7.554  0.00  0.00     0.178 C 
BRANCH  12  13
ATOM     13  C4  ZIN A   1      18.960  -4.943   8.659  0.00  0.00     0.053 C 
BRANCH  13  14
ATOM     14  C3  ZIN A   1      18.245  -4.208   9.795  0.00  0.00     0.169 C 
BRANCH  14  15
ATOM     15  O2  ZIN A   1      19.210  -3.539  10.611  0.00  0.00    -0.396 OA
ATOM     16  C1  ZIN A   1      20.054  -4.421  11.354  0.00  0.00     0.201 C 
ENDBRANCH  14  15
ENDBRANCH  13  14
ENDBRANCH  12  13
ENDBRANCH  11  12
ENDBRANCH   7  11
BRANCH   8  17
ATOM     17  O45 ZIN A   1      17.665  -2.386   4.599  0.00  0.00    -0.353 OA
ATOM     18  C46 ZIN A   1      18.668  -3.184   3.965  0.00  0.00     0.210 C 
ENDBRANCH   8  17
ENDBRANCH   4   5
ENDBRANCH   3   4
BRANCH   3  19
ATOM     19  C39 ZIN A   1      18.553   2.148  10.659  0.00  0.00    -0.018 C 
ATOM     20  C40 ZIN A   1      18.475   3.362   9.731  0.00  0.00     0.010 C 
ATOM     21  C41 ZIN A   1      17.197   1.938  11.338  0.00  0.00     0.010 C 
ENDBRANCH   3  19
ENDBRANCH   2   3
ENDBRANCH   1   2
BRANCH   1  22
ATOM     22  N16 ZIN A   1      21.662   0.724  12.270  0.00  0.00    -0.073 N 
ATOM     23  H17 ZIN A   1      21.797   1.000  13.231  0.00  0.00     0.274 HD
ATOM     24  H18 ZIN A   1      22.047  -0.197  12.127  0.00  0.00     0.274 HD
ATOM     25  H19 ZIN A   1      22.130   1.381  11.663  0.00  0.00     0.274 HD
ENDBRANCH   1  22
BRANCH   1  26
ATOM     26  C20 ZIN A   1      19.490  -0.146  12.993  0.00  0.00     0.149 C 
BRANCH  26  27
ATOM     27  O22 ZIN A   1      19.874  -1.514  12.838  0.00  0.00    -0.393 OA
ATOM     28  H61 ZIN A   1      20.797  -1.637  12.576  0.00  0.00     0.210 HD
ENDBRANCH  26  27
BRANCH  26  29
ATOM     29  C23 ZIN A   1      19.852   0.329  14.401  0.00  0.00     0.048 C 
BRANCH  29  30
ATOM     30  C24 ZIN A   1      18.579   0.743  15.143  0.00  0.00     0.083 C 
BRANCH  30  31
ATOM     31  C26 ZIN A   1      18.679   2.194  15.539  0.00  0.00     0.222 C 
ATOM     32  O27 ZIN A   1      19.501   2.544  16.359  0.00  0.00    -0.273 OA
ATOM     33  N28 ZIN A   1      17.853   3.102  14.983  0.00  0.00    -0.360 N 
ATOM     34  H64 ZIN A   1      17.235   2.833  14.286  0.00  0.00     0.162 HD
BRANCH  33  35
ATOM     35  C29 ZIN A   1      17.891   4.497  15.431  0.00  0.00     0.141 C 
BRANCH  35  36
ATOM     36  C30 ZIN A   1      18.212   5.405  14.242  0.00  0.00     0.049 C 
ATOM     37  C31 ZIN A   1      17.245   5.106  13.095  0.00  0.00     0.027 C 
ATOM     38  C32 ZIN A   1      18.066   6.869  14.664  0.00  0.00     0.027 C 
BRANCH  36  39
ATOM     39  C33 ZIN A   1      19.625   5.152  13.785  0.00  0.00     0.225 C 
ATOM     40  N34 ZIN A   1      20.663   5.544  14.550  0.00  0.00    -0.369 N 
ATOM     41  H73 ZIN A   1      20.499   5.991  15.396  0.00  0.00     0.159 HD
ATOM     42  H74 ZIN A   1      21.573   5.382  14.255  0.00  0.00     0.159 HD
ATOM     43  O35 ZIN A   1      19.830   4.594  12.727  0.00  0.00    -0.273 OA
ENDBRANCH  36  39
ENDBRANCH  35  36
ENDBRANCH  33  35
ENDBRANCH  30  31
BRANCH  30  44
ATOM     44  C36 ZIN A   1      18.417  -0.118  16.396  0.00  0.00    -0.010 C 
ATOM     45  C37 ZIN A   1      16.934  -0.218  16.758  0.00  0.00     0.010 C 
ATOM     46  C38 ZIN A   1      18.973  -1.519  16.128  0.00  0.00     0.010 C 
ENDBRANCH  30  44
ENDBRANCH  29  30
ENDBRANCH  26  29
ENDBRANCH   1  26
TORSDOF 21
ENDMDL
MODEL 4
REMARK VINA RESULT:      -7.5      2.043      4.416
REMARK  21 active torsions:
REMARK  status: ('A' for Active; 'I' for Inactive)
REMARK    1  A    between atoms: O2_2  and  C3_3 
REMARK    2  A    between atoms: C3_3  and  C4_4 
REMARK    3  A    between atoms: C4_4  and  C5_5 
REMARK    4  A    between atoms: C5_5  and  O6_6 
REMARK    5  A    between atoms: O6_6  and  C7_7 
REMARK    6  A    between atoms: C9_9  and  C10_10 
REMARK    7  A    between atoms: C10_10  and  C11_11 
REMARK    8  A    between atoms: C11_11  and  C13_12 
REMARK    9  A    between atoms: C11_11  and  C39_35 
REMARK   10  A    between atoms: C13_12  and  C14_13 
REMARK   11  A    between atoms: C14_13  and  N16_14 
REMARK   12  A    between atoms: C14_13  and  C20_18 
REMARK   13  A    between atoms: C20_18  and  O22_19 
REMARK   14  A    between atoms: C20_18  and  C23_20 
REMARK   15  A    between atoms: C23_20  and  C24_21 
REMARK   16  A    between atoms: C24_21  and  C26_22 
REMARK   17  A    between atoms: C24_21  and  C36_32 
REMARK       I    between atoms: C26_22  and  N28_24 
REMARK   18  A    between atoms: N28_24  and  C29_25 
REMARK   19  A    between atoms: C29_25  and  C30_26 
REMARK   20  A    between atoms: C30_26  and  C33_29 
REMARK       I    between atoms: C33_29  and  N34_30 
REMARK   21  A    between atoms: C44_40  and  O45_41 
ROOT
ATOM      1  C14 ZIN A   1      19.923   0.560  12.855  0.00  0.00     0.212 C 
ENDROOT
BRANCH   1   2
ATOM      2  C13 ZIN A   1      19.973  -0.128  14.220  0.00  0.00     0.040 C 
BRANCH   2   3
ATOM      3  C11 ZIN A   1      19.025  -1.329  14.222  0.00  0.00    -0.005 C 
BRANCH   3   4
ATOM      4  C10 ZIN A   1      18.034  -1.197  13.063  0.00  0.00     0.043 C 
BRANCH   4   5
ATOM      5  C9  ZIN A   1      18.428  -2.142  11.956  0.00  0.00    -0.055 A 
ATOM      6  C8  ZIN A   1      17.962  -1.931  10.671  0.00  0.00     0.046 A 
ATOM      7  C7  ZIN A   1      18.322  -2.798   9.653  0.00  0.00     0.102 A 
ATOM      8  C44 ZIN A   1      19.149  -3.884   9.928  0.00  0.00     0.101 A 
ATOM      9  C43 ZIN A   1      19.616  -4.087  11.216  0.00  0.00     0.040 A 
ATOM     10  C42 ZIN A   1      19.252  -3.217  12.228  0.00  0.00     0.010 A 
BRANCH   7  11
ATOM     11  O6  ZIN A   1      17.866  -2.593   8.389  0.00  0.00    -0.348 OA
BRANCH  11  12
ATOM     12  C5  ZIN A   1      18.423  -1.491   7.669  0.00  0.00     0.178 C 
BRANCH  12  13
ATOM     13  C4  ZIN A   1      17.378  -0.381   7.544  0.00  0.00     0.053 C 
BRANCH  13  14
ATOM     14  C3  ZIN A   1      17.533   0.315   6.190  0.00  0.00     0.169 C 
BRANCH  14  15
ATOM     15  O2  ZIN A   1      17.800  -0.661   5.181  0.00  0.00    -0.396 OA
ATOM     16  C1  ZIN A   1      18.892  -0.325   4.321  0.00  0.00     0.201 C 
ENDBRANCH  14  15
ENDBRANCH  13  14
ENDBRANCH  12  13
ENDBRANCH  11  12
ENDBRANCH   7  11
BRANCH   8  17
ATOM     17  O45 ZIN A   1      19.506  -4.737   8.931  0.00  0.00    -0.353 OA
ATOM     18  C46 ZIN A   1      18.858  -6.012   8.907  0.00  0.00     0.210 C 
ENDBRANCH   8  17
ENDBRANCH   4   5
ENDBRANCH   3   4
BRANCH   3  19
ATOM     19  C39 ZIN A   1      18.260  -1.373  15.545  0.00  0.00    -0.018 C 
ATOM     20  C40 ZIN A   1      19.246  -1.573  16.698  0.00  0.00     0.010 C 
ATOM     21  C41 ZIN A   1      17.505  -0.057  15.743  0.00  0.00     0.010 C 
ENDBRANCH   3  19
ENDBRANCH   2   3
ENDBRANCH   1   2
BRANCH   1  22
ATOM     22  N16 ZIN A   1      21.271   0.595  12.275  0.00  0.00    -0.073 N 
ATOM     23  H17 ZIN A   1      21.227   0.979  11.343  0.00  0.00     0.274 HD
ATOM     24  H18 ZIN A   1      21.870   1.171  12.847  0.00  0.00     0.274 HD
ATOM     25  H19 ZIN A   1      21.645  -0.342  12.234  0.00  0.00     0.274 HD
ENDBRANCH   1  22
BRANCH   1  26
ATOM     26  C20 ZIN A   1      19.402   1.989  13.023  0.00  0.00     0.149 C 
BRANCH  26  27
ATOM     27  O22 ZIN A   1      19.644   2.429  14.361  0.00  0.00    -0.393 OA
ATOM     28  H61 ZIN A   1      19.581   3.388  14.478  0.00  0.00     0.210 HD
ENDBRANCH  26  27
BRANCH  26  29
ATOM     29  C23 ZIN A   1      20.126   2.914  12.043  0.00  0.00     0.048 C 
BRANCH  29  30
ATOM     30  C24 ZIN A   1      19.142   3.952  11.499  0.00  0.00     0.083 C 
BRANCH  30  31
ATOM     31  C26 ZIN A   1      18.224   4.402  12.607  0.00  0.00     0.222 C 
ATOM     32  O27 ZIN A   1      17.034   4.185  12.534  0.00  0.00    -0.273 OA
ATOM     33  N28 ZIN A   1      18.728   5.049  13.677  0.00  0.00    -0.360 N 
ATOM     34  H64 ZIN A   1      19.686   5.172  13.763  0.00  0.00     0.162 HD
BRANCH  33  35
ATOM     35  C29 ZIN A   1      17.826   5.563  14.712  0.00  0.00     0.141 C 
BRANCH  35  36
ATOM     36  C30 ZIN A   1      18.601   5.742  16.019  0.00  0.00     0.049 C 
ATOM     37  C31 ZIN A   1      18.215   7.075  16.663  0.00  0.00     0.027 C 
ATOM     38  C32 ZIN A   1      18.259   4.596  16.975  0.00  0.00     0.027 C 
BRANCH  36  39
ATOM     39  C33 ZIN A   1      20.080   5.733  15.732  0.00  0.00     0.225 C 
ATOM     40  N34 ZIN A   1      20.854   4.737  16.207  0.00  0.00    -0.369 N 
ATOM     41  H73 ZIN A   1      20.458   4.026  16.737  0.00  0.00     0.159 HD
ATOM     42  H74 ZIN A   1      21.806   4.732  16.023  0.00  0.00     0.159 HD
ATOM     43  O35 ZIN A   1      20.575   6.621  15.071  0.00  0.00    -0.273 OA
ENDBRANCH  36  39
ENDBRANCH  35  36
ENDBRANCH  33  35
ENDBRANCH  30  31
BRANCH  30  44
ATOM     44  C36 ZIN A   1      18.315   3.329  10.373  0.00  0.00    -0.010 C 
ATOM     45  C37 ZIN A   1      17.914   4.416   9.374  0.00  0.00     0.010 C 
ATOM     46  C38 ZIN A   1      19.149   2.262   9.659  0.00  0.00     0.010 C 
ENDBRANCH  30  44
ENDBRANCH  29  30
ENDBRANCH  26  29
ENDBRANCH   1  26
TORSDOF 21
ENDMDL
MODEL 5
REMARK VINA RESULT:      -7.5      2.272      5.072
REMARK  21 active torsions:
REMARK  status: ('A' for Active; 'I' for Inactive)
REMARK    1  A    between atoms: O2_2  and  C3_3 
REMARK    2  A    between atoms: C3_3  and  C4_4 
REMARK    3  A    between atoms: C4_4  and  C5_5 
REMARK    4  A    between atoms: C5_5  and  O6_6 
REMARK    5  A    between atoms: O6_6  and  C7_7 
REMARK    6  A    between atoms: C9_9  and  C10_10 
REMARK    7  A    between atoms: C10_10  and  C11_11 
REMARK    8  A    between atoms: C11_11  and  C13_12 
REMARK    9  A    between atoms: C11_11  and  C39_35 
REMARK   10  A    between atoms: C13_12  and  C14_13 
REMARK   11  A    between atoms: C14_13  and  N16_14 
REMARK   12  A    between atoms: C14_13  and  C20_18 
REMARK   13  A    between atoms: C20_18  and  O22_19 
REMARK   14  A    between atoms: C20_18  and  C23_20 
REMARK   15  A    between atoms: C23_20  and  C24_21 
REMARK   16  A    between atoms: C24_21  and  C26_22 
REMARK   17  A    between atoms: C24_21  and  C36_32 
REMARK       I    between atoms: C26_22  and  N28_24 
REMARK   18  A    between atoms: N28_24  and  C29_25 
REMARK   19  A    between atoms: C29_25  and  C30_26 
REMARK   20  A    between atoms: C30_26  and  C33_29 
REMARK       I    between atoms: C33_29  and  N34_30 
REMARK   21  A    between atoms: C44_40  and  O45_41 
ROOT
ATOM      1  C14 ZIN A   1      19.617  -0.209  12.326  0.00  0.00     0.212 C 
ENDROOT
BRANCH   1   2
ATOM      2  C13 ZIN A   1      19.361  -1.686  12.632  0.00  0.00     0.040 C 
BRANCH   2   3
ATOM      3  C11 ZIN A   1      19.209  -2.460  11.320  0.00  0.00    -0.005 C 
BRANCH   3   4
ATOM      4  C10 ZIN A   1      17.886  -2.076  10.653  0.00  0.00     0.043 C 
BRANCH   4   5
ATOM      5  C9  ZIN A   1      18.166  -1.301   9.391  0.00  0.00    -0.055 A 
ATOM      6  C8  ZIN A   1      18.749  -0.049   9.466  0.00  0.00     0.046 A 
ATOM      7  C7  ZIN A   1      19.007   0.664   8.307  0.00  0.00     0.102 A 
ATOM      8  C44 ZIN A   1      18.674   0.120   7.069  0.00  0.00     0.101 A 
ATOM      9  C43 ZIN A   1      18.094  -1.136   7.002  0.00  0.00     0.040 A 
ATOM     10  C42 ZIN A   1      17.839  -1.842   8.163  0.00  0.00     0.010 A 
BRANCH   7  11
ATOM     11  O6  ZIN A   1      19.580   1.895   8.377  0.00  0.00    -0.348 OA
BRANCH  11  12
ATOM     12  C5  ZIN A   1      18.706   3.007   8.580  0.00  0.00     0.178 C 
BRANCH  12  13
ATOM     13  C4  ZIN A   1      18.485   3.215  10.080  0.00  0.00     0.053 C 
BRANCH  13  14
ATOM     14  C3  ZIN A   1      17.490   4.358  10.295  0.00  0.00     0.169 C 
BRANCH  14  15
ATOM     15  O2  ZIN A   1      16.790   4.154  11.524  0.00  0.00    -0.396 OA
ATOM     16  C1  ZIN A   1      16.338   5.361  12.142  0.00  0.00     0.201 C 
ENDBRANCH  14  15
ENDBRANCH  13  14
ENDBRANCH  12  13
ENDBRANCH  11  12
ENDBRANCH   7  11
BRANCH   8  17
ATOM     17  O45 ZIN A   1      18.926   0.817   5.929  0.00  0.00    -0.353 OA
ATOM     18  C46 ZIN A   1      19.255   0.056   4.764  0.00  0.00     0.210 C 
ENDBRANCH   8  17
ENDBRANCH   4   5
ENDBRANCH   3   4
BRANCH   3  19
ATOM     19  C39 ZIN A   1      19.217  -3.962  11.610  0.00  0.00    -0.018 C 
ATOM     20  C40 ZIN A   1      17.791  -4.434  11.896  0.00  0.00     0.010 C 
ATOM     21  C41 ZIN A   1      19.768  -4.713  10.395  0.00  0.00     0.010 C 
ENDBRANCH   3  19
ENDBRANCH   2   3
ENDBRANCH   1   2
BRANCH   1  22
ATOM     22  N16 ZIN A   1      21.048   0.082  12.484  0.00  0.00    -0.073 N 
ATOM     23  H17 ZIN A   1      21.363   0.652  11.714  0.00  0.00     0.274 HD
ATOM     24  H18 ZIN A   1      21.199   0.575  13.351  0.00  0.00     0.274 HD
ATOM     25  H19 ZIN A   1      21.568  -0.784  12.496  0.00  0.00     0.274 HD
ENDBRANCH   1  22
BRANCH   1  26
ATOM     26  C20 ZIN A   1      18.810   0.659  13.293  0.00  0.00     0.149 C 
BRANCH  26  27
ATOM     27  O22 ZIN A   1      17.423   0.333  13.181  0.00  0.00    -0.393 OA
ATOM     28  H61 ZIN A   1      16.835   0.955  13.631  0.00  0.00     0.210 HD
ENDBRANCH  26  27
BRANCH  26  29
ATOM     29  C23 ZIN A   1      19.281   0.400  14.726  0.00  0.00     0.048 C 
BRANCH  29  30
ATOM     30  C24 ZIN A   1      18.251   0.957  15.710  0.00  0.00     0.083 C 
BRANCH  30  31
ATOM     31  C26 ZIN A   1      18.702   2.310  16.197  0.00  0.00     0.222 C 
ATOM     32  O27 ZIN A   1      19.509   2.392  17.098  0.00  0.00    -0.273 OA
ATOM     33  N28 ZIN A   1      18.207   3.428  15.631  0.00  0.00    -0.360 N 
ATOM     34  H64 ZIN A   1      17.606   3.364  14.873  0.00  0.00     0.162 HD
BRANCH  33  35
ATOM     35  C29 ZIN A   1      18.580   4.743  16.161  0.00  0.00     0.141 C 
BRANCH  35  36
ATOM     36  C30 ZIN A   1      19.335   5.530  15.088  0.00  0.00     0.049 C 
ATOM     37  C31 ZIN A   1      19.293   4.760  13.766  0.00  0.00     0.027 C 
ATOM     38  C32 ZIN A   1      18.677   6.899  14.901  0.00  0.00     0.027 C 
BRANCH  36  39
ATOM     39  C33 ZIN A   1      20.768   5.714  15.515  0.00  0.00     0.225 C 
ATOM     40  N34 ZIN A   1      21.365   4.791  16.293  0.00  0.00    -0.369 N 
ATOM     41  H73 ZIN A   1      20.870   4.006  16.580  0.00  0.00     0.159 HD
ATOM     42  H74 ZIN A   1      22.287   4.910  16.569  0.00  0.00     0.159 HD
ATOM     43  O35 ZIN A   1      21.385   6.695  15.156  0.00  0.00    -0.273 OA
ENDBRANCH  36  39
ENDBRANCH  35  36
ENDBRANCH  33  35
ENDBRANCH  30  31
BRANCH  30  44
ATOM     44  C36 ZIN A   1      18.116   0.005  16.900  0.00  0.00    -0.010 C 
ATOM     45  C37 ZIN A   1      16.662  -0.456  17.022  0.00  0.00     0.010 C 
ATOM     46  C38 ZIN A   1      19.021  -1.210  16.686  0.00  0.00     0.010 C 
ENDBRANCH  30  44
ENDBRANCH  29  30
ENDBRANCH  26  29
ENDBRANCH   1  26
TORSDOF 21
ENDMDL
MODEL 6
REMARK VINA RESULT:      -7.5      1.580      3.484
REMARK  21 active torsions:
REMARK  status: ('A' for Active; 'I' for Inactive)
REMARK    1  A    between atoms: O2_2  and  C3_3 
REMARK    2  A    between atoms: C3_3  and  C4_4 
REMARK    3  A    between atoms: C4_4  and  C5_5 
REMARK    4  A    between atoms: C5_5  and  O6_6 
REMARK    5  A    between atoms: O6_6  and  C7_7 
REMARK    6  A    between atoms: C9_9  and  C10_10 
REMARK    7  A    between atoms: C10_10  and  C11_11 
REMARK    8  A    between atoms: C11_11  and  C13_12 
REMARK    9  A    between atoms: C11_11  and  C39_35 
REMARK   10  A    between atoms: C13_12  and  C14_13 
REMARK   11  A    between atoms: C14_13  and  N16_14 
REMARK   12  A    between atoms: C14_13  and  C20_18 
REMARK   13  A    between atoms: C20_18  and  O22_19 
REMARK   14  A    between atoms: C20_18  and  C23_20 
REMARK   15  A    between atoms: C23_20  and  C24_21 
REMARK   16  A    between atoms: C24_21  and  C26_22 
REMARK   17  A    between atoms: C24_21  and  C36_32 
REMARK       I    between atoms: C26_22  and  N28_24 
REMARK   18  A    between atoms: N28_24  and  C29_25 
REMARK   19  A    between atoms: C29_25  and  C30_26 
REMARK   20  A    between atoms: C30_26  and  C33_29 
REMARK       I    between atoms: C33_29  and  N34_30 
REMARK   21  A    between atoms: C44_40  and  O45_41 
ROOT
ATOM      1  C14 ZIN A   1      20.087   0.387  12.039  0.00  0.00     0.212 C 
ENDROOT
BRANCH   1   2
ATOM      2  C13 ZIN A   1      19.778  -1.099  12.229  0.00  0.00     0.040 C 
BRANCH   2   3
ATOM      3  C11 ZIN A   1      19.441  -1.728  10.875  0.00  0.00    -0.005 C 
BRANCH   3   4
ATOM      4  C10 ZIN A   1      18.304  -0.942  10.218  0.00  0.00     0.043 C 
BRANCH   4   5
ATOM      5  C9  ZIN A   1      18.636  -0.694   8.769  0.00  0.00    -0.055 A 
ATOM      6  C8  ZIN A   1      19.026  -1.746   7.960  0.00  0.00     0.046 A 
ATOM      7  C7  ZIN A   1      19.332  -1.519   6.628  0.00  0.00     0.102 A 
ATOM      8  C44 ZIN A   1      19.251  -0.230   6.109  0.00  0.00     0.101 A 
ATOM      9  C43 ZIN A   1      18.856   0.818   6.923  0.00  0.00     0.040 A 
ATOM     10  C42 ZIN A   1      18.552   0.584   8.251  0.00  0.00     0.010 A 
BRANCH   7  11
ATOM     11  O6  ZIN A   1      19.716  -2.552   5.832  0.00  0.00    -0.348 OA
BRANCH  11  12
ATOM     12  C5  ZIN A   1      19.732  -3.854   6.420  0.00  0.00     0.178 C 
BRANCH  12  13
ATOM     13  C4  ZIN A   1      18.642  -4.717   5.779  0.00  0.00     0.053 C 
BRANCH  13  14
ATOM     14  C3  ZIN A   1      18.646  -6.104   6.424  0.00  0.00     0.169 C 
BRANCH  14  15
ATOM     15  O2  ZIN A   1      19.471  -6.085   7.591  0.00  0.00    -0.396 OA
ATOM     16  C1  ZIN A   1      18.756  -6.292   8.811  0.00  0.00     0.201 C 
ENDBRANCH  14  15
ENDBRANCH  13  14
ENDBRANCH  12  13
ENDBRANCH  11  12
ENDBRANCH   7  11
BRANCH   8  17
ATOM     17  O45 ZIN A   1      19.550  -0.003   4.801  0.00  0.00    -0.353 OA
ATOM     18  C46 ZIN A   1      18.474  -0.095   3.865  0.00  0.00     0.210 C 
ENDBRANCH   8  17
ENDBRANCH   4   5
ENDBRANCH   3   4
BRANCH   3  19
ATOM     19  C39 ZIN A   1      19.008  -3.180  11.079  0.00  0.00    -0.018 C 
ATOM     20  C40 ZIN A   1      20.221  -4.024  11.472  0.00  0.00     0.010 C 
ATOM     21  C41 ZIN A   1      17.959  -3.247  12.192  0.00  0.00     0.010 C 
ENDBRANCH   3  19
ENDBRANCH   2   3
ENDBRANCH   1   2
BRANCH   1  22
ATOM     22  N16 ZIN A   1      21.541   0.591  12.057  0.00  0.00    -0.073 N 
ATOM     23  H17 ZIN A   1      21.831   0.871  12.982  0.00  0.00     0.274 HD
ATOM     24  H18 ZIN A   1      22.005  -0.269  11.805  0.00  0.00     0.274 HD
ATOM     25  H19 ZIN A   1      21.788   1.312  11.395  0.00  0.00     0.274 HD
ENDBRANCH   1  22
BRANCH   1  26
ATOM     26  C20 ZIN A   1      19.445   1.190  13.173  0.00  0.00     0.149 C 
BRANCH  26  27
ATOM     27  O22 ZIN A   1      18.094   1.505  12.827  0.00  0.00    -0.393 OA
ATOM     28  H61 ZIN A   1      17.904   1.437  11.881  0.00  0.00     0.210 HD
ENDBRANCH  26  27
BRANCH  26  29
ATOM     29  C23 ZIN A   1      19.462   0.360  14.458  0.00  0.00     0.048 C 
BRANCH  29  30
ATOM     30  C24 ZIN A   1      18.332   0.823  15.380  0.00  0.00     0.083 C 
BRANCH  30  31
ATOM     31  C26 ZIN A   1      18.646   2.199  15.907  0.00  0.00     0.222 C 
ATOM     32  O27 ZIN A   1      19.560   2.354  16.689  0.00  0.00    -0.273 OA
ATOM     33  N28 ZIN A   1      17.910   3.256  15.512  0.00  0.00    -0.360 N 
ATOM     34  H64 ZIN A   1      17.217   3.141  14.843  0.00  0.00     0.162 HD
BRANCH  33  35
ATOM     35  C29 ZIN A   1      18.159   4.579  16.090  0.00  0.00     0.141 C 
BRANCH  35  36
ATOM     36  C30 ZIN A   1      18.032   5.644  14.999  0.00  0.00     0.049 C 
ATOM     37  C31 ZIN A   1      17.329   5.045  13.780  0.00  0.00     0.027 C 
ATOM     38  C32 ZIN A   1      17.214   6.824  15.530  0.00  0.00     0.027 C 
BRANCH  36  39
ATOM     39  C33 ZIN A   1      19.404   6.122  14.601  0.00  0.00     0.225 C 
ATOM     40  N34 ZIN A   1      20.318   5.245  14.141  0.00  0.00    -0.369 N 
ATOM     41  H73 ZIN A   1      20.092   4.304  14.067  0.00  0.00     0.159 HD
ATOM     42  H74 ZIN A   1      21.201   5.553  13.885  0.00  0.00     0.159 HD
ATOM     43  O35 ZIN A   1      19.687   7.298  14.694  0.00  0.00    -0.273 OA
ENDBRANCH  36  39
ENDBRANCH  35  36
ENDBRANCH  33  35
ENDBRANCH  30  31
BRANCH  30  44
ATOM     44  C36 ZIN A   1      18.196  -0.154  16.549  0.00  0.00    -0.010 C 
ATOM     45  C37 ZIN A   1      16.751  -0.147  17.054  0.00  0.00     0.010 C 
ATOM     46  C38 ZIN A   1      18.566  -1.564  16.082  0.00  0.00     0.010 C 
ENDBRANCH  30  44
ENDBRANCH  29  30
ENDBRANCH  26  29
ENDBRANCH   1  26
TORSDOF 21
ENDMDL
MODEL 7
REMARK VINA RESULT:      -7.3      2.818      4.991
REMARK  21 active torsions:
REMARK  status: ('A' for Active; 'I' for Inactive)
REMARK    1  A    between atoms: O2_2  and  C3_3 
REMARK    2  A    between atoms: C3_3  and  C4_4 
REMARK    3  A    between atoms: C4_4  and  C5_5 
REMARK    4  A    between atoms: C5_5  and  O6_6 
REMARK    5  A    between atoms: O6_6  and  C7_7 
REMARK    6  A    between atoms: C9_9  and  C10_10 
REMARK    7  A    between atoms: C10_10  and  C11_11 
REMARK    8  A    between atoms: C11_11  and  C13_12 
REMARK    9  A    between atoms: C11_11  and  C39_35 
REMARK   10  A    between atoms: C13_12  and  C14_13 
REMARK   11  A    between atoms: C14_13  and  N16_14 
REMARK   12  A    between atoms: C14_13  and  C20_18 
REMARK   13  A    between atoms: C20_18  and  O22_19 
REMARK   14  A    between atoms: C20_18  and  C23_20 
REMARK   15  A    between atoms: C23_20  and  C24_21 
REMARK   16  A    between atoms: C24_21  and  C26_22 
REMARK   17  A    between atoms: C24_21  and  C36_32 
REMARK       I    between atoms: C26_22  and  N28_24 
REMARK   18  A    between atoms: N28_24  and  C29_25 
REMARK   19  A    between atoms: C29_25  and  C30_26 
REMARK   20  A    between atoms: C30_26  and  C33_29 
REMARK       I    between atoms: C33_29  and  N34_30 
REMARK   21  A    between atoms: C44_40  and  O45_41 
ROOT
ATOM      1  C14 ZIN A   1      18.939  -2.695   8.504  0.00  0.00     0.212 C 
ENDROOT
BRANCH   1   2
ATOM      2  C13 ZIN A   1      19.633  -2.303   7.198  0.00  0.00     0.040 C 
BRANCH   2   3
ATOM      3  C11 ZIN A   1      18.581  -1.922   6.155  0.00  0.00    -0.005 C 
BRANCH   3   4
ATOM      4  C10 ZIN A   1      18.920  -2.592   4.821  0.00  0.00     0.043 C 
BRANCH   4   5
ATOM      5  C9  ZIN A   1      17.887  -3.646   4.513  0.00  0.00    -0.055 A 
ATOM      6  C8  ZIN A   1      17.904  -4.849   5.195  0.00  0.00     0.046 A 
ATOM      7  C7  ZIN A   1      16.955  -5.818   4.913  0.00  0.00     0.102 A 
ATOM      8  C44 ZIN A   1      15.991  -5.580   3.937  0.00  0.00     0.101 A 
ATOM      9  C43 ZIN A   1      15.978  -4.372   3.260  0.00  0.00     0.040 A 
ATOM     10  C42 ZIN A   1      16.928  -3.409   3.547  0.00  0.00     0.010 A 
BRANCH   7  11
ATOM     11  O6  ZIN A   1      16.969  -7.001   5.582  0.00  0.00    -0.348 OA
BRANCH  11  12
ATOM     12  C5  ZIN A   1      16.803  -6.946   7.001  0.00  0.00     0.178 C 
BRANCH  12  13
ATOM     13  C4  ZIN A   1      15.394  -6.449   7.330  0.00  0.00     0.053 C 
BRANCH  13  14
ATOM     14  C3  ZIN A   1      15.404  -5.754   8.693  0.00  0.00     0.169 C 
BRANCH  14  15
ATOM     15  O2  ZIN A   1      16.754  -5.583   9.130  0.00  0.00    -0.396 OA
ATOM     16  C1  ZIN A   1      16.905  -5.549  10.551  0.00  0.00     0.201 C 
ENDBRANCH  14  15
ENDBRANCH  13  14
ENDBRANCH  12  13
ENDBRANCH  11  12
ENDBRANCH   7  11
BRANCH   8  17
ATOM     17  O45 ZIN A   1      15.058  -6.529   3.656  0.00  0.00    -0.353 OA
ATOM     18  C46 ZIN A   1      13.698  -6.212   3.963  0.00  0.00     0.210 C 
ENDBRANCH   8  17
ENDBRANCH   4   5
ENDBRANCH   3   4
BRANCH   3  19
ATOM     19  C39 ZIN A   1      18.569  -0.403   5.973  0.00  0.00    -0.018 C 
ATOM     20  C40 ZIN A   1      19.156  -0.048   4.606  0.00  0.00     0.010 C 
ATOM     21  C41 ZIN A   1      17.129   0.109   6.058  0.00  0.00     0.010 C 
ENDBRANCH   3  19
ENDBRANCH   2   3
ENDBRANCH   1   2
BRANCH   1  22
ATOM     22  N16 ZIN A   1      17.497  -2.841   8.266  0.00  0.00    -0.073 N 
ATOM     23  H17 ZIN A   1      17.311  -2.783   7.277  0.00  0.00     0.274 HD
ATOM     24  H18 ZIN A   1      17.187  -3.736   8.614  0.00  0.00     0.274 HD
ATOM     25  H19 ZIN A   1      17.000  -2.104   8.745  0.00  0.00     0.274 HD
ENDBRANCH   1  22
BRANCH   1  26
ATOM     26  C20 ZIN A   1      19.175  -1.607   9.553  0.00  0.00     0.149 C 
BRANCH  26  27
ATOM     27  O22 ZIN A   1      20.391  -0.916   9.257  0.00  0.00    -0.393 OA
ATOM     28  H61 ZIN A   1      20.932  -1.344   8.578  0.00  0.00     0.210 HD
ENDBRANCH  26  27
BRANCH  26  29
ATOM     29  C23 ZIN A   1      18.009  -0.617   9.533  0.00  0.00     0.048 C 
BRANCH  29  30
ATOM     30  C24 ZIN A   1      18.260   0.490  10.560  0.00  0.00     0.083 C 
BRANCH  30  31
ATOM     31  C26 ZIN A   1      17.391   0.259  11.769  0.00  0.00     0.222 C 
ATOM     32  O27 ZIN A   1      16.186   0.203  11.648  0.00  0.00    -0.273 OA
ATOM     33  N28 ZIN A   1      17.954   0.117  12.985  0.00  0.00    -0.360 N 
ATOM     34  H64 ZIN A   1      18.919   0.104  13.075  0.00  0.00     0.162 HD
BRANCH  33  35
ATOM     35  C29 ZIN A   1      17.106  -0.020  14.173  0.00  0.00     0.141 C 
BRANCH  35  36
ATOM     36  C30 ZIN A   1      17.960   0.145  15.431  0.00  0.00     0.049 C 
ATOM     37  C31 ZIN A   1      17.121  -0.190  16.666  0.00  0.00     0.027 C 
ATOM     38  C32 ZIN A   1      19.161  -0.802  15.359  0.00  0.00     0.027 C 
BRANCH  36  39
ATOM     39  C33 ZIN A   1      18.446   1.568  15.525  0.00  0.00     0.225 C 
ATOM     40  N34 ZIN A   1      19.332   1.916  16.479  0.00  0.00    -0.369 N 
ATOM     41  H73 ZIN A   1      19.656   1.250  17.106  0.00  0.00     0.159 HD
ATOM     42  H74 ZIN A   1      19.645   2.832  16.540  0.00  0.00     0.159 HD
ATOM     43  O35 ZIN A   1      18.041   2.400  14.742  0.00  0.00    -0.273 OA
ENDBRANCH  36  39
ENDBRANCH  35  36
ENDBRANCH  33  35
ENDBRANCH  30  31
BRANCH  30  44
ATOM     44  C36 ZIN A   1      17.923   1.847   9.939  0.00  0.00    -0.010 C 
ATOM     45  C37 ZIN A   1      18.028   2.936  11.009  0.00  0.00     0.010 C 
ATOM     46  C38 ZIN A   1      18.907   2.148   8.806  0.00  0.00     0.010 C 
ENDBRANCH  30  44
ENDBRANCH  29  30
ENDBRANCH  26  29
ENDBRANCH   1  26
TORSDOF 21
ENDMDL
MODEL 8
REMARK VINA RESULT:      -7.3      2.243      9.955
REMARK  21 active torsions:
REMARK  status: ('A' for Active; 'I' for Inactive)
REMARK    1  A    between atoms: O2_2  and  C3_3 
REMARK    2  A    between atoms: C3_3  and  C4_4 
REMARK    3  A    between atoms: C4_4  and  C5_5 
REMARK    4  A    between atoms: C5_5  and  O6_6 
REMARK    5  A    between atoms: O6_6  and  C7_7 
REMARK    6  A    between atoms: C9_9  and  C10_10 
REMARK    7  A    between atoms: C10_10  and  C11_11 
REMARK    8  A    between atoms: C11_11  and  C13_12 
REMARK    9  A    between atoms: C11_11  and  C39_35 
REMARK   10  A    between atoms: C13_12  and  C14_13 
REMARK   11  A    between atoms: C14_13  and  N16_14 
REMARK   12  A    between atoms: C14_13  and  C20_18 
REMARK   13  A    between atoms: C20_18  and  O22_19 
REMARK   14  A    between atoms: C20_18  and  C23_20 
REMARK   15  A    between atoms: C23_20  and  C24_21 
REMARK   16  A    between atoms: C24_21  and  C26_22 
REMARK   17  A    between atoms: C24_21  and  C36_32 
REMARK       I    between atoms: C26_22  and  N28_24 
REMARK   18  A    between atoms: N28_24  and  C29_25 
REMARK   19  A    between atoms: C29_25  and  C30_26 
REMARK   20  A    between atoms: C30_26  and  C33_29 
REMARK       I    between atoms: C33_29  and  N34_30 
REMARK   21  A    between atoms: C44_40  and  O45_41 
ROOT
ATOM      1  C14 ZIN A   1      19.694   1.051  11.218  0.00  0.00     0.212 C 
ENDROOT
BRANCH   1   2
ATOM      2  C13 ZIN A   1      19.251   2.433  10.734  0.00  0.00     0.040 C 
BRANCH   2   3
ATOM      3  C11 ZIN A   1      18.237   3.019  11.719  0.00  0.00    -0.005 C 
BRANCH   3   4
ATOM      4  C10 ZIN A   1      17.441   1.882  12.365  0.00  0.00     0.043 C 
BRANCH   4   5
ATOM      5  C9  ZIN A   1      17.921   1.675  13.779  0.00  0.00    -0.055 A 
ATOM      6  C8  ZIN A   1      18.540   2.710  14.456  0.00  0.00     0.046 A 
ATOM      7  C7  ZIN A   1      18.981   2.521  15.756  0.00  0.00     0.102 A 
ATOM      8  C44 ZIN A   1      18.804   1.286  16.375  0.00  0.00     0.101 A 
ATOM      9  C43 ZIN A   1      18.179   0.256  15.693  0.00  0.00     0.040 A 
ATOM     10  C42 ZIN A   1      17.741   0.452  14.396  0.00  0.00     0.010 A 
BRANCH   7  11
ATOM     11  O6  ZIN A   1      19.591   3.536  16.423  0.00  0.00    -0.348 OA
BRANCH  11  12
ATOM     12  C5  ZIN A   1      19.748   4.772  15.722  0.00  0.00     0.178 C 
BRANCH  12  13
ATOM     13  C4  ZIN A   1      19.157   5.910  16.555  0.00  0.00     0.053 C 
BRANCH  13  14
ATOM     14  C3  ZIN A   1      17.788   5.490  17.095  0.00  0.00     0.169 C 
BRANCH  14  15
ATOM     15  O2  ZIN A   1      16.786   6.374  16.588  0.00  0.00    -0.396 OA
ATOM     16  C1  ZIN A   1      17.282   7.659  16.209  0.00  0.00     0.201 C 
ENDBRANCH  14  15
ENDBRANCH  13  14
ENDBRANCH  12  13
ENDBRANCH  11  12
ENDBRANCH   7  11
BRANCH   8  17
ATOM     17  O45 ZIN A   1      19.236   1.096  17.651  0.00  0.00    -0.353 OA
ATOM     18  C46 ZIN A   1      18.233   0.982  18.664  0.00  0.00     0.210 C 
ENDBRANCH   8  17
ENDBRANCH   4   5
ENDBRANCH   3   4
BRANCH   3  19
ATOM     19  C39 ZIN A   1      17.281   3.951  10.973  0.00  0.00    -0.018 C 
ATOM     20  C40 ZIN A   1      16.830   5.074  11.909  0.00  0.00     0.010 C 
ATOM     21  C41 ZIN A   1      17.996   4.554   9.762  0.00  0.00     0.010 C 
ENDBRANCH   3  19
ENDBRANCH   2   3
ENDBRANCH   1   2
BRANCH   1  22
ATOM     22  N16 ZIN A   1      21.001   1.161  11.881  0.00  0.00    -0.073 N 
ATOM     23  H17 ZIN A   1      21.382   2.082  11.724  0.00  0.00     0.274 HD
ATOM     24  H18 ZIN A   1      20.891   1.007  12.871  0.00  0.00     0.274 HD
ATOM     25  H19 ZIN A   1      21.630   0.468  11.501  0.00  0.00     0.274 HD
ENDBRANCH   1  22
BRANCH   1  26
ATOM     26  C20 ZIN A   1      19.806   0.103  10.023  0.00  0.00     0.149 C 
BRANCH  26  27
ATOM     27  O22 ZIN A   1      21.036  -0.619  10.102  0.00  0.00    -0.393 OA
ATOM     28  H61 ZIN A   1      21.566  -0.586   9.293  0.00  0.00     0.210 HD
ENDBRANCH  26  27
BRANCH  26  29
ATOM     29  C23 ZIN A   1      18.635  -0.880  10.041  0.00  0.00     0.048 C 
BRANCH  29  30
ATOM     30  C24 ZIN A   1      19.164  -2.307   9.881  0.00  0.00     0.083 C 
BRANCH  30  31
ATOM     31  C26 ZIN A   1      18.914  -2.780   8.472  0.00  0.00     0.222 C 
ATOM     32  O27 ZIN A   1      19.419  -3.811   8.080  0.00  0.00    -0.273 OA
ATOM     33  N28 ZIN A   1      18.132  -2.056   7.647  0.00  0.00    -0.360 N 
ATOM     34  H64 ZIN A   1      17.682  -1.263   7.978  0.00  0.00     0.162 HD
BRANCH  33  35
ATOM     35  C29 ZIN A   1      17.959  -2.469   6.252  0.00  0.00     0.141 C 
BRANCH  35  36
ATOM     36  C30 ZIN A   1      17.807  -1.229   5.369  0.00  0.00     0.049 C 
ATOM     37  C31 ZIN A   1      17.234  -1.638   4.010  0.00  0.00     0.027 C 
ATOM     38  C32 ZIN A   1      16.858  -0.235   6.043  0.00  0.00     0.027 C 
BRANCH  36  39
ATOM     39  C33 ZIN A   1      19.154  -0.584   5.172  0.00  0.00     0.225 C 
ATOM     40  N34 ZIN A   1      19.423   0.605   5.745  0.00  0.00    -0.369 N 
ATOM     41  H73 ZIN A   1      18.748   1.047   6.284  0.00  0.00     0.159 HD
ATOM     42  H74 ZIN A   1      20.290   1.021   5.618  0.00  0.00     0.159 HD
ATOM     43  O35 ZIN A   1      19.998  -1.137   4.498  0.00  0.00    -0.273 OA
ENDBRANCH  36  39
ENDBRANCH  35  36
ENDBRANCH  33  35
ENDBRANCH  30  31
BRANCH  30  44
ATOM     44  C36 ZIN A   1      18.444  -3.231  10.865  0.00  0.00    -0.010 C 
ATOM     45  C37 ZIN A   1      19.463  -4.154  11.536  0.00  0.00     0.010 C 
ATOM     46  C38 ZIN A   1      17.737  -2.390  11.931  0.00  0.00     0.010 C 
ENDBRANCH  30  44
ENDBRANCH  29  30
ENDBRANCH  26  29
ENDBRANCH   1  26
TORSDOF 21
ENDMDL
MODEL 9
REMARK VINA RESULT:      -7.2      3.139      9.890
REMARK  21 active torsions:
REMARK  status: ('A' for Active; 'I' for Inactive)
REMARK    1  A    between atoms: O2_2  and  C3_3 
REMARK    2  A    between atoms: C3_3  and  C4_4 
REMARK    3  A    between atoms: C4_4  and  C5_5 
REMARK    4  A    between atoms: C5_5  and  O6_6 
REMARK    5  A    between atoms: O6_6  and  C7_7 
REMARK    6  A    between atoms: C9_9  and  C10_10 
REMARK    7  A    between atoms: C10_10  and  C11_11 
REMARK    8  A    between atoms: C11_11  and  C13_12 
REMARK    9  A    between atoms: C11_11  and  C39_35 
REMARK   10  A    between atoms: C13_12  and  C14_13 
REMARK   11  A    between atoms: C14_13  and  N16_14 
REMARK   12  A    between atoms: C14_13  and  C20_18 
REMARK   13  A    between atoms: C20_18  and  O22_19 
REMARK   14  A    between atoms: C20_18  and  C23_20 
REMARK   15  A    between atoms: C23_20  and  C24_21 
REMARK   16  A    between atoms: C24_21  and  C26_22 
REMARK   17  A    between atoms: C24_21  and  C36_32 
REMARK       I    between atoms: C26_22  and  N28_24 
REMARK   18  A    between atoms: N28_24  and  C29_25 
REMARK   19  A    between atoms: C29_25  and  C30_26 
REMARK   20  A    between atoms: C30_26  and  C33_29 
REMARK       I    between atoms: C33_29  and  N34_30 
REMARK   21  A    between atoms: C44_40  and  O45_41 
ROOT
ATOM      1  C14 ZIN A   1      17.812  -1.078  12.871  0.00  0.00     0.212 C 
ENDROOT
BRANCH   1   2
ATOM      2  C13 ZIN A   1      18.832  -0.278  13.685  0.00  0.00     0.040 C 
BRANCH   2   3
ATOM      3  C11 ZIN A   1      18.151   0.304  14.925  0.00  0.00    -0.005 C 
BRANCH   3   4
ATOM      4  C10 ZIN A   1      19.122   1.243  15.645  0.00  0.00     0.043 C 
BRANCH   4   5
ATOM      5  C9  ZIN A   1      18.574   2.647  15.622  0.00  0.00    -0.055 A 
ATOM      6  C8  ZIN A   1      18.608   3.420  16.768  0.00  0.00     0.046 A 
ATOM      7  C7  ZIN A   1      18.105   4.711  16.747  0.00  0.00     0.102 A 
ATOM      8  C44 ZIN A   1      17.560   5.224  15.572  0.00  0.00     0.101 A 
ATOM      9  C43 ZIN A   1      17.533   4.445  14.427  0.00  0.00     0.040 A 
ATOM     10  C42 ZIN A   1      18.037   3.158  14.455  0.00  0.00     0.010 A 
BRANCH   7  11
ATOM     11  O6  ZIN A   1      18.137   5.473  17.872  0.00  0.00    -0.348 OA
BRANCH  11  12
ATOM     12  C5  ZIN A   1      17.217   5.134  18.912  0.00  0.00     0.178 C 
BRANCH  12  13
ATOM     13  C4  ZIN A   1      16.574   6.410  19.460  0.00  0.00     0.053 C 
BRANCH  13  14
ATOM     14  C3  ZIN A   1      15.063   6.207  19.584  0.00  0.00     0.169 C 
BRANCH  14  15
ATOM     15  O2  ZIN A   1      14.557   5.645  18.372  0.00  0.00    -0.396 OA
ATOM     16  C1  ZIN A   1      13.787   6.556  17.585  0.00  0.00     0.201 C 
ENDBRANCH  14  15
ENDBRANCH  13  14
ENDBRANCH  12  13
ENDBRANCH  11  12
ENDBRANCH   7  11
BRANCH   8  17
ATOM     17  O45 ZIN A   1      17.065   6.490  15.548  0.00  0.00    -0.353 OA
ATOM     18  C46 ZIN A   1      16.058   6.774  14.574  0.00  0.00     0.210 C 
ENDBRANCH   8  17
ENDBRANCH   4   5
ENDBRANCH   3   4
BRANCH   3  19
ATOM     19  C39 ZIN A   1      17.747  -0.831  15.866  0.00  0.00    -0.018 C 
ATOM     20  C40 ZIN A   1      19.000  -1.441  16.497  0.00  0.00     0.010 C 
ATOM     21  C41 ZIN A   1      16.837  -0.282  16.968  0.00  0.00     0.010 C 
ENDBRANCH   3  19
ENDBRANCH   2   3
ENDBRANCH   1   2
BRANCH   1  22
ATOM     22  N16 ZIN A   1      18.406  -2.360  12.469  0.00  0.00    -0.073 N 
ATOM     23  H17 ZIN A   1      17.782  -3.113  12.718  0.00  0.00     0.274 HD
ATOM     24  H18 ZIN A   1      18.556  -2.364  11.472  0.00  0.00     0.274 HD
ATOM     25  H19 ZIN A   1      19.289  -2.485  12.942  0.00  0.00     0.274 HD
ENDBRANCH   1  22
BRANCH   1  26
ATOM     26  C20 ZIN A   1      17.419  -0.284  11.625  0.00  0.00     0.149 C 
BRANCH  26  27
ATOM     27  O22 ZIN A   1      16.024   0.022  11.676  0.00  0.00    -0.393 OA
ATOM     28  H61 ZIN A   1      15.454  -0.754  11.770  0.00  0.00     0.210 HD
ENDBRANCH  26  27
BRANCH  26  29
ATOM     29  C23 ZIN A   1      18.225   1.016  11.573  0.00  0.00     0.048 C 
BRANCH  29  30
ATOM     30  C24 ZIN A   1      18.239   1.550  10.139  0.00  0.00     0.083 C 
BRANCH  30  31
ATOM     31  C26 ZIN A   1      18.990   0.590   9.253  0.00  0.00     0.222 C 
ATOM     32  O27 ZIN A   1      20.092   0.201   9.577  0.00  0.00    -0.273 OA
ATOM     33  N28 ZIN A   1      18.438   0.166   8.099  0.00  0.00    -0.360 N 
ATOM     34  H64 ZIN A   1      17.534   0.431   7.868  0.00  0.00     0.162 HD
BRANCH  33  35
ATOM     35  C29 ZIN A   1      19.202  -0.698   7.196  0.00  0.00     0.141 C 
BRANCH  35  36
ATOM     36  C30 ZIN A   1      18.528  -0.723   5.823  0.00  0.00     0.049 C 
ATOM     37  C31 ZIN A   1      17.089  -0.218   5.951  0.00  0.00     0.027 C 
ATOM     38  C32 ZIN A   1      19.301   0.180   4.859  0.00  0.00     0.027 C 
BRANCH  36  39
ATOM     39  C33 ZIN A   1      18.519  -2.133   5.292  0.00  0.00     0.225 C 
ATOM     40  N34 ZIN A   1      18.926  -2.383   4.032  0.00  0.00    -0.369 N 
ATOM     41  H73 ZIN A   1      19.223  -1.654   3.465  0.00  0.00     0.159 HD
ATOM     42  H74 ZIN A   1      18.920  -3.291   3.691  0.00  0.00     0.159 HD
ATOM     43  O35 ZIN A   1      18.147  -3.045   6.001  0.00  0.00    -0.273 OA
ENDBRANCH  36  39
ENDBRANCH  35  36
ENDBRANCH  33  35
ENDBRANCH  30  31
BRANCH  30  44
ATOM     44  C36 ZIN A   1      18.927   2.916  10.111  0.00  0.00    -0.010 C 
ATOM     45  C37 ZIN A   1      17.869   4.021  10.154  0.00  0.00     0.010 C 
ATOM     46  C38 ZIN A   1      19.850   3.047  11.326  0.00  0.00     0.010 C 
ENDBRANCH  30  44
ENDBRANCH  29  30
ENDBRANCH  26  29
ENDBRANCH   1  26
TORSDOF 21
ENDMDL
