MODEL 1
REMARK VINA RESULT:      -9.4      0.000      0.000
REMARK  5 active torsions:
REMARK  status: ('A' for Active; 'I' for Inactive)
REMARK    1  A    between atoms: C4_4  and  C5_5 
REMARK    2  A    between atoms: C12_12  and  N13_13 
REMARK    3  A    between atoms: N13_13  and  C14_14 
REMARK    4  A    between atoms: C18_18  and  N19_19 
REMARK    5  A    between atoms: N19_19  and  C20_20 
ROOT
ATOM      1  C5  ZIN A   1      18.993  -0.521  15.792  0.00  0.00     0.022 C 
ATOM      2  C6  ZIN A   1      19.009   0.785  16.134  0.00  0.00     0.094 C 
ATOM      3  C7  ZIN A   1      19.310   1.169  17.480  0.00  0.00     0.087 C 
ATOM      4  N8  ZIN A   1      19.550   1.474  18.548  0.00  0.00    -0.192 NA
ENDROOT
BRANCH   1   5
ATOM      5  C4  ZIN A   1      18.684  -0.914  14.410  0.00  0.00    -0.035 A 
ATOM      6  C3  ZIN A   1      19.406  -1.944  13.795  0.00  0.00     0.020 A 
ATOM      7  C2  ZIN A   1      19.110  -2.311  12.502  0.00  0.00    -0.034 A 
ATOM      8  C1  ZIN A   1      19.882  -3.423  11.840  0.00  0.00     0.050 C 
ATOM      9  C12 ZIN A   1      18.102  -1.654  11.802  0.00  0.00     0.045 A 
ATOM     10  C10 ZIN A   1      17.382  -0.630  12.411  0.00  0.00    -0.034 A 
ATOM     11  C9  ZIN A   1      17.668  -0.260  13.705  0.00  0.00     0.020 A 
ATOM     12  C11 ZIN A   1      16.288   0.074  11.651  0.00  0.00     0.050 C 
BRANCH   9  13
ATOM     13  N13 ZIN A   1      17.810  -2.026  10.492  0.00  0.00    -0.340 N 
ATOM     14  H39 ZIN A   1      17.274  -2.816  10.320  0.00  0.00     0.167 HD
BRANCH  13  15
ATOM     15  C14 ZIN A   1      18.284  -1.267   9.433  0.00  0.00     0.148 A 
ATOM     16  N28 ZIN A   1      18.753  -0.041   9.638  0.00  0.00    -0.045 NA
ATOM     17  C18 ZIN A   1      19.206   0.686   8.628  0.00  0.00     0.728 A 
ATOM     18  N17 ZIN A   1      19.210   0.224   7.386  0.00  0.00    -0.075 NA
ATOM     19  C16 ZIN A   1      18.758  -0.989   7.109  0.00  0.00     0.140 A 
ATOM     20  C15 ZIN A   1      18.281  -1.783   8.135  0.00  0.00     0.071 A 
BRANCH  17  21
ATOM     21  N19 ZIN A   1      19.688   1.961   8.876  0.00  0.00    -0.188 N 
ATOM     22  H42 ZIN A   1      20.362   2.347   8.294  0.00  0.00     0.184 HD
BRANCH  21  23
ATOM     23  C20 ZIN A   1      19.204   2.690   9.960  0.00  0.00     0.049 A 
ATOM     24  C27 ZIN A   1      19.783   2.535  11.216  0.00  0.00     0.031 A 
ATOM     25  C26 ZIN A   1      19.307   3.254  12.289  0.00  0.00     0.025 A 
ATOM     26  C23 ZIN A   1      18.243   4.142  12.116  0.00  0.00     0.044 A 
ATOM     27  C22 ZIN A   1      17.664   4.297  10.853  0.00  0.00     0.025 A 
ATOM     28  C24 ZIN A   1      17.746   4.893  13.230  0.00  0.00     0.099 C 
ATOM     29  C21 ZIN A   1      18.148   3.579   9.783  0.00  0.00     0.031 A 
ATOM     30  N25 ZIN A   1      17.352   5.488  14.113  0.00  0.00    -0.191 NA
ENDBRANCH  21  23
ENDBRANCH  17  21
ENDBRANCH  13  15
ENDBRANCH   9  13
ENDBRANCH   1   5
TORSDOF 5
ENDMDL
MODEL 2
REMARK VINA RESULT:      -8.9      2.285      7.756
REMARK  5 active torsions:
REMARK  status: ('A' for Active; 'I' for Inactive)
REMARK    1  A    between atoms: C4_4  and  C5_5 
REMARK    2  A    between atoms: C12_12  and  N13_13 
REMARK    3  A    between atoms: N13_13  and  C14_14 
REMARK    4  A    between atoms: C18_18  and  N19_19 
REMARK    5  A    between atoms: N19_19  and  C20_20 
ROOT
ATOM      1  C5  ZIN A   1      18.869   1.387   7.179  0.00  0.00     0.022 C 
ATOM      2  C6  ZIN A   1      18.695   0.193   6.574  0.00  0.00     0.094 C 
ATOM      3  C7  ZIN A   1      18.942   0.059   5.170  0.00  0.00     0.087 C 
ATOM      4  N8  ZIN A   1      19.139  -0.048   4.056  0.00  0.00    -0.192 NA
ENDROOT
BRANCH   1   5
ATOM      5  C4  ZIN A   1      18.616   1.524   8.621  0.00  0.00    -0.035 A 
ATOM      6  C3  ZIN A   1      17.623   0.753   9.235  0.00  0.00     0.020 A 
ATOM      7  C2  ZIN A   1      17.393   0.881  10.586  0.00  0.00    -0.034 A 
ATOM      8  C1  ZIN A   1      16.328   0.047  11.250  0.00  0.00     0.050 C 
ATOM      9  C12 ZIN A   1      18.138   1.784  11.339  0.00  0.00     0.045 A 
ATOM     10  C10 ZIN A   1      19.127   2.552  10.731  0.00  0.00    -0.034 A 
ATOM     11  C9  ZIN A   1      19.367   2.426   9.382  0.00  0.00     0.020 A 
ATOM     12  C11 ZIN A   1      19.935   3.524  11.552  0.00  0.00     0.050 C 
BRANCH   9  13
ATOM     13  N13 ZIN A   1      17.897   1.914  12.705  0.00  0.00    -0.340 N 
ATOM     14  H39 ZIN A   1      17.490   2.724  13.050  0.00  0.00     0.167 HD
BRANCH  13  15
ATOM     15  C14 ZIN A   1      18.240   0.888  13.572  0.00  0.00     0.148 A 
ATOM     16  N28 ZIN A   1      18.941  -0.154  13.139  0.00  0.00    -0.045 NA
ATOM     17  C18 ZIN A   1      19.269  -1.137  13.966  0.00  0.00     0.728 A 
ATOM     18  N17 ZIN A   1      18.914  -1.119  15.242  0.00  0.00    -0.075 NA
ATOM     19  C16 ZIN A   1      18.215  -0.111  15.740  0.00  0.00     0.140 A 
ATOM     20  C15 ZIN A   1      17.856   0.937  14.914  0.00  0.00     0.071 A 
BRANCH  17  21
ATOM     21  N19 ZIN A   1      20.001  -2.209  13.483  0.00  0.00    -0.188 N 
ATOM     22  H42 ZIN A   1      20.875  -2.407  13.854  0.00  0.00     0.184 HD
BRANCH  21  23
ATOM     23  C20 ZIN A   1      19.480  -3.007  12.465  0.00  0.00     0.049 A 
ATOM     24  C27 ZIN A   1      18.106  -3.049  12.250  0.00  0.00     0.031 A 
ATOM     25  C26 ZIN A   1      17.588  -3.835  11.245  0.00  0.00     0.025 A 
ATOM     26  C23 ZIN A   1      18.445  -4.589  10.439  0.00  0.00     0.044 A 
ATOM     27  C22 ZIN A   1      19.826  -4.543  10.656  0.00  0.00     0.025 A 
ATOM     28  C24 ZIN A   1      17.910  -5.407   9.392  0.00  0.00     0.099 C 
ATOM     29  C21 ZIN A   1      20.336  -3.751  11.659  0.00  0.00     0.031 A 
ATOM     30  N25 ZIN A   1      17.486  -6.055   8.561  0.00  0.00    -0.191 NA
ENDBRANCH  21  23
ENDBRANCH  17  21
ENDBRANCH  13  15
ENDBRANCH   9  13
ENDBRANCH   1   5
TORSDOF 5
ENDMDL
MODEL 3
REMARK VINA RESULT:      -8.7      2.098      5.839
REMARK  5 active torsions:
REMARK  status: ('A' for Active; 'I' for Inactive)
REMARK    1  A    between atoms: C4_4  and  C5_5 
REMARK    2  A    between atoms: C12_12  and  N13_13 
REMARK    3  A    between atoms: N13_13  and  C14_14 
REMARK    4  A    between atoms: C18_18  and  N19_19 
REMARK    5  A    between atoms: N19_19  and  C20_20 
ROOT
ATOM      1  C5  ZIN A   1      18.789  -3.638  11.784  0.00  0.00     0.022 C 
ATOM      2  C6  ZIN A   1      17.568  -4.216  11.765  0.00  0.00     0.094 C 
ATOM      3  C7  ZIN A   1      17.368  -5.444  11.056  0.00  0.00     0.087 C 
ATOM      4  N8  ZIN A   1      17.210  -6.418  10.494  0.00  0.00    -0.192 NA
ENDROOT
BRANCH   1   5
ATOM      5  C4  ZIN A   1      18.993  -2.378  12.513  0.00  0.00    -0.035 A 
ATOM      6  C3  ZIN A   1      18.322  -2.147  13.718  0.00  0.00     0.020 A 
ATOM      7  C2  ZIN A   1      18.520  -0.967  14.399  0.00  0.00    -0.034 A 
ATOM      8  C1  ZIN A   1      17.802  -0.719  15.700  0.00  0.00     0.050 C 
ATOM      9  C12 ZIN A   1      19.379   0.000  13.884  0.00  0.00     0.045 A 
ATOM     10  C10 ZIN A   1      20.049  -0.227  12.685  0.00  0.00    -0.034 A 
ATOM     11  C9  ZIN A   1      19.861  -1.406  12.001  0.00  0.00     0.020 A 
ATOM     12  C11 ZIN A   1      20.982   0.821  12.136  0.00  0.00     0.050 C 
BRANCH   9  13
ATOM     13  N13 ZIN A   1      19.572   1.195  14.573  0.00  0.00    -0.340 N 
ATOM     14  H39 ZIN A   1      20.170   1.224  15.336  0.00  0.00     0.167 HD
BRANCH  13  15
ATOM     15  C14 ZIN A   1      18.911   2.344  14.169  0.00  0.00     0.148 A 
ATOM     16  N28 ZIN A   1      18.498   2.480  12.914  0.00  0.00    -0.045 NA
ATOM     17  C18 ZIN A   1      17.866   3.577  12.525  0.00  0.00     0.728 A 
ATOM     18  N17 ZIN A   1      17.622   4.573  13.365  0.00  0.00    -0.075 NA
ATOM     19  C16 ZIN A   1      18.004   4.505  14.631  0.00  0.00     0.140 A 
ATOM     20  C15 ZIN A   1      18.662   3.375  15.079  0.00  0.00     0.071 A 
BRANCH  17  21
ATOM     21  N19 ZIN A   1      17.450   3.686  11.208  0.00  0.00    -0.188 N 
ATOM     22  H42 ZIN A   1      16.905   4.440  10.932  0.00  0.00     0.184 HD
BRANCH  21  23
ATOM     23  C20 ZIN A   1      17.815   2.714  10.279  0.00  0.00     0.049 A 
ATOM     24  C27 ZIN A   1      18.712   3.027   9.263  0.00  0.00     0.031 A 
ATOM     25  C26 ZIN A   1      19.075   2.069   8.343  0.00  0.00     0.025 A 
ATOM     26  C23 ZIN A   1      18.543   0.780   8.433  0.00  0.00     0.044 A 
ATOM     27  C22 ZIN A   1      17.643   0.468   9.456  0.00  0.00     0.025 A 
ATOM     28  C24 ZIN A   1      18.919  -0.220   7.479  0.00  0.00     0.099 C 
ATOM     29  C21 ZIN A   1      17.288   1.429  10.375  0.00  0.00     0.031 A 
ATOM     30  N25 ZIN A   1      19.218  -1.012   6.722  0.00  0.00    -0.191 NA
ENDBRANCH  21  23
ENDBRANCH  17  21
ENDBRANCH  13  15
ENDBRANCH   9  13
ENDBRANCH   1   5
TORSDOF 5
ENDMDL
MODEL 4
REMARK VINA RESULT:      -8.4      2.201      8.292
REMARK  5 active torsions:
REMARK  status: ('A' for Active; 'I' for Inactive)
REMARK    1  A    between atoms: C4_4  and  C5_5 
REMARK    2  A    between atoms: C12_12  and  N13_13 
REMARK    3  A    between atoms: N13_13  and  C14_14 
REMARK    4  A    between atoms: C18_18  and  N19_19 
REMARK    5  A    between atoms: N19_19  and  C20_20 
ROOT
ATOM      1  C5  ZIN A   1      18.269   3.922  10.501  0.00  0.00     0.022 C 
ATOM      2  C6  ZIN A   1      19.010   2.807  10.326  0.00  0.00     0.094 C 
ATOM      3  C7  ZIN A   1      19.104   2.205   9.030  0.00  0.00     0.087 C 
ATOM      4  N8  ZIN A   1      19.179   1.728   8.002  0.00  0.00    -0.192 NA
ENDROOT
BRANCH   1   5
ATOM      5  C4  ZIN A   1      18.173   4.539  11.831  0.00  0.00    -0.035 A 
ATOM      6  C3  ZIN A   1      19.334   4.811  12.564  0.00  0.00     0.020 A 
ATOM      7  C2  ZIN A   1      19.239   5.393  13.808  0.00  0.00    -0.034 A 
ATOM      8  C1  ZIN A   1      20.489   5.692  14.596  0.00  0.00     0.050 C 
ATOM      9  C12 ZIN A   1      17.991   5.703  14.341  0.00  0.00     0.045 A 
ATOM     10  C10 ZIN A   1      16.835   5.434  13.614  0.00  0.00    -0.034 A 
ATOM     11  C9  ZIN A   1      16.921   4.857  12.368  0.00  0.00     0.020 A 
ATOM     12  C11 ZIN A   1      15.487   5.776  14.195  0.00  0.00     0.050 C 
BRANCH   9  13
ATOM     13  N13 ZIN A   1      17.900   6.287  15.603  0.00  0.00    -0.340 N 
ATOM     14  H39 ZIN A   1      17.966   7.250  15.697  0.00  0.00     0.167 HD
BRANCH  13  15
ATOM     15  C14 ZIN A   1      17.716   5.493  16.723  0.00  0.00     0.148 A 
ATOM     16  N28 ZIN A   1      18.359   4.336  16.844  0.00  0.00    -0.045 NA
ATOM     17  C18 ZIN A   1      18.184   3.575  17.914  0.00  0.00     0.728 A 
ATOM     18  N17 ZIN A   1      17.370   3.933  18.896  0.00  0.00    -0.075 NA
ATOM     19  C16 ZIN A   1      16.698   5.074  18.843  0.00  0.00     0.140 A 
ATOM     20  C15 ZIN A   1      16.856   5.900  17.746  0.00  0.00     0.071 A 
BRANCH  17  21
ATOM     21  N19 ZIN A   1      18.869   2.375  18.009  0.00  0.00    -0.188 N 
ATOM     22  H42 ZIN A   1      19.402   2.180  18.796  0.00  0.00     0.184 HD
BRANCH  21  23
ATOM     23  C20 ZIN A   1      18.791   1.444  16.974  0.00  0.00     0.049 A 
ATOM     24  C27 ZIN A   1      18.235   0.191  17.207  0.00  0.00     0.031 A 
ATOM     25  C26 ZIN A   1      18.156  -0.730  16.187  0.00  0.00     0.025 A 
ATOM     26  C23 ZIN A   1      18.633  -0.404  14.915  0.00  0.00     0.044 A 
ATOM     27  C22 ZIN A   1      19.190   0.857  14.683  0.00  0.00     0.025 A 
ATOM     28  C24 ZIN A   1      18.552  -1.359  13.851  0.00  0.00     0.099 C 
ATOM     29  C21 ZIN A   1      19.261   1.775  15.706  0.00  0.00     0.031 A 
ATOM     30  N25 ZIN A   1      18.486  -2.117  13.007  0.00  0.00    -0.191 NA
ENDBRANCH  21  23
ENDBRANCH  17  21
ENDBRANCH  13  15
ENDBRANCH   9  13
ENDBRANCH   1   5
TORSDOF 5
ENDMDL
MODEL 5
REMARK VINA RESULT:      -8.3      3.416      5.748
REMARK  5 active torsions:
REMARK  status: ('A' for Active; 'I' for Inactive)
REMARK    1  A    between atoms: C4_4  and  C5_5 
REMARK    2  A    between atoms: C12_12  and  N13_13 
REMARK    3  A    between atoms: N13_13  and  C14_14 
REMARK    4  A    between atoms: C18_18  and  N19_19 
REMARK    5  A    between atoms: N19_19  and  C20_20 
ROOT
ATOM      1  C5  ZIN A   1      18.568  -3.440  12.291  0.00  0.00     0.022 C 
ATOM      2  C6  ZIN A   1      19.124  -2.210  12.303  0.00  0.00     0.094 C 
ATOM      3  C7  ZIN A   1      19.251  -1.493  13.536  0.00  0.00     0.087 C 
ATOM      4  N8  ZIN A   1      19.353  -0.925  14.515  0.00  0.00    -0.192 NA
ENDROOT
BRANCH   1   5
ATOM      5  C4  ZIN A   1      18.438  -4.175  11.025  0.00  0.00    -0.035 A 
ATOM      6  C3  ZIN A   1      17.170  -4.493  10.525  0.00  0.00     0.020 A 
ATOM      7  C2  ZIN A   1      17.053  -5.178   9.337  0.00  0.00    -0.034 A 
ATOM      8  C1  ZIN A   1      15.689  -5.516   8.795  0.00  0.00     0.050 C 
ATOM      9  C12 ZIN A   1      18.194  -5.563   8.637  0.00  0.00     0.045 A 
ATOM     10  C10 ZIN A   1      19.456  -5.247   9.131  0.00  0.00    -0.034 A 
ATOM     11  C9  ZIN A   1      19.582  -4.559  10.316  0.00  0.00     0.020 A 
ATOM     12  C11 ZIN A   1      20.687  -5.662   8.367  0.00  0.00     0.050 C 
BRANCH   9  13
ATOM     13  N13 ZIN A   1      18.070  -6.261   7.438  0.00  0.00    -0.340 N 
ATOM     14  H39 ZIN A   1      18.131  -7.228   7.431  0.00  0.00     0.167 HD
BRANCH  13  15
ATOM     15  C14 ZIN A   1      17.860  -5.572   6.253  0.00  0.00     0.148 A 
ATOM     16  N28 ZIN A   1      18.550  -4.469   5.982  0.00  0.00    -0.045 NA
ATOM     17  C18 ZIN A   1      18.350  -3.810   4.850  0.00  0.00     0.728 A 
ATOM     18  N17 ZIN A   1      17.465  -4.220   3.954  0.00  0.00    -0.075 NA
ATOM     19  C16 ZIN A   1      16.744  -5.312   4.158  0.00  0.00     0.140 A 
ATOM     20  C15 ZIN A   1      16.924  -6.033   5.323  0.00  0.00     0.071 A 
BRANCH  17  21
ATOM     21  N19 ZIN A   1      19.085  -2.663   4.599  0.00  0.00    -0.188 N 
ATOM     22  H42 ZIN A   1      19.602  -2.587   3.781  0.00  0.00     0.184 HD
BRANCH  21  23
ATOM     23  C20 ZIN A   1      19.081  -1.616   5.519  0.00  0.00     0.049 A 
ATOM     24  C27 ZIN A   1      18.932  -0.305   5.079  0.00  0.00     0.031 A 
ATOM     25  C26 ZIN A   1      18.927   0.731   5.986  0.00  0.00     0.025 A 
ATOM     26  C23 ZIN A   1      19.070   0.464   7.350  0.00  0.00     0.044 A 
ATOM     27  C22 ZIN A   1      19.218  -0.856   7.789  0.00  0.00     0.025 A 
ATOM     28  C24 ZIN A   1      19.065   1.539   8.297  0.00  0.00     0.099 C 
ATOM     29  C21 ZIN A   1      19.217  -1.887   6.878  0.00  0.00     0.031 A 
ATOM     30  N25 ZIN A   1      19.060   2.391   9.047  0.00  0.00    -0.191 NA
ENDBRANCH  21  23
ENDBRANCH  17  21
ENDBRANCH  13  15
ENDBRANCH   9  13
ENDBRANCH   1   5
TORSDOF 5
ENDMDL
MODEL 6
REMARK VINA RESULT:      -8.2      2.227      6.562
REMARK  5 active torsions:
REMARK  status: ('A' for Active; 'I' for Inactive)
REMARK    1  A    between atoms: C4_4  and  C5_5 
REMARK    2  A    between atoms: C12_12  and  N13_13 
REMARK    3  A    between atoms: N13_13  and  C14_14 
REMARK    4  A    between atoms: C18_18  and  N19_19 
REMARK    5  A    between atoms: N19_19  and  C20_20 
ROOT
ATOM      1  C5  ZIN A   1      15.782   6.231  14.019  0.00  0.00     0.022 C 
ATOM      2  C6  ZIN A   1      15.378   6.437  15.291  0.00  0.00     0.094 C 
ATOM      3  C7  ZIN A   1      14.385   7.429  15.574  0.00  0.00     0.087 C 
ATOM      4  N8  ZIN A   1      13.596   8.216  15.799  0.00  0.00    -0.192 NA
ENDROOT
BRANCH   1   5
ATOM      5  C4  ZIN A   1      16.802   5.212  13.730  0.00  0.00    -0.035 A 
ATOM      6  C3  ZIN A   1      17.079   4.853  12.406  0.00  0.00     0.020 A 
ATOM      7  C2  ZIN A   1      18.038   3.902  12.139  0.00  0.00    -0.034 A 
ATOM      8  C1  ZIN A   1      18.342   3.519  10.714  0.00  0.00     0.050 C 
ATOM      9  C12 ZIN A   1      18.723   3.289  13.185  0.00  0.00     0.045 A 
ATOM     10  C10 ZIN A   1      18.450   3.644  14.503  0.00  0.00    -0.034 A 
ATOM     11  C9  ZIN A   1      17.497   4.598  14.777  0.00  0.00     0.020 A 
ATOM     12  C11 ZIN A   1      19.199   2.982  15.630  0.00  0.00     0.050 C 
BRANCH   9  13
ATOM     13  N13 ZIN A   1      19.689   2.323  12.910  0.00  0.00    -0.340 N 
ATOM     14  H39 ZIN A   1      20.604   2.589  12.731  0.00  0.00     0.167 HD
BRANCH  13  15
ATOM     15  C14 ZIN A   1      19.342   0.981  12.893  0.00  0.00     0.148 A 
ATOM     16  N28 ZIN A   1      18.588   0.491  11.915  0.00  0.00    -0.045 NA
ATOM     17  C18 ZIN A   1      18.255  -0.791  11.897  0.00  0.00     0.728 A 
ATOM     18  N17 ZIN A   1      18.657  -1.627  12.843  0.00  0.00    -0.075 NA
ATOM     19  C16 ZIN A   1      19.411  -1.207  13.848  0.00  0.00     0.140 A 
ATOM     20  C15 ZIN A   1      19.786   0.122  13.902  0.00  0.00     0.071 A 
BRANCH  17  21
ATOM     21  N19 ZIN A   1      17.467  -1.269  10.863  0.00  0.00    -0.188 N 
ATOM     22  H42 ZIN A   1      16.597  -1.655  11.054  0.00  0.00     0.184 HD
BRANCH  21  23
ATOM     23  C20 ZIN A   1      17.922  -1.195   9.548  0.00  0.00     0.049 A 
ATOM     24  C27 ZIN A   1      17.454  -0.191   8.707  0.00  0.00     0.031 A 
ATOM     25  C26 ZIN A   1      17.901  -0.114   7.407  0.00  0.00     0.025 A 
ATOM     26  C23 ZIN A   1      18.829  -1.046   6.934  0.00  0.00     0.044 A 
ATOM     27  C22 ZIN A   1      19.299  -2.053   7.782  0.00  0.00     0.025 A 
ATOM     28  C24 ZIN A   1      19.298  -0.969   5.583  0.00  0.00     0.099 C 
ATOM     29  C21 ZIN A   1      18.851  -2.121   9.081  0.00  0.00     0.031 A 
ATOM     30  N25 ZIN A   1      19.671  -0.908   4.511  0.00  0.00    -0.191 NA
ENDBRANCH  21  23
ENDBRANCH  17  21
ENDBRANCH  13  15
ENDBRANCH   9  13
ENDBRANCH   1   5
TORSDOF 5
ENDMDL
MODEL 7
REMARK VINA RESULT:      -8.1      1.875      5.702
REMARK  5 active torsions:
REMARK  status: ('A' for Active; 'I' for Inactive)
REMARK    1  A    between atoms: C4_4  and  C5_5 
REMARK    2  A    between atoms: C12_12  and  N13_13 
REMARK    3  A    between atoms: N13_13  and  C14_14 
REMARK    4  A    between atoms: C18_18  and  N19_19 
REMARK    5  A    between atoms: N19_19  and  C20_20 
ROOT
ATOM      1  C5  ZIN A   1      18.422   6.164  15.112  0.00  0.00     0.022 C 
ATOM      2  C6  ZIN A   1      17.678   7.279  15.275  0.00  0.00     0.094 C 
ATOM      3  C7  ZIN A   1      17.653   7.945  16.543  0.00  0.00     0.087 C 
ATOM      4  N8  ZIN A   1      17.635   8.473  17.548  0.00  0.00    -0.192 NA
ENDROOT
BRANCH   1   5
ATOM      5  C4  ZIN A   1      18.447   5.482  13.810  0.00  0.00    -0.035 A 
ATOM      6  C3  ZIN A   1      17.366   5.609  12.930  0.00  0.00     0.020 A 
ATOM      7  C2  ZIN A   1      17.396   4.971  11.711  0.00  0.00    -0.034 A 
ATOM      8  C1  ZIN A   1      16.236   5.112  10.760  0.00  0.00     0.050 C 
ATOM      9  C12 ZIN A   1      18.495   4.193  11.356  0.00  0.00     0.045 A 
ATOM     10  C10 ZIN A   1      19.571   4.065  12.229  0.00  0.00    -0.034 A 
ATOM     11  C9  ZIN A   1      19.551   4.703  13.448  0.00  0.00     0.020 A 
ATOM     12  C11 ZIN A   1      20.759   3.224  11.838  0.00  0.00     0.050 C 
BRANCH   9  13
ATOM     13  N13 ZIN A   1      18.518   3.545  10.123  0.00  0.00    -0.340 N 
ATOM     14  H39 ZIN A   1      18.707   4.047   9.315  0.00  0.00     0.167 HD
BRANCH  13  15
ATOM     15  C14 ZIN A   1      18.271   2.183  10.050  0.00  0.00     0.148 A 
ATOM     16  N28 ZIN A   1      17.824   1.520  11.112  0.00  0.00    -0.045 NA
ATOM     17  C18 ZIN A   1      17.588   0.218  11.044  0.00  0.00     0.728 A 
ATOM     18  N17 ZIN A   1      17.786  -0.467   9.928  0.00  0.00    -0.075 NA
ATOM     19  C16 ZIN A   1      18.228   0.130   8.831  0.00  0.00     0.140 A 
ATOM     20  C15 ZIN A   1      18.482   1.488   8.857  0.00  0.00     0.071 A 
BRANCH  17  21
ATOM     21  N19 ZIN A   1      17.123  -0.443  12.169  0.00  0.00    -0.188 N 
ATOM     22  H42 ZIN A   1      16.438  -1.124  12.084  0.00  0.00     0.184 HD
BRANCH  21  23
ATOM     23  C20 ZIN A   1      17.643  -0.132  13.425  0.00  0.00     0.049 A 
ATOM     24  C27 ZIN A   1      17.414   1.124  13.979  0.00  0.00     0.031 A 
ATOM     25  C26 ZIN A   1      17.925   1.435  15.219  0.00  0.00     0.025 A 
ATOM     26  C23 ZIN A   1      18.672   0.487  15.922  0.00  0.00     0.044 A 
ATOM     27  C22 ZIN A   1      18.899  -0.775  15.363  0.00  0.00     0.025 A 
ATOM     28  C24 ZIN A   1      19.205   0.806  17.213  0.00  0.00     0.099 C 
ATOM     29  C21 ZIN A   1      18.381  -1.081  14.126  0.00  0.00     0.031 A 
ATOM     30  N25 ZIN A   1      19.626   1.059  18.237  0.00  0.00    -0.191 NA
ENDBRANCH  21  23
ENDBRANCH  17  21
ENDBRANCH  13  15
ENDBRANCH   9  13
ENDBRANCH   1   5
TORSDOF 5
ENDMDL
MODEL 8
REMARK VINA RESULT:      -8.0      2.084      7.593
REMARK  5 active torsions:
REMARK  status: ('A' for Active; 'I' for Inactive)
REMARK    1  A    between atoms: C4_4  and  C5_5 
REMARK    2  A    between atoms: C12_12  and  N13_13 
REMARK    3  A    between atoms: N13_13  and  C14_14 
REMARK    4  A    between atoms: C18_18  and  N19_19 
REMARK    5  A    between atoms: N19_19  and  C20_20 
ROOT
ATOM      1  C5  ZIN A   1      18.490   0.698   7.569  0.00  0.00     0.022 C 
ATOM      2  C6  ZIN A   1      19.061   1.030   6.392  0.00  0.00     0.094 C 
ATOM      3  C7  ZIN A   1      18.795   0.248   5.222  0.00  0.00     0.087 C 
ATOM      4  N8  ZIN A   1      18.583  -0.372   4.293  0.00  0.00    -0.192 NA
ENDROOT
BRANCH   1   5
ATOM      5  C4  ZIN A   1      18.763   1.501   8.770  0.00  0.00    -0.035 A 
ATOM      6  C3  ZIN A   1      18.163   2.756   8.926  0.00  0.00     0.020 A 
ATOM      7  C2  ZIN A   1      18.418   3.502  10.054  0.00  0.00    -0.034 A 
ATOM      8  C1  ZIN A   1      17.768   4.850  10.227  0.00  0.00     0.050 C 
ATOM      9  C12 ZIN A   1      19.281   3.016  11.033  0.00  0.00     0.045 A 
ATOM     10  C10 ZIN A   1      19.879   1.769  10.880  0.00  0.00    -0.034 A 
ATOM     11  C9  ZIN A   1      19.625   1.014   9.758  0.00  0.00     0.020 A 
ATOM     12  C11 ZIN A   1      20.808   1.246  11.946  0.00  0.00     0.050 C 
BRANCH   9  13
ATOM     13  N13 ZIN A   1      19.540   3.778  12.170  0.00  0.00    -0.340 N 
ATOM     14  H39 ZIN A   1      20.073   4.585  12.101  0.00  0.00     0.167 HD
BRANCH  13  15
ATOM     15  C14 ZIN A   1      19.038   3.383  13.400  0.00  0.00     0.148 A 
ATOM     16  N28 ZIN A   1      18.580   2.148  13.577  0.00  0.00    -0.045 NA
ATOM     17  C18 ZIN A   1      18.098   1.769  14.752  0.00  0.00     0.728 A 
ATOM     18  N17 ZIN A   1      18.054   2.597  15.785  0.00  0.00    -0.075 NA
ATOM     19  C16 ZIN A   1      18.495   3.842  15.680  0.00  0.00     0.140 A 
ATOM     20  C15 ZIN A   1      19.011   4.277  14.474  0.00  0.00     0.071 A 
BRANCH  17  21
ATOM     21  N19 ZIN A   1      17.628   0.475  14.903  0.00  0.00    -0.188 N 
ATOM     22  H42 ZIN A   1      17.079   0.244  15.669  0.00  0.00     0.184 HD
BRANCH  21  23
ATOM     23  C20 ZIN A   1      17.942  -0.496  13.953  0.00  0.00     0.049 A 
ATOM     24  C27 ZIN A   1      18.995  -1.375  14.181  0.00  0.00     0.031 A 
ATOM     25  C26 ZIN A   1      19.308  -2.335  13.245  0.00  0.00     0.025 A 
ATOM     26  C23 ZIN A   1      18.564  -2.427  12.066  0.00  0.00     0.044 A 
ATOM     27  C22 ZIN A   1      17.504  -1.543  11.840  0.00  0.00     0.025 A 
ATOM     28  C24 ZIN A   1      18.885  -3.425  11.090  0.00  0.00     0.099 C 
ATOM     29  C21 ZIN A   1      17.194  -0.589  12.782  0.00  0.00     0.031 A 
ATOM     30  N25 ZIN A   1      19.140  -4.217  10.317  0.00  0.00    -0.191 NA
ENDBRANCH  21  23
ENDBRANCH  17  21
ENDBRANCH  13  15
ENDBRANCH   9  13
ENDBRANCH   1   5
TORSDOF 5
ENDMDL
MODEL 9
REMARK VINA RESULT:      -8.0      2.143      6.052
REMARK  5 active torsions:
REMARK  status: ('A' for Active; 'I' for Inactive)
REMARK    1  A    between atoms: C4_4  and  C5_5 
REMARK    2  A    between atoms: C12_12  and  N13_13 
REMARK    3  A    between atoms: N13_13  and  C14_14 
REMARK    4  A    between atoms: C18_18  and  N19_19 
REMARK    5  A    between atoms: N19_19  and  C20_20 
ROOT
ATOM      1  C5  ZIN A   1      18.867  -1.091   8.061  0.00  0.00     0.022 C 
ATOM      2  C6  ZIN A   1      18.862   0.129   7.483  0.00  0.00     0.094 C 
ATOM      3  C7  ZIN A   1      18.591   0.257   6.082  0.00  0.00     0.087 C 
ATOM      4  N8  ZIN A   1      18.376   0.358   4.971  0.00  0.00    -0.192 NA
ENDROOT
BRANCH   1   5
ATOM      5  C4  ZIN A   1      19.144  -1.221   9.498  0.00  0.00    -0.035 A 
ATOM      6  C3  ZIN A   1      19.977  -0.297  10.139  0.00  0.00     0.020 A 
ATOM      7  C2  ZIN A   1      20.230  -0.421  11.487  0.00  0.00    -0.034 A 
ATOM      8  C1  ZIN A   1      21.122   0.577  12.179  0.00  0.00     0.050 C 
ATOM      9  C12 ZIN A   1      19.668  -1.469  12.210  0.00  0.00     0.045 A 
ATOM     10  C10 ZIN A   1      18.839  -2.390  11.575  0.00  0.00    -0.034 A 
ATOM     11  C9  ZIN A   1      18.576  -2.270  10.230  0.00  0.00     0.020 A 
ATOM     12  C11 ZIN A   1      18.229  -3.519  12.364  0.00  0.00     0.050 C 
BRANCH   9  13
ATOM     13  N13 ZIN A   1      19.932  -1.593  13.572  0.00  0.00    -0.340 N 
ATOM     14  H39 ZIN A   1      20.700  -2.104  13.872  0.00  0.00     0.167 HD
BRANCH  13  15
ATOM     15  C14 ZIN A   1      19.099  -0.987  14.499  0.00  0.00     0.148 A 
ATOM     16  N28 ZIN A   1      18.825   0.311  14.413  0.00  0.00    -0.045 NA
ATOM     17  C18 ZIN A   1      18.029   0.893  15.298  0.00  0.00     0.728 A 
ATOM     18  N17 ZIN A   1      17.480   0.211  16.293  0.00  0.00    -0.075 NA
ATOM     19  C16 ZIN A   1      17.708  -1.086  16.437  0.00  0.00     0.140 A 
ATOM     20  C15 ZIN A   1      18.528  -1.733  15.533  0.00  0.00     0.071 A 
BRANCH  17  21
ATOM     21  N19 ZIN A   1      17.765   2.247  15.181  0.00  0.00    -0.188 N 
ATOM     22  H42 ZIN A   1      17.583   2.777  15.973  0.00  0.00     0.184 HD
BRANCH  21  23
ATOM     23  C20 ZIN A   1      17.763   2.851  13.924  0.00  0.00     0.049 A 
ATOM     24  C27 ZIN A   1      17.765   4.238  13.820  0.00  0.00     0.031 A 
ATOM     25  C26 ZIN A   1      17.763   4.837  12.581  0.00  0.00     0.025 A 
ATOM     26  C23 ZIN A   1      17.761   4.050  11.426  0.00  0.00     0.044 A 
ATOM     27  C22 ZIN A   1      17.761   2.656  11.534  0.00  0.00     0.025 A 
ATOM     28  C24 ZIN A   1      17.760   4.670  10.135  0.00  0.00     0.099 C 
ATOM     29  C21 ZIN A   1      17.768   2.064  12.776  0.00  0.00     0.031 A 
ATOM     30  N25 ZIN A   1      17.760   5.162   9.111  0.00  0.00    -0.191 NA
ENDBRANCH  21  23
ENDBRANCH  17  21
ENDBRANCH  13  15
ENDBRANCH   9  13
ENDBRANCH   1   5
TORSDOF 5
ENDMDL
