MODEL 1
REMARK VINA RESULT:      -4.5      0.000      0.000
REMARK  1 active torsions:
REMARK  status: ('A' for Active; 'I' for Inactive)
REMARK    1  A    between atoms: C2_2  and  C4_4 
ROOT
ATOM      1  C4  ZIN A   1      18.638   0.069   6.242  0.00  0.00     0.058 A 
ATOM      2  C5  ZIN A   1      19.214   1.209   6.818  0.00  0.00     0.021 A 
ATOM      3  C6  ZIN A   1      18.858   1.539   8.114  0.00  0.00     0.020 A 
ATOM      4  C7  ZIN A   1      17.956   0.741   8.794  0.00  0.00     0.116 A 
ATOM      5  N8  ZIN A   1      17.429  -0.328   8.226  0.00  0.00    -0.272 NA
ATOM      6  C9  ZIN A   1      17.730  -0.681   6.994  0.00  0.00     0.134 A 
ENDROOT
BRANCH   1   7
ATOM      7  C2  ZIN A   1      18.980  -0.330   4.864  0.00  0.00     0.210 C 
ATOM      8  O1  ZIN A   1      18.214  -0.075   3.946  0.00  0.00    -0.644 OA
ATOM      9  O3  ZIN A   1      20.033  -0.911   4.639  0.00  0.00    -0.644 OA
ENDBRANCH   1   7
TORSDOF 1
ENDMDL
MODEL 2
REMARK VINA RESULT:      -4.4      9.363     10.662
REMARK  1 active torsions:
REMARK  status: ('A' for Active; 'I' for Inactive)
REMARK    1  A    between atoms: C2_2  and  C4_4 
ROOT
ATOM      1  C4  ZIN A   1      18.839   0.200  16.766  0.00  0.00     0.058 A 
ATOM      2  C5  ZIN A   1      18.846  -1.124  16.306  0.00  0.00     0.021 A 
ATOM      3  C6  ZIN A   1      18.607  -1.352  14.963  0.00  0.00     0.020 A 
ATOM      4  C7  ZIN A   1      18.371  -0.278  14.124  0.00  0.00     0.116 A 
ATOM      5  N8  ZIN A   1      18.370   0.960  14.585  0.00  0.00    -0.272 NA
ATOM      6  C9  ZIN A   1      18.586   1.229  15.855  0.00  0.00     0.134 A 
ENDROOT
BRANCH   1   7
ATOM      7  C2  ZIN A   1      19.088   0.502  18.188  0.00  0.00     0.210 C 
ATOM      8  O1  ZIN A   1      19.910   1.353  18.498  0.00  0.00    -0.644 OA
ATOM      9  O3  ZIN A   1      18.467  -0.094  19.057  0.00  0.00    -0.644 OA
ENDBRANCH   1   7
TORSDOF 1
ENDMDL
MODEL 3
REMARK VINA RESULT:      -4.3      3.919      4.736
REMARK  1 active torsions:
REMARK  status: ('A' for Active; 'I' for Inactive)
REMARK    1  A    between atoms: C2_2  and  C4_4 
ROOT
ATOM      1  C4  ZIN A   1      17.691   0.889   9.775  0.00  0.00     0.058 A 
ATOM      2  C5  ZIN A   1      18.638   1.872   9.456  0.00  0.00     0.021 A 
ATOM      3  C6  ZIN A   1      19.223   1.835   8.202  0.00  0.00     0.020 A 
ATOM      4  C7  ZIN A   1      18.858   0.841   7.312  0.00  0.00     0.116 A 
ATOM      5  N8  ZIN A   1      17.962  -0.072   7.640  0.00  0.00    -0.272 NA
ATOM      6  C9  ZIN A   1      17.382  -0.085   8.822  0.00  0.00     0.134 A 
ENDROOT
BRANCH   1   7
ATOM      7  C2  ZIN A   1      17.036   0.880  11.096  0.00  0.00     0.210 C 
ATOM      8  O1  ZIN A   1      17.291   1.755  11.912  0.00  0.00    -0.644 OA
ATOM      9  O3  ZIN A   1      16.234  -0.001  11.375  0.00  0.00    -0.644 OA
ENDBRANCH   1   7
TORSDOF 1
ENDMDL
MODEL 4
REMARK VINA RESULT:      -4.3      5.001      5.938
REMARK  1 active torsions:
REMARK  status: ('A' for Active; 'I' for Inactive)
REMARK    1  A    between atoms: C2_2  and  C4_4 
ROOT
ATOM      1  C4  ZIN A   1      17.786   3.364  10.581  0.00  0.00     0.058 A 
ATOM      2  C5  ZIN A   1      18.570   3.051   9.462  0.00  0.00     0.021 A 
ATOM      3  C6  ZIN A   1      19.209   1.824   9.433  0.00  0.00     0.020 A 
ATOM      4  C7  ZIN A   1      19.055   0.954  10.496  0.00  0.00     0.116 A 
ATOM      5  N8  ZIN A   1      18.310   1.275  11.537  0.00  0.00    -0.272 NA
ATOM      6  C9  ZIN A   1      17.687   2.432  11.616  0.00  0.00     0.134 A 
ENDROOT
BRANCH   1   7
ATOM      7  C2  ZIN A   1      17.083   4.657  10.666  0.00  0.00     0.210 C 
ATOM      8  O1  ZIN A   1      17.386   5.570   9.910  0.00  0.00    -0.644 OA
ATOM      9  O3  ZIN A   1      16.192   4.816  11.489  0.00  0.00    -0.644 OA
ENDBRANCH   1   7
TORSDOF 1
ENDMDL
MODEL 5
REMARK VINA RESULT:      -4.2      3.657      4.427
REMARK  1 active torsions:
REMARK  status: ('A' for Active; 'I' for Inactive)
REMARK    1  A    between atoms: C2_2  and  C4_4 
ROOT
ATOM      1  C4  ZIN A   1      18.267   1.507   9.251  0.00  0.00     0.058 A 
ATOM      2  C5  ZIN A   1      19.063   1.910   8.170  0.00  0.00     0.021 A 
ATOM      3  C6  ZIN A   1      19.031   1.149   7.014  0.00  0.00     0.020 A 
ATOM      4  C7  ZIN A   1      18.223   0.028   6.962  0.00  0.00     0.116 A 
ATOM      5  N8  ZIN A   1      17.483  -0.327   7.997  0.00  0.00    -0.272 NA
ATOM      6  C9  ZIN A   1      17.483   0.359   9.120  0.00  0.00     0.134 A 
ENDROOT
BRANCH   1   7
ATOM      7  C2  ZIN A   1      18.262   2.280  10.507  0.00  0.00     0.210 C 
ATOM      8  O1  ZIN A   1      17.227   2.399  11.148  0.00  0.00    -0.644 OA
ATOM      9  O3  ZIN A   1      19.294   2.797  10.911  0.00  0.00    -0.644 OA
ENDBRANCH   1   7
TORSDOF 1
ENDMDL
MODEL 6
REMARK VINA RESULT:      -4.2      2.495      3.153
REMARK  1 active torsions:
REMARK  status: ('A' for Active; 'I' for Inactive)
REMARK    1  A    between atoms: C2_2  and  C4_4 
ROOT
ATOM      1  C4  ZIN A   1      18.564   1.066   9.098  0.00  0.00     0.058 A 
ATOM      2  C5  ZIN A   1      18.955   2.409   9.018  0.00  0.00     0.021 A 
ATOM      3  C6  ZIN A   1      18.448   3.295   9.953  0.00  0.00     0.020 A 
ATOM      4  C7  ZIN A   1      17.583   2.832  10.927  0.00  0.00     0.116 A 
ATOM      5  N8  ZIN A   1      17.232   1.560  10.978  0.00  0.00    -0.272 NA
ATOM      6  C9  ZIN A   1      17.681   0.679  10.109  0.00  0.00     0.134 A 
ENDROOT
BRANCH   1   7
ATOM      7  C2  ZIN A   1      19.072   0.078   8.128  0.00  0.00     0.210 C 
ATOM      8  O1  ZIN A   1      18.922   0.264   6.929  0.00  0.00    -0.644 OA
ATOM      9  O3  ZIN A   1      19.649  -0.926   8.523  0.00  0.00    -0.644 OA
ENDBRANCH   1   7
TORSDOF 1
ENDMDL
MODEL 7
REMARK VINA RESULT:      -4.0      9.332     10.517
REMARK  1 active torsions:
REMARK  status: ('A' for Active; 'I' for Inactive)
REMARK    1  A    between atoms: C2_2  and  C4_4 
ROOT
ATOM      1  C4  ZIN A   1      18.942   0.275  16.714  0.00  0.00     0.058 A 
ATOM      2  C5  ZIN A   1      19.096   1.308  15.780  0.00  0.00     0.021 A 
ATOM      3  C6  ZIN A   1      18.915   1.013  14.440  0.00  0.00     0.020 A 
ATOM      4  C7  ZIN A   1      18.590  -0.278  14.068  0.00  0.00     0.116 A 
ATOM      5  N8  ZIN A   1      18.451  -1.233  14.970  0.00  0.00    -0.272 NA
ATOM      6  C9  ZIN A   1      18.619  -1.005  16.256  0.00  0.00     0.134 A 
ENDROOT
BRANCH   1   7
ATOM      7  C2  ZIN A   1      19.124   0.532  18.154  0.00  0.00     0.210 C 
ATOM      8  O1  ZIN A   1      18.543  -0.161  18.978  0.00  0.00    -0.644 OA
ATOM      9  O3  ZIN A   1      19.860   1.435  18.526  0.00  0.00    -0.644 OA
ENDBRANCH   1   7
TORSDOF 1
ENDMDL
MODEL 8
REMARK VINA RESULT:      -4.0      1.325      1.962
REMARK  1 active torsions:
REMARK  status: ('A' for Active; 'I' for Inactive)
REMARK    1  A    between atoms: C2_2  and  C4_4 
ROOT
ATOM      1  C4  ZIN A   1      18.661  -0.893   6.359  0.00  0.00     0.058 A 
ATOM      2  C5  ZIN A   1      19.250  -1.843   7.204  0.00  0.00     0.021 A 
ATOM      3  C6  ZIN A   1      18.802  -1.924   8.511  0.00  0.00     0.020 A 
ATOM      4  C7  ZIN A   1      17.796  -1.076   8.937  0.00  0.00     0.116 A 
ATOM      5  N8  ZIN A   1      17.259  -0.190   8.118  0.00  0.00    -0.272 NA
ATOM      6  C9  ZIN A   1      17.655  -0.069   6.868  0.00  0.00     0.134 A 
ENDROOT
BRANCH   1   7
ATOM      7  C2  ZIN A   1      19.100  -0.762   4.957  0.00  0.00     0.210 C 
ATOM      8  O1  ZIN A   1      19.771  -1.645   4.440  0.00  0.00    -0.644 OA
ATOM      9  O3  ZIN A   1      18.789   0.228   4.309  0.00  0.00    -0.644 OA
ENDBRANCH   1   7
TORSDOF 1
ENDMDL
MODEL 9
REMARK VINA RESULT:      -4.0      8.959     10.132
REMARK  1 active torsions:
REMARK  status: ('A' for Active; 'I' for Inactive)
REMARK    1  A    between atoms: C2_2  and  C4_4 
ROOT
ATOM      1  C4  ZIN A   1      18.722   1.356  16.076  0.00  0.00     0.058 A 
ATOM      2  C5  ZIN A   1      18.560  -0.035  16.024  0.00  0.00     0.021 A 
ATOM      3  C6  ZIN A   1      18.912  -0.777  17.137  0.00  0.00     0.020 A 
ATOM      4  C7  ZIN A   1      19.408  -0.131  18.255  0.00  0.00     0.116 A 
ATOM      5  N8  ZIN A   1      19.551   1.182  18.276  0.00  0.00    -0.272 NA
ATOM      6  C9  ZIN A   1      19.236   1.932  17.240  0.00  0.00     0.134 A 
ENDROOT
BRANCH   1   7
ATOM      7  C2  ZIN A   1      18.363   2.197  14.919  0.00  0.00     0.210 C 
ATOM      8  O1  ZIN A   1      17.833   1.694  13.938  0.00  0.00    -0.644 OA
ATOM      9  O3  ZIN A   1      18.590   3.399  14.942  0.00  0.00    -0.644 OA
ENDBRANCH   1   7
TORSDOF 1
ENDMDL
