MODEL 1
REMARK VINA RESULT:      -6.6      0.000      0.000
REMARK  5 active torsions:
REMARK  status: ('A' for Active; 'I' for Inactive)
REMARK    1  A    between atoms: C2_2  and  C3_3 
REMARK    2  A    between atoms: C3_3  and  C4_4 
REMARK    3  A    between atoms: C4_4  and  C5_5 
REMARK    4  A    between atoms: C5_5  and  C8_7 
REMARK    5  A    between atoms: C9_8  and  C10_9 
ROOT
ATOM      1  C4  ZIN A   1      18.864  -0.575  12.152  0.00  0.00     0.141 A 
ATOM      2  C12 ZIN A   1      17.384  -0.404  11.862  0.00  0.00     0.267 A 
ATOM      3  O13 ZIN A   1      16.620  -1.342  11.918  0.00  0.00    -0.270 OA
ATOM      4  N14 ZIN A   1      16.951   0.834  11.537  0.00  0.00    -0.157 NA
ATOM      5  C15 ZIN A   1      17.781   1.880  11.471  0.00  0.00     0.353 A 
ATOM      6  O16 ZIN A   1      17.307   2.958  11.173  0.00  0.00    -0.244 OA
ATOM      7  N17 ZIN A   1      19.097   1.827  11.709  0.00  0.00    -0.272 N 
ATOM      8  C18 ZIN A   1      19.889   3.054  11.599  0.00  0.00     0.164 C 
ATOM      9  C19 ZIN A   1      19.716   0.676  12.047  0.00  0.00     0.247 A 
ATOM     10  O20 ZIN A   1      20.910   0.643  12.260  0.00  0.00    -0.271 OA
ENDROOT
BRANCH   1  11
ATOM     11  C3  ZIN A   1      19.009  -1.134  13.568  0.00  0.00     0.057 C 
BRANCH  11  12
ATOM     12  C2  ZIN A   1      18.341  -0.202  14.547  0.00  0.00    -0.035 C 
ATOM     13  C1  ZIN A   1      17.850  -0.672  15.667  0.00  0.00     0.007 C 
ENDBRANCH  11  12
ENDBRANCH   1  11
BRANCH   1  14
ATOM     14  C5  ZIN A   1      19.419  -1.612  11.175  0.00  0.00     0.088 C 
ATOM     15  C7  ZIN A   1      19.089  -1.192   9.741  0.00  0.00     0.025 C 
BRANCH  14  16
ATOM     16  C8  ZIN A   1      18.811  -2.923  11.453  0.00  0.00    -0.100 C 
ATOM     17  C9  ZIN A   1      18.326  -3.969  11.676  0.00  0.00    -0.106 C 
BRANCH  17  18
ATOM     18  C10 ZIN A   1      17.718  -5.280  11.955  0.00  0.00     0.089 C 
ATOM     19  C11 ZIN A   1      17.290  -5.934  10.640  0.00  0.00     0.018 C 
ENDBRANCH  17  18
ENDBRANCH  14  16
ENDBRANCH   1  14
TORSDOF 5
ENDMDL
MODEL 2
REMARK VINA RESULT:      -6.5      2.139      5.643
REMARK  5 active torsions:
REMARK  status: ('A' for Active; 'I' for Inactive)
REMARK    1  A    between atoms: C2_2  and  C3_3 
REMARK    2  A    between atoms: C3_3  and  C4_4 
REMARK    3  A    between atoms: C4_4  and  C5_5 
REMARK    4  A    between atoms: C5_5  and  C8_7 
REMARK    5  A    between atoms: C9_8  and  C10_9 
ROOT
ATOM      1  C4  ZIN A   1      18.443  -0.027  11.043  0.00  0.00     0.141 A 
ATOM      2  C12 ZIN A   1      17.068  -0.523  11.449  0.00  0.00     0.267 A 
ATOM      3  O13 ZIN A   1      16.113   0.222  11.476  0.00  0.00    -0.270 OA
ATOM      4  N14 ZIN A   1      16.948  -1.827  11.781  0.00  0.00    -0.157 NA
ATOM      5  C15 ZIN A   1      17.992  -2.664  11.755  0.00  0.00     0.353 A 
ATOM      6  O16 ZIN A   1      17.794  -3.820  12.068  0.00  0.00    -0.244 OA
ATOM      7  N17 ZIN A   1      19.238  -2.319  11.412  0.00  0.00    -0.272 N 
ATOM      8  C18 ZIN A   1      20.289  -3.339  11.429  0.00  0.00     0.164 C 
ATOM      9  C19 ZIN A   1      19.556  -1.058  11.049  0.00  0.00     0.247 A 
ATOM     10  O20 ZIN A   1      20.690  -0.760  10.740  0.00  0.00    -0.271 OA
ENDROOT
BRANCH   1  11
ATOM     11  C3  ZIN A   1      18.340   0.555   9.631  0.00  0.00     0.057 C 
BRANCH  11  12
ATOM     12  C2  ZIN A   1      17.827  -0.503   8.688  0.00  0.00    -0.035 C 
ATOM     13  C1  ZIN A   1      17.274  -0.155   7.552  0.00  0.00     0.007 C 
ENDBRANCH  11  12
ENDBRANCH   1  11
BRANCH   1  14
ATOM     14  C5  ZIN A   1      18.836   1.105  11.993  0.00  0.00     0.088 C 
ATOM     15  C7  ZIN A   1      18.379   0.761  13.412  0.00  0.00     0.025 C 
BRANCH  14  16
ATOM     16  C8  ZIN A   1      18.192   2.355  11.560  0.00  0.00    -0.100 C 
ATOM     17  C9  ZIN A   1      17.679   3.354  11.214  0.00  0.00    -0.106 C 
BRANCH  17  18
ATOM     18  C10 ZIN A   1      17.035   4.604  10.781  0.00  0.00     0.089 C 
ATOM     19  C11 ZIN A   1      16.554   5.381  12.007  0.00  0.00     0.018 C 
ENDBRANCH  17  18
ENDBRANCH  14  16
ENDBRANCH   1  14
TORSDOF 5
ENDMDL
MODEL 3
REMARK VINA RESULT:      -6.5      1.999      4.690
REMARK  5 active torsions:
REMARK  status: ('A' for Active; 'I' for Inactive)
REMARK    1  A    between atoms: C2_2  and  C3_3 
REMARK    2  A    between atoms: C3_3  and  C4_4 
REMARK    3  A    between atoms: C4_4  and  C5_5 
REMARK    4  A    between atoms: C5_5  and  C8_7 
REMARK    5  A    between atoms: C9_8  and  C10_9 
ROOT
ATOM      1  C4  ZIN A   1      18.470  -0.192  11.278  0.00  0.00     0.141 A 
ATOM      2  C12 ZIN A   1      17.071  -0.724  11.521  0.00  0.00     0.267 A 
ATOM      3  O13 ZIN A   1      16.115   0.019  11.570  0.00  0.00    -0.270 OA
ATOM      4  N14 ZIN A   1      16.929  -2.057  11.683  0.00  0.00    -0.157 NA
ATOM      5  C15 ZIN A   1      17.973  -2.892  11.632  0.00  0.00     0.353 A 
ATOM      6  O16 ZIN A   1      17.756  -4.076  11.787  0.00  0.00    -0.244 OA
ATOM      7  N17 ZIN A   1      19.241  -2.516  11.423  0.00  0.00    -0.272 N 
ATOM      8  C18 ZIN A   1      20.289  -3.539  11.392  0.00  0.00     0.164 C 
ATOM      9  C19 ZIN A   1      19.582  -1.223  11.239  0.00  0.00     0.247 A 
ATOM     10  O20 ZIN A   1      20.735  -0.898  11.051  0.00  0.00    -0.271 OA
ENDROOT
BRANCH   1  11
ATOM     11  C3  ZIN A   1      18.468   0.557   9.944  0.00  0.00     0.057 C 
BRANCH  11  12
ATOM     12  C2  ZIN A   1      18.212  -0.416   8.822  0.00  0.00    -0.035 C 
ATOM     13  C1  ZIN A   1      17.299  -0.149   7.920  0.00  0.00     0.007 C 
ENDBRANCH  11  12
ENDBRANCH   1  11
BRANCH   1  14
ATOM     14  C5  ZIN A   1      18.792   0.814  12.384  0.00  0.00     0.088 C 
ATOM     15  C7  ZIN A   1      20.138   1.481  12.092  0.00  0.00     0.025 C 
BRANCH  14  16
ATOM     16  C8  ZIN A   1      18.861   0.115  13.677  0.00  0.00    -0.100 C 
ATOM     17  C9  ZIN A   1      18.917  -0.442  14.710  0.00  0.00    -0.106 C 
BRANCH  17  18
ATOM     18  C10 ZIN A   1      18.986  -1.141  16.003  0.00  0.00     0.089 C 
ATOM     19  C11 ZIN A   1      17.610  -1.117  16.670  0.00  0.00     0.018 C 
ENDBRANCH  17  18
ENDBRANCH  14  16
ENDBRANCH   1  14
TORSDOF 5
ENDMDL
MODEL 4
REMARK VINA RESULT:      -6.5      2.418      4.774
REMARK  5 active torsions:
REMARK  status: ('A' for Active; 'I' for Inactive)
REMARK    1  A    between atoms: C2_2  and  C3_3 
REMARK    2  A    between atoms: C3_3  and  C4_4 
REMARK    3  A    between atoms: C4_4  and  C5_5 
REMARK    4  A    between atoms: C5_5  and  C8_7 
REMARK    5  A    between atoms: C9_8  and  C10_9 
ROOT
ATOM      1  C4  ZIN A   1      18.281   0.272  10.224  0.00  0.00     0.141 A 
ATOM      2  C12 ZIN A   1      19.776   0.020  10.275  0.00  0.00     0.267 A 
ATOM      3  O13 ZIN A   1      20.425  -0.122   9.262  0.00  0.00    -0.270 OA
ATOM      4  N14 ZIN A   1      20.358  -0.042  11.493  0.00  0.00    -0.157 NA
ATOM      5  C15 ZIN A   1      19.657   0.113  12.621  0.00  0.00     0.353 A 
ATOM      6  O16 ZIN A   1      20.260   0.043  13.673  0.00  0.00    -0.244 OA
ATOM      7  N17 ZIN A   1      18.339   0.338  12.676  0.00  0.00    -0.272 N 
ATOM      8  C18 ZIN A   1      17.697   0.488  13.985  0.00  0.00     0.164 C 
ATOM      9  C19 ZIN A   1      17.582   0.432  11.562  0.00  0.00     0.247 A 
ATOM     10  O20 ZIN A   1      16.389   0.637  11.627  0.00  0.00    -0.271 OA
ENDROOT
BRANCH   1  11
ATOM     11  C3  ZIN A   1      18.041   1.542   9.406  0.00  0.00     0.057 C 
BRANCH  11  12
ATOM     12  C2  ZIN A   1      18.686   2.715  10.098  0.00  0.00    -0.035 C 
ATOM     13  C1  ZIN A   1      18.053   3.859  10.175  0.00  0.00     0.007 C 
ENDBRANCH  11  12
ENDBRANCH   1  11
BRANCH   1  14
ATOM     14  C5  ZIN A   1      17.630  -0.897   9.484  0.00  0.00     0.088 C 
ATOM     15  C7  ZIN A   1      18.368  -2.193   9.828  0.00  0.00     0.025 C 
BRANCH  14  16
ATOM     16  C8  ZIN A   1      17.704  -0.662   8.033  0.00  0.00    -0.100 C 
ATOM     17  C9  ZIN A   1      17.762  -0.474   6.875  0.00  0.00    -0.106 C 
BRANCH  17  18
ATOM     18  C10 ZIN A   1      17.836  -0.239   5.424  0.00  0.00     0.089 C 
ATOM     19  C11 ZIN A   1      19.269   0.135   5.041  0.00  0.00     0.018 C 
ENDBRANCH  17  18
ENDBRANCH  14  16
ENDBRANCH   1  14
TORSDOF 5
ENDMDL
MODEL 5
REMARK VINA RESULT:      -6.4      1.919      4.510
REMARK  5 active torsions:
REMARK  status: ('A' for Active; 'I' for Inactive)
REMARK    1  A    between atoms: C2_2  and  C3_3 
REMARK    2  A    between atoms: C3_3  and  C4_4 
REMARK    3  A    between atoms: C4_4  and  C5_5 
REMARK    4  A    between atoms: C5_5  and  C8_7 
REMARK    5  A    between atoms: C9_8  and  C10_9 
ROOT
ATOM      1  C4  ZIN A   1      18.729  -0.954  12.412  0.00  0.00     0.141 A 
ATOM      2  C12 ZIN A   1      19.865   0.049  12.342  0.00  0.00     0.267 A 
ATOM      3  O13 ZIN A   1      20.564   0.276  13.306  0.00  0.00    -0.270 OA
ATOM      4  N14 ZIN A   1      20.069   0.681  11.166  0.00  0.00    -0.157 NA
ATOM      5  C15 ZIN A   1      19.308   0.442  10.093  0.00  0.00     0.353 A 
ATOM      6  O16 ZIN A   1      19.561   1.055   9.075  0.00  0.00    -0.244 OA
ATOM      7  N17 ZIN A   1      18.287  -0.422  10.058  0.00  0.00    -0.272 N 
ATOM      8  C18 ZIN A   1      17.535  -0.585   8.811  0.00  0.00     0.164 C 
ATOM      9  C19 ZIN A   1      17.929  -1.149  11.138  0.00  0.00     0.247 A 
ATOM     10  O20 ZIN A   1      17.001  -1.929  11.091  0.00  0.00    -0.271 OA
ENDROOT
BRANCH   1  11
ATOM     11  C3  ZIN A   1      19.316  -2.308  12.818  0.00  0.00     0.057 C 
BRANCH  11  12
ATOM     12  C2  ZIN A   1      20.068  -2.900  11.653  0.00  0.00    -0.035 C 
ATOM     13  C1  ZIN A   1      19.981  -4.183  11.402  0.00  0.00     0.007 C 
ENDBRANCH  11  12
ENDBRANCH   1  11
BRANCH   1  14
ATOM     14  C5  ZIN A   1      17.769  -0.505  13.514  0.00  0.00     0.088 C 
ATOM     15  C7  ZIN A   1      17.563   1.008  13.424  0.00  0.00     0.025 C 
BRANCH  14  16
ATOM     16  C8  ZIN A   1      18.337  -0.845  14.828  0.00  0.00    -0.100 C 
ATOM     17  C9  ZIN A   1      18.791  -1.116  15.877  0.00  0.00    -0.106 C 
BRANCH  17  18
ATOM     18  C10 ZIN A   1      19.358  -1.457  17.192  0.00  0.00     0.089 C 
ATOM     19  C11 ZIN A   1      19.243  -0.251  18.125  0.00  0.00     0.018 C 
ENDBRANCH  17  18
ENDBRANCH  14  16
ENDBRANCH   1  14
TORSDOF 5
ENDMDL
MODEL 6
REMARK VINA RESULT:      -6.2      2.292      4.343
REMARK  5 active torsions:
REMARK  status: ('A' for Active; 'I' for Inactive)
REMARK    1  A    between atoms: C2_2  and  C3_3 
REMARK    2  A    between atoms: C3_3  and  C4_4 
REMARK    3  A    between atoms: C4_4  and  C5_5 
REMARK    4  A    between atoms: C5_5  and  C8_7 
REMARK    5  A    between atoms: C9_8  and  C10_9 
ROOT
ATOM      1  C4  ZIN A   1      19.007   0.630  10.695  0.00  0.00     0.141 A 
ATOM      2  C12 ZIN A   1      17.504   0.426  10.747  0.00  0.00     0.267 A 
ATOM      3  O13 ZIN A   1      16.855   0.273   9.735  0.00  0.00    -0.270 OA
ATOM      4  N14 ZIN A   1      16.916   0.423  11.963  0.00  0.00    -0.157 NA
ATOM      5  C15 ZIN A   1      17.618   0.591  13.089  0.00  0.00     0.353 A 
ATOM      6  O16 ZIN A   1      17.010   0.573  14.140  0.00  0.00    -0.244 OA
ATOM      7  N17 ZIN A   1      18.942   0.776  13.143  0.00  0.00    -0.272 N 
ATOM      8  C18 ZIN A   1      19.584   0.947  14.449  0.00  0.00     0.164 C 
ATOM      9  C19 ZIN A   1      19.705   0.810  12.030  0.00  0.00     0.247 A 
ATOM     10  O20 ZIN A   1      20.904   0.979  12.094  0.00  0.00    -0.271 OA
ENDROOT
BRANCH   1  11
ATOM     11  C3  ZIN A   1      19.626  -0.580   9.993  0.00  0.00     0.057 C 
BRANCH  11  12
ATOM     12  C2  ZIN A   1      19.431  -1.809  10.844  0.00  0.00    -0.035 C 
ATOM     13  C1  ZIN A   1      19.018  -2.925  10.296  0.00  0.00     0.007 C 
ENDBRANCH  11  12
ENDBRANCH   1  11
BRANCH   1  14
ATOM     14  C5  ZIN A   1      19.286   1.867   9.840  0.00  0.00     0.088 C 
ATOM     15  C7  ZIN A   1      18.276   2.963  10.183  0.00  0.00     0.025 C 
BRANCH  14  16
ATOM     16  C8  ZIN A   1      19.165   1.516   8.416  0.00  0.00    -0.100 C 
ATOM     17  C9  ZIN A   1      19.067   1.237   7.279  0.00  0.00    -0.106 C 
BRANCH  17  18
ATOM     18  C10 ZIN A   1      18.945   0.886   5.855  0.00  0.00     0.089 C 
ATOM     19  C11 ZIN A   1      17.787  -0.094   5.668  0.00  0.00     0.018 C 
ENDBRANCH  17  18
ENDBRANCH  14  16
ENDBRANCH   1  14
TORSDOF 5
ENDMDL
MODEL 7
REMARK VINA RESULT:      -6.2      1.846      3.186
REMARK  5 active torsions:
REMARK  status: ('A' for Active; 'I' for Inactive)
REMARK    1  A    between atoms: C2_2  and  C3_3 
REMARK    2  A    between atoms: C3_3  and  C4_4 
REMARK    3  A    between atoms: C4_4  and  C5_5 
REMARK    4  A    between atoms: C5_5  and  C8_7 
REMARK    5  A    between atoms: C9_8  and  C10_9 
ROOT
ATOM      1  C4  ZIN A   1      18.423  -0.000  11.748  0.00  0.00     0.141 A 
ATOM      2  C12 ZIN A   1      17.057   0.652  11.635  0.00  0.00     0.267 A 
ATOM      3  O13 ZIN A   1      16.046  -0.013  11.581  0.00  0.00    -0.270 OA
ATOM      4  N14 ZIN A   1      17.011   2.001  11.596  0.00  0.00    -0.157 NA
ATOM      5  C15 ZIN A   1      18.118   2.750  11.655  0.00  0.00     0.353 A 
ATOM      6  O16 ZIN A   1      17.985   3.956  11.614  0.00  0.00    -0.244 OA
ATOM      7  N17 ZIN A   1      19.362   2.266  11.754  0.00  0.00    -0.272 N 
ATOM      8  C18 ZIN A   1      20.486   3.204  11.809  0.00  0.00     0.164 C 
ATOM      9  C19 ZIN A   1      19.612   0.941  11.807  0.00  0.00     0.247 A 
ATOM     10  O20 ZIN A   1      20.744   0.517  11.897  0.00  0.00    -0.271 OA
ENDROOT
BRANCH   1  11
ATOM     11  C3  ZIN A   1      18.434  -0.863  13.011  0.00  0.00     0.057 C 
BRANCH  11  12
ATOM     12  C2  ZIN A   1      18.165   0.004  14.214  0.00  0.00    -0.035 C 
ATOM     13  C1  ZIN A   1      18.592  -0.366  15.396  0.00  0.00     0.007 C 
ENDBRANCH  11  12
ENDBRANCH   1  11
BRANCH   1  14
ATOM     14  C5  ZIN A   1      18.606  -0.924  10.543  0.00  0.00     0.088 C 
ATOM     15  C7  ZIN A   1      19.850  -1.790  10.748  0.00  0.00     0.025 C 
BRANCH  14  16
ATOM     16  C8  ZIN A   1      18.767  -0.114   9.324  0.00  0.00    -0.100 C 
ATOM     17  C9  ZIN A   1      18.897   0.532   8.352  0.00  0.00    -0.106 C 
BRANCH  17  18
ATOM     18  C10 ZIN A   1      19.059   1.342   7.134  0.00  0.00     0.089 C 
ATOM     19  C11 ZIN A   1      18.885   0.451   5.903  0.00  0.00     0.018 C 
ENDBRANCH  17  18
ENDBRANCH  14  16
ENDBRANCH   1  14
TORSDOF 5
ENDMDL
MODEL 8
REMARK VINA RESULT:      -6.0      1.550      3.379
REMARK  5 active torsions:
REMARK  status: ('A' for Active; 'I' for Inactive)
REMARK    1  A    between atoms: C2_2  and  C3_3 
REMARK    2  A    between atoms: C3_3  and  C4_4 
REMARK    3  A    between atoms: C4_4  and  C5_5 
REMARK    4  A    between atoms: C5_5  and  C8_7 
REMARK    5  A    between atoms: C9_8  and  C10_9 
ROOT
ATOM      1  C4  ZIN A   1      18.173  -0.845  11.203  0.00  0.00     0.141 A 
ATOM      2  C12 ZIN A   1      19.690  -0.826  11.208  0.00  0.00     0.267 A 
ATOM      3  O13 ZIN A   1      20.333  -1.839  11.035  0.00  0.00    -0.270 OA
ATOM      4  N14 ZIN A   1      20.299   0.362  11.413  0.00  0.00    -0.157 NA
ATOM      5  C15 ZIN A   1      19.605   1.490  11.604  0.00  0.00     0.353 A 
ATOM      6  O16 ZIN A   1      20.233   2.514  11.780  0.00  0.00    -0.244 OA
ATOM      7  N17 ZIN A   1      18.270   1.571  11.617  0.00  0.00    -0.272 N 
ATOM      8  C18 ZIN A   1      17.639   2.875  11.839  0.00  0.00     0.164 C 
ATOM      9  C19 ZIN A   1      17.486   0.488  11.431  0.00  0.00     0.247 A 
ATOM     10  O20 ZIN A   1      16.276   0.577  11.445  0.00  0.00    -0.271 OA
ENDROOT
BRANCH   1  11
ATOM     11  C3  ZIN A   1      17.709  -1.397   9.854  0.00  0.00     0.057 C 
BRANCH  11  12
ATOM     12  C2  ZIN A   1      18.092  -0.434   8.759  0.00  0.00    -0.035 C 
ATOM     13  C1  ZIN A   1      17.276  -0.227   7.755  0.00  0.00     0.007 C 
ENDBRANCH  11  12
ENDBRANCH   1  11
BRANCH   1  14
ATOM     14  C5  ZIN A   1      17.710  -1.812  12.294  0.00  0.00     0.088 C 
ATOM     15  C7  ZIN A   1      18.695  -1.771  13.464  0.00  0.00     0.025 C 
BRANCH  14  16
ATOM     16  C8  ZIN A   1      17.654  -3.177  11.748  0.00  0.00    -0.100 C 
ATOM     17  C9  ZIN A   1      17.608  -4.267  11.311  0.00  0.00    -0.106 C 
BRANCH  17  18
ATOM     18  C10 ZIN A   1      17.552  -5.633  10.765  0.00  0.00     0.089 C 
ATOM     19  C11 ZIN A   1      18.489  -5.739   9.561  0.00  0.00     0.018 C 
ENDBRANCH  17  18
ENDBRANCH  14  16
ENDBRANCH   1  14
TORSDOF 5
ENDMDL
MODEL 9
REMARK VINA RESULT:      -6.0      2.304      4.762
REMARK  5 active torsions:
REMARK  status: ('A' for Active; 'I' for Inactive)
REMARK    1  A    between atoms: C2_2  and  C3_3 
REMARK    2  A    between atoms: C3_3  and  C4_4 
REMARK    3  A    between atoms: C4_4  and  C5_5 
REMARK    4  A    between atoms: C5_5  and  C8_7 
REMARK    5  A    between atoms: C9_8  and  C10_9 
ROOT
ATOM      1  C4  ZIN A   1      18.726   0.910  11.388  0.00  0.00     0.141 A 
ATOM      2  C12 ZIN A   1      20.115   0.363  11.663  0.00  0.00     0.267 A 
ATOM      3  O13 ZIN A   1      20.958   1.037  12.212  0.00  0.00    -0.270 OA
ATOM      4  N14 ZIN A   1      20.376  -0.903  11.270  0.00  0.00    -0.157 NA
ATOM      5  C15 ZIN A   1      19.456  -1.660  10.663  0.00  0.00     0.353 A 
ATOM      6  O16 ZIN A   1      19.776  -2.788  10.345  0.00  0.00    -0.244 OA
ATOM      7  N17 ZIN A   1      18.209  -1.266  10.380  0.00  0.00    -0.272 N 
ATOM      8  C18 ZIN A   1      17.303  -2.202   9.709  0.00  0.00     0.164 C 
ATOM      9  C19 ZIN A   1      17.760  -0.033  10.694  0.00  0.00     0.247 A 
ATOM     10  O20 ZIN A   1      16.627   0.310  10.432  0.00  0.00    -0.271 OA
ENDROOT
BRANCH   1  11
ATOM     11  C3  ZIN A   1      18.108   1.327  12.724  0.00  0.00     0.057 C 
BRANCH  11  12
ATOM     12  C2  ZIN A   1      17.887   0.106  13.580  0.00  0.00    -0.035 C 
ATOM     13  C1  ZIN A   1      17.708   0.235  14.871  0.00  0.00     0.007 C 
ENDBRANCH  11  12
ENDBRANCH   1  11
BRANCH   1  14
ATOM     14  C5  ZIN A   1      18.874   2.162  10.523  0.00  0.00     0.088 C 
ATOM     15  C7  ZIN A   1      17.678   3.087  10.757  0.00  0.00     0.025 C 
BRANCH  14  16
ATOM     16  C8  ZIN A   1      18.925   1.775   9.104  0.00  0.00    -0.100 C 
ATOM     17  C9  ZIN A   1      18.966   1.466   7.972  0.00  0.00    -0.106 C 
BRANCH  17  18
ATOM     18  C10 ZIN A   1      19.017   1.079   6.553  0.00  0.00     0.089 C 
ATOM     19  C11 ZIN A   1      17.801   0.214   6.216  0.00  0.00     0.018 C 
ENDBRANCH  17  18
ENDBRANCH  14  16
ENDBRANCH   1  14
TORSDOF 5
ENDMDL
