MODEL 1
REMARK VINA RESULT:      -8.8      0.000      0.000
REMARK  5 active torsions:
REMARK  status: ('A' for Active; 'I' for Inactive)
REMARK    1  A    between atoms: N2_2  and  S4_4 
REMARK    2  A    between atoms: S4_4  and  C7_7 
REMARK    3  A    between atoms: C19_19  and  C20_20 
REMARK    4  A    between atoms: C20_20  and  C21_21 
REMARK    5  A    between atoms: C21_21  and  N22_22 
ROOT
ATOM      1  C7  ZIN A   1      17.977   3.135  10.346  0.00  0.00     0.080 A 
ATOM      2  C8  ZIN A   1      18.666   3.060   9.148  0.00  0.00     0.027 A 
ATOM      3  C9  ZIN A   1      19.136   1.847   8.691  0.00  0.00     0.021 A 
ATOM      4  C10 ZIN A   1      18.924   0.684   9.431  0.00  0.00     0.017 A 
ATOM      5  S11 ZIN A   1      19.546  -0.839   8.815  0.00  0.00    -0.089 SA
ATOM      6  C12 ZIN A   1      18.646  -2.076   9.681  0.00  0.00     0.016 A 
ATOM      7  C13 ZIN A   1      18.611  -3.369   9.163  0.00  0.00     0.020 A 
ATOM      8  C14 ZIN A   1      17.916  -4.365   9.818  0.00  0.00     0.001 A 
ATOM      9  C15 ZIN A   1      17.247  -4.088  10.999  0.00  0.00     0.001 A 
ATOM     10  C16 ZIN A   1      17.272  -2.814  11.524  0.00  0.00     0.013 A 
ATOM     11  C17 ZIN A   1      17.970  -1.796  10.869  0.00  0.00    -0.008 A 
ATOM     12  C18 ZIN A   1      17.971  -0.442  11.455  0.00  0.00    -0.017 C 
ATOM     13  C19 ZIN A   1      17.736  -0.299  12.768  0.00  0.00    -0.012 C 
ATOM     14  C29 ZIN A   1      18.226   0.760  10.638  0.00  0.00    -0.007 A 
ATOM     15  C30 ZIN A   1      17.761   1.997  11.092  0.00  0.00     0.038 A 
ENDROOT
BRANCH  13  16
ATOM     16  C20 ZIN A   1      18.236   0.921  13.495  0.00  0.00     0.058 C 
BRANCH  16  17
ATOM     17  C21 ZIN A   1      19.402   0.530  14.406  0.00  0.00     0.276 C 
BRANCH  17  18
ATOM     18  N22 ZIN A   1      19.411   1.398  15.591  0.00  0.00     0.092 N 
ATOM     19  C28 ZIN A   1      18.599   2.601  15.368  0.00  0.00     0.302 C 
ATOM     20  C27 ZIN A   1      18.698   3.514  16.594  0.00  0.00     0.302 C 
ATOM     21  N25 ZIN A   1      18.237   2.784  17.783  0.00  0.00     0.087 N 
ATOM     22  C24 ZIN A   1      19.049   1.580  18.005  0.00  0.00     0.302 C 
ATOM     23  C26 ZIN A   1      18.246   3.651  18.968  0.00  0.00     0.310 C 
ATOM     24  C23 ZIN A   1      18.951   0.667  16.781  0.00  0.00     0.302 C 
ENDBRANCH  17  18
ENDBRANCH  16  17
ENDBRANCH  13  16
BRANCH   1  25
ATOM     25  S4  ZIN A   1      17.382   4.691  10.923  0.00  0.00     0.260 S 
ATOM     26  O5  ZIN A   1      16.019   4.494  11.274  0.00  0.00    -0.200 OA
ATOM     27  O6  ZIN A   1      17.809   5.660   9.976  0.00  0.00    -0.200 OA
BRANCH  25  28
ATOM     28  N2  ZIN A   1      18.184   5.030  12.332  0.00  0.00    -0.315 N 
ATOM     29  C1  ZIN A   1      19.612   4.729  12.453  0.00  0.00     0.162 C 
ATOM     30  C3  ZIN A   1      17.464   5.633  13.457  0.00  0.00     0.162 C 
ENDBRANCH  25  28
ENDBRANCH   1  25
TORSDOF 5
ENDMDL
MODEL 2
REMARK VINA RESULT:      -8.8      5.080      8.655
REMARK  5 active torsions:
REMARK  status: ('A' for Active; 'I' for Inactive)
REMARK    1  A    between atoms: N2_2  and  S4_4 
REMARK    2  A    between atoms: S4_4  and  C7_7 
REMARK    3  A    between atoms: C19_19  and  C20_20 
REMARK    4  A    between atoms: C20_20  and  C21_21 
REMARK    5  A    between atoms: C21_21  and  N22_22 
ROOT
ATOM      1  C7  ZIN A   1      18.667  -1.668   7.223  0.00  0.00     0.080 A 
ATOM      2  C8  ZIN A   1      17.875  -0.535   7.149  0.00  0.00     0.027 A 
ATOM      3  C9  ZIN A   1      17.339   0.014   8.293  0.00  0.00     0.021 A 
ATOM      4  C10 ZIN A   1      17.586  -0.566   9.537  0.00  0.00     0.017 A 
ATOM      5  S11 ZIN A   1      16.877   0.163  10.970  0.00  0.00    -0.089 SA
ATOM      6  C12 ZIN A   1      17.818  -0.472  12.311  0.00  0.00     0.016 A 
ATOM      7  C13 ZIN A   1      17.777   0.192  13.536  0.00  0.00     0.020 A 
ATOM      8  C14 ZIN A   1      18.501  -0.280  14.610  0.00  0.00     0.001 A 
ATOM      9  C15 ZIN A   1      19.277  -1.420  14.482  0.00  0.00     0.001 A 
ATOM     10  C16 ZIN A   1      19.328  -2.089  13.278  0.00  0.00     0.013 A 
ATOM     11  C17 ZIN A   1      18.601  -1.619  12.181  0.00  0.00    -0.008 A 
ATOM     12  C18 ZIN A   1      18.683  -2.355  10.904  0.00  0.00    -0.017 C 
ATOM     13  C19 ZIN A   1      19.035  -3.649  10.919  0.00  0.00    -0.012 C 
ATOM     14  C29 ZIN A   1      18.388  -1.706   9.612  0.00  0.00    -0.007 A 
ATOM     15  C30 ZIN A   1      18.920  -2.256   8.443  0.00  0.00     0.038 A 
ENDROOT
BRANCH  13  16
ATOM     16  C20 ZIN A   1      18.629  -4.553   9.784  0.00  0.00     0.058 C 
BRANCH  16  17
ATOM     17  C21 ZIN A   1      17.965  -5.812  10.347  0.00  0.00     0.276 C 
BRANCH  17  18
ATOM     18  N22 ZIN A   1      16.991  -6.328   9.377  0.00  0.00     0.092 N 
ATOM     19  C28 ZIN A   1      15.852  -5.411   9.237  0.00  0.00     0.302 C 
ATOM     20  C27 ZIN A   1      14.824  -6.020   8.280  0.00  0.00     0.302 C 
ATOM     21  N25 ZIN A   1      15.459  -6.270   6.978  0.00  0.00     0.087 N 
ATOM     22  C24 ZIN A   1      16.598  -7.188   7.120  0.00  0.00     0.302 C 
ATOM     23  C26 ZIN A   1      14.484  -6.786   6.008  0.00  0.00     0.310 C 
ATOM     24  C23 ZIN A   1      17.626  -6.579   8.076  0.00  0.00     0.302 C 
ENDBRANCH  17  18
ENDBRANCH  16  17
ENDBRANCH  13  16
BRANCH   1  25
ATOM     25  S4  ZIN A   1      19.348  -2.365   5.753  0.00  0.00     0.260 S 
ATOM     26  O5  ZIN A   1      20.193  -3.429   6.167  0.00  0.00    -0.200 OA
ATOM     27  O6  ZIN A   1      19.802  -1.273   4.965  0.00  0.00    -0.200 OA
BRANCH  25  28
ATOM     28  N2  ZIN A   1      18.098  -3.057   4.916  0.00  0.00    -0.315 N 
ATOM     29  C1  ZIN A   1      17.186  -2.218   4.134  0.00  0.00     0.162 C 
ATOM     30  C3  ZIN A   1      17.906  -4.509   4.955  0.00  0.00     0.162 C 
ENDBRANCH  25  28
ENDBRANCH   1  25
TORSDOF 5
ENDMDL
MODEL 3
REMARK VINA RESULT:      -8.8      4.114      8.599
REMARK  5 active torsions:
REMARK  status: ('A' for Active; 'I' for Inactive)
REMARK    1  A    between atoms: N2_2  and  S4_4 
REMARK    2  A    between atoms: S4_4  and  C7_7 
REMARK    3  A    between atoms: C19_19  and  C20_20 
REMARK    4  A    between atoms: C20_20  and  C21_21 
REMARK    5  A    between atoms: C21_21  and  N22_22 
ROOT
ATOM      1  C7  ZIN A   1      17.939  -1.821  11.647  0.00  0.00     0.080 A 
ATOM      2  C8  ZIN A   1      18.174  -1.848  13.011  0.00  0.00     0.027 A 
ATOM      3  C9  ZIN A   1      18.345  -0.672  13.711  0.00  0.00     0.021 A 
ATOM      4  C10 ZIN A   1      18.285   0.556  13.053  0.00  0.00     0.017 A 
ATOM      5  S11 ZIN A   1      18.516   2.029  13.981  0.00  0.00    -0.089 SA
ATOM      6  C12 ZIN A   1      17.848   3.305  12.975  0.00  0.00     0.016 A 
ATOM      7  C13 ZIN A   1      17.518   4.524  13.564  0.00  0.00     0.020 A 
ATOM      8  C14 ZIN A   1      16.994   5.548  12.804  0.00  0.00     0.001 A 
ATOM      9  C15 ZIN A   1      16.792   5.375  11.444  0.00  0.00     0.001 A 
ATOM     10  C16 ZIN A   1      17.113   4.176  10.846  0.00  0.00     0.013 A 
ATOM     11  C17 ZIN A   1      17.642   3.129  11.606  0.00  0.00    -0.008 A 
ATOM     12  C18 ZIN A   1      17.969   1.856  10.936  0.00  0.00    -0.017 C 
ATOM     13  C19 ZIN A   1      18.205   1.856   9.615  0.00  0.00    -0.012 C 
ATOM     14  C29 ZIN A   1      18.046   0.583  11.677  0.00  0.00    -0.007 A 
ATOM     15  C30 ZIN A   1      17.881  -0.616  10.980  0.00  0.00     0.038 A 
ENDROOT
BRANCH  13  16
ATOM     16  C20 ZIN A   1      19.034   0.761   8.997  0.00  0.00     0.058 C 
BRANCH  16  17
ATOM     17  C21 ZIN A   1      19.279   1.078   7.520  0.00  0.00     0.276 C 
BRANCH  17  18
ATOM     18  N22 ZIN A   1      18.790  -0.033   6.693  0.00  0.00     0.092 N 
ATOM     19  C28 ZIN A   1      19.202   0.133   5.293  0.00  0.00     0.302 C 
ATOM     20  C27 ZIN A   1      18.608  -1.000   4.451  0.00  0.00     0.302 C 
ATOM     21  N25 ZIN A   1      19.066  -2.292   4.982  0.00  0.00     0.087 N 
ATOM     22  C24 ZIN A   1      18.654  -2.457   6.383  0.00  0.00     0.302 C 
ATOM     23  C26 ZIN A   1      18.577  -3.403   4.155  0.00  0.00     0.310 C 
ATOM     24  C23 ZIN A   1      19.247  -1.325   7.224  0.00  0.00     0.302 C 
ENDBRANCH  17  18
ENDBRANCH  16  17
ENDBRANCH  13  16
BRANCH   1  25
ATOM     25  S4  ZIN A   1      17.724  -3.329  10.761  0.00  0.00     0.260 S 
ATOM     26  O5  ZIN A   1      17.246  -2.972   9.472  0.00  0.00    -0.200 OA
ATOM     27  O6  ZIN A   1      17.027  -4.210  11.632  0.00  0.00    -0.200 OA
BRANCH  25  28
ATOM     28  N2  ZIN A   1      19.228  -3.985  10.539  0.00  0.00    -0.315 N 
ATOM     29  C1  ZIN A   1      20.287  -3.742  11.522  0.00  0.00     0.162 C 
ATOM     30  C3  ZIN A   1      19.498  -4.811   9.359  0.00  0.00     0.162 C 
ENDBRANCH  25  28
ENDBRANCH   1  25
TORSDOF 5
ENDMDL
MODEL 4
REMARK VINA RESULT:      -8.7      2.847      5.092
REMARK  5 active torsions:
REMARK  status: ('A' for Active; 'I' for Inactive)
REMARK    1  A    between atoms: N2_2  and  S4_4 
REMARK    2  A    between atoms: S4_4  and  C7_7 
REMARK    3  A    between atoms: C19_19  and  C20_20 
REMARK    4  A    between atoms: C20_20  and  C21_21 
REMARK    5  A    between atoms: C21_21  and  N22_22 
ROOT
ATOM      1  C7  ZIN A   1      19.128  -1.114  12.354  0.00  0.00     0.080 A 
ATOM      2  C8  ZIN A   1      18.902  -2.466  12.161  0.00  0.00     0.027 A 
ATOM      3  C9  ZIN A   1      18.583  -2.946  10.909  0.00  0.00     0.021 A 
ATOM      4  C10 ZIN A   1      18.483  -2.076   9.824  0.00  0.00     0.017 A 
ATOM      5  S11 ZIN A   1      18.067  -2.729   8.247  0.00  0.00    -0.089 SA
ATOM      6  C12 ZIN A   1      18.564  -1.492   7.102  0.00  0.00     0.016 A 
ATOM      7  C13 ZIN A   1      18.736  -1.844   5.764  0.00  0.00     0.020 A 
ATOM      8  C14 ZIN A   1      19.123  -0.898   4.838  0.00  0.00     0.001 A 
ATOM      9  C15 ZIN A   1      19.344   0.412   5.229  0.00  0.00     0.001 A 
ATOM     10  C16 ZIN A   1      19.178   0.776   6.548  0.00  0.00     0.013 A 
ATOM     11  C17 ZIN A   1      18.789  -0.173   7.497  0.00  0.00    -0.008 A 
ATOM     12  C18 ZIN A   1      18.626   0.248   8.902  0.00  0.00    -0.017 C 
ATOM     13  C19 ZIN A   1      18.390   1.541   9.172  0.00  0.00    -0.012 C 
ATOM     14  C29 ZIN A   1      18.715  -0.713  10.018  0.00  0.00    -0.007 A 
ATOM     15  C30 ZIN A   1      19.031  -0.240  11.294  0.00  0.00     0.038 A 
ENDROOT
BRANCH  13  16
ATOM     16  C20 ZIN A   1      17.708   1.930  10.457  0.00  0.00     0.058 C 
BRANCH  16  17
ATOM     17  C21 ZIN A   1      17.572   3.453  10.521  0.00  0.00     0.276 C 
BRANCH  17  18
ATOM     18  N22 ZIN A   1      17.645   3.893  11.921  0.00  0.00     0.092 N 
ATOM     19  C28 ZIN A   1      19.021   4.250  12.289  0.00  0.00     0.302 C 
ATOM     20  C27 ZIN A   1      19.068   4.627  13.773  0.00  0.00     0.302 C 
ATOM     21  N25 ZIN A   1      18.151   5.749  14.019  0.00  0.00     0.087 N 
ATOM     22  C24 ZIN A   1      16.775   5.391  13.650  0.00  0.00     0.302 C 
ATOM     23  C26 ZIN A   1      18.224   6.189  15.419  0.00  0.00     0.310 C 
ATOM     24  C23 ZIN A   1      16.727   5.015  12.168  0.00  0.00     0.302 C 
ENDBRANCH  17  18
ENDBRANCH  16  17
ENDBRANCH  13  16
BRANCH   1  25
ATOM     25  S4  ZIN A   1      19.534  -0.509  13.959  0.00  0.00     0.260 S 
ATOM     26  O5  ZIN A   1      20.323   0.655  13.762  0.00  0.00    -0.200 OA
ATOM     27  O6  ZIN A   1      19.979  -1.631  14.710  0.00  0.00    -0.200 OA
BRANCH  25  28
ATOM     28  N2  ZIN A   1      18.123  -0.006  14.664  0.00  0.00    -0.315 N 
ATOM     29  C1  ZIN A   1      17.383   1.125  14.097  0.00  0.00     0.162 C 
ATOM     30  C3  ZIN A   1      17.614  -0.692  15.854  0.00  0.00     0.162 C 
ENDBRANCH  25  28
ENDBRANCH   1  25
TORSDOF 5
ENDMDL
MODEL 5
REMARK VINA RESULT:      -8.6      3.363      5.760
REMARK  5 active torsions:
REMARK  status: ('A' for Active; 'I' for Inactive)
REMARK    1  A    between atoms: N2_2  and  S4_4 
REMARK    2  A    between atoms: S4_4  and  C7_7 
REMARK    3  A    between atoms: C19_19  and  C20_20 
REMARK    4  A    between atoms: C20_20  and  C21_21 
REMARK    5  A    between atoms: C21_21  and  N22_22 
ROOT
ATOM      1  C7  ZIN A   1      18.665   1.614  16.101  0.00  0.00     0.080 A 
ATOM      2  C8  ZIN A   1      18.152   0.328  16.067  0.00  0.00     0.027 A 
ATOM      3  C9  ZIN A   1      17.680  -0.201  14.885  0.00  0.00     0.021 A 
ATOM      4  C10 ZIN A   1      17.712   0.552  13.712  0.00  0.00     0.017 A 
ATOM      5  S11 ZIN A   1      17.093  -0.158  12.229  0.00  0.00    -0.089 SA
ATOM      6  C12 ZIN A   1      17.781   0.818  10.941  0.00  0.00     0.016 A 
ATOM      7  C13 ZIN A   1      17.812   0.300   9.647  0.00  0.00     0.020 A 
ATOM      8  C14 ZIN A   1      18.342   1.041   8.611  0.00  0.00     0.001 A 
ATOM      9  C15 ZIN A   1      18.849   2.308   8.847  0.00  0.00     0.001 A 
ATOM     10  C16 ZIN A   1      18.827   2.834  10.120  0.00  0.00     0.013 A 
ATOM     11  C17 ZIN A   1      18.295   2.094  11.179  0.00  0.00    -0.008 A 
ATOM     12  C18 ZIN A   1      18.292   2.684  12.532  0.00  0.00    -0.017 C 
ATOM     13  C19 ZIN A   1      18.344   4.018  12.661  0.00  0.00    -0.012 C 
ATOM     14  C29 ZIN A   1      18.232   1.848  13.746  0.00  0.00    -0.007 A 
ATOM     15  C30 ZIN A   1      18.701   2.373  14.952  0.00  0.00     0.038 A 
ENDROOT
BRANCH  13  16
ATOM     16  C20 ZIN A   1      17.820   4.675  13.911  0.00  0.00     0.058 C 
BRANCH  16  17
ATOM     17  C21 ZIN A   1      17.367   6.101  13.586  0.00  0.00     0.276 C 
BRANCH  17  18
ATOM     18  N22 ZIN A   1      16.391   6.546  14.590  0.00  0.00     0.092 N 
ATOM     19  C28 ZIN A   1      15.098   5.876  14.400  0.00  0.00     0.302 C 
ATOM     20  C27 ZIN A   1      14.089   6.424  15.413  0.00  0.00     0.302 C 
ATOM     21  N25 ZIN A   1      14.598   6.205  16.775  0.00  0.00     0.087 N 
ATOM     22  C24 ZIN A   1      15.892   6.875  16.963  0.00  0.00     0.302 C 
ATOM     23  C26 ZIN A   1      13.623   6.650  17.778  0.00  0.00     0.310 C 
ATOM     24  C23 ZIN A   1      16.900   6.328  15.951  0.00  0.00     0.302 C 
ENDBRANCH  17  18
ENDBRANCH  16  17
ENDBRANCH  13  16
BRANCH   1  25
ATOM     25  S4  ZIN A   1      19.265   2.282  17.617  0.00  0.00     0.260 S 
ATOM     26  O5  ZIN A   1      19.973   3.467  17.282  0.00  0.00    -0.200 OA
ATOM     27  O6  ZIN A   1      19.852   1.201  18.328  0.00  0.00    -0.200 OA
BRANCH  25  28
ATOM     28  N2  ZIN A   1      17.946   2.758  18.499  0.00  0.00    -0.315 N 
ATOM     29  C1  ZIN A   1      16.991   1.760  18.987  0.00  0.00     0.162 C 
ATOM     30  C3  ZIN A   1      17.735   4.179  18.791  0.00  0.00     0.162 C 
ENDBRANCH  25  28
ENDBRANCH   1  25
TORSDOF 5
ENDMDL
MODEL 6
REMARK VINA RESULT:      -8.6      1.303      1.760
REMARK  5 active torsions:
REMARK  status: ('A' for Active; 'I' for Inactive)
REMARK    1  A    between atoms: N2_2  and  S4_4 
REMARK    2  A    between atoms: S4_4  and  C7_7 
REMARK    3  A    between atoms: C19_19  and  C20_20 
REMARK    4  A    between atoms: C20_20  and  C21_21 
REMARK    5  A    between atoms: C21_21  and  N22_22 
ROOT
ATOM      1  C7  ZIN A   1      18.264   1.636  10.008  0.00  0.00     0.080 A 
ATOM      2  C8  ZIN A   1      18.719   1.554   8.703  0.00  0.00     0.027 A 
ATOM      3  C9  ZIN A   1      18.925   0.325   8.114  0.00  0.00     0.021 A 
ATOM      4  C10 ZIN A   1      18.681  -0.849   8.827  0.00  0.00     0.017 A 
ATOM      5  S11 ZIN A   1      18.964  -2.394   8.041  0.00  0.00    -0.089 SA
ATOM      6  C12 ZIN A   1      18.061  -3.559   8.997  0.00  0.00     0.016 A 
ATOM      7  C13 ZIN A   1      17.753  -4.797   8.435  0.00  0.00     0.020 A 
ATOM      8  C14 ZIN A   1      17.047  -5.735   9.159  0.00  0.00     0.001 A 
ATOM      9  C15 ZIN A   1      16.638  -5.456  10.452  0.00  0.00     0.001 A 
ATOM     10  C16 ZIN A   1      16.934  -4.237  11.022  0.00  0.00     0.013 A 
ATOM     11  C17 ZIN A   1      17.646  -3.276  10.299  0.00  0.00    -0.008 A 
ATOM     12  C18 ZIN A   1      17.941  -1.978  10.936  0.00  0.00    -0.017 C 
ATOM     13  C19 ZIN A   1      17.958  -1.898  12.275  0.00  0.00    -0.012 C 
ATOM     14  C29 ZIN A   1      18.219  -0.766  10.142  0.00  0.00    -0.007 A 
ATOM     15  C30 ZIN A   1      18.020   0.486  10.727  0.00  0.00     0.038 A 
ENDROOT
BRANCH  13  16
ATOM     16  C20 ZIN A   1      18.744  -0.808  12.955  0.00  0.00     0.058 C 
BRANCH  16  17
ATOM     17  C21 ZIN A   1      18.895  -1.139  14.441  0.00  0.00     0.276 C 
BRANCH  17  18
ATOM     18  N22 ZIN A   1      19.191   0.089  15.190  0.00  0.00     0.092 N 
ATOM     19  C28 ZIN A   1      18.515   1.247  14.590  0.00  0.00     0.302 C 
ATOM     20  C27 ZIN A   1      18.911   2.516  15.350  0.00  0.00     0.302 C 
ATOM     21  N25 ZIN A   1      18.545   2.370  16.766  0.00  0.00     0.087 N 
ATOM     22  C24 ZIN A   1      19.222   1.211  17.365  0.00  0.00     0.302 C 
ATOM     23  C26 ZIN A   1      18.841   3.598  17.515  0.00  0.00     0.310 C 
ATOM     24  C23 ZIN A   1      18.826  -0.057  16.606  0.00  0.00     0.302 C 
ENDBRANCH  17  18
ENDBRANCH  16  17
ENDBRANCH  13  16
BRANCH   1  25
ATOM     25  S4  ZIN A   1      18.005   3.212  10.753  0.00  0.00     0.260 S 
ATOM     26  O5  ZIN A   1      16.915   3.057  11.651  0.00  0.00    -0.200 OA
ATOM     27  O6  ZIN A   1      18.011   4.161   9.695  0.00  0.00    -0.200 OA
BRANCH  25  28
ATOM     28  N2  ZIN A   1      19.336   3.539  11.682  0.00  0.00    -0.315 N 
ATOM     29  C1  ZIN A   1      19.389   4.767  12.479  0.00  0.00     0.162 C 
ATOM     30  C3  ZIN A   1      20.460   2.600  11.707  0.00  0.00     0.162 C 
ENDBRANCH  25  28
ENDBRANCH   1  25
TORSDOF 5
ENDMDL
MODEL 7
REMARK VINA RESULT:      -8.3      3.445      7.309
REMARK  5 active torsions:
REMARK  status: ('A' for Active; 'I' for Inactive)
REMARK    1  A    between atoms: N2_2  and  S4_4 
REMARK    2  A    between atoms: S4_4  and  C7_7 
REMARK    3  A    between atoms: C19_19  and  C20_20 
REMARK    4  A    between atoms: C20_20  and  C21_21 
REMARK    5  A    between atoms: C21_21  and  N22_22 
ROOT
ATOM      1  C7  ZIN A   1      19.155   1.076  10.480  0.00  0.00     0.080 A 
ATOM      2  C8  ZIN A   1      18.934   2.413  10.764  0.00  0.00     0.027 A 
ATOM      3  C9  ZIN A   1      18.625   2.809  12.048  0.00  0.00     0.021 A 
ATOM      4  C10 ZIN A   1      18.530   1.868  13.073  0.00  0.00     0.017 A 
ATOM      5  S11 ZIN A   1      18.127   2.415  14.693  0.00  0.00    -0.089 SA
ATOM      6  C12 ZIN A   1      18.628   1.104  15.750  0.00  0.00     0.016 A 
ATOM      7  C13 ZIN A   1      18.811   1.365  17.107  0.00  0.00     0.020 A 
ATOM      8  C14 ZIN A   1      19.202   0.358  17.965  0.00  0.00     0.001 A 
ATOM      9  C15 ZIN A   1      19.416  -0.924  17.485  0.00  0.00     0.001 A 
ATOM     10  C16 ZIN A   1      19.240  -1.198  16.146  0.00  0.00     0.013 A 
ATOM     11  C17 ZIN A   1      18.847  -0.187  15.266  0.00  0.00    -0.008 A 
ATOM     12  C18 ZIN A   1      18.674  -0.513  13.837  0.00  0.00    -0.017 C 
ATOM     13  C19 ZIN A   1      18.432  -1.784  13.483  0.00  0.00    -0.012 C 
ATOM     14  C29 ZIN A   1      18.757   0.520  12.787  0.00  0.00    -0.007 A 
ATOM     15  C30 ZIN A   1      19.063   0.133  11.480  0.00  0.00     0.038 A 
ENDROOT
BRANCH  13  16
ATOM     16  C20 ZIN A   1      17.739  -2.085  12.180  0.00  0.00     0.058 C 
BRANCH  16  17
ATOM     17  C21 ZIN A   1      17.883  -3.574  11.858  0.00  0.00     0.276 C 
BRANCH  17  18
ATOM     18  N22 ZIN A   1      17.532  -3.808  10.451  0.00  0.00     0.092 N 
ATOM     19  C28 ZIN A   1      18.707  -3.656   9.583  0.00  0.00     0.302 C 
ATOM     20  C27 ZIN A   1      18.284  -3.829   8.121  0.00  0.00     0.302 C 
ATOM     21  N25 ZIN A   1      17.670  -5.152   7.945  0.00  0.00     0.087 N 
ATOM     22  C24 ZIN A   1      16.495  -5.303   8.814  0.00  0.00     0.302 C 
ATOM     23  C26 ZIN A   1      17.319  -5.386   6.539  0.00  0.00     0.310 C 
ATOM     24  C23 ZIN A   1      16.917  -5.131  10.275  0.00  0.00     0.302 C 
ENDBRANCH  17  18
ENDBRANCH  16  17
ENDBRANCH  13  16
BRANCH   1  25
ATOM     25  S4  ZIN A   1      19.548   0.579   8.836  0.00  0.00     0.260 S 
ATOM     26  O5  ZIN A   1      20.326  -0.604   8.949  0.00  0.00    -0.200 OA
ATOM     27  O6  ZIN A   1      20.001   1.745   8.161  0.00  0.00    -0.200 OA
BRANCH  25  28
ATOM     28  N2  ZIN A   1      18.129   0.139   8.105  0.00  0.00    -0.315 N 
ATOM     29  C1  ZIN A   1      17.004  -0.336   8.914  0.00  0.00     0.162 C 
ATOM     30  C3  ZIN A   1      17.998   0.226   6.648  0.00  0.00     0.162 C 
ENDBRANCH  25  28
ENDBRANCH   1  25
TORSDOF 5
ENDMDL
MODEL 8
REMARK VINA RESULT:      -8.2      3.058      7.070
REMARK  5 active torsions:
REMARK  status: ('A' for Active; 'I' for Inactive)
REMARK    1  A    between atoms: N2_2  and  S4_4 
REMARK    2  A    between atoms: S4_4  and  C7_7 
REMARK    3  A    between atoms: C19_19  and  C20_20 
REMARK    4  A    between atoms: C20_20  and  C21_21 
REMARK    5  A    between atoms: C21_21  and  N22_22 
ROOT
ATOM      1  C7  ZIN A   1      18.807   1.615   9.872  0.00  0.00     0.080 A 
ATOM      2  C8  ZIN A   1      18.293   2.873   9.604  0.00  0.00     0.027 A 
ATOM      3  C9  ZIN A   1      17.865   3.683  10.634  0.00  0.00     0.021 A 
ATOM      4  C10 ZIN A   1      17.944   3.245  11.956  0.00  0.00     0.017 A 
ATOM      5  S11 ZIN A   1      17.381   4.307  13.237  0.00  0.00    -0.089 SA
ATOM      6  C12 ZIN A   1      18.120   3.678  14.701  0.00  0.00     0.016 A 
ATOM      7  C13 ZIN A   1      18.200   4.501  15.823  0.00  0.00     0.020 A 
ATOM      8  C14 ZIN A   1      18.771   4.038  16.990  0.00  0.00     0.001 A 
ATOM      9  C15 ZIN A   1      19.272   2.749  17.058  0.00  0.00     0.001 A 
ATOM     10  C16 ZIN A   1      19.202   1.922  15.958  0.00  0.00     0.013 A 
ATOM     11  C17 ZIN A   1      18.628   2.379  14.769  0.00  0.00    -0.008 A 
ATOM     12  C18 ZIN A   1      18.574   1.471  13.607  0.00  0.00    -0.017 C 
ATOM     13  C19 ZIN A   1      18.624   0.146  13.813  0.00  0.00    -0.012 C 
ATOM     14  C29 ZIN A   1      18.465   1.978  12.226  0.00  0.00    -0.007 A 
ATOM     15  C30 ZIN A   1      18.889   1.166  11.172  0.00  0.00     0.038 A 
ENDROOT
BRANCH  13  16
ATOM     16  C20 ZIN A   1      18.054  -0.798  12.786  0.00  0.00     0.058 C 
BRANCH  16  17
ATOM     17  C21 ZIN A   1      18.618  -2.202  13.016  0.00  0.00     0.276 C 
BRANCH  17  18
ATOM     18  N22 ZIN A   1      18.506  -2.984  11.778  0.00  0.00     0.092 N 
ATOM     19  C28 ZIN A   1      19.762  -3.686  11.483  0.00  0.00     0.302 C 
ATOM     20  C27 ZIN A   1      19.630  -4.424  10.148  0.00  0.00     0.302 C 
ATOM     21  N25 ZIN A   1      18.507  -5.368  10.222  0.00  0.00     0.087 N 
ATOM     22  C24 ZIN A   1      17.251  -4.665  10.517  0.00  0.00     0.302 C 
ATOM     23  C26 ZIN A   1      18.395  -6.150   8.984  0.00  0.00     0.310 C 
ATOM     24  C23 ZIN A   1      17.382  -3.928  11.852  0.00  0.00     0.302 C 
ENDBRANCH  17  18
ENDBRANCH  16  17
ENDBRANCH  13  16
BRANCH   1  25
ATOM     25  S4  ZIN A   1      19.349   0.586   8.548  0.00  0.00     0.260 S 
ATOM     26  O5  ZIN A   1      20.303  -0.310   9.101  0.00  0.00    -0.200 OA
ATOM     27  O6  ZIN A   1      19.637   1.452   7.458  0.00  0.00    -0.200 OA
BRANCH  25  28
ATOM     28  N2  ZIN A   1      18.055  -0.336   8.083  0.00  0.00    -0.315 N 
ATOM     29  C1  ZIN A   1      17.751  -1.584   8.789  0.00  0.00     0.162 C 
ATOM     30  C3  ZIN A   1      17.212   0.097   6.965  0.00  0.00     0.162 C 
ENDBRANCH  25  28
ENDBRANCH   1  25
TORSDOF 5
ENDMDL
MODEL 9
REMARK VINA RESULT:      -8.0      5.173      9.553
REMARK  5 active torsions:
REMARK  status: ('A' for Active; 'I' for Inactive)
REMARK    1  A    between atoms: N2_2  and  S4_4 
REMARK    2  A    between atoms: S4_4  and  C7_7 
REMARK    3  A    between atoms: C19_19  and  C20_20 
REMARK    4  A    between atoms: C20_20  and  C21_21 
REMARK    5  A    between atoms: C21_21  and  N22_22 
ROOT
ATOM      1  C7  ZIN A   1      18.227  -3.587  10.649  0.00  0.00     0.080 A 
ATOM      2  C8  ZIN A   1      18.899  -3.609  11.859  0.00  0.00     0.027 A 
ATOM      3  C9  ZIN A   1      19.477  -2.460  12.355  0.00  0.00     0.021 A 
ATOM      4  C10 ZIN A   1      19.392  -1.264  11.642  0.00  0.00     0.017 A 
ATOM      5  S11 ZIN A   1      20.149   0.176  12.307  0.00  0.00    -0.089 SA
ATOM      6  C12 ZIN A   1      19.390   1.516  11.461  0.00  0.00     0.016 A 
ATOM      7  C13 ZIN A   1      19.472   2.793  12.012  0.00  0.00     0.020 A 
ATOM      8  C14 ZIN A   1      18.889   3.868  11.374  0.00  0.00     0.001 A 
ATOM      9  C15 ZIN A   1      18.218   3.687  10.176  0.00  0.00     0.001 A 
ATOM     10  C16 ZIN A   1      18.127   2.431   9.617  0.00  0.00     0.013 A 
ATOM     11  C17 ZIN A   1      18.710   1.333  10.256  0.00  0.00    -0.008 A 
ATOM     12  C18 ZIN A   1      18.590   0.000   9.634  0.00  0.00    -0.017 C 
ATOM     13  C19 ZIN A   1      18.366  -0.086   8.315  0.00  0.00    -0.012 C 
ATOM     14  C29 ZIN A   1      18.712  -1.241  10.424  0.00  0.00    -0.007 A 
ATOM     15  C30 ZIN A   1      18.137  -2.414   9.930  0.00  0.00     0.038 A 
ENDROOT
BRANCH  13  16
ATOM     16  C20 ZIN A   1      18.757  -1.332   7.563  0.00  0.00     0.058 C 
BRANCH  16  17
ATOM     17  C21 ZIN A   1      18.541  -1.112   6.064  0.00  0.00     0.276 C 
BRANCH  17  18
ATOM     18  N22 ZIN A   1      17.907  -2.302   5.481  0.00  0.00     0.092 N 
ATOM     19  C28 ZIN A   1      17.374  -2.011   4.143  0.00  0.00     0.302 C 
ATOM     20  C27 ZIN A   1      16.653  -3.250   3.604  0.00  0.00     0.302 C 
ATOM     21  N25 ZIN A   1      17.593  -4.379   3.560  0.00  0.00     0.087 N 
ATOM     22  C24 ZIN A   1      18.126  -4.669   4.898  0.00  0.00     0.302 C 
ATOM     23  C26 ZIN A   1      16.959  -5.568   2.977  0.00  0.00     0.310 C 
ATOM     24  C23 ZIN A   1      18.846  -3.431   5.437  0.00  0.00     0.302 C 
ENDBRANCH  17  18
ENDBRANCH  16  17
ENDBRANCH  13  16
BRANCH   1  25
ATOM     25  S4  ZIN A   1      17.494  -5.062  10.022  0.00  0.00     0.260 S 
ATOM     26  O5  ZIN A   1      16.387  -4.654   9.230  0.00  0.00    -0.200 OA
ATOM     27  O6  ZIN A   1      17.375  -5.951  11.125  0.00  0.00    -0.200 OA
BRANCH  25  28
ATOM     28  N2  ZIN A   1      18.586  -5.749   8.984  0.00  0.00    -0.315 N 
ATOM     29  C1  ZIN A   1      20.002  -5.384   9.062  0.00  0.00     0.162 C 
ATOM     30  C3  ZIN A   1      18.134  -6.724   7.987  0.00  0.00     0.162 C 
ENDBRANCH  25  28
ENDBRANCH   1  25
TORSDOF 5
ENDMDL
