MODEL 1
REMARK VINA RESULT:      -6.9      0.000      0.000
REMARK  6 active torsions:
REMARK  status: ('A' for Active; 'I' for Inactive)
REMARK    1  A    between atoms: O2_2  and  C3_3 
REMARK    2  A    between atoms: C6_6  and  C7_7 
REMARK    3  A    between atoms: C7_7  and  C9_8 
REMARK    4  A    between atoms: C7_7  and  C13_12 
REMARK    5  A    between atoms: C9_8  and  N10_9 
REMARK    6  A    between atoms: C13_12  and  O14_13 
ROOT
ATOM      1  C7  ZIN A   1      18.594   1.178  10.969  0.00  0.00     0.081 C 
ENDROOT
BRANCH   1   2
ATOM      2  C6  ZIN A   1      18.457   0.952   9.486  0.00  0.00    -0.049 A 
ATOM      3  C5  ZIN A   1      17.451   0.138   9.001  0.00  0.00     0.010 A 
ATOM      4  C4  ZIN A   1      17.323  -0.069   7.641  0.00  0.00     0.037 A 
ATOM      5  C3  ZIN A   1      18.206   0.540   6.762  0.00  0.00     0.068 A 
ATOM      6  C21 ZIN A   1      19.218   1.353   7.251  0.00  0.00     0.037 A 
ATOM      7  C20 ZIN A   1      19.339   1.562   8.611  0.00  0.00     0.010 A 
BRANCH   5   8
ATOM      8  O2  ZIN A   1      18.083   0.339   5.424  0.00  0.00    -0.356 OA
ATOM      9  C1  ZIN A   1      19.201  -0.244   4.751  0.00  0.00     0.210 C 
ENDBRANCH   5   8
ENDBRANCH   1   2
BRANCH   1  10
ATOM     10  C9  ZIN A   1      19.955   0.662  11.441  0.00  0.00     0.283 C 
BRANCH  10  11
ATOM     11  N10 ZIN A   1      19.763  -0.314  12.522  0.00  0.00     0.080 N 
ATOM     12  C11 ZIN A   1      20.035   0.292  13.832  0.00  0.00     0.309 C 
ATOM     13  C12 ZIN A   1      18.413  -0.890  12.477  0.00  0.00     0.309 C 
ENDBRANCH  10  11
ENDBRANCH   1  10
BRANCH   1  14
ATOM     14  C13 ZIN A   1      18.484   2.673  11.271  0.00  0.00     0.067 C 
ATOM     15  C19 ZIN A   1      17.724   2.874  12.584  0.00  0.00     0.038 C 
ATOM     16  C18 ZIN A   1      17.613   4.370  12.886  0.00  0.00     0.003 C 
ATOM     17  C17 ZIN A   1      16.860   5.065  11.749  0.00  0.00     0.000 C 
ATOM     18  C16 ZIN A   1      17.620   4.864  10.437  0.00  0.00     0.003 C 
ATOM     19  C15 ZIN A   1      17.730   3.368  10.135  0.00  0.00     0.038 C 
BRANCH  14  20
ATOM     20  O14 ZIN A   1      19.793   3.233  11.388  0.00  0.00    -0.389 OA
ATOM     21  H35 ZIN A   1      20.455   2.618  11.732  0.00  0.00     0.210 HD
ENDBRANCH  14  20
ENDBRANCH   1  14
TORSDOF 6
ENDMDL
MODEL 2
REMARK VINA RESULT:      -6.9      3.339      5.413
REMARK  6 active torsions:
REMARK  status: ('A' for Active; 'I' for Inactive)
REMARK    1  A    between atoms: O2_2  and  C3_3 
REMARK    2  A    between atoms: C6_6  and  C7_7 
REMARK    3  A    between atoms: C7_7  and  C9_8 
REMARK    4  A    between atoms: C7_7  and  C13_12 
REMARK    5  A    between atoms: C9_8  and  N10_9 
REMARK    6  A    between atoms: C13_12  and  O14_13 
ROOT
ATOM      1  C7  ZIN A   1      19.387  -0.707  11.947  0.00  0.00     0.081 C 
ENDROOT
BRANCH   1   2
ATOM      2  C6  ZIN A   1      18.932  -2.124  11.714  0.00  0.00    -0.049 A 
ATOM      3  C5  ZIN A   1      17.589  -2.398  11.534  0.00  0.00     0.010 A 
ATOM      4  C4  ZIN A   1      17.170  -3.696  11.318  0.00  0.00     0.037 A 
ATOM      5  C3  ZIN A   1      18.098  -4.726  11.283  0.00  0.00     0.068 A 
ATOM      6  C21 ZIN A   1      19.445  -4.451  11.469  0.00  0.00     0.037 A 
ATOM      7  C20 ZIN A   1      19.860  -3.149  11.678  0.00  0.00     0.010 A 
BRANCH   5   8
ATOM      8  O2  ZIN A   1      17.689  -6.005  11.072  0.00  0.00    -0.356 OA
ATOM      9  C1  ZIN A   1      17.038  -6.280   9.829  0.00  0.00     0.210 C 
ENDBRANCH   5   8
ENDBRANCH   1   2
BRANCH   1  10
ATOM     10  C9  ZIN A   1      18.576   0.242  11.062  0.00  0.00     0.283 C 
BRANCH  10  11
ATOM     11  N10 ZIN A   1      19.487   1.154  10.357  0.00  0.00     0.080 N 
ATOM     12  C11 ZIN A   1      19.377   0.988   8.902  0.00  0.00     0.309 C 
ATOM     13  C12 ZIN A   1      19.243   2.548  10.749  0.00  0.00     0.309 C 
ENDBRANCH  10  11
ENDBRANCH   1  10
BRANCH   1  14
ATOM     14  C13 ZIN A   1      19.176  -0.339  13.417  0.00  0.00     0.067 C 
ATOM     15  C19 ZIN A   1      19.317  -1.592  14.282  0.00  0.00     0.038 C 
ATOM     16  C18 ZIN A   1      19.105  -1.224  15.752  0.00  0.00     0.003 C 
ATOM     17  C17 ZIN A   1      17.705  -0.634  15.934  0.00  0.00     0.000 C 
ATOM     18  C16 ZIN A   1      17.565   0.620  15.068  0.00  0.00     0.003 C 
ATOM     19  C15 ZIN A   1      17.776   0.252  13.598  0.00  0.00     0.038 C 
BRANCH  14  20
ATOM     20  O14 ZIN A   1      20.155   0.625  13.812  0.00  0.00    -0.389 OA
ATOM     21  H35 ZIN A   1      20.253   0.716  14.770  0.00  0.00     0.210 HD
ENDBRANCH  14  20
ENDBRANCH   1  14
TORSDOF 6
ENDMDL
MODEL 3
REMARK VINA RESULT:      -6.9      3.279      4.688
REMARK  6 active torsions:
REMARK  status: ('A' for Active; 'I' for Inactive)
REMARK    1  A    between atoms: O2_2  and  C3_3 
REMARK    2  A    between atoms: C6_6  and  C7_7 
REMARK    3  A    between atoms: C7_7  and  C9_8 
REMARK    4  A    between atoms: C7_7  and  C13_12 
REMARK    5  A    between atoms: C9_8  and  N10_9 
REMARK    6  A    between atoms: C13_12  and  O14_13 
ROOT
ATOM      1  C7  ZIN A   1      17.598  -1.004  12.765  0.00  0.00     0.081 C 
ENDROOT
BRANCH   1   2
ATOM      2  C6  ZIN A   1      18.206  -2.192  12.065  0.00  0.00    -0.049 A 
ATOM      3  C5  ZIN A   1      19.560  -2.442  12.178  0.00  0.00     0.010 A 
ATOM      4  C4  ZIN A   1      20.120  -3.531  11.538  0.00  0.00     0.037 A 
ATOM      5  C3  ZIN A   1      19.320  -4.373  10.779  0.00  0.00     0.068 A 
ATOM      6  C21 ZIN A   1      17.962  -4.118  10.662  0.00  0.00     0.037 A 
ATOM      7  C20 ZIN A   1      17.406  -3.031  11.309  0.00  0.00     0.010 A 
BRANCH   5   8
ATOM      8  O2  ZIN A   1      19.867  -5.445  10.148  0.00  0.00    -0.356 OA
ATOM      9  C1  ZIN A   1      19.908  -5.404   8.720  0.00  0.00     0.210 C 
ENDBRANCH   5   8
ENDBRANCH   1   2
BRANCH   1  10
ATOM     10  C9  ZIN A   1      18.562  -0.497  13.840  0.00  0.00     0.283 C 
BRANCH  10  11
ATOM     11  N10 ZIN A   1      18.058  -0.873  15.167  0.00  0.00     0.080 N 
ATOM     12  C11 ZIN A   1      19.123  -1.467  15.986  0.00  0.00     0.309 C 
ATOM     13  C12 ZIN A   1      17.452   0.279  15.846  0.00  0.00     0.309 C 
ENDBRANCH  10  11
ENDBRANCH   1  10
BRANCH   1  14
ATOM     14  C13 ZIN A   1      17.336   0.109  11.749  0.00  0.00     0.067 C 
ATOM     15  C19 ZIN A   1      18.103  -0.188  10.459  0.00  0.00     0.038 C 
ATOM     16  C18 ZIN A   1      17.842   0.926   9.443  0.00  0.00     0.003 C 
ATOM     17  C17 ZIN A   1      18.312   2.263  10.019  0.00  0.00     0.000 C 
ATOM     18  C16 ZIN A   1      17.545   2.559  11.309  0.00  0.00     0.003 C 
ATOM     19  C15 ZIN A   1      17.807   1.446  12.326  0.00  0.00     0.038 C 
BRANCH  14  20
ATOM     20  O14 ZIN A   1      15.937   0.177  11.466  0.00  0.00    -0.389 OA
ATOM     21  H35 ZIN A   1      15.468  -0.658  11.598  0.00  0.00     0.210 HD
ENDBRANCH  14  20
ENDBRANCH   1  14
TORSDOF 6
ENDMDL
MODEL 4
REMARK VINA RESULT:      -6.8      1.586      3.924
REMARK  6 active torsions:
REMARK  status: ('A' for Active; 'I' for Inactive)
REMARK    1  A    between atoms: O2_2  and  C3_3 
REMARK    2  A    between atoms: C6_6  and  C7_7 
REMARK    3  A    between atoms: C7_7  and  C9_8 
REMARK    4  A    between atoms: C7_7  and  C13_12 
REMARK    5  A    between atoms: C9_8  and  N10_9 
REMARK    6  A    between atoms: C13_12  and  O14_13 
ROOT
ATOM      1  C7  ZIN A   1      18.947   1.199  10.857  0.00  0.00     0.081 C 
ENDROOT
BRANCH   1   2
ATOM      2  C6  ZIN A   1      18.636   0.912   9.410  0.00  0.00    -0.049 A 
ATOM      3  C5  ZIN A   1      17.547   0.127   9.081  0.00  0.00     0.010 A 
ATOM      4  C4  ZIN A   1      17.260  -0.137   7.755  0.00  0.00     0.037 A 
ATOM      5  C3  ZIN A   1      18.066   0.386   6.755  0.00  0.00     0.068 A 
ATOM      6  C21 ZIN A   1      19.162   1.170   7.088  0.00  0.00     0.037 A 
ATOM      7  C20 ZIN A   1      19.441   1.435   8.415  0.00  0.00     0.010 A 
BRANCH   5   8
ATOM      8  O2  ZIN A   1      17.787   0.128   5.451  0.00  0.00    -0.356 OA
ATOM      9  C1  ZIN A   1      18.886  -0.236   4.612  0.00  0.00     0.210 C 
ENDBRANCH   5   8
ENDBRANCH   1   2
BRANCH   1  10
ATOM     10  C9  ZIN A   1      17.716   1.810  11.531  0.00  0.00     0.283 C 
BRANCH  10  11
ATOM     11  N10 ZIN A   1      17.961   3.233  11.802  0.00  0.00     0.080 N 
ATOM     12  C11 ZIN A   1      19.400   3.508  11.913  0.00  0.00     0.309 C 
ATOM     13  C12 ZIN A   1      17.341   4.079  10.774  0.00  0.00     0.309 C 
ENDBRANCH  10  11
ENDBRANCH   1  10
BRANCH   1  14
ATOM     14  C13 ZIN A   1      19.323  -0.102  11.566  0.00  0.00     0.067 C 
ATOM     15  C19 ZIN A   1      19.578  -1.195  10.526  0.00  0.00     0.038 C 
ATOM     16  C18 ZIN A   1      19.954  -2.497  11.236  0.00  0.00     0.003 C 
ATOM     17  C17 ZIN A   1      18.809  -2.926  12.156  0.00  0.00     0.000 C 
ATOM     18  C16 ZIN A   1      18.555  -1.833  13.196  0.00  0.00     0.003 C 
ATOM     19  C15 ZIN A   1      18.178  -0.531  12.487  0.00  0.00     0.038 C 
BRANCH  14  20
ATOM     20  O14 ZIN A   1      20.506   0.102  12.341  0.00  0.00    -0.389 OA
ATOM     21  H35 ZIN A   1      20.369   0.635  13.136  0.00  0.00     0.210 HD
ENDBRANCH  14  20
ENDBRANCH   1  14
TORSDOF 6
ENDMDL
MODEL 5
REMARK VINA RESULT:      -6.7      2.141      5.904
REMARK  6 active torsions:
REMARK  status: ('A' for Active; 'I' for Inactive)
REMARK    1  A    between atoms: O2_2  and  C3_3 
REMARK    2  A    between atoms: C6_6  and  C7_7 
REMARK    3  A    between atoms: C7_7  and  C9_8 
REMARK    4  A    between atoms: C7_7  and  C13_12 
REMARK    5  A    between atoms: C9_8  and  N10_9 
REMARK    6  A    between atoms: C13_12  and  O14_13 
ROOT
ATOM      1  C7  ZIN A   1      18.050   1.641  10.649  0.00  0.00     0.081 C 
ENDROOT
BRANCH   1   2
ATOM      2  C6  ZIN A   1      18.461   0.800  11.830  0.00  0.00    -0.049 A 
ATOM      3  C5  ZIN A   1      19.689   1.005  12.431  0.00  0.00     0.010 A 
ATOM      4  C4  ZIN A   1      20.068   0.236  13.514  0.00  0.00     0.037 A 
ATOM      5  C3  ZIN A   1      19.214  -0.744  13.999  0.00  0.00     0.068 A 
ATOM      6  C21 ZIN A   1      17.984  -0.953  13.391  0.00  0.00     0.037 A 
ATOM      7  C20 ZIN A   1      17.608  -0.177  12.312  0.00  0.00     0.010 A 
BRANCH   5   8
ATOM      8  O2  ZIN A   1      19.583  -1.503  15.064  0.00  0.00    -0.356 OA
ATOM      9  C1  ZIN A   1      18.852  -1.315  16.278  0.00  0.00     0.210 C 
ENDBRANCH   5   8
ENDBRANCH   1   2
BRANCH   1  10
ATOM     10  C9  ZIN A   1      18.744   3.003  10.727  0.00  0.00     0.283 C 
BRANCH  10  11
ATOM     11  N10 ZIN A   1      17.916   3.931  11.508  0.00  0.00     0.080 N 
ATOM     12  C11 ZIN A   1      18.734   4.687  12.466  0.00  0.00     0.309 C 
ATOM     13  C12 ZIN A   1      17.165   4.835  10.628  0.00  0.00     0.309 C 
ENDBRANCH  10  11
ENDBRANCH   1  10
BRANCH   1  14
ATOM     14  C13 ZIN A   1      18.456   0.936   9.354  0.00  0.00     0.067 C 
ATOM     15  C19 ZIN A   1      18.801   1.980   8.291  0.00  0.00     0.038 C 
ATOM     16  C18 ZIN A   1      19.206   1.275   6.995  0.00  0.00     0.003 C 
ATOM     17  C17 ZIN A   1      18.045   0.407   6.501  0.00  0.00     0.000 C 
ATOM     18  C16 ZIN A   1      17.702  -0.637   7.565  0.00  0.00     0.003 C 
ATOM     19  C15 ZIN A   1      17.296   0.068   8.861  0.00  0.00     0.038 C 
BRANCH  14  20
ATOM     20  O14 ZIN A   1      19.597   0.111   9.598  0.00  0.00    -0.389 OA
ATOM     21  H35 ZIN A   1      20.107  -0.100   8.804  0.00  0.00     0.210 HD
ENDBRANCH  14  20
ENDBRANCH   1  14
TORSDOF 6
ENDMDL
MODEL 6
REMARK VINA RESULT:      -6.6      2.966      6.174
REMARK  6 active torsions:
REMARK  status: ('A' for Active; 'I' for Inactive)
REMARK    1  A    between atoms: O2_2  and  C3_3 
REMARK    2  A    between atoms: C6_6  and  C7_7 
REMARK    3  A    between atoms: C7_7  and  C9_8 
REMARK    4  A    between atoms: C7_7  and  C13_12 
REMARK    5  A    between atoms: C9_8  and  N10_9 
REMARK    6  A    between atoms: C13_12  and  O14_13 
ROOT
ATOM      1  C7  ZIN A   1      18.298  -1.505   8.647  0.00  0.00     0.081 C 
ENDROOT
BRANCH   1   2
ATOM      2  C6  ZIN A   1      18.333  -0.059   9.069  0.00  0.00    -0.049 A 
ATOM      3  C5  ZIN A   1      19.207   0.819   8.457  0.00  0.00     0.010 A 
ATOM      4  C4  ZIN A   1      19.240   2.146   8.842  0.00  0.00     0.037 A 
ATOM      5  C3  ZIN A   1      18.394   2.596   9.845  0.00  0.00     0.068 A 
ATOM      6  C21 ZIN A   1      17.520   1.712  10.462  0.00  0.00     0.037 A 
ATOM      7  C20 ZIN A   1      17.487   0.388  10.069  0.00  0.00     0.010 A 
BRANCH   5   8
ATOM      8  O2  ZIN A   1      18.423   3.900  10.226  0.00  0.00    -0.356 OA
ATOM      9  C1  ZIN A   1      17.201   4.461  10.711  0.00  0.00     0.210 C 
ENDBRANCH   5   8
ENDBRANCH   1   2
BRANCH   1  10
ATOM     10  C9  ZIN A   1      19.187  -1.698   7.416  0.00  0.00     0.283 C 
BRANCH  10  11
ATOM     11  N10 ZIN A   1      18.345  -1.933   6.235  0.00  0.00     0.080 N 
ATOM     12  C11 ZIN A   1      18.514  -0.859   5.247  0.00  0.00     0.309 C 
ATOM     13  C12 ZIN A   1      18.626  -3.245   5.641  0.00  0.00     0.309 C 
ENDBRANCH  10  11
ENDBRANCH   1  10
BRANCH   1  14
ATOM     14  C13 ZIN A   1      18.812  -2.383   9.789  0.00  0.00     0.067 C 
ATOM     15  C19 ZIN A   1      19.072  -3.797   9.268  0.00  0.00     0.038 C 
ATOM     16  C18 ZIN A   1      19.586  -4.676  10.411  0.00  0.00     0.003 C 
ATOM     17  C17 ZIN A   1      18.538  -4.727  11.525  0.00  0.00     0.000 C 
ATOM     18  C16 ZIN A   1      18.280  -3.312  12.046  0.00  0.00     0.003 C 
ATOM     19  C15 ZIN A   1      17.765  -2.434  10.904  0.00  0.00     0.038 C 
BRANCH  14  20
ATOM     20  O14 ZIN A   1      20.028  -1.834  10.302  0.00  0.00    -0.389 OA
ATOM     21  H35 ZIN A   1      20.350  -2.271  11.102  0.00  0.00     0.210 HD
ENDBRANCH  14  20
ENDBRANCH   1  14
TORSDOF 6
ENDMDL
MODEL 7
REMARK VINA RESULT:      -6.6      3.494      5.229
REMARK  6 active torsions:
REMARK  status: ('A' for Active; 'I' for Inactive)
REMARK    1  A    between atoms: O2_2  and  C3_3 
REMARK    2  A    between atoms: C6_6  and  C7_7 
REMARK    3  A    between atoms: C7_7  and  C9_8 
REMARK    4  A    between atoms: C7_7  and  C13_12 
REMARK    5  A    between atoms: C9_8  and  N10_9 
REMARK    6  A    between atoms: C13_12  and  O14_13 
ROOT
ATOM      1  C7  ZIN A   1      18.797   0.344  12.712  0.00  0.00     0.081 C 
ENDROOT
BRANCH   1   2
ATOM      2  C6  ZIN A   1      18.723  -1.008  12.052  0.00  0.00    -0.049 A 
ATOM      3  C5  ZIN A   1      19.873  -1.606  11.571  0.00  0.00     0.010 A 
ATOM      4  C4  ZIN A   1      19.807  -2.847  10.967  0.00  0.00     0.037 A 
ATOM      5  C3  ZIN A   1      18.586  -3.493  10.843  0.00  0.00     0.068 A 
ATOM      6  C21 ZIN A   1      17.432  -2.889  11.321  0.00  0.00     0.037 A 
ATOM      7  C20 ZIN A   1      17.504  -1.650  11.930  0.00  0.00     0.010 A 
BRANCH   5   8
ATOM      8  O2  ZIN A   1      18.518  -4.713  10.249  0.00  0.00    -0.356 OA
ATOM      9  C1  ZIN A   1      19.712  -5.201   9.633  0.00  0.00     0.210 C 
ENDBRANCH   5   8
ENDBRANCH   1   2
BRANCH   1  10
ATOM     10  C9  ZIN A   1      17.595   1.188  12.282  0.00  0.00     0.283 C 
BRANCH  10  11
ATOM     11  N10 ZIN A   1      18.061   2.492  11.791  0.00  0.00     0.080 N 
ATOM     12  C11 ZIN A   1      17.789   3.552  12.771  0.00  0.00     0.309 C 
ATOM     13  C12 ZIN A   1      19.487   2.445  11.447  0.00  0.00     0.309 C 
ENDBRANCH  10  11
ENDBRANCH   1  10
BRANCH   1  14
ATOM     14  C13 ZIN A   1      18.782   0.173  14.231  0.00  0.00     0.067 C 
ATOM     15  C19 ZIN A   1      19.239  -1.242  14.589  0.00  0.00     0.038 C 
ATOM     16  C18 ZIN A   1      19.224  -1.414  16.110  0.00  0.00     0.003 C 
ATOM     17  C17 ZIN A   1      17.804  -1.188  16.635  0.00  0.00     0.000 C 
ATOM     18  C16 ZIN A   1      17.348   0.227  16.277  0.00  0.00     0.003 C 
ATOM     19  C15 ZIN A   1      17.362   0.399  14.756  0.00  0.00     0.038 C 
BRANCH  14  20
ATOM     20  O14 ZIN A   1      19.667   1.124  14.827  0.00  0.00    -0.389 OA
ATOM     21  H35 ZIN A   1      20.565   1.104  14.468  0.00  0.00     0.210 HD
ENDBRANCH  14  20
ENDBRANCH   1  14
TORSDOF 6
ENDMDL
MODEL 8
REMARK VINA RESULT:      -6.5      2.854      6.213
REMARK  6 active torsions:
REMARK  status: ('A' for Active; 'I' for Inactive)
REMARK    1  A    between atoms: O2_2  and  C3_3 
REMARK    2  A    between atoms: C6_6  and  C7_7 
REMARK    3  A    between atoms: C7_7  and  C9_8 
REMARK    4  A    between atoms: C7_7  and  C13_12 
REMARK    5  A    between atoms: C9_8  and  N10_9 
REMARK    6  A    between atoms: C13_12  and  O14_13 
ROOT
ATOM      1  C7  ZIN A   1      19.146  -1.045  12.075  0.00  0.00     0.081 C 
ENDROOT
BRANCH   1   2
ATOM      2  C6  ZIN A   1      18.768  -0.771  13.508  0.00  0.00    -0.049 A 
ATOM      3  C5  ZIN A   1      17.677   0.028  13.793  0.00  0.00     0.010 A 
ATOM      4  C4  ZIN A   1      17.327   0.279  15.105  0.00  0.00     0.037 A 
ATOM      5  C3  ZIN A   1      18.074  -0.269  16.138  0.00  0.00     0.068 A 
ATOM      6  C21 ZIN A   1      19.172  -1.067  15.849  0.00  0.00     0.037 A 
ATOM      7  C20 ZIN A   1      19.514  -1.320  14.535  0.00  0.00     0.010 A 
BRANCH   5   8
ATOM      8  O2  ZIN A   1      17.733  -0.023  17.430  0.00  0.00    -0.356 OA
ATOM      9  C1  ZIN A   1      18.796   0.008  18.385  0.00  0.00     0.210 C 
ENDBRANCH   5   8
ENDBRANCH   1   2
BRANCH   1  10
ATOM     10  C9  ZIN A   1      18.035  -1.851  11.399  0.00  0.00     0.283 C 
BRANCH  10  11
ATOM     11  N10 ZIN A   1      18.179  -3.271  11.744  0.00  0.00     0.080 N 
ATOM     12  C11 ZIN A   1      17.138  -4.079  11.096  0.00  0.00     0.309 C 
ATOM     13  C12 ZIN A   1      19.519  -3.764  11.400  0.00  0.00     0.309 C 
ENDBRANCH  10  11
ENDBRANCH   1  10
BRANCH   1  14
ATOM     14  C13 ZIN A   1      19.337   0.279  11.335  0.00  0.00     0.067 C 
ATOM     15  C19 ZIN A   1      19.716   1.373  12.336  0.00  0.00     0.038 C 
ATOM     16  C18 ZIN A   1      19.906   2.699  11.595  0.00  0.00     0.003 C 
ATOM     17  C17 ZIN A   1      18.603   3.082  10.891  0.00  0.00     0.000 C 
ATOM     18  C16 ZIN A   1      18.226   1.988   9.890  0.00  0.00     0.003 C 
ATOM     19  C15 ZIN A   1      18.034   0.663  10.630  0.00  0.00     0.038 C 
BRANCH  14  20
ATOM     20  O14 ZIN A   1      20.379   0.139  10.367  0.00  0.00    -0.389 OA
ATOM     21  H35 ZIN A   1      21.231   0.495  10.652  0.00  0.00     0.210 HD
ENDBRANCH  14  20
ENDBRANCH   1  14
TORSDOF 6
ENDMDL
MODEL 9
REMARK VINA RESULT:      -6.5      2.018      5.547
REMARK  6 active torsions:
REMARK  status: ('A' for Active; 'I' for Inactive)
REMARK    1  A    between atoms: O2_2  and  C3_3 
REMARK    2  A    between atoms: C6_6  and  C7_7 
REMARK    3  A    between atoms: C7_7  and  C9_8 
REMARK    4  A    between atoms: C7_7  and  C13_12 
REMARK    5  A    between atoms: C9_8  and  N10_9 
REMARK    6  A    between atoms: C13_12  and  O14_13 
ROOT
ATOM      1  C7  ZIN A   1      19.060  -0.924   8.989  0.00  0.00     0.081 C 
ENDROOT
BRANCH   1   2
ATOM      2  C6  ZIN A   1      18.619   0.361   9.641  0.00  0.00    -0.049 A 
ATOM      3  C5  ZIN A   1      17.599   0.347  10.574  0.00  0.00     0.010 A 
ATOM      4  C4  ZIN A   1      17.194   1.524  11.174  0.00  0.00     0.037 A 
ATOM      5  C3  ZIN A   1      17.811   2.720  10.839  0.00  0.00     0.068 A 
ATOM      6  C21 ZIN A   1      18.832   2.733   9.899  0.00  0.00     0.037 A 
ATOM      7  C20 ZIN A   1      19.237   1.552   9.306  0.00  0.00     0.010 A 
BRANCH   5   8
ATOM      8  O2  ZIN A   1      17.415   3.879  11.428  0.00  0.00    -0.356 OA
ATOM      9  C1  ZIN A   1      17.069   4.961  10.560  0.00  0.00     0.210 C 
ENDBRANCH   5   8
ENDBRANCH   1   2
BRANCH   1  10
ATOM     10  C9  ZIN A   1      18.444  -2.111   9.732  0.00  0.00     0.283 C 
BRANCH  10  11
ATOM     11  N10 ZIN A   1      19.503  -2.863  10.418  0.00  0.00     0.080 N 
ATOM     12  C11 ZIN A   1      19.426  -2.673  11.872  0.00  0.00     0.309 C 
ATOM     13  C12 ZIN A   1      19.447  -4.288  10.068  0.00  0.00     0.309 C 
ENDBRANCH  10  11
ENDBRANCH   1  10
BRANCH   1  14
ATOM     14  C13 ZIN A   1      18.598  -0.940   7.531  0.00  0.00     0.067 C 
ATOM     15  C19 ZIN A   1      19.230  -2.132   6.809  0.00  0.00     0.038 C 
ATOM     16  C18 ZIN A   1      18.769  -2.149   5.350  0.00  0.00     0.003 C 
ATOM     17  C17 ZIN A   1      19.199  -0.850   4.664  0.00  0.00     0.000 C 
ATOM     18  C16 ZIN A   1      18.566   0.341   5.386  0.00  0.00     0.003 C 
ATOM     19  C15 ZIN A   1      19.028   0.358   6.844  0.00  0.00     0.038 C 
BRANCH  14  20
ATOM     20  O14 ZIN A   1      17.174  -1.056   7.483  0.00  0.00    -0.389 OA
ATOM     21  H35 ZIN A   1      16.761  -1.178   8.348  0.00  0.00     0.210 HD
ENDBRANCH  14  20
ENDBRANCH   1  14
TORSDOF 6
ENDMDL
