MODEL 1
REMARK VINA RESULT:      -9.1      0.000      0.000
REMARK  7 active torsions:
REMARK  status: ('A' for Active; 'I' for Inactive)
REMARK    1  A    between atoms: S2_2  and  O5_5 
REMARK    2  A    between atoms: O5_5  and  C6_6 
REMARK    3  A    between atoms: C9_9  and  C10_10 
REMARK    4  A    between atoms: C10_10  and  C11_11 
REMARK    5  A    between atoms: C10_10  and  C22_22 
REMARK    6  A    between atoms: C14_14  and  O15_15 
REMARK    7  A    between atoms: O15_15  and  S16_16 
ROOT
ATOM      1  C10 ZIN A   1      19.214   2.138  10.918  0.00  0.00     0.103 C 
ENDROOT
BRANCH   1   2
ATOM      2  C9  ZIN A   1      19.024   1.125  12.018  0.00  0.00    -0.044 A 
ATOM      3  C8  ZIN A   1      20.127   0.560  12.632  0.00  0.00     0.011 A 
ATOM      4  C7  ZIN A   1      19.955  -0.368  13.641  0.00  0.00     0.039 A 
ATOM      5  C6  ZIN A   1      18.677  -0.733  14.038  0.00  0.00     0.092 A 
ATOM      6  C29 ZIN A   1      17.573  -0.168  13.415  0.00  0.00     0.039 A 
ATOM      7  C28 ZIN A   1      17.748   0.764  12.411  0.00  0.00     0.011 A 
BRANCH   5   8
ATOM      8  O5  ZIN A   1      18.505  -1.645  15.030  0.00  0.00    -0.214 OA
BRANCH   8   9
ATOM      9  S2  ZIN A   1      18.454  -1.041  16.425  0.00  0.00     0.257 S 
ATOM     10  O1  ZIN A   1      19.503  -1.685  17.201  0.00  0.00    -0.572 OA
ATOM     11  O3  ZIN A   1      17.130  -1.325  16.957  0.00  0.00    -0.572 OA
ATOM     12  O4  ZIN A   1      18.686   0.387  16.274  0.00  0.00    -0.572 OA
ENDBRANCH   8   9
ENDBRANCH   5   8
ENDBRANCH   1   2
BRANCH   1  13
ATOM     13  C11 ZIN A   1      18.848   1.517   9.594  0.00  0.00    -0.044 A 
ATOM     14  C21 ZIN A   1      19.551   1.860   8.454  0.00  0.00     0.011 A 
ATOM     15  C20 ZIN A   1      19.220   1.289   7.239  0.00  0.00     0.039 A 
ATOM     16  C14 ZIN A   1      18.176   0.378   7.164  0.00  0.00     0.092 A 
ATOM     17  C13 ZIN A   1      17.470   0.040   8.309  0.00  0.00     0.039 A 
ATOM     18  C12 ZIN A   1      17.808   0.610   9.521  0.00  0.00     0.011 A 
BRANCH  16  19
ATOM     19  O15 ZIN A   1      17.846  -0.180   5.971  0.00  0.00    -0.214 OA
BRANCH  19  20
ATOM     20  S16 ZIN A   1      18.766  -1.314   5.542  0.00  0.00     0.257 S 
ATOM     21  O17 ZIN A   1      17.936  -2.291   4.854  0.00  0.00    -0.572 OA
ATOM     22  O18 ZIN A   1      19.768  -0.732   4.663  0.00  0.00    -0.572 OA
ATOM     23  O19 ZIN A   1      19.355  -1.858   6.756  0.00  0.00    -0.572 OA
ENDBRANCH  19  20
ENDBRANCH  16  19
ENDBRANCH   1  13
BRANCH   1  24
ATOM     24  C22 ZIN A   1      18.328   3.331  11.174  0.00  0.00     0.047 A 
ATOM     25  N27 ZIN A   1      18.048   3.679  12.414  0.00  0.00    -0.265 NA
ATOM     26  C26 ZIN A   1      17.281   4.717  12.685  0.00  0.00     0.117 A 
ATOM     27  C25 ZIN A   1      16.732   5.476  11.669  0.00  0.00     0.019 A 
ATOM     28  C24 ZIN A   1      17.001   5.136  10.352  0.00  0.00     0.003 A 
ATOM     29  C23 ZIN A   1      17.816   4.042  10.106  0.00  0.00     0.028 A 
ENDBRANCH   1  24
TORSDOF 7
ENDMDL
MODEL 2
REMARK VINA RESULT:      -8.9      3.338      4.480
REMARK  7 active torsions:
REMARK  status: ('A' for Active; 'I' for Inactive)
REMARK    1  A    between atoms: S2_2  and  O5_5 
REMARK    2  A    between atoms: O5_5  and  C6_6 
REMARK    3  A    between atoms: C9_9  and  C10_10 
REMARK    4  A    between atoms: C10_10  and  C11_11 
REMARK    5  A    between atoms: C10_10  and  C22_22 
REMARK    6  A    between atoms: C14_14  and  O15_15 
REMARK    7  A    between atoms: O15_15  and  S16_16 
ROOT
ATOM      1  C10 ZIN A   1      19.544  -1.144  12.183  0.00  0.00     0.103 C 
ENDROOT
BRANCH   1   2
ATOM      2  C9  ZIN A   1      18.981  -0.850  13.549  0.00  0.00    -0.044 A 
ATOM      3  C8  ZIN A   1      19.511  -1.476  14.663  0.00  0.00     0.011 A 
ATOM      4  C7  ZIN A   1      18.997  -1.208  15.917  0.00  0.00     0.039 A 
ATOM      5  C6  ZIN A   1      17.949  -0.310  16.059  0.00  0.00     0.092 A 
ATOM      6  C29 ZIN A   1      17.415   0.311  14.939  0.00  0.00     0.039 A 
ATOM      7  C28 ZIN A   1      17.936   0.045  13.687  0.00  0.00     0.011 A 
BRANCH   5   8
ATOM      8  O5  ZIN A   1      17.441  -0.045  17.291  0.00  0.00    -0.214 OA
BRANCH   8   9
ATOM      9  S2  ZIN A   1      18.168   1.067  18.034  0.00  0.00     0.257 S 
ATOM     10  O1  ZIN A   1      17.250   1.564  19.047  0.00  0.00    -0.572 OA
ATOM     11  O3  ZIN A   1      18.495   2.085  17.048  0.00  0.00    -0.572 OA
ATOM     12  O4  ZIN A   1      19.359   0.472  18.621  0.00  0.00    -0.572 OA
ENDBRANCH   8   9
ENDBRANCH   5   8
ENDBRANCH   1   2
BRANCH   1  13
ATOM     13  C11 ZIN A   1      19.035  -2.481  11.707  0.00  0.00    -0.044 A 
ATOM     14  C21 ZIN A   1      19.919  -3.412  11.193  0.00  0.00     0.011 A 
ATOM     15  C20 ZIN A   1      19.456  -4.640  10.759  0.00  0.00     0.039 A 
ATOM     16  C14 ZIN A   1      18.102  -4.933  10.831  0.00  0.00     0.092 A 
ATOM     17  C13 ZIN A   1      17.217  -3.995  11.342  0.00  0.00     0.039 A 
ATOM     18  C12 ZIN A   1      17.687  -2.772  11.778  0.00  0.00     0.011 A 
BRANCH  16  19
ATOM     19  O15 ZIN A   1      17.644  -6.137  10.400  0.00  0.00    -0.214 OA
BRANCH  19  20
ATOM     20  S16 ZIN A   1      17.518  -6.248   8.888  0.00  0.00     0.257 S 
ATOM     21  O17 ZIN A   1      16.371  -7.103   8.624  0.00  0.00    -0.572 OA
ATOM     22  O18 ZIN A   1      17.320  -4.898   8.383  0.00  0.00    -0.572 OA
ATOM     23  O19 ZIN A   1      18.758  -6.835   8.405  0.00  0.00    -0.572 OA
ENDBRANCH  19  20
ENDBRANCH  16  19
ENDBRANCH   1  13
BRANCH   1  24
ATOM     24  C22 ZIN A   1      19.111  -0.070  11.218  0.00  0.00     0.047 A 
ATOM     25  N27 ZIN A   1      19.633   1.137  11.311  0.00  0.00    -0.265 NA
ATOM     26  C26 ZIN A   1      19.287   2.106  10.487  0.00  0.00     0.117 A 
ATOM     27  C25 ZIN A   1      18.349   1.891   9.495  0.00  0.00     0.019 A 
ATOM     28  C24 ZIN A   1      17.774   0.635   9.370  0.00  0.00     0.003 A 
ATOM     29  C23 ZIN A   1      18.167  -0.361  10.252  0.00  0.00     0.028 A 
ENDBRANCH   1  24
TORSDOF 7
ENDMDL
MODEL 3
REMARK VINA RESULT:      -8.7      3.130      7.969
REMARK  7 active torsions:
REMARK  status: ('A' for Active; 'I' for Inactive)
REMARK    1  A    between atoms: S2_2  and  O5_5 
REMARK    2  A    between atoms: O5_5  and  C6_6 
REMARK    3  A    between atoms: C9_9  and  C10_10 
REMARK    4  A    between atoms: C10_10  and  C11_11 
REMARK    5  A    between atoms: C10_10  and  C22_22 
REMARK    6  A    between atoms: C14_14  and  O15_15 
REMARK    7  A    between atoms: O15_15  and  S16_16 
ROOT
ATOM      1  C10 ZIN A   1      19.457   1.329  10.745  0.00  0.00     0.103 C 
ENDROOT
BRANCH   1   2
ATOM      2  C9  ZIN A   1      18.919   0.979   9.381  0.00  0.00    -0.044 A 
ATOM      3  C8  ZIN A   1      19.493   1.532   8.251  0.00  0.00     0.011 A 
ATOM      4  C7  ZIN A   1      19.003   1.213   7.000  0.00  0.00     0.039 A 
ATOM      5  C6  ZIN A   1      17.934   0.337   6.877  0.00  0.00     0.092 A 
ATOM      6  C29 ZIN A   1      17.356  -0.211   8.013  0.00  0.00     0.039 A 
ATOM      7  C28 ZIN A   1      17.853   0.106   9.263  0.00  0.00     0.011 A 
BRANCH   5   8
ATOM      8  O5  ZIN A   1      17.449   0.022   5.647  0.00  0.00    -0.214 OA
BRANCH   8   9
ATOM      9  S2  ZIN A   1      18.182  -1.127   4.969  0.00  0.00     0.257 S 
ATOM     10  O1  ZIN A   1      18.550  -2.066   6.017  0.00  0.00    -0.572 OA
ATOM     11  O3  ZIN A   1      19.348  -0.553   4.316  0.00  0.00    -0.572 OA
ATOM     12  O4  ZIN A   1      17.254  -1.712   4.014  0.00  0.00    -0.572 OA
ENDBRANCH   8   9
ENDBRANCH   5   8
ENDBRANCH   1   2
BRANCH   1  13
ATOM     13  C11 ZIN A   1      18.816   2.606  11.225  0.00  0.00    -0.044 A 
ATOM     14  C21 ZIN A   1      19.540   3.489  12.005  0.00  0.00     0.011 A 
ATOM     15  C20 ZIN A   1      18.956   4.663  12.444  0.00  0.00     0.039 A 
ATOM     16  C14 ZIN A   1      17.641   4.949  12.109  0.00  0.00     0.092 A 
ATOM     17  C13 ZIN A   1      16.915   4.058  11.332  0.00  0.00     0.039 A 
ATOM     18  C12 ZIN A   1      17.506   2.889  10.892  0.00  0.00     0.011 A 
BRANCH  16  19
ATOM     19  O15 ZIN A   1      17.063   6.099  12.544  0.00  0.00    -0.214 OA
BRANCH  19  20
ATOM     20  S16 ZIN A   1      16.511   6.019  13.959  0.00  0.00     0.257 S 
ATOM     21  O17 ZIN A   1      15.072   5.849  13.839  0.00  0.00    -0.572 OA
ATOM     22  O18 ZIN A   1      17.146   4.875  14.594  0.00  0.00    -0.572 OA
ATOM     23  O19 ZIN A   1      16.860   7.270  14.616  0.00  0.00    -0.572 OA
ENDBRANCH  19  20
ENDBRANCH  16  19
ENDBRANCH   1  13
BRANCH   1  24
ATOM     24  C22 ZIN A   1      19.141   0.215  11.711  0.00  0.00     0.047 A 
ATOM     25  N27 ZIN A   1      19.742  -0.951  11.578  0.00  0.00    -0.265 NA
ATOM     26  C26 ZIN A   1      19.500  -1.952  12.402  0.00  0.00     0.117 A 
ATOM     27  C25 ZIN A   1      18.593  -1.815  13.435  0.00  0.00     0.019 A 
ATOM     28  C24 ZIN A   1      17.938  -0.604  13.603  0.00  0.00     0.003 A 
ATOM     29  C23 ZIN A   1      18.222   0.427  12.720  0.00  0.00     0.028 A 
ENDBRANCH   1  24
TORSDOF 7
ENDMDL
MODEL 4
REMARK VINA RESULT:      -8.6      4.136      6.521
REMARK  7 active torsions:
REMARK  status: ('A' for Active; 'I' for Inactive)
REMARK    1  A    between atoms: S2_2  and  O5_5 
REMARK    2  A    between atoms: O5_5  and  C6_6 
REMARK    3  A    between atoms: C9_9  and  C10_10 
REMARK    4  A    between atoms: C10_10  and  C11_11 
REMARK    5  A    between atoms: C10_10  and  C22_22 
REMARK    6  A    between atoms: C14_14  and  O15_15 
REMARK    7  A    between atoms: O15_15  and  S16_16 
ROOT
ATOM      1  C10 ZIN A   1      19.541  -0.981  12.958  0.00  0.00     0.103 C 
ENDROOT
BRANCH   1   2
ATOM      2  C9  ZIN A   1      19.067  -2.230  12.262  0.00  0.00    -0.044 A 
ATOM      3  C8  ZIN A   1      17.719  -2.540  12.243  0.00  0.00     0.011 A 
ATOM      4  C7  ZIN A   1      17.282  -3.684  11.604  0.00  0.00     0.039 A 
ATOM      5  C6  ZIN A   1      18.195  -4.523  10.983  0.00  0.00     0.092 A 
ATOM      6  C29 ZIN A   1      19.548  -4.213  11.009  0.00  0.00     0.039 A 
ATOM      7  C28 ZIN A   1      19.980  -3.065  11.644  0.00  0.00     0.011 A 
BRANCH   5   8
ATOM      8  O5  ZIN A   1      17.768  -5.650  10.354  0.00  0.00    -0.214 OA
BRANCH   8   9
ATOM      9  S2  ZIN A   1      17.133  -5.397   8.995  0.00  0.00     0.257 S 
ATOM     10  O1  ZIN A   1      17.578  -4.082   8.562  0.00  0.00    -0.572 OA
ATOM     11  O3  ZIN A   1      15.692  -5.449   9.190  0.00  0.00    -0.572 OA
ATOM     12  O4  ZIN A   1      17.602  -6.452   8.109  0.00  0.00    -0.572 OA
ENDBRANCH   8   9
ENDBRANCH   5   8
ENDBRANCH   1   2
BRANCH   1  13
ATOM     13  C11 ZIN A   1      19.175   0.225  12.131  0.00  0.00    -0.044 A 
ATOM     14  C21 ZIN A   1      17.948   0.277  11.494  0.00  0.00     0.011 A 
ATOM     15  C20 ZIN A   1      17.608   1.383  10.738  0.00  0.00     0.039 A 
ATOM     16  C14 ZIN A   1      18.502   2.436  10.610  0.00  0.00     0.092 A 
ATOM     17  C13 ZIN A   1      19.734   2.378  11.246  0.00  0.00     0.039 A 
ATOM     18  C12 ZIN A   1      20.066   1.273  12.004  0.00  0.00     0.011 A 
BRANCH  16  19
ATOM     19  O15 ZIN A   1      18.172   3.522   9.864  0.00  0.00    -0.214 OA
BRANCH  19  20
ATOM     20  S16 ZIN A   1      17.632   4.691  10.675  0.00  0.00     0.257 S 
ATOM     21  O17 ZIN A   1      18.562   4.904  11.773  0.00  0.00    -0.572 OA
ATOM     22  O18 ZIN A   1      17.576   5.834   9.778  0.00  0.00    -0.572 OA
ATOM     23  O19 ZIN A   1      16.312   4.300  11.146  0.00  0.00    -0.572 OA
ENDBRANCH  19  20
ENDBRANCH  16  19
ENDBRANCH   1  13
BRANCH   1  24
ATOM     24  C22 ZIN A   1      18.884  -0.878  14.311  0.00  0.00     0.047 A 
ATOM     25  N27 ZIN A   1      17.940   0.021  14.509  0.00  0.00    -0.265 NA
ATOM     26  C26 ZIN A   1      17.336   0.144  15.675  0.00  0.00     0.117 A 
ATOM     27  C25 ZIN A   1      17.681  -0.665  16.740  0.00  0.00     0.019 A 
ATOM     28  C24 ZIN A   1      18.673  -1.619  16.570  0.00  0.00     0.003 A 
ATOM     29  C23 ZIN A   1      19.283  -1.722  15.329  0.00  0.00     0.028 A 
ENDBRANCH   1  24
TORSDOF 7
ENDMDL
MODEL 5
REMARK VINA RESULT:      -8.6      3.060      4.735
REMARK  7 active torsions:
REMARK  status: ('A' for Active; 'I' for Inactive)
REMARK    1  A    between atoms: S2_2  and  O5_5 
REMARK    2  A    between atoms: O5_5  and  C6_6 
REMARK    3  A    between atoms: C9_9  and  C10_10 
REMARK    4  A    between atoms: C10_10  and  C11_11 
REMARK    5  A    between atoms: C10_10  and  C22_22 
REMARK    6  A    between atoms: C14_14  and  O15_15 
REMARK    7  A    between atoms: O15_15  and  S16_16 
ROOT
ATOM      1  C10 ZIN A   1      17.584   1.244  11.431  0.00  0.00     0.103 C 
ENDROOT
BRANCH   1   2
ATOM      2  C9  ZIN A   1      18.249   2.510  11.907  0.00  0.00    -0.044 A 
ATOM      3  C8  ZIN A   1      17.480   3.610  12.238  0.00  0.00     0.011 A 
ATOM      4  C7  ZIN A   1      18.087   4.772  12.676  0.00  0.00     0.039 A 
ATOM      5  C6  ZIN A   1      19.468   4.834  12.782  0.00  0.00     0.092 A 
ATOM      6  C29 ZIN A   1      20.238   3.730  12.443  0.00  0.00     0.039 A 
ATOM      7  C28 ZIN A   1      19.627   2.569  12.011  0.00  0.00     0.011 A 
BRANCH   5   8
ATOM      8  O5  ZIN A   1      20.068   5.975  13.211  0.00  0.00    -0.214 OA
BRANCH   8   9
ATOM      9  S2  ZIN A   1      20.076   6.139  14.724  0.00  0.00     0.257 S 
ATOM     10  O1  ZIN A   1      19.640   4.870  15.286  0.00  0.00    -0.572 OA
ATOM     11  O3  ZIN A   1      19.152   7.219  15.034  0.00  0.00    -0.572 OA
ATOM     12  O4  ZIN A   1      21.443   6.463  15.105  0.00  0.00    -0.572 OA
ENDBRANCH   8   9
ENDBRANCH   5   8
ENDBRANCH   1   2
BRANCH   1  13
ATOM     13  C11 ZIN A   1      17.871   1.047   9.964  0.00  0.00    -0.044 A 
ATOM     14  C21 ZIN A   1      18.886   1.764   9.358  0.00  0.00     0.011 A 
ATOM     15  C20 ZIN A   1      19.154   1.583   8.014  0.00  0.00     0.039 A 
ATOM     16  C14 ZIN A   1      18.396   0.687   7.272  0.00  0.00     0.092 A 
ATOM     17  C13 ZIN A   1      17.376  -0.027   7.882  0.00  0.00     0.039 A 
ATOM     18  C12 ZIN A   1      17.116   0.155   9.227  0.00  0.00     0.011 A 
BRANCH  16  19
ATOM     19  O15 ZIN A   1      18.654   0.511   5.950  0.00  0.00    -0.214 OA
BRANCH  19  20
ATOM     20  S16 ZIN A   1      19.004  -0.921   5.573  0.00  0.00     0.257 S 
ATOM     21  O17 ZIN A   1      17.783  -1.535   5.077  0.00  0.00    -0.572 OA
ATOM     22  O18 ZIN A   1      20.033  -0.846   4.548  0.00  0.00    -0.572 OA
ATOM     23  O19 ZIN A   1      19.487  -1.567   6.784  0.00  0.00    -0.572 OA
ENDBRANCH  19  20
ENDBRANCH  16  19
ENDBRANCH   1  13
BRANCH   1  24
ATOM     24  C22 ZIN A   1      18.122   0.070  12.209  0.00  0.00     0.047 A 
ATOM     25  N27 ZIN A   1      18.899  -0.809  11.606  0.00  0.00    -0.265 NA
ATOM     26  C26 ZIN A   1      19.395  -1.849  12.248  0.00  0.00     0.117 A 
ATOM     27  C25 ZIN A   1      19.107  -2.061  13.582  0.00  0.00     0.019 A 
ATOM     28  C24 ZIN A   1      18.288  -1.161  14.248  0.00  0.00     0.003 A 
ATOM     29  C23 ZIN A   1      17.789  -0.076  13.542  0.00  0.00     0.028 A 
ENDBRANCH   1  24
TORSDOF 7
ENDMDL
MODEL 6
REMARK VINA RESULT:      -8.5      3.041      7.714
REMARK  7 active torsions:
REMARK  status: ('A' for Active; 'I' for Inactive)
REMARK    1  A    between atoms: S2_2  and  O5_5 
REMARK    2  A    between atoms: O5_5  and  C6_6 
REMARK    3  A    between atoms: C9_9  and  C10_10 
REMARK    4  A    between atoms: C10_10  and  C11_11 
REMARK    5  A    between atoms: C10_10  and  C22_22 
REMARK    6  A    between atoms: C14_14  and  O15_15 
REMARK    7  A    between atoms: O15_15  and  S16_16 
ROOT
ATOM      1  C10 ZIN A   1      17.496  -0.778  11.812  0.00  0.00     0.103 C 
ENDROOT
BRANCH   1   2
ATOM      2  C9  ZIN A   1      18.141  -2.059  11.350  0.00  0.00    -0.044 A 
ATOM      3  C8  ZIN A   1      17.368  -3.187  11.149  0.00  0.00     0.011 A 
ATOM      4  C7  ZIN A   1      17.957  -4.363  10.725  0.00  0.00     0.039 A 
ATOM      5  C6  ZIN A   1      19.326  -4.411  10.502  0.00  0.00     0.092 A 
ATOM      6  C29 ZIN A   1      20.100  -3.278  10.712  0.00  0.00     0.039 A 
ATOM      7  C28 ZIN A   1      19.506  -2.103  11.130  0.00  0.00     0.011 A 
BRANCH   5   8
ATOM      8  O5  ZIN A   1      19.908  -5.566  10.086  0.00  0.00    -0.214 OA
BRANCH   8   9
ATOM      9  S2  ZIN A   1      19.902  -5.753   8.576  0.00  0.00     0.257 S 
ATOM     10  O1  ZIN A   1      18.982  -6.844   8.292  0.00  0.00    -0.572 OA
ATOM     11  O3  ZIN A   1      21.267  -6.075   8.188  0.00  0.00    -0.572 OA
ATOM     12  O4  ZIN A   1      19.453  -4.495   7.998  0.00  0.00    -0.572 OA
ENDBRANCH   8   9
ENDBRANCH   5   8
ENDBRANCH   1   2
BRANCH   1  13
ATOM     13  C11 ZIN A   1      17.746  -0.591  13.286  0.00  0.00    -0.044 A 
ATOM     14  C21 ZIN A   1      18.669  -1.391  13.935  0.00  0.00     0.011 A 
ATOM     15  C20 ZIN A   1      18.904  -1.220  15.286  0.00  0.00     0.039 A 
ATOM     16  C14 ZIN A   1      18.206  -0.251  15.993  0.00  0.00     0.092 A 
ATOM     17  C13 ZIN A   1      17.278   0.546  15.340  0.00  0.00     0.039 A 
ATOM     18  C12 ZIN A   1      17.051   0.374  13.989  0.00  0.00     0.011 A 
BRANCH  16  19
ATOM     19  O15 ZIN A   1      18.432  -0.085  17.322  0.00  0.00    -0.214 OA
BRANCH  19  20
ATOM     20  S16 ZIN A   1      18.919   1.308  17.698  0.00  0.00     0.257 S 
ATOM     21  O17 ZIN A   1      20.020   1.129  18.631  0.00  0.00    -0.572 OA
ATOM     22  O18 ZIN A   1      19.347   1.950  16.465  0.00  0.00    -0.572 OA
ATOM     23  O19 ZIN A   1      17.792   1.995  18.309  0.00  0.00    -0.572 OA
ENDBRANCH  19  20
ENDBRANCH  16  19
ENDBRANCH   1  13
BRANCH   1  24
ATOM     24  C22 ZIN A   1      18.084   0.384  11.052  0.00  0.00     0.047 A 
ATOM     25  N27 ZIN A   1      18.921   1.202  11.661  0.00  0.00    -0.265 NA
ATOM     26  C26 ZIN A   1      19.463   2.229  11.035  0.00  0.00     0.117 A 
ATOM     27  C25 ZIN A   1      19.161   2.492   9.713  0.00  0.00     0.019 A 
ATOM     28  C24 ZIN A   1      18.279   1.657   9.042  0.00  0.00     0.003 A 
ATOM     29  C23 ZIN A   1      17.733   0.584   9.731  0.00  0.00     0.028 A 
ENDBRANCH   1  24
TORSDOF 7
ENDMDL
MODEL 7
REMARK VINA RESULT:      -7.9      3.998      8.316
REMARK  7 active torsions:
REMARK  status: ('A' for Active; 'I' for Inactive)
REMARK    1  A    between atoms: S2_2  and  O5_5 
REMARK    2  A    between atoms: O5_5  and  C6_6 
REMARK    3  A    between atoms: C9_9  and  C10_10 
REMARK    4  A    between atoms: C10_10  and  C11_11 
REMARK    5  A    between atoms: C10_10  and  C22_22 
REMARK    6  A    between atoms: C14_14  and  O15_15 
REMARK    7  A    between atoms: O15_15  and  S16_16 
ROOT
ATOM      1  C10 ZIN A   1      19.276   1.654  14.366  0.00  0.00     0.103 C 
ENDROOT
BRANCH   1   2
ATOM      2  C9  ZIN A   1      18.891   1.483  12.919  0.00  0.00    -0.044 A 
ATOM      3  C8  ZIN A   1      19.661   2.064  11.928  0.00  0.00     0.011 A 
ATOM      4  C7  ZIN A   1      19.311   1.908  10.600  0.00  0.00     0.039 A 
ATOM      5  C6  ZIN A   1      18.187   1.169  10.262  0.00  0.00     0.092 A 
ATOM      6  C29 ZIN A   1      17.413   0.593  11.259  0.00  0.00     0.039 A 
ATOM      7  C28 ZIN A   1      17.769   0.746  12.585  0.00  0.00     0.011 A 
BRANCH   5   8
ATOM      8  O5  ZIN A   1      17.840   1.015   8.957  0.00  0.00    -0.214 OA
BRANCH   8   9
ATOM      9  S2  ZIN A   1      18.526  -0.156   8.269  0.00  0.00     0.257 S 
ATOM     10  O1  ZIN A   1      19.658  -0.529   9.104  0.00  0.00    -0.572 OA
ATOM     11  O3  ZIN A   1      18.948   0.317   6.959  0.00  0.00    -0.572 OA
ATOM     12  O4  ZIN A   1      17.542  -1.223   8.174  0.00  0.00    -0.572 OA
ENDBRANCH   8   9
ENDBRANCH   5   8
ENDBRANCH   1   2
BRANCH   1  13
ATOM     13  C11 ZIN A   1      18.757   2.976  14.871  0.00  0.00    -0.044 A 
ATOM     14  C21 ZIN A   1      19.270   3.519  16.034  0.00  0.00     0.011 A 
ATOM     15  C20 ZIN A   1      18.799   4.733  16.498  0.00  0.00     0.039 A 
ATOM     16  C14 ZIN A   1      17.803   5.401  15.800  0.00  0.00     0.092 A 
ATOM     17  C13 ZIN A   1      17.287   4.851  14.636  0.00  0.00     0.039 A 
ATOM     18  C12 ZIN A   1      17.765   3.640  14.175  0.00  0.00     0.011 A 
BRANCH  16  19
ATOM     19  O15 ZIN A   1      17.335   6.592  16.256  0.00  0.00    -0.214 OA
BRANCH  19  20
ATOM     20  S16 ZIN A   1      17.885   7.800  15.512  0.00  0.00     0.257 S 
ATOM     21  O17 ZIN A   1      16.920   8.129  14.475  0.00  0.00    -0.572 OA
ATOM     22  O18 ZIN A   1      18.023   8.868  16.489  0.00  0.00    -0.572 OA
ATOM     23  O19 ZIN A   1      19.169   7.401  14.955  0.00  0.00    -0.572 OA
ENDBRANCH  19  20
ENDBRANCH  16  19
ENDBRANCH   1  13
BRANCH   1  24
ATOM     24  C22 ZIN A   1      18.677   0.536  15.181  0.00  0.00     0.047 A 
ATOM     25  N27 ZIN A   1      17.587   0.759  15.889  0.00  0.00    -0.265 NA
ATOM     26  C26 ZIN A   1      17.027  -0.190  16.614  0.00  0.00     0.117 A 
ATOM     27  C25 ZIN A   1      17.574  -1.458  16.665  0.00  0.00     0.019 A 
ATOM     28  C24 ZIN A   1      18.724  -1.727  15.938  0.00  0.00     0.003 A 
ATOM     29  C23 ZIN A   1      19.282  -0.706  15.183  0.00  0.00     0.028 A 
ENDBRANCH   1  24
TORSDOF 7
ENDMDL
MODEL 8
REMARK VINA RESULT:      -7.8      2.889      4.636
REMARK  7 active torsions:
REMARK  status: ('A' for Active; 'I' for Inactive)
REMARK    1  A    between atoms: S2_2  and  O5_5 
REMARK    2  A    between atoms: O5_5  and  C6_6 
REMARK    3  A    between atoms: C9_9  and  C10_10 
REMARK    4  A    between atoms: C10_10  and  C11_11 
REMARK    5  A    between atoms: C10_10  and  C22_22 
REMARK    6  A    between atoms: C14_14  and  O15_15 
REMARK    7  A    between atoms: O15_15  and  S16_16 
ROOT
ATOM      1  C10 ZIN A   1      17.394  -1.391  11.175  0.00  0.00     0.103 C 
ENDROOT
BRANCH   1   2
ATOM      2  C9  ZIN A   1      18.087  -0.633  12.278  0.00  0.00    -0.044 A 
ATOM      3  C8  ZIN A   1      19.084   0.274  11.969  0.00  0.00     0.011 A 
ATOM      4  C7  ZIN A   1      19.721   0.972  12.978  0.00  0.00     0.039 A 
ATOM      5  C6  ZIN A   1      19.359   0.762  14.300  0.00  0.00     0.092 A 
ATOM      6  C29 ZIN A   1      18.362  -0.153  14.607  0.00  0.00     0.039 A 
ATOM      7  C28 ZIN A   1      17.724  -0.844  13.595  0.00  0.00     0.011 A 
BRANCH   5   8
ATOM      8  O5  ZIN A   1      19.984   1.446  15.294  0.00  0.00    -0.214 OA
BRANCH   8   9
ATOM      9  S2  ZIN A   1      19.084   2.428  16.030  0.00  0.00     0.257 S 
ATOM     10  O1  ZIN A   1      18.278   1.647  16.956  0.00  0.00    -0.572 OA
ATOM     11  O3  ZIN A   1      18.270   3.087  15.020  0.00  0.00    -0.572 OA
ATOM     12  O4  ZIN A   1      19.958   3.363  16.721  0.00  0.00    -0.572 OA
ENDBRANCH   8   9
ENDBRANCH   5   8
ENDBRANCH   1   2
BRANCH   1  13
ATOM     13  C11 ZIN A   1      17.890  -0.900   9.839  0.00  0.00    -0.044 A 
ATOM     14  C21 ZIN A   1      17.342   0.238   9.276  0.00  0.00     0.011 A 
ATOM     15  C20 ZIN A   1      17.797   0.693   8.053  0.00  0.00     0.039 A 
ATOM     16  C14 ZIN A   1      18.798   0.001   7.386  0.00  0.00     0.092 A 
ATOM     17  C13 ZIN A   1      19.342  -1.144   7.951  0.00  0.00     0.039 A 
ATOM     18  C12 ZIN A   1      18.886  -1.591   9.176  0.00  0.00     0.011 A 
BRANCH  16  19
ATOM     19  O15 ZIN A   1      19.244   0.443   6.182  0.00  0.00    -0.214 OA
BRANCH  19  20
ATOM     20  S16 ZIN A   1      18.853  -0.448   5.011  0.00  0.00     0.257 S 
ATOM     21  O17 ZIN A   1      17.697  -1.220   5.440  0.00  0.00    -0.572 OA
ATOM     22  O18 ZIN A   1      18.538   0.435   3.899  0.00  0.00    -0.572 OA
ATOM     23  O19 ZIN A   1      20.001  -1.295   4.728  0.00  0.00    -0.572 OA
ENDBRANCH  19  20
ENDBRANCH  16  19
ENDBRANCH   1  13
BRANCH   1  24
ATOM     24  C22 ZIN A   1      17.693  -2.862  11.311  0.00  0.00     0.047 A 
ATOM     25  N27 ZIN A   1      16.700  -3.730  11.319  0.00  0.00    -0.265 NA
ATOM     26  C26 ZIN A   1      16.914  -5.026  11.431  0.00  0.00     0.117 A 
ATOM     27  C25 ZIN A   1      18.197  -5.523  11.557  0.00  0.00     0.019 A 
ATOM     28  C24 ZIN A   1      19.267  -4.640  11.559  0.00  0.00     0.003 A 
ATOM     29  C23 ZIN A   1      19.003  -3.284  11.433  0.00  0.00     0.028 A 
ENDBRANCH   1  24
TORSDOF 7
ENDMDL
MODEL 9
REMARK VINA RESULT:      -7.7      3.101      8.851
REMARK  7 active torsions:
REMARK  status: ('A' for Active; 'I' for Inactive)
REMARK    1  A    between atoms: S2_2  and  O5_5 
REMARK    2  A    between atoms: O5_5  and  C6_6 
REMARK    3  A    between atoms: C9_9  and  C10_10 
REMARK    4  A    between atoms: C10_10  and  C11_11 
REMARK    5  A    between atoms: C10_10  and  C22_22 
REMARK    6  A    between atoms: C14_14  and  O15_15 
REMARK    7  A    between atoms: O15_15  and  S16_16 
ROOT
ATOM      1  C10 ZIN A   1      19.459  -2.459  10.959  0.00  0.00     0.103 C 
ENDROOT
BRANCH   1   2
ATOM      2  C9  ZIN A   1      19.153  -1.673   9.711  0.00  0.00    -0.044 A 
ATOM      3  C8  ZIN A   1      18.122  -2.072   8.880  0.00  0.00     0.011 A 
ATOM      4  C7  ZIN A   1      17.839  -1.352   7.735  0.00  0.00     0.039 A 
ATOM      5  C6  ZIN A   1      18.589  -0.229   7.419  0.00  0.00     0.092 A 
ATOM      6  C29 ZIN A   1      19.627   0.165   8.252  0.00  0.00     0.039 A 
ATOM      7  C28 ZIN A   1      19.904  -0.554   9.399  0.00  0.00     0.011 A 
BRANCH   5   8
ATOM      8  O5  ZIN A   1      18.313   0.481   6.294  0.00  0.00    -0.214 OA
BRANCH   8   9
ATOM      9  S2  ZIN A   1      18.577  -0.280   5.002  0.00  0.00     0.257 S 
ATOM     10  O1  ZIN A   1      17.364  -1.024   4.699  0.00  0.00    -0.572 OA
ATOM     11  O3  ZIN A   1      19.707  -1.160   5.257  0.00  0.00    -0.572 OA
ATOM     12  O4  ZIN A   1      18.877   0.714   3.983  0.00  0.00    -0.572 OA
ENDBRANCH   8   9
ENDBRANCH   5   8
ENDBRANCH   1   2
BRANCH   1  13
ATOM     13  C11 ZIN A   1      19.032  -1.667  12.169  0.00  0.00    -0.044 A 
ATOM     14  C21 ZIN A   1      17.801  -1.037  12.180  0.00  0.00     0.011 A 
ATOM     15  C20 ZIN A   1      17.404  -0.313  13.289  0.00  0.00     0.039 A 
ATOM     16  C14 ZIN A   1      18.247  -0.212  14.387  0.00  0.00     0.092 A 
ATOM     17  C13 ZIN A   1      19.483  -0.842  14.371  0.00  0.00     0.039 A 
ATOM     18  C12 ZIN A   1      19.872  -1.567  13.261  0.00  0.00     0.011 A 
BRANCH  16  19
ATOM     19  O15 ZIN A   1      17.861   0.502  15.477  0.00  0.00    -0.214 OA
BRANCH  19  20
ATOM     20  S16 ZIN A   1      17.611  -0.345  16.716  0.00  0.00     0.257 S 
ATOM     21  O17 ZIN A   1      18.596   0.060  17.707  0.00  0.00    -0.572 OA
ATOM     22  O18 ZIN A   1      16.252  -0.062  17.150  0.00  0.00    -0.572 OA
ATOM     23  O19 ZIN A   1      17.779  -1.734  16.316  0.00  0.00    -0.572 OA
ENDBRANCH  19  20
ENDBRANCH  16  19
ENDBRANCH   1  13
BRANCH   1  24
ATOM     24  C22 ZIN A   1      18.711  -3.767  10.927  0.00  0.00     0.047 A 
ATOM     25  N27 ZIN A   1      18.989  -4.653   9.990  0.00  0.00    -0.265 NA
ATOM     26  C26 ZIN A   1      18.363  -5.811   9.925  0.00  0.00     0.117 A 
ATOM     27  C25 ZIN A   1      17.377  -6.135  10.837  0.00  0.00     0.019 A 
ATOM     28  C24 ZIN A   1      17.053  -5.226  11.833  0.00  0.00     0.003 A 
ATOM     29  C23 ZIN A   1      17.737  -4.020  11.873  0.00  0.00     0.028 A 
ENDBRANCH   1  24
TORSDOF 7
ENDMDL
