MODEL 1
REMARK VINA RESULT:      -6.0      0.000      0.000
REMARK  3 active torsions:
REMARK  status: ('A' for Active; 'I' for Inactive)
REMARK       I    between atoms: N1_1  and  C2_2 
REMARK    1  A    between atoms: C2_2  and  C4_4 
REMARK    2  A    between atoms: N14_12  and  O15_13 
REMARK    3  A    between atoms: O15_13  and  S16_14 
ROOT
ATOM      1  C4  ZIN A   1      17.791  -1.004   8.795  0.00  0.00     0.181 C 
ATOM      2  C6  ZIN A   1      17.783   0.275   7.901  0.00  0.00     0.037 C 
ATOM      3  C7  ZIN A   1      18.889   1.233   8.323  0.00  0.00     0.032 C 
ATOM      4  C8  ZIN A   1      19.057   1.508   9.816  0.00  0.00     0.139 C 
ATOM      5  C10 ZIN A   1      19.413   0.106  10.455  0.00  0.00     0.156 C 
ATOM      6  N11 ZIN A   1      18.060  -0.338  10.070  0.00  0.00    -0.317 N 
ATOM      7  C12 ZIN A   1      17.232   0.462  10.742  0.00  0.00     0.346 C 
ATOM      8  O13 ZIN A   1      16.278   0.161  11.430  0.00  0.00    -0.245 OA
ATOM      9  N14 ZIN A   1      17.732   1.741  10.458  0.00  0.00    -0.181 N 
ENDROOT
BRANCH   1  10
ATOM     10  C2  ZIN A   1      18.901  -1.949   8.413  0.00  0.00     0.238 C 
ATOM     11  N1  ZIN A   1      19.252  -2.949   9.246  0.00  0.00    -0.368 N 
ATOM     12  H20 ZIN A   1      19.966  -3.557   9.000  0.00  0.00     0.159 HD
ATOM     13  H21 ZIN A   1      18.792  -3.057  10.093  0.00  0.00     0.159 HD
ATOM     14  O3  ZIN A   1      19.478  -1.810   7.356  0.00  0.00    -0.271 OA
ENDBRANCH   1  10
BRANCH   9  15
ATOM     15  O15 ZIN A   1      17.101   2.978  10.734  0.00  0.00    -0.125 OA
BRANCH  15  16
ATOM     16  S16 ZIN A   1      17.677   3.714  11.935  0.00  0.00     0.274 S 
ATOM     17  O17 ZIN A   1      16.671   4.673  12.362  0.00  0.00    -0.571 OA
ATOM     18  O18 ZIN A   1      17.941   2.709  12.955  0.00  0.00    -0.571 OA
ATOM     19  O19 ZIN A   1      18.896   4.365  11.483  0.00  0.00    -0.571 OA
ENDBRANCH  15  16
ENDBRANCH   9  15
TORSDOF 3
ENDMDL
MODEL 2
REMARK VINA RESULT:      -5.9      3.601      4.952
REMARK  3 active torsions:
REMARK  status: ('A' for Active; 'I' for Inactive)
REMARK       I    between atoms: N1_1  and  C2_2 
REMARK    1  A    between atoms: C2_2  and  C4_4 
REMARK    2  A    between atoms: N14_12  and  O15_13 
REMARK    3  A    between atoms: O15_13  and  S16_14 
ROOT
ATOM      1  C4  ZIN A   1      18.098  -1.236  14.574  0.00  0.00     0.181 C 
ATOM      2  C6  ZIN A   1      19.533  -1.217  13.959  0.00  0.00     0.037 C 
ATOM      3  C7  ZIN A   1      20.079   0.203  13.913  0.00  0.00     0.032 C 
ATOM      4  C8  ZIN A   1      19.155   1.303  13.392  0.00  0.00     0.139 C 
ATOM      5  C10 ZIN A   1      17.936   1.326  14.398  0.00  0.00     0.156 C 
ATOM      6  N11 ZIN A   1      17.599  -0.027  13.917  0.00  0.00    -0.317 N 
ATOM      7  C12 ZIN A   1      17.340   0.126  12.618  0.00  0.00     0.346 C 
ATOM      8  O13 ZIN A   1      16.380  -0.267  11.985  0.00  0.00    -0.245 OA
ATOM      9  N14 ZIN A   1      18.448   0.851  12.160  0.00  0.00    -0.181 N 
ENDROOT
BRANCH   1  10
ATOM     10  C2  ZIN A   1      18.128  -1.085  16.073  0.00  0.00     0.238 C 
ATOM     11  N1  ZIN A   1      16.994  -0.805  16.745  0.00  0.00    -0.368 N 
ATOM     12  H20 ZIN A   1      17.013  -0.708  17.710  0.00  0.00     0.159 HD
ATOM     13  H21 ZIN A   1      16.159  -0.697  16.263  0.00  0.00     0.159 HD
ATOM     14  O3  ZIN A   1      19.173  -1.216  16.675  0.00  0.00    -0.271 OA
ENDBRANCH   1  10
BRANCH   9  15
ATOM     15  O15 ZIN A   1      18.802   1.096  10.811  0.00  0.00    -0.125 OA
BRANCH  15  16
ATOM     16  S16 ZIN A   1      18.604   2.540  10.371  0.00  0.00     0.274 S 
ATOM     17  O17 ZIN A   1      18.779   2.566   8.927  0.00  0.00    -0.571 OA
ATOM     18  O18 ZIN A   1      17.255   2.918  10.764  0.00  0.00    -0.571 OA
ATOM     19  O19 ZIN A   1      19.614   3.329  11.058  0.00  0.00    -0.571 OA
ENDBRANCH  15  16
ENDBRANCH   9  15
TORSDOF 3
ENDMDL
MODEL 3
REMARK VINA RESULT:      -5.9      2.268      2.816
REMARK  3 active torsions:
REMARK  status: ('A' for Active; 'I' for Inactive)
REMARK       I    between atoms: N1_1  and  C2_2 
REMARK    1  A    between atoms: C2_2  and  C4_4 
REMARK    2  A    between atoms: N14_12  and  O15_13 
REMARK    3  A    between atoms: O15_13  and  S16_14 
ROOT
ATOM      1  C4  ZIN A   1      18.638  -1.687  10.963  0.00  0.00     0.181 C 
ATOM      2  C6  ZIN A   1      19.574  -0.481  10.637  0.00  0.00     0.037 C 
ATOM      3  C7  ZIN A   1      20.043   0.197  11.917  0.00  0.00     0.032 C 
ATOM      4  C8  ZIN A   1      18.997   0.484  12.993  0.00  0.00     0.139 C 
ATOM      5  C10 ZIN A   1      18.445  -0.936  13.416  0.00  0.00     0.156 C 
ATOM      6  N11 ZIN A   1      17.894  -1.054  12.053  0.00  0.00    -0.317 N 
ATOM      7  C12 ZIN A   1      17.023  -0.051  11.947  0.00  0.00     0.346 C 
ATOM      8  O13 ZIN A   1      15.870  -0.085  11.564  0.00  0.00    -0.245 OA
ATOM      9  N14 ZIN A   1      17.763   1.056  12.383  0.00  0.00    -0.181 N 
ENDROOT
BRANCH   1  10
ATOM     10  C2  ZIN A   1      19.416  -2.887  11.439  0.00  0.00     0.238 C 
ATOM     11  N1  ZIN A   1      20.761  -2.893  11.360  0.00  0.00    -0.368 N 
ATOM     12  H20 ZIN A   1      21.262  -3.665  11.667  0.00  0.00     0.159 HD
ATOM     13  H21 ZIN A   1      21.229  -2.126  10.994  0.00  0.00     0.159 HD
ATOM     14  O3  ZIN A   1      18.831  -3.847  11.893  0.00  0.00    -0.271 OA
ENDBRANCH   1  10
BRANCH   9  15
ATOM     15  O15 ZIN A   1      17.399   2.419  12.267  0.00  0.00    -0.125 OA
BRANCH  15  16
ATOM     16  S16 ZIN A   1      17.824   3.065  10.955  0.00  0.00     0.274 S 
ATOM     17  O17 ZIN A   1      19.195   3.518  11.137  0.00  0.00    -0.571 OA
ATOM     18  O18 ZIN A   1      17.720   2.038   9.929  0.00  0.00    -0.571 OA
ATOM     19  O19 ZIN A   1      16.910   4.170  10.717  0.00  0.00    -0.571 OA
ENDBRANCH  15  16
ENDBRANCH   9  15
TORSDOF 3
ENDMDL
MODEL 4
REMARK VINA RESULT:      -5.8      2.134      3.180
REMARK  3 active torsions:
REMARK  status: ('A' for Active; 'I' for Inactive)
REMARK       I    between atoms: N1_1  and  C2_2 
REMARK    1  A    between atoms: C2_2  and  C4_4 
REMARK    2  A    between atoms: N14_12  and  O15_13 
REMARK    3  A    between atoms: O15_13  and  S16_14 
ROOT
ATOM      1  C4  ZIN A   1      19.442  -1.362  12.531  0.00  0.00     0.181 C 
ATOM      2  C6  ZIN A   1      17.995  -1.182  13.088  0.00  0.00     0.037 C 
ATOM      3  C7  ZIN A   1      17.020  -0.873  11.961  0.00  0.00     0.032 C 
ATOM      4  C8  ZIN A   1      17.434   0.177  10.931  0.00  0.00     0.139 C 
ATOM      5  C10 ZIN A   1      18.734  -0.408  10.248  0.00  0.00     0.156 C 
ATOM      6  N11 ZIN A   1      19.403  -0.270  11.556  0.00  0.00    -0.317 N 
ATOM      7  C12 ZIN A   1      19.371   1.035  11.821  0.00  0.00     0.346 C 
ATOM      8  O13 ZIN A   1      20.282   1.761  12.167  0.00  0.00    -0.245 OA
ATOM      9  N14 ZIN A   1      18.026   1.367  11.607  0.00  0.00    -0.181 N 
ENDROOT
BRANCH   1  10
ATOM     10  C2  ZIN A   1      19.624  -2.701  11.864  0.00  0.00     0.238 C 
ATOM     11  N1  ZIN A   1      20.785  -2.993  11.244  0.00  0.00    -0.368 N 
ATOM     12  H20 ZIN A   1      20.902  -3.855  10.815  0.00  0.00     0.159 HD
ATOM     13  H21 ZIN A   1      21.502  -2.340  11.226  0.00  0.00     0.159 HD
ATOM     14  O3  ZIN A   1      18.726  -3.515  11.884  0.00  0.00    -0.271 OA
ENDBRANCH   1  10
BRANCH   9  15
ATOM     15  O15 ZIN A   1      17.386   2.579  11.958  0.00  0.00    -0.125 OA
BRANCH  15  16
ATOM     16  S16 ZIN A   1      17.669   3.730  11.002  0.00  0.00     0.274 S 
ATOM     17  O17 ZIN A   1      18.706   4.542  11.620  0.00  0.00    -0.571 OA
ATOM     18  O18 ZIN A   1      18.115   3.135   9.751  0.00  0.00    -0.571 OA
ATOM     19  O19 ZIN A   1      16.422   4.461  10.846  0.00  0.00    -0.571 OA
ENDBRANCH  15  16
ENDBRANCH   9  15
TORSDOF 3
ENDMDL
MODEL 5
REMARK VINA RESULT:      -5.7      2.436      3.369
REMARK  3 active torsions:
REMARK  status: ('A' for Active; 'I' for Inactive)
REMARK       I    between atoms: N1_1  and  C2_2 
REMARK    1  A    between atoms: C2_2  and  C4_4 
REMARK    2  A    between atoms: N14_12  and  O15_13 
REMARK    3  A    between atoms: O15_13  and  S16_14 
ROOT
ATOM      1  C4  ZIN A   1      19.583  -2.197  12.404  0.00  0.00     0.181 C 
ATOM      2  C6  ZIN A   1      18.307  -1.696  13.150  0.00  0.00     0.037 C 
ATOM      3  C7  ZIN A   1      17.340  -1.035  12.178  0.00  0.00     0.032 C 
ATOM      4  C8  ZIN A   1      17.915  -0.037  11.173  0.00  0.00     0.139 C 
ATOM      5  C10 ZIN A   1      18.927  -0.876  10.295  0.00  0.00     0.156 C 
ATOM      6  N11 ZIN A   1      19.741  -1.046  11.514  0.00  0.00    -0.317 N 
ATOM      7  C12 ZIN A   1      20.095   0.191  11.864  0.00  0.00     0.346 C 
ATOM      8  O13 ZIN A   1      21.200   0.615  12.137  0.00  0.00    -0.245 OA
ATOM      9  N14 ZIN A   1      18.877   0.884  11.843  0.00  0.00    -0.181 N 
ENDROOT
BRANCH   1  10
ATOM     10  C2  ZIN A   1      19.321  -3.466  11.635  0.00  0.00     0.238 C 
ATOM     11  N1  ZIN A   1      20.248  -3.939  10.778  0.00  0.00    -0.368 N 
ATOM     12  H20 ZIN A   1      20.080  -4.756  10.284  0.00  0.00     0.159 HD
ATOM     13  H21 ZIN A   1      21.083  -3.459  10.654  0.00  0.00     0.159 HD
ATOM     14  O3  ZIN A   1      18.276  -4.062  11.787  0.00  0.00    -0.271 OA
ENDBRANCH   1  10
BRANCH   9  15
ATOM     15  O15 ZIN A   1      18.632   2.183  12.349  0.00  0.00    -0.125 OA
BRANCH  15  16
ATOM     16  S16 ZIN A   1      18.459   3.246  11.273  0.00  0.00     0.274 S 
ATOM     17  O17 ZIN A   1      19.253   2.819  10.131  0.00  0.00    -0.571 OA
ATOM     18  O18 ZIN A   1      17.039   3.299  10.961  0.00  0.00    -0.571 OA
ATOM     19  O19 ZIN A   1      18.942   4.496  11.837  0.00  0.00    -0.571 OA
ENDBRANCH  15  16
ENDBRANCH   9  15
TORSDOF 3
ENDMDL
MODEL 6
REMARK VINA RESULT:      -5.7      4.204      6.468
REMARK  3 active torsions:
REMARK  status: ('A' for Active; 'I' for Inactive)
REMARK       I    between atoms: N1_1  and  C2_2 
REMARK    1  A    between atoms: C2_2  and  C4_4 
REMARK    2  A    between atoms: N14_12  and  O15_13 
REMARK    3  A    between atoms: O15_13  and  S16_14 
ROOT
ATOM      1  C4  ZIN A   1      17.967   1.126  15.178  0.00  0.00     0.181 C 
ATOM      2  C6  ZIN A   1      17.693  -0.338  15.647  0.00  0.00     0.037 C 
ATOM      3  C7  ZIN A   1      18.811  -1.266  15.194  0.00  0.00     0.032 C 
ATOM      4  C8  ZIN A   1      19.292  -1.147  13.749  0.00  0.00     0.139 C 
ATOM      5  C10 ZIN A   1      19.855   0.325  13.624  0.00  0.00     0.156 C 
ATOM      6  N11 ZIN A   1      18.476   0.801  13.845  0.00  0.00    -0.317 N 
ATOM      7  C12 ZIN A   1      17.777   0.311  12.821  0.00  0.00     0.346 C 
ATOM      8  O13 ZIN A   1      17.017   0.894  12.074  0.00  0.00    -0.245 OA
ATOM      9  N14 ZIN A   1      18.131  -1.045  12.819  0.00  0.00    -0.181 N 
ENDROOT
BRANCH   1  10
ATOM     10  C2  ZIN A   1      19.014   1.799  16.027  0.00  0.00     0.238 C 
ATOM     11  N1  ZIN A   1      19.583   2.948  15.610  0.00  0.00    -0.368 N 
ATOM     12  H20 ZIN A   1      20.257   3.382  16.157  0.00  0.00     0.159 HD
ATOM     13  H21 ZIN A   1      19.321   3.338  14.762  0.00  0.00     0.159 HD
ATOM     14  O3  ZIN A   1      19.344   1.309  17.086  0.00  0.00    -0.271 OA
ENDBRANCH   1  10
BRANCH   9  15
ATOM     15  O15 ZIN A   1      17.512  -2.082  12.080  0.00  0.00    -0.125 OA
BRANCH  15  16
ATOM     16  S16 ZIN A   1      18.407  -2.708  11.020  0.00  0.00     0.274 S 
ATOM     17  O17 ZIN A   1      17.528  -3.348  10.054  0.00  0.00    -0.571 OA
ATOM     18  O18 ZIN A   1      19.175  -1.624  10.426  0.00  0.00    -0.571 OA
ATOM     19  O19 ZIN A   1      19.258  -3.669  11.705  0.00  0.00    -0.571 OA
ENDBRANCH  15  16
ENDBRANCH   9  15
TORSDOF 3
ENDMDL
MODEL 7
REMARK VINA RESULT:      -5.7      4.642      6.379
REMARK  3 active torsions:
REMARK  status: ('A' for Active; 'I' for Inactive)
REMARK       I    between atoms: N1_1  and  C2_2 
REMARK    1  A    between atoms: C2_2  and  C4_4 
REMARK    2  A    between atoms: N14_12  and  O15_13 
REMARK    3  A    between atoms: O15_13  and  S16_14 
ROOT
ATOM      1  C4  ZIN A   1      18.160   0.849  16.854  0.00  0.00     0.181 C 
ATOM      2  C6  ZIN A   1      17.315  -0.394  16.433  0.00  0.00     0.037 C 
ATOM      3  C7  ZIN A   1      18.074  -1.242  15.421  0.00  0.00     0.032 C 
ATOM      4  C8  ZIN A   1      18.756  -0.521  14.260  0.00  0.00     0.139 C 
ATOM      5  C10 ZIN A   1      19.825   0.428  14.937  0.00  0.00     0.156 C 
ATOM      6  N11 ZIN A   1      18.694   1.168  15.529  0.00  0.00    -0.317 N 
ATOM      7  C12 ZIN A   1      18.011   1.641  14.486  0.00  0.00     0.346 C 
ATOM      8  O13 ZIN A   1      17.622   2.774  14.285  0.00  0.00    -0.245 OA
ATOM      9  N14 ZIN A   1      17.849   0.508  13.677  0.00  0.00    -0.181 N 
ENDROOT
BRANCH   1  10
ATOM     10  C2  ZIN A   1      19.254   0.481  17.823  0.00  0.00     0.238 C 
ATOM     11  N1  ZIN A   1      19.417  -0.803  18.200  0.00  0.00    -0.368 N 
ATOM     12  H20 ZIN A   1      20.120  -1.040  18.823  0.00  0.00     0.159 HD
ATOM     13  H21 ZIN A   1      18.828  -1.489  17.849  0.00  0.00     0.159 HD
ATOM     14  O3  ZIN A   1      19.987   1.340  18.265  0.00  0.00    -0.271 OA
ENDBRANCH   1  10
BRANCH   9  15
ATOM     15  O15 ZIN A   1      17.004   0.387  12.548  0.00  0.00    -0.125 OA
BRANCH  15  16
ATOM     16  S16 ZIN A   1      17.612   0.917  11.257  0.00  0.00     0.274 S 
ATOM     17  O17 ZIN A   1      19.055   0.792  11.392  0.00  0.00    -0.571 OA
ATOM     18  O18 ZIN A   1      17.091   0.092  10.178  0.00  0.00    -0.571 OA
ATOM     19  O19 ZIN A   1      17.193   2.304  11.136  0.00  0.00    -0.571 OA
ENDBRANCH  15  16
ENDBRANCH   9  15
TORSDOF 3
ENDMDL
MODEL 8
REMARK VINA RESULT:      -5.6      2.932      5.089
REMARK  3 active torsions:
REMARK  status: ('A' for Active; 'I' for Inactive)
REMARK       I    between atoms: N1_1  and  C2_2 
REMARK    1  A    between atoms: C2_2  and  C4_4 
REMARK    2  A    between atoms: N14_12  and  O15_13 
REMARK    3  A    between atoms: O15_13  and  S16_14 
ROOT
ATOM      1  C4  ZIN A   1      18.781   1.721  12.104  0.00  0.00     0.181 C 
ATOM      2  C6  ZIN A   1      19.844   0.607  12.361  0.00  0.00     0.037 C 
ATOM      3  C7  ZIN A   1      20.355   0.038  11.045  0.00  0.00     0.032 C 
ATOM      4  C8  ZIN A   1      19.323  -0.310   9.973  0.00  0.00     0.139 C 
ATOM      5  C10 ZIN A   1      18.617   1.060   9.622  0.00  0.00     0.156 C 
ATOM      6  N11 ZIN A   1      18.084   1.062  10.998  0.00  0.00    -0.317 N 
ATOM      7  C12 ZIN A   1      17.324  -0.030  11.073  0.00  0.00     0.346 C 
ATOM      8  O13 ZIN A   1      16.183  -0.134  11.475  0.00  0.00    -0.245 OA
ATOM      9  N14 ZIN A   1      18.167  -1.034  10.576  0.00  0.00    -0.181 N 
ENDROOT
BRANCH   1  10
ATOM     10  C2  ZIN A   1      19.420   3.016  11.669  0.00  0.00     0.238 C 
ATOM     11  N1  ZIN A   1      20.751   3.187  11.798  0.00  0.00    -0.368 N 
ATOM     12  H20 ZIN A   1      21.161   4.020  11.518  0.00  0.00     0.159 HD
ATOM     13  H21 ZIN A   1      21.296   2.478  12.173  0.00  0.00     0.159 HD
ATOM     14  O3  ZIN A   1      18.736   3.903  11.205  0.00  0.00    -0.271 OA
ENDBRANCH   1  10
BRANCH   9  15
ATOM     15  O15 ZIN A   1      17.949  -2.431  10.637  0.00  0.00    -0.125 OA
BRANCH  15  16
ATOM     16  S16 ZIN A   1      18.585  -3.107  11.844  0.00  0.00     0.274 S 
ATOM     17  O17 ZIN A   1      18.397  -2.210  12.974  0.00  0.00    -0.571 OA
ATOM     18  O18 ZIN A   1      17.892  -4.373  12.030  0.00  0.00    -0.571 OA
ATOM     19  O19 ZIN A   1      19.991  -3.296  11.525  0.00  0.00    -0.571 OA
ENDBRANCH  15  16
ENDBRANCH   9  15
TORSDOF 3
ENDMDL
MODEL 9
REMARK VINA RESULT:      -5.6      3.101      5.383
REMARK  3 active torsions:
REMARK  status: ('A' for Active; 'I' for Inactive)
REMARK       I    between atoms: N1_1  and  C2_2 
REMARK    1  A    between atoms: C2_2  and  C4_4 
REMARK    2  A    between atoms: N14_12  and  O15_13 
REMARK    3  A    between atoms: O15_13  and  S16_14 
ROOT
ATOM      1  C4  ZIN A   1      19.278   2.857  10.791  0.00  0.00     0.181 C 
ATOM      2  C6  ZIN A   1      18.875   2.082   9.497  0.00  0.00     0.037 C 
ATOM      3  C7  ZIN A   1      17.751   1.097   9.789  0.00  0.00     0.032 C 
ATOM      4  C8  ZIN A   1      17.879   0.222  11.034  0.00  0.00     0.139 C 
ATOM      5  C10 ZIN A   1      17.910   1.235  12.247  0.00  0.00     0.156 C 
ATOM      6  N11 ZIN A   1      19.196   1.727  11.717  0.00  0.00    -0.317 N 
ATOM      7  C12 ZIN A   1      20.011   0.673  11.764  0.00  0.00     0.346 C 
ATOM      8  O13 ZIN A   1      21.131   0.601  12.227  0.00  0.00    -0.245 OA
ATOM      9  N14 ZIN A   1      19.258  -0.334  11.143  0.00  0.00    -0.181 N 
ENDROOT
BRANCH   1  10
ATOM     10  C2  ZIN A   1      18.280   3.933  11.133  0.00  0.00     0.238 C 
ATOM     11  N1  ZIN A   1      18.419   4.644  12.270  0.00  0.00    -0.368 N 
ATOM     12  H20 ZIN A   1      17.777   5.337  12.490  0.00  0.00     0.159 HD
ATOM     13  H21 ZIN A   1      19.159   4.460  12.869  0.00  0.00     0.159 HD
ATOM     14  O3  ZIN A   1      17.353   4.160  10.385  0.00  0.00    -0.271 OA
ENDBRANCH   1  10
BRANCH   9  15
ATOM     15  O15 ZIN A   1      19.723  -1.603  10.723  0.00  0.00    -0.125 OA
BRANCH  15  16
ATOM     16  S16 ZIN A   1      19.305  -2.750  11.632  0.00  0.00     0.274 S 
ATOM     17  O17 ZIN A   1      20.316  -3.786  11.493  0.00  0.00    -0.571 OA
ATOM     18  O18 ZIN A   1      19.254  -2.215  12.985  0.00  0.00    -0.571 OA
ATOM     19  O19 ZIN A   1      17.999  -3.194  11.172  0.00  0.00    -0.571 OA
ENDBRANCH  15  16
ENDBRANCH   9  15
TORSDOF 3
ENDMDL
