MODEL 1
REMARK VINA RESULT:      -7.5      0.000      0.000
REMARK  3 active torsions:
REMARK  status: ('A' for Active; 'I' for Inactive)
REMARK    1  A    between atoms: N5_5  and  C6_6 
REMARK    2  A    between atoms: C6_6  and  C7_7 
REMARK    3  A    between atoms: C6_6  and  C13_13 
ROOT
ATOM      1  C6  ZIN A   1      19.381  -0.856  12.914  0.00  0.00     0.289 C 
ENDROOT
BRANCH   1   2
ATOM      2  N5  ZIN A   1      18.790   0.252  12.151  0.00  0.00     0.105 N 
ATOM      3  C4  ZIN A   1      19.035   0.090  10.711  0.00  0.00     0.304 C 
ATOM      4  C3  ZIN A   1      18.338   1.218   9.947  0.00  0.00     0.302 C 
ATOM      5  N2  ZIN A   1      18.845   2.513  10.421  0.00  0.00     0.087 N 
ATOM      6  C1  ZIN A   1      18.254   3.620   9.658  0.00  0.00     0.310 C 
ATOM      7  C20 ZIN A   1      18.600   2.675  11.861  0.00  0.00     0.302 C 
ATOM      8  C19 ZIN A   1      19.297   1.547  12.624  0.00  0.00     0.304 C 
ENDBRANCH   1   2
BRANCH   1   9
ATOM      9  C7  ZIN A   1      18.853  -0.831  14.325  0.00  0.00    -0.021 A 
ATOM     10  C12 ZIN A   1      19.500  -1.545  15.317  0.00  0.00     0.010 A 
ATOM     11  C11 ZIN A   1      19.017  -1.518  16.613  0.00  0.00     0.001 A 
ATOM     12  C10 ZIN A   1      17.886  -0.786  16.914  0.00  0.00     0.000 A 
ATOM     13  C9  ZIN A   1      17.235  -0.076  15.921  0.00  0.00     0.001 A 
ATOM     14  C8  ZIN A   1      17.720  -0.100  14.627  0.00  0.00     0.010 A 
ENDBRANCH   1   9
BRANCH   1  15
ATOM     15  C13 ZIN A   1      19.015  -2.165  12.263  0.00  0.00    -0.021 A 
ATOM     16  C18 ZIN A   1      17.690  -2.468  12.015  0.00  0.00     0.010 A 
ATOM     17  C17 ZIN A   1      17.356  -3.667  11.414  0.00  0.00     0.001 A 
ATOM     18  C16 ZIN A   1      18.348  -4.568  11.069  0.00  0.00     0.000 A 
ATOM     19  C15 ZIN A   1      19.673  -4.267  11.323  0.00  0.00     0.001 A 
ATOM     20  C14 ZIN A   1      20.007  -3.066  11.920  0.00  0.00     0.010 A 
ENDBRANCH   1  15
TORSDOF 3
ENDMDL
MODEL 2
REMARK VINA RESULT:      -7.5      0.014      1.071
REMARK  3 active torsions:
REMARK  status: ('A' for Active; 'I' for Inactive)
REMARK    1  A    between atoms: N5_5  and  C6_6 
REMARK    2  A    between atoms: C6_6  and  C7_7 
REMARK    3  A    between atoms: C6_6  and  C13_13 
ROOT
ATOM      1  C6  ZIN A   1      19.379  -0.867  12.905  0.00  0.00     0.289 C 
ENDROOT
BRANCH   1   2
ATOM      2  N5  ZIN A   1      18.790   0.240  12.140  0.00  0.00     0.105 N 
ATOM      3  C4  ZIN A   1      19.043   0.080  10.701  0.00  0.00     0.304 C 
ATOM      4  C3  ZIN A   1      18.349   1.207   9.935  0.00  0.00     0.302 C 
ATOM      5  N2  ZIN A   1      18.849   2.503  10.413  0.00  0.00     0.087 N 
ATOM      6  C1  ZIN A   1      18.261   3.611   9.648  0.00  0.00     0.310 C 
ATOM      7  C20 ZIN A   1      18.596   2.663  11.852  0.00  0.00     0.302 C 
ATOM      8  C19 ZIN A   1      19.291   1.536  12.619  0.00  0.00     0.304 C 
ENDBRANCH   1   2
BRANCH   1   9
ATOM      9  C7  ZIN A   1      18.852  -0.838  14.317  0.00  0.00    -0.021 A 
ATOM     10  C12 ZIN A   1      17.721  -0.102  14.617  0.00  0.00     0.010 A 
ATOM     11  C11 ZIN A   1      17.235  -0.079  15.912  0.00  0.00     0.001 A 
ATOM     12  C10 ZIN A   1      17.885  -0.785  16.906  0.00  0.00     0.000 A 
ATOM     13  C9  ZIN A   1      19.019  -1.517  16.607  0.00  0.00     0.001 A 
ATOM     14  C8  ZIN A   1      19.502  -1.543  15.312  0.00  0.00     0.010 A 
ENDBRANCH   1   9
BRANCH   1  15
ATOM     15  C13 ZIN A   1      19.010  -2.177  12.258  0.00  0.00    -0.021 A 
ATOM     16  C18 ZIN A   1      17.684  -2.477  12.009  0.00  0.00     0.010 A 
ATOM     17  C17 ZIN A   1      17.348  -3.677  11.411  0.00  0.00     0.001 A 
ATOM     18  C16 ZIN A   1      18.337  -4.581  11.069  0.00  0.00     0.000 A 
ATOM     19  C15 ZIN A   1      19.663  -4.283  11.323  0.00  0.00     0.001 A 
ATOM     20  C14 ZIN A   1      20.000  -3.082  11.917  0.00  0.00     0.010 A 
ENDBRANCH   1  15
TORSDOF 3
ENDMDL
MODEL 3
REMARK VINA RESULT:      -7.4      2.458      5.252
REMARK  3 active torsions:
REMARK  status: ('A' for Active; 'I' for Inactive)
REMARK    1  A    between atoms: N5_5  and  C6_6 
REMARK    2  A    between atoms: C6_6  and  C7_7 
REMARK    3  A    between atoms: C6_6  and  C13_13 
ROOT
ATOM      1  C6  ZIN A   1      17.643   0.485  10.339  0.00  0.00     0.289 C 
ENDROOT
BRANCH   1   2
ATOM      2  N5  ZIN A   1      18.281   1.625  11.013  0.00  0.00     0.105 N 
ATOM      3  C4  ZIN A   1      18.256   1.455  12.473  0.00  0.00     0.304 C 
ATOM      4  C3  ZIN A   1      18.997   2.620  13.132  0.00  0.00     0.302 C 
ATOM      5  N2  ZIN A   1      18.361   3.886  12.741  0.00  0.00     0.087 N 
ATOM      6  C1  ZIN A   1      18.998   5.025  13.415  0.00  0.00     0.310 C 
ATOM      7  C20 ZIN A   1      18.386   4.055  11.282  0.00  0.00     0.302 C 
ATOM      8  C19 ZIN A   1      17.645   2.890  10.623  0.00  0.00     0.304 C 
ENDBRANCH   1   2
BRANCH   1   9
ATOM      9  C7  ZIN A   1      17.906   0.567   8.857  0.00  0.00    -0.021 A 
ATOM     10  C12 ZIN A   1      17.160  -0.198   7.981  0.00  0.00     0.010 A 
ATOM     11  C11 ZIN A   1      17.399  -0.120   6.621  0.00  0.00     0.001 A 
ATOM     12  C10 ZIN A   1      18.389   0.715   6.140  0.00  0.00     0.000 A 
ATOM     13  C9  ZIN A   1      19.139   1.476   7.018  0.00  0.00     0.001 A 
ATOM     14  C8  ZIN A   1      18.898   1.401   8.376  0.00  0.00     0.010 A 
ENDBRANCH   1   9
BRANCH   1  15
ATOM     15  C13 ZIN A   1      18.212  -0.801  10.881  0.00  0.00    -0.021 A 
ATOM     16  C18 ZIN A   1      19.560  -1.071  10.748  0.00  0.00     0.010 A 
ATOM     17  C17 ZIN A   1      20.082  -2.249  11.249  0.00  0.00     0.001 A 
ATOM     18  C16 ZIN A   1      19.253  -3.161  11.876  0.00  0.00     0.000 A 
ATOM     19  C15 ZIN A   1      17.902  -2.894  12.004  0.00  0.00     0.001 A 
ATOM     20  C14 ZIN A   1      17.382  -1.714  11.506  0.00  0.00     0.010 A 
ENDBRANCH   1  15
TORSDOF 3
ENDMDL
MODEL 4
REMARK VINA RESULT:      -7.4      2.465      4.532
REMARK  3 active torsions:
REMARK  status: ('A' for Active; 'I' for Inactive)
REMARK    1  A    between atoms: N5_5  and  C6_6 
REMARK    2  A    between atoms: C6_6  and  C7_7 
REMARK    3  A    between atoms: C6_6  and  C13_13 
ROOT
ATOM      1  C6  ZIN A   1      19.051   0.902  10.150  0.00  0.00     0.289 C 
ENDROOT
BRANCH   1   2
ATOM      2  N5  ZIN A   1      18.225   1.923  10.809  0.00  0.00     0.105 N 
ATOM      3  C4  ZIN A   1      18.162   3.150  10.003  0.00  0.00     0.304 C 
ATOM      4  C3  ZIN A   1      17.231   4.156  10.683  0.00  0.00     0.302 C 
ATOM      5  N2  ZIN A   1      17.727   4.443  12.036  0.00  0.00     0.087 N 
ATOM      6  C1  ZIN A   1      16.901   5.463  12.695  0.00  0.00     0.310 C 
ATOM      7  C20 ZIN A   1      17.790   3.215  12.842  0.00  0.00     0.302 C 
ATOM      8  C19 ZIN A   1      18.721   2.209  12.162  0.00  0.00     0.304 C 
ENDBRANCH   1   2
BRANCH   1   9
ATOM      9  C7  ZIN A   1      18.879  -0.417  10.858  0.00  0.00    -0.021 A 
ATOM     10  C12 ZIN A   1      17.648  -0.763  11.384  0.00  0.00     0.010 A 
ATOM     11  C11 ZIN A   1      17.490  -1.976  12.030  0.00  0.00     0.001 A 
ATOM     12  C10 ZIN A   1      18.563  -2.837  12.156  0.00  0.00     0.000 A 
ATOM     13  C9  ZIN A   1      19.795  -2.488  11.634  0.00  0.00     0.001 A 
ATOM     14  C8  ZIN A   1      19.952  -1.278  10.986  0.00  0.00     0.010 A 
ENDBRANCH   1   9
BRANCH   1  15
ATOM     15  C13 ZIN A   1      18.623   0.761   8.711  0.00  0.00    -0.021 A 
ATOM     16  C18 ZIN A   1      17.495   0.028   8.395  0.00  0.00     0.010 A 
ATOM     17  C17 ZIN A   1      17.101  -0.097   7.076  0.00  0.00     0.001 A 
ATOM     18  C16 ZIN A   1      17.840   0.503   6.073  0.00  0.00     0.000 A 
ATOM     19  C15 ZIN A   1      18.971   1.231   6.389  0.00  0.00     0.001 A 
ATOM     20  C14 ZIN A   1      19.363   1.360   7.709  0.00  0.00     0.010 A 
ENDBRANCH   1  15
TORSDOF 3
ENDMDL
MODEL 5
REMARK VINA RESULT:      -7.3      1.722      4.811
REMARK  3 active torsions:
REMARK  status: ('A' for Active; 'I' for Inactive)
REMARK    1  A    between atoms: N5_5  and  C6_6 
REMARK    2  A    between atoms: C6_6  and  C7_7 
REMARK    3  A    between atoms: C6_6  and  C13_13 
ROOT
ATOM      1  C6  ZIN A   1      17.762  -0.521  11.176  0.00  0.00     0.289 C 
ENDROOT
BRANCH   1   2
ATOM      2  N5  ZIN A   1      18.369   0.320  12.217  0.00  0.00     0.105 N 
ATOM      3  C4  ZIN A   1      18.439  -0.397  13.498  0.00  0.00     0.304 C 
ATOM      4  C3  ZIN A   1      19.146   0.481  14.533  0.00  0.00     0.302 C 
ATOM      5  N2  ZIN A   1      18.415   1.747  14.680  0.00  0.00     0.087 N 
ATOM      6  C1  ZIN A   1      19.022   2.587  15.721  0.00  0.00     0.310 C 
ATOM      7  C20 ZIN A   1      18.346   2.463  13.398  0.00  0.00     0.302 C 
ATOM      8  C19 ZIN A   1      17.638   1.586  12.364  0.00  0.00     0.304 C 
ENDBRANCH   1   2
BRANCH   1   9
ATOM      9  C7  ZIN A   1      18.116   0.029   9.818  0.00  0.00    -0.021 A 
ATOM     10  C12 ZIN A   1      19.131   0.958   9.692  0.00  0.00     0.010 A 
ATOM     11  C11 ZIN A   1      19.457   1.459   8.445  0.00  0.00     0.001 A 
ATOM     12  C10 ZIN A   1      18.764   1.037   7.327  0.00  0.00     0.000 A 
ATOM     13  C9  ZIN A   1      17.744   0.111   7.454  0.00  0.00     0.001 A 
ATOM     14  C8  ZIN A   1      17.421  -0.392   8.699  0.00  0.00     0.010 A 
ENDBRANCH   1   9
BRANCH   1  15
ATOM     15  C13 ZIN A   1      18.284  -1.930  11.300  0.00  0.00    -0.021 A 
ATOM     16  C18 ZIN A   1      19.645  -2.168  11.266  0.00  0.00     0.010 A 
ATOM     17  C17 ZIN A   1      20.123  -3.460  11.384  0.00  0.00     0.001 A 
ATOM     18  C16 ZIN A   1      19.239  -4.514  11.528  0.00  0.00     0.000 A 
ATOM     19  C15 ZIN A   1      17.877  -4.276  11.556  0.00  0.00     0.001 A 
ATOM     20  C14 ZIN A   1      17.400  -2.983  11.442  0.00  0.00     0.010 A 
ENDBRANCH   1  15
TORSDOF 3
ENDMDL
MODEL 6
REMARK VINA RESULT:      -7.3      1.201      1.360
REMARK  3 active torsions:
REMARK  status: ('A' for Active; 'I' for Inactive)
REMARK    1  A    between atoms: N5_5  and  C6_6 
REMARK    2  A    between atoms: C6_6  and  C7_7 
REMARK    3  A    between atoms: C6_6  and  C13_13 
ROOT
ATOM      1  C6  ZIN A   1      19.430  -1.459  12.120  0.00  0.00     0.289 C 
ENDROOT
BRANCH   1   2
ATOM      2  N5  ZIN A   1      19.032  -0.501  11.079  0.00  0.00     0.105 N 
ATOM      3  C4  ZIN A   1      19.221  -1.071   9.738  0.00  0.00     0.304 C 
ATOM      4  C3  ZIN A   1      18.722  -0.076   8.689  0.00  0.00     0.302 C 
ATOM      5  N2  ZIN A   1      19.457   1.189   8.828  0.00  0.00     0.087 N 
ATOM      6  C1  ZIN A   1      19.059   2.147   7.787  0.00  0.00     0.310 C 
ATOM      7  C20 ZIN A   1      19.269   1.759  10.169  0.00  0.00     0.302 C 
ATOM      8  C19 ZIN A   1      19.767   0.763  11.218  0.00  0.00     0.304 C 
ENDBRANCH   1   2
BRANCH   1   9
ATOM      9  C7  ZIN A   1      18.888  -1.008  13.452  0.00  0.00    -0.021 A 
ATOM     10  C12 ZIN A   1      19.433  -1.502  14.622  0.00  0.00     0.010 A 
ATOM     11  C11 ZIN A   1      18.938  -1.084  15.844  0.00  0.00     0.001 A 
ATOM     12  C10 ZIN A   1      17.894  -0.182  15.895  0.00  0.00     0.000 A 
ATOM     13  C9  ZIN A   1      17.344   0.308  14.724  0.00  0.00     0.001 A 
ATOM     14  C8  ZIN A   1      17.842  -0.106  13.503  0.00  0.00     0.010 A 
ENDBRANCH   1   9
BRANCH   1  15
ATOM     15  C13 ZIN A   1      18.878  -2.821  11.787  0.00  0.00    -0.021 A 
ATOM     16  C18 ZIN A   1      17.511  -3.019  11.737  0.00  0.00     0.010 A 
ATOM     17  C17 ZIN A   1      17.005  -4.268  11.427  0.00  0.00     0.001 A 
ATOM     18  C16 ZIN A   1      17.866  -5.320  11.175  0.00  0.00     0.000 A 
ATOM     19  C15 ZIN A   1      19.233  -5.123  11.231  0.00  0.00     0.001 A 
ATOM     20  C14 ZIN A   1      19.739  -3.874  11.536  0.00  0.00     0.010 A 
ENDBRANCH   1  15
TORSDOF 3
ENDMDL
MODEL 7
REMARK VINA RESULT:      -7.2      1.650      5.110
REMARK  3 active torsions:
REMARK  status: ('A' for Active; 'I' for Inactive)
REMARK    1  A    between atoms: N5_5  and  C6_6 
REMARK    2  A    between atoms: C6_6  and  C7_7 
REMARK    3  A    between atoms: C6_6  and  C13_13 
ROOT
ATOM      1  C6  ZIN A   1      19.200  -0.473  12.153  0.00  0.00     0.289 C 
ENDROOT
BRANCH   1   2
ATOM      2  N5  ZIN A   1      18.379  -1.397  11.359  0.00  0.00     0.105 N 
ATOM      3  C4  ZIN A   1      18.189  -2.673  12.063  0.00  0.00     0.304 C 
ATOM      4  C3  ZIN A   1      17.266  -3.574  11.241  0.00  0.00     0.302 C 
ATOM      5  N2  ZIN A   1      17.854  -3.792   9.912  0.00  0.00     0.087 N 
ATOM      6  C1  ZIN A   1      17.033  -4.716   9.117  0.00  0.00     0.310 C 
ATOM      7  C20 ZIN A   1      18.044  -2.516   9.208  0.00  0.00     0.302 C 
ATOM      8  C19 ZIN A   1      18.967  -1.615  10.030  0.00  0.00     0.304 C 
ENDBRANCH   1   2
BRANCH   1   9
ATOM      9  C7  ZIN A   1      19.003   0.934  11.650  0.00  0.00    -0.021 A 
ATOM     10  C12 ZIN A   1      19.968   1.894  11.892  0.00  0.00     0.010 A 
ATOM     11  C11 ZIN A   1      19.789   3.184  11.426  0.00  0.00     0.001 A 
ATOM     12  C10 ZIN A   1      18.644   3.514  10.728  0.00  0.00     0.000 A 
ATOM     13  C9  ZIN A   1      17.676   2.555  10.491  0.00  0.00     0.001 A 
ATOM     14  C8  ZIN A   1      17.857   1.265  10.953  0.00  0.00     0.010 A 
ENDBRANCH   1   9
BRANCH   1  15
ATOM     15  C13 ZIN A   1      18.787  -0.552  13.601  0.00  0.00    -0.021 A 
ATOM     16  C18 ZIN A   1      17.686   0.156  14.045  0.00  0.00     0.010 A 
ATOM     17  C17 ZIN A   1      17.305   0.079  15.372  0.00  0.00     0.001 A 
ATOM     18  C16 ZIN A   1      18.031  -0.698  16.256  0.00  0.00     0.000 A 
ATOM     19  C15 ZIN A   1      19.135  -1.401  15.813  0.00  0.00     0.001 A 
ATOM     20  C14 ZIN A   1      19.513  -1.328  14.485  0.00  0.00     0.010 A 
ENDBRANCH   1  15
TORSDOF 3
ENDMDL
MODEL 8
REMARK VINA RESULT:      -7.2      1.858      2.859
REMARK  3 active torsions:
REMARK  status: ('A' for Active; 'I' for Inactive)
REMARK    1  A    between atoms: N5_5  and  C6_6 
REMARK    2  A    between atoms: C6_6  and  C7_7 
REMARK    3  A    between atoms: C6_6  and  C13_13 
ROOT
ATOM      1  C6  ZIN A   1      19.271  -1.772  11.249  0.00  0.00     0.289 C 
ENDROOT
BRANCH   1   2
ATOM      2  N5  ZIN A   1      18.869  -0.895  10.140  0.00  0.00     0.105 N 
ATOM      3  C4  ZIN A   1      18.229  -1.664   9.064  0.00  0.00     0.304 C 
ATOM      4  C3  ZIN A   1      17.756  -0.708   7.968  0.00  0.00     0.302 C 
ATOM      5  N2  ZIN A   1      18.904   0.053   7.456  0.00  0.00     0.087 N 
ATOM      6  C1  ZIN A   1      18.503   0.930   6.347  0.00  0.00     0.310 C 
ATOM      7  C20 ZIN A   1      19.544   0.822   8.532  0.00  0.00     0.302 C 
ATOM      8  C19 ZIN A   1      20.017  -0.134   9.628  0.00  0.00     0.304 C 
ENDBRANCH   1   2
BRANCH   1   9
ATOM      9  C7  ZIN A   1      18.785  -1.189  12.551  0.00  0.00    -0.021 A 
ATOM     10  C12 ZIN A   1      17.825  -0.195  12.547  0.00  0.00     0.010 A 
ATOM     11  C11 ZIN A   1      17.377   0.336  13.743  0.00  0.00     0.001 A 
ATOM     12  C10 ZIN A   1      17.894  -0.121  14.939  0.00  0.00     0.000 A 
ATOM     13  C9  ZIN A   1      18.859  -1.112  14.943  0.00  0.00     0.001 A 
ATOM     14  C8  ZIN A   1      19.304  -1.645  13.748  0.00  0.00     0.010 A 
ENDBRANCH   1   9
BRANCH   1  15
ATOM     15  C13 ZIN A   1      18.666  -3.139  11.052  0.00  0.00    -0.021 A 
ATOM     16  C18 ZIN A   1      19.398  -4.136  10.437  0.00  0.00     0.010 A 
ATOM     17  C17 ZIN A   1      18.845  -5.391  10.261  0.00  0.00     0.001 A 
ATOM     18  C16 ZIN A   1      17.556  -5.645  10.693  0.00  0.00     0.000 A 
ATOM     19  C15 ZIN A   1      16.822  -4.645  11.304  0.00  0.00     0.001 A 
ATOM     20  C14 ZIN A   1      17.377  -3.392  11.483  0.00  0.00     0.010 A 
ENDBRANCH   1  15
TORSDOF 3
ENDMDL
MODEL 9
REMARK VINA RESULT:      -7.2      2.712      5.721
REMARK  3 active torsions:
REMARK  status: ('A' for Active; 'I' for Inactive)
REMARK    1  A    between atoms: N5_5  and  C6_6 
REMARK    2  A    between atoms: C6_6  and  C7_7 
REMARK    3  A    between atoms: C6_6  and  C13_13 
ROOT
ATOM      1  C6  ZIN A   1      17.671   0.380   9.841  0.00  0.00     0.289 C 
ENDROOT
BRANCH   1   2
ATOM      2  N5  ZIN A   1      18.274  -0.845  10.383  0.00  0.00     0.105 N 
ATOM      3  C4  ZIN A   1      18.554  -1.813   9.313  0.00  0.00     0.304 C 
ATOM      4  C3  ZIN A   1      19.252  -3.038   9.907  0.00  0.00     0.302 C 
ATOM      5  N2  ZIN A   1      18.395  -3.634  10.941  0.00  0.00     0.087 N 
ATOM      6  C1  ZIN A   1      18.998  -4.859  11.483  0.00  0.00     0.310 C 
ATOM      7  C20 ZIN A   1      18.115  -2.666  12.011  0.00  0.00     0.302 C 
ATOM      8  C19 ZIN A   1      17.417  -1.441  11.417  0.00  0.00     0.304 C 
ENDBRANCH   1   2
BRANCH   1   9
ATOM      9  C7  ZIN A   1      18.295   1.582  10.501  0.00  0.00    -0.021 A 
ATOM     10  C12 ZIN A   1      19.444   1.436  11.256  0.00  0.00     0.010 A 
ATOM     11  C11 ZIN A   1      20.019   2.541  11.858  0.00  0.00     0.001 A 
ATOM     12  C10 ZIN A   1      19.440   3.787  11.713  0.00  0.00     0.000 A 
ATOM     13  C9  ZIN A   1      18.287   3.931  10.963  0.00  0.00     0.001 A 
ATOM     14  C8  ZIN A   1      17.716   2.829  10.358  0.00  0.00     0.010 A 
ENDBRANCH   1   9
BRANCH   1  15
ATOM     15  C13 ZIN A   1      17.910   0.442   8.354  0.00  0.00    -0.021 A 
ATOM     16  C18 ZIN A   1      19.031   1.080   7.860  0.00  0.00     0.010 A 
ATOM     17  C17 ZIN A   1      19.252   1.133   6.497  0.00  0.00     0.001 A 
ATOM     18  C16 ZIN A   1      18.346   0.555   5.626  0.00  0.00     0.000 A 
ATOM     19  C15 ZIN A   1      17.221  -0.079   6.120  0.00  0.00     0.001 A 
ATOM     20  C14 ZIN A   1      17.003  -0.135   7.484  0.00  0.00     0.010 A 
ENDBRANCH   1  15
TORSDOF 3
ENDMDL
