MODEL 1
REMARK VINA RESULT:      -7.5      0.000      0.000
REMARK  2 active torsions:
REMARK  status: ('A' for Active; 'I' for Inactive)
REMARK    1  A    between atoms: N1_1  and  C2_2 
REMARK    2  A    between atoms: N9_9  and  C10_10 
ROOT
ATOM      1  C2  ZIN A   1      18.453  -1.637   6.502  0.00  0.00     0.034 A 
ATOM      2  C3  ZIN A   1      18.900  -1.273   5.237  0.00  0.00     0.029 A 
ATOM      3  C4  ZIN A   1      19.310   0.025   4.992  0.00  0.00     0.003 A 
ATOM      4  C5  ZIN A   1      19.279   0.968   5.998  0.00  0.00     0.018 A 
ATOM      5  C6  ZIN A   1      18.831   0.616   7.273  0.00  0.00     0.042 A 
ATOM      6  C7  ZIN A   1      18.413  -0.694   7.514  0.00  0.00     0.002 A 
ATOM      7  C8  ZIN A   1      17.997  -0.751   8.963  0.00  0.00     0.169 A 
ATOM      8  N9  ZIN A   1      18.209   0.597   9.503  0.00  0.00    -0.330 N 
ATOM      9  C19 ZIN A   1      18.686   1.385   8.523  0.00  0.00     0.255 A 
ATOM     10  O20 ZIN A   1      18.965   2.561   8.652  0.00  0.00    -0.267 OA
ENDROOT
BRANCH   8  11
ATOM     11  C10 ZIN A   1      17.941   1.016  10.881  0.00  0.00     0.180 C 
ATOM     12  C17 ZIN A   1      17.088  -0.020  11.564  0.00  0.00     0.247 C 
ATOM     13  N16 ZIN A   1      17.641  -1.037  12.245  0.00  0.00    -0.296 N 
ATOM     14  O18 ZIN A   1      15.880   0.065  11.500  0.00  0.00    -0.271 OA
ATOM     15  C14 ZIN A   1      18.968  -1.187  12.367  0.00  0.00     0.224 C 
ATOM     16  H32 ZIN A   1      17.058  -1.688  12.665  0.00  0.00     0.171 HD
ATOM     17  C13 ZIN A   1      19.928  -0.218  11.729  0.00  0.00     0.106 C 
ATOM     18  O15 ZIN A   1      19.404  -2.122  13.004  0.00  0.00    -0.273 OA
ATOM     19  C12 ZIN A   1      19.265   1.160  11.639  0.00  0.00     0.044 C 
ENDBRANCH   8  11
BRANCH   1  20
ATOM     20  N1  ZIN A   1      18.039  -2.948   6.750  0.00  0.00    -0.399 N 
ATOM     21  H21 ZIN A   1      17.209  -3.274   6.368  0.00  0.00     0.156 HD
ATOM     22  H22 ZIN A   1      18.583  -3.531   7.301  0.00  0.00     0.156 HD
ENDBRANCH   1  20
TORSDOF 2
ENDMDL
MODEL 2
REMARK VINA RESULT:      -7.2      3.211      4.472
REMARK  2 active torsions:
REMARK  status: ('A' for Active; 'I' for Inactive)
REMARK    1  A    between atoms: N1_1  and  C2_2 
REMARK    2  A    between atoms: N9_9  and  C10_10 
ROOT
ATOM      1  C2  ZIN A   1      18.827   0.006   7.758  0.00  0.00     0.034 A 
ATOM      2  C3  ZIN A   1      18.893   1.364   8.049  0.00  0.00     0.029 A 
ATOM      3  C4  ZIN A   1      18.512   1.827   9.295  0.00  0.00     0.003 A 
ATOM      4  C5  ZIN A   1      18.064   0.948  10.259  0.00  0.00     0.018 A 
ATOM      5  C6  ZIN A   1      17.992  -0.418   9.979  0.00  0.00     0.042 A 
ATOM      6  C7  ZIN A   1      18.372  -0.880   8.718  0.00  0.00     0.002 A 
ATOM      7  C8  ZIN A   1      18.181  -2.376   8.735  0.00  0.00     0.169 A 
ATOM      8  N9  ZIN A   1      17.677  -2.710  10.073  0.00  0.00    -0.330 N 
ATOM      9  C19 ZIN A   1      17.564  -1.576  10.786  0.00  0.00     0.255 A 
ATOM     10  O20 ZIN A   1      17.172  -1.515  11.936  0.00  0.00    -0.267 OA
ENDROOT
BRANCH   8  11
ATOM     11  C10 ZIN A   1      17.347  -4.055  10.549  0.00  0.00     0.180 C 
ATOM     12  C17 ZIN A   1      17.187  -4.980   9.371  0.00  0.00     0.247 C 
ATOM     13  N16 ZIN A   1      18.228  -5.677   8.888  0.00  0.00    -0.296 N 
ATOM     14  O18 ZIN A   1      16.098  -5.099   8.850  0.00  0.00    -0.271 OA
ATOM     15  C14 ZIN A   1      19.456  -5.604   9.421  0.00  0.00     0.224 C 
ATOM     16  H32 ZIN A   1      18.086  -6.257   8.123  0.00  0.00     0.171 HD
ATOM     17  C13 ZIN A   1      19.746  -4.714  10.601  0.00  0.00     0.106 C 
ATOM     18  O15 ZIN A   1      20.352  -6.267   8.943  0.00  0.00    -0.273 OA
ATOM     19  C12 ZIN A   1      18.477  -4.572  11.446  0.00  0.00     0.044 C 
ENDBRANCH   8  11
BRANCH   1  20
ATOM     20  N1  ZIN A   1      19.211  -0.462   6.499  0.00  0.00    -0.399 N 
ATOM     21  H21 ZIN A   1      19.290  -1.415   6.340  0.00  0.00     0.156 HD
ATOM     22  H22 ZIN A   1      19.397   0.168   5.785  0.00  0.00     0.156 HD
ENDBRANCH   1  20
TORSDOF 2
ENDMDL
MODEL 3
REMARK VINA RESULT:      -7.1      4.045      6.907
REMARK  2 active torsions:
REMARK  status: ('A' for Active; 'I' for Inactive)
REMARK    1  A    between atoms: N1_1  and  C2_2 
REMARK    2  A    between atoms: N9_9  and  C10_10 
ROOT
ATOM      1  C2  ZIN A   1      18.327   0.627  15.949  0.00  0.00     0.034 A 
ATOM      2  C3  ZIN A   1      18.447  -0.677  16.415  0.00  0.00     0.029 A 
ATOM      3  C4  ZIN A   1      19.078  -1.635  15.643  0.00  0.00     0.003 A 
ATOM      4  C5  ZIN A   1      19.594  -1.306  14.407  0.00  0.00     0.018 A 
ATOM      5  C6  ZIN A   1      19.479   0.000  13.927  0.00  0.00     0.042 A 
ATOM      6  C7  ZIN A   1      18.835   0.963  14.707  0.00  0.00     0.002 A 
ATOM      7  C8  ZIN A   1      18.877   2.249  13.920  0.00  0.00     0.169 A 
ATOM      8  N9  ZIN A   1      19.577   1.940  12.668  0.00  0.00    -0.330 N 
ATOM      9  C19 ZIN A   1      19.918   0.640  12.672  0.00  0.00     0.255 A 
ATOM     10  O20 ZIN A   1      20.512   0.075  11.775  0.00  0.00    -0.267 OA
ENDROOT
BRANCH   8  11
ATOM     11  C10 ZIN A   1      19.854   2.892  11.589  0.00  0.00     0.180 C 
ATOM     12  C17 ZIN A   1      18.909   2.643  10.444  0.00  0.00     0.247 C 
ATOM     13  N16 ZIN A   1      17.730   3.280  10.365  0.00  0.00    -0.296 N 
ATOM     14  O18 ZIN A   1      19.218   1.855   9.576  0.00  0.00    -0.271 OA
ATOM     15  C14 ZIN A   1      17.328   4.173  11.281  0.00  0.00     0.224 C 
ATOM     16  H32 ZIN A   1      17.145   3.087   9.615  0.00  0.00     0.171 HD
ATOM     17  C13 ZIN A   1      18.183   4.509  12.475  0.00  0.00     0.106 C 
ATOM     18  O15 ZIN A   1      16.255   4.721  11.146  0.00  0.00    -0.273 OA
ATOM     19  C12 ZIN A   1      19.658   4.322  12.105  0.00  0.00     0.044 C 
ENDBRANCH   8  11
BRANCH   1  20
ATOM     20  N1  ZIN A   1      17.688   1.595  16.728  0.00  0.00    -0.399 N 
ATOM     21  H21 ZIN A   1      17.348   1.364  17.606  0.00  0.00     0.156 HD
ATOM     22  H22 ZIN A   1      17.589   2.499  16.391  0.00  0.00     0.156 HD
ENDBRANCH   1  20
TORSDOF 2
ENDMDL
MODEL 4
REMARK VINA RESULT:      -7.0      3.784      6.850
REMARK  2 active torsions:
REMARK  status: ('A' for Active; 'I' for Inactive)
REMARK    1  A    between atoms: N1_1  and  C2_2 
REMARK    2  A    between atoms: N9_9  and  C10_10 
ROOT
ATOM      1  C2  ZIN A   1      19.303  -1.057  14.758  0.00  0.00     0.034 A 
ATOM      2  C3  ZIN A   1      18.879  -1.502  16.005  0.00  0.00     0.029 A 
ATOM      3  C4  ZIN A   1      18.208  -0.644  16.857  0.00  0.00     0.003 A 
ATOM      4  C5  ZIN A   1      17.953   0.658  16.479  0.00  0.00     0.018 A 
ATOM      5  C6  ZIN A   1      18.374   1.117  15.229  0.00  0.00     0.042 A 
ATOM      6  C7  ZIN A   1      19.057   0.250  14.374  0.00  0.00     0.002 A 
ATOM      7  C8  ZIN A   1      19.369   1.036  13.126  0.00  0.00     0.169 A 
ATOM      8  N9  ZIN A   1      18.820   2.381  13.341  0.00  0.00    -0.330 N 
ATOM      9  C19 ZIN A   1      18.252   2.425  14.558  0.00  0.00     0.255 A 
ATOM     10  O20 ZIN A   1      17.707   3.402  15.035  0.00  0.00    -0.267 OA
ENDROOT
BRANCH   8  11
ATOM     11  C10 ZIN A   1      18.887   3.491  12.388  0.00  0.00     0.180 C 
ATOM     12  C17 ZIN A   1      20.034   3.270  11.438  0.00  0.00     0.247 C 
ATOM     13  N16 ZIN A   1      19.860   2.614  10.279  0.00  0.00    -0.296 N 
ATOM     14  O18 ZIN A   1      21.134   3.693  11.723  0.00  0.00    -0.271 OA
ATOM     15  C14 ZIN A   1      18.671   2.130   9.894  0.00  0.00     0.224 C 
ATOM     16  H32 ZIN A   1      20.626   2.486   9.697  0.00  0.00     0.171 HD
ATOM     17  C13 ZIN A   1      17.446   2.285  10.757  0.00  0.00     0.106 C 
ATOM     18  O15 ZIN A   1      18.579   1.555   8.830  0.00  0.00    -0.273 OA
ATOM     19  C12 ZIN A   1      17.579   3.562  11.593  0.00  0.00     0.044 C 
ENDBRANCH   8  11
BRANCH   1  20
ATOM     20  N1  ZIN A   1      19.982  -1.923  13.897  0.00  0.00    -0.399 N 
ATOM     21  H21 ZIN A   1      20.855  -1.679  13.553  0.00  0.00     0.156 HD
ATOM     22  H22 ZIN A   1      19.579  -2.769  13.646  0.00  0.00     0.156 HD
ENDBRANCH   1  20
TORSDOF 2
ENDMDL
MODEL 5
REMARK VINA RESULT:      -6.9      3.447      7.407
REMARK  2 active torsions:
REMARK  status: ('A' for Active; 'I' for Inactive)
REMARK    1  A    between atoms: N1_1  and  C2_2 
REMARK    2  A    between atoms: N9_9  and  C10_10 
ROOT
ATOM      1  C2  ZIN A   1      18.407   1.461  16.715  0.00  0.00     0.034 A 
ATOM      2  C3  ZIN A   1      18.809   0.911  17.928  0.00  0.00     0.029 A 
ATOM      3  C4  ZIN A   1      19.238  -0.402  17.987  0.00  0.00     0.003 A 
ATOM      4  C5  ZIN A   1      19.272  -1.177  16.846  0.00  0.00     0.018 A 
ATOM      5  C6  ZIN A   1      18.871  -0.637  15.622  0.00  0.00     0.042 A 
ATOM      6  C7  ZIN A   1      18.432   0.687  15.568  0.00  0.00     0.002 A 
ATOM      7  C8  ZIN A   1      18.076   0.962  14.129  0.00  0.00     0.169 A 
ATOM      8  N9  ZIN A   1      18.343  -0.282  13.396  0.00  0.00    -0.330 N 
ATOM      9  C19 ZIN A   1      18.796  -1.204  14.263  0.00  0.00     0.255 A 
ATOM     10  O20 ZIN A   1      19.109  -2.341  13.966  0.00  0.00    -0.267 OA
ENDROOT
BRANCH   8  11
ATOM     11  C10 ZIN A   1      18.144  -0.484  11.959  0.00  0.00     0.180 C 
ATOM     12  C17 ZIN A   1      17.127   0.503  11.449  0.00  0.00     0.247 C 
ATOM     13  N16 ZIN A   1      17.501   1.702  10.974  0.00  0.00    -0.296 N 
ATOM     14  O18 ZIN A   1      15.951   0.210  11.465  0.00  0.00    -0.271 OA
ATOM     15  C14 ZIN A   1      18.784   2.088  10.915  0.00  0.00     0.224 C 
ATOM     16  H32 ZIN A   1      16.815   2.313  10.661  0.00  0.00     0.171 HD
ATOM     17  C13 ZIN A   1      19.894   1.192  11.396  0.00  0.00     0.106 C 
ATOM     18  O15 ZIN A   1      19.055   3.181  10.466  0.00  0.00    -0.273 OA
ATOM     19  C12 ZIN A   1      19.470  -0.270  11.223  0.00  0.00     0.044 C 
ENDBRANCH   8  11
BRANCH   1  20
ATOM     20  N1  ZIN A   1      17.972   2.787  16.655  0.00  0.00    -0.399 N 
ATOM     21  H21 ZIN A   1      18.035   3.354  17.440  0.00  0.00     0.156 HD
ATOM     22  H22 ZIN A   1      17.610   3.141  15.828  0.00  0.00     0.156 HD
ENDBRANCH   1  20
TORSDOF 2
ENDMDL
MODEL 6
REMARK VINA RESULT:      -6.8      3.131      4.418
REMARK  2 active torsions:
REMARK  status: ('A' for Active; 'I' for Inactive)
REMARK    1  A    between atoms: N1_1  and  C2_2 
REMARK    2  A    between atoms: N9_9  and  C10_10 
ROOT
ATOM      1  C2  ZIN A   1      18.445   0.205   7.798  0.00  0.00     0.034 A 
ATOM      2  C3  ZIN A   1      18.517   0.803   6.545  0.00  0.00     0.029 A 
ATOM      3  C4  ZIN A   1      18.920   0.067   5.445  0.00  0.00     0.003 A 
ATOM      4  C5  ZIN A   1      19.252  -1.265   5.582  0.00  0.00     0.018 A 
ATOM      5  C6  ZIN A   1      19.185  -1.878   6.835  0.00  0.00     0.042 A 
ATOM      6  C7  ZIN A   1      18.783  -1.129   7.943  0.00  0.00     0.002 A 
ATOM      7  C8  ZIN A   1      18.814  -2.064   9.125  0.00  0.00     0.169 A 
ATOM      8  N9  ZIN A   1      19.253  -3.365   8.607  0.00  0.00    -0.330 N 
ATOM      9  C19 ZIN A   1      19.471  -3.252   7.286  0.00  0.00     0.255 A 
ATOM     10  O20 ZIN A   1      19.843  -4.157   6.563  0.00  0.00    -0.267 OA
ENDROOT
BRANCH   8  11
ATOM     11  C10 ZIN A   1      19.429  -4.584   9.401  0.00  0.00     0.180 C 
ATOM     12  C17 ZIN A   1      19.362  -4.244  10.866  0.00  0.00     0.247 C 
ATOM     13  N16 ZIN A   1      18.197  -4.276  11.535  0.00  0.00    -0.296 N 
ATOM     14  O18 ZIN A   1      20.376  -3.937  11.454  0.00  0.00    -0.271 OA
ATOM     15  C14 ZIN A   1      17.039  -4.617  10.951  0.00  0.00     0.224 C 
ATOM     16  H32 ZIN A   1      18.194  -4.043  12.476  0.00  0.00     0.171 HD
ATOM     17  C13 ZIN A   1      16.974  -4.978   9.491  0.00  0.00     0.106 C 
ATOM     18  O15 ZIN A   1      16.023  -4.636  11.614  0.00  0.00    -0.273 OA
ATOM     19  C12 ZIN A   1      18.315  -5.581   9.062  0.00  0.00     0.044 C 
ENDBRANCH   8  11
BRANCH   1  20
ATOM     20  N1  ZIN A   1      18.039   0.949   8.908  0.00  0.00    -0.399 N 
ATOM     21  H21 ZIN A   1      17.386   0.583   9.524  0.00  0.00     0.156 HD
ATOM     22  H22 ZIN A   1      18.413   1.830   9.063  0.00  0.00     0.156 HD
ENDBRANCH   1  20
TORSDOF 2
ENDMDL
MODEL 7
REMARK VINA RESULT:      -6.8      5.039      6.932
REMARK  2 active torsions:
REMARK  status: ('A' for Active; 'I' for Inactive)
REMARK    1  A    between atoms: N1_1  and  C2_2 
REMARK    2  A    between atoms: N9_9  and  C10_10 
ROOT
ATOM      1  C2  ZIN A   1      17.949   0.125  15.558  0.00  0.00     0.034 A 
ATOM      2  C3  ZIN A   1      18.461  -1.159  15.711  0.00  0.00     0.029 A 
ATOM      3  C4  ZIN A   1      19.399  -1.643  14.817  0.00  0.00     0.003 A 
ATOM      4  C5  ZIN A   1      19.833  -0.859  13.769  0.00  0.00     0.018 A 
ATOM      5  C6  ZIN A   1      19.326   0.431  13.604  0.00  0.00     0.042 A 
ATOM      6  C7  ZIN A   1      18.376   0.914  14.505  0.00  0.00     0.002 A 
ATOM      7  C8  ZIN A   1      18.036   2.315  14.060  0.00  0.00     0.169 A 
ATOM      8  N9  ZIN A   1      18.851   2.574  12.867  0.00  0.00    -0.330 N 
ATOM      9  C19 ZIN A   1      19.591   1.483  12.604  0.00  0.00     0.255 A 
ATOM     10  O20 ZIN A   1      20.372   1.380  11.678  0.00  0.00    -0.267 OA
ENDROOT
BRANCH   8  11
ATOM     11  C10 ZIN A   1      18.854   3.816  12.090  0.00  0.00     0.180 C 
ATOM     12  C17 ZIN A   1      17.523   4.504  12.236  0.00  0.00     0.247 C 
ATOM     13  N16 ZIN A   1      17.309   5.406  13.207  0.00  0.00    -0.296 N 
ATOM     14  O18 ZIN A   1      16.627   4.240  11.462  0.00  0.00    -0.271 OA
ATOM     15  C14 ZIN A   1      18.257   5.755  14.090  0.00  0.00     0.224 C 
ATOM     16  H32 ZIN A   1      16.435   5.822  13.273  0.00  0.00     0.171 HD
ATOM     17  C13 ZIN A   1      19.630   5.138  14.050  0.00  0.00     0.106 C 
ATOM     18  O15 ZIN A   1      18.002   6.584  14.938  0.00  0.00    -0.273 OA
ATOM     19  C12 ZIN A   1      19.960   4.741  12.608  0.00  0.00     0.044 C 
ENDBRANCH   8  11
BRANCH   1  20
ATOM     20  N1  ZIN A   1      17.002   0.615  16.461  0.00  0.00    -0.399 N 
ATOM     21  H21 ZIN A   1      17.226   0.702  17.400  0.00  0.00     0.156 HD
ATOM     22  H22 ZIN A   1      16.120   0.869  16.146  0.00  0.00     0.156 HD
ENDBRANCH   1  20
TORSDOF 2
ENDMDL
MODEL 8
REMARK VINA RESULT:      -6.7      5.688      7.719
REMARK  2 active torsions:
REMARK  status: ('A' for Active; 'I' for Inactive)
REMARK    1  A    between atoms: N1_1  and  C2_2 
REMARK    2  A    between atoms: N9_9  and  C10_10 
ROOT
ATOM      1  C2  ZIN A   1      18.124  -0.345  14.914  0.00  0.00     0.034 A 
ATOM      2  C3  ZIN A   1      17.979  -1.027  16.117  0.00  0.00     0.029 A 
ATOM      3  C4  ZIN A   1      18.141  -0.359  17.318  0.00  0.00     0.003 A 
ATOM      4  C5  ZIN A   1      18.446   0.986  17.332  0.00  0.00     0.018 A 
ATOM      5  C6  ZIN A   1      18.595   1.682  16.130  0.00  0.00     0.042 A 
ATOM      6  C7  ZIN A   1      18.437   1.002  14.921  0.00  0.00     0.002 A 
ATOM      7  C8  ZIN A   1      18.658   2.017  13.828  0.00  0.00     0.169 A 
ATOM      8  N9  ZIN A   1      18.945   3.289  14.501  0.00  0.00    -0.330 N 
ATOM      9  C19 ZIN A   1      18.914   3.090  15.830  0.00  0.00     0.255 A 
ATOM     10  O20 ZIN A   1      19.111   3.951  16.666  0.00  0.00    -0.267 OA
ENDROOT
BRANCH   8  11
ATOM     11  C10 ZIN A   1      19.225   4.563  13.834  0.00  0.00     0.180 C 
ATOM     12  C17 ZIN A   1      19.394   4.330  12.356  0.00  0.00     0.247 C 
ATOM     13  N16 ZIN A   1      18.349   4.406  11.516  0.00  0.00    -0.296 N 
ATOM     14  O18 ZIN A   1      20.493   4.071  11.915  0.00  0.00    -0.271 OA
ATOM     15  C14 ZIN A   1      17.108   4.700  11.932  0.00  0.00     0.224 C 
ATOM     16  H32 ZIN A   1      18.498   4.243  10.572  0.00  0.00     0.171 HD
ATOM     17  C13 ZIN A   1      16.809   4.953  13.386  0.00  0.00     0.106 C 
ATOM     18  O15 ZIN A   1      16.209   4.763  11.121  0.00  0.00    -0.273 OA
ATOM     19  C12 ZIN A   1      18.057   5.528  14.063  0.00  0.00     0.044 C 
ENDBRANCH   8  11
BRANCH   1  20
ATOM     20  N1  ZIN A   1      17.961  -1.020  13.702  0.00  0.00    -0.399 N 
ATOM     21  H21 ZIN A   1      18.729  -1.196  13.137  0.00  0.00     0.156 HD
ATOM     22  H22 ZIN A   1      17.078  -1.314  13.426  0.00  0.00     0.156 HD
ENDBRANCH   1  20
TORSDOF 2
ENDMDL
MODEL 9
REMARK VINA RESULT:      -6.7      3.485      6.258
REMARK  2 active torsions:
REMARK  status: ('A' for Active; 'I' for Inactive)
REMARK    1  A    between atoms: N1_1  and  C2_2 
REMARK    2  A    between atoms: N9_9  and  C10_10 
ROOT
ATOM      1  C2  ZIN A   1      20.044  -0.640  11.694  0.00  0.00     0.034 A 
ATOM      2  C3  ZIN A   1      19.791  -0.284  13.014  0.00  0.00     0.029 A 
ATOM      3  C4  ZIN A   1      18.821  -0.950  13.740  0.00  0.00     0.003 A 
ATOM      4  C5  ZIN A   1      18.096  -1.972  13.162  0.00  0.00     0.018 A 
ATOM      5  C6  ZIN A   1      18.339  -2.339  11.837  0.00  0.00     0.042 A 
ATOM      6  C7  ZIN A   1      19.316  -1.660  11.106  0.00  0.00     0.002 A 
ATOM      7  C8  ZIN A   1      19.335  -2.285   9.734  0.00  0.00     0.169 A 
ATOM      8  N9  ZIN A   1      18.317  -3.342   9.751  0.00  0.00    -0.330 N 
ATOM      9  C19 ZIN A   1      17.741  -3.367  10.965  0.00  0.00     0.255 A 
ATOM     10  O20 ZIN A   1      16.858  -4.133  11.299  0.00  0.00    -0.267 OA
ENDROOT
BRANCH   8  11
ATOM     11  C10 ZIN A   1      17.983  -4.222   8.628  0.00  0.00     0.180 C 
ATOM     12  C17 ZIN A   1      18.811  -3.844   7.429  0.00  0.00     0.247 C 
ATOM     13  N16 ZIN A   1      20.003  -4.418   7.198  0.00  0.00    -0.296 N 
ATOM     14  O18 ZIN A   1      18.395  -3.007   6.656  0.00  0.00    -0.271 OA
ATOM     15  C14 ZIN A   1      20.520  -5.358   8.003  0.00  0.00     0.224 C 
ATOM     16  H32 ZIN A   1      20.510  -4.142   6.419  0.00  0.00     0.171 HD
ATOM     17  C13 ZIN A   1      19.789  -5.821   9.236  0.00  0.00     0.106 C 
ATOM     18  O15 ZIN A   1      21.597  -5.844   7.734  0.00  0.00    -0.273 OA
ATOM     19  C12 ZIN A   1      18.281  -5.675   9.010  0.00  0.00     0.044 C 
ENDBRANCH   8  11
BRANCH   1  20
ATOM     20  N1  ZIN A   1      21.024   0.032  10.960  0.00  0.00    -0.399 N 
ATOM     21  H21 ZIN A   1      20.914   0.159  10.005  0.00  0.00     0.156 HD
ATOM     22  H22 ZIN A   1      21.814   0.374  11.408  0.00  0.00     0.156 HD
ENDBRANCH   1  20
TORSDOF 2
ENDMDL
