MODEL 1
REMARK VINA RESULT:      -7.5      0.000      0.000
REMARK  1 active torsions:
REMARK  status: ('A' for Active; 'I' for Inactive)
REMARK    1  A    between atoms: O2_2  and  C3_3 
ROOT
ATOM      1  C3  ZIN A   1      18.322  -3.168  11.861  0.00  0.00     0.068 A 
ATOM      2  C4  ZIN A   1      17.443  -2.561  10.975  0.00  0.00     0.037 A 
ATOM      3  C5  ZIN A   1      17.190  -1.210  11.077  0.00  0.00     0.010 A 
ATOM      4  C6  ZIN A   1      17.807  -0.446  12.062  0.00  0.00    -0.049 A 
ATOM      5  C7  ZIN A   1      17.449   1.013  12.142  0.00  0.00     0.072 C 
ATOM      6  C8  ZIN A   1      18.360   1.781  13.083  0.00  0.00     0.197 C 
ATOM      7  C10 ZIN A   1      18.588   0.978  14.363  0.00  0.00     0.030 C 
ATOM      8  C12 ZIN A   1      17.242   0.560  14.958  0.00  0.00     0.008 C 
ATOM      9  C13 ZIN A   1      17.479  -0.294  16.205  0.00  0.00     0.001 C 
ATOM     10  C14 ZIN A   1      18.272  -1.548  15.825  0.00  0.00     0.001 C 
ATOM     11  C15 ZIN A   1      19.620  -1.136  15.227  0.00  0.00     0.015 C 
ATOM     12  C16 ZIN A   1      19.411  -0.260  13.997  0.00  0.00    -0.005 C 
ATOM     13  C17 ZIN A   1      20.763   0.180  13.419  0.00  0.00     0.042 C 
ATOM     14  C18 ZIN A   1      20.483   0.985  12.144  0.00  0.00     0.236 C 
ATOM     15  N19 ZIN A   1      19.627   2.145  12.466  0.00  0.00    -0.070 N 
ATOM     16  H20 ZIN A   1      20.116   2.744  13.115  0.00  0.00     0.279 HD
ATOM     17  C21 ZIN A   1      19.360   2.897  11.233  0.00  0.00     0.270 C 
ATOM     18  C22 ZIN A   1      18.693  -1.046  12.930  0.00  0.00    -0.040 A 
ATOM     19  C23 ZIN A   1      18.942  -2.406  12.838  0.00  0.00     0.045 A 
ENDROOT
BRANCH   1  20
ATOM     20  O2  ZIN A   1      18.571  -4.501  11.772  0.00  0.00    -0.356 OA
ATOM     21  C1  ZIN A   1      17.453  -5.380  11.914  0.00  0.00     0.210 C 
ENDBRANCH   1  20
TORSDOF 1
ENDMDL
MODEL 2
REMARK VINA RESULT:      -7.2      2.880      4.136
REMARK  1 active torsions:
REMARK  status: ('A' for Active; 'I' for Inactive)
REMARK    1  A    between atoms: O2_2  and  C3_3 
ROOT
ATOM      1  C3  ZIN A   1      19.007  -1.352   7.284  0.00  0.00     0.068 A 
ATOM      2  C4  ZIN A   1      17.830  -0.630   7.142  0.00  0.00     0.037 A 
ATOM      3  C5  ZIN A   1      17.171  -0.166   8.259  0.00  0.00     0.010 A 
ATOM      4  C6  ZIN A   1      17.672  -0.414   9.532  0.00  0.00    -0.049 A 
ATOM      5  C7  ZIN A   1      16.876   0.084  10.707  0.00  0.00     0.072 C 
ATOM      6  C8  ZIN A   1      17.640  -0.030  12.013  0.00  0.00     0.197 C 
ATOM      7  C10 ZIN A   1      18.351  -1.382  12.089  0.00  0.00     0.030 C 
ATOM      8  C12 ZIN A   1      17.350  -2.507  11.820  0.00  0.00     0.008 C 
ATOM      9  C13 ZIN A   1      18.079  -3.852  11.837  0.00  0.00     0.001 C 
ATOM     10  C14 ZIN A   1      19.155  -3.866  10.748  0.00  0.00     0.001 C 
ATOM     11  C15 ZIN A   1      20.160  -2.740  11.010  0.00  0.00     0.015 C 
ATOM     12  C16 ZIN A   1      19.452  -1.390  11.026  0.00  0.00    -0.005 C 
ATOM     13  C17 ZIN A   1      20.455  -0.266  11.324  0.00  0.00     0.042 C 
ATOM     14  C18 ZIN A   1      19.697   1.065  11.243  0.00  0.00     0.236 C 
ATOM     15  N19 ZIN A   1      18.582   1.062  12.212  0.00  0.00    -0.070 N 
ATOM     16  H20 ZIN A   1      18.957   0.970  13.145  0.00  0.00     0.279 HD
ATOM     17  C21 ZIN A   1      17.861   2.338  12.114  0.00  0.00     0.270 C 
ATOM     18  C22 ZIN A   1      18.849  -1.116   9.672  0.00  0.00    -0.040 A 
ATOM     19  C23 ZIN A   1      19.510  -1.595   8.551  0.00  0.00     0.045 A 
ENDROOT
BRANCH   1  20
ATOM     20  O2  ZIN A   1      19.659  -1.820   6.188  0.00  0.00    -0.356 OA
ATOM     21  C1  ZIN A   1      19.278  -1.274   4.923  0.00  0.00     0.210 C 
ENDBRANCH   1  20
TORSDOF 1
ENDMDL
MODEL 3
REMARK VINA RESULT:      -7.1      2.738      4.783
REMARK  1 active torsions:
REMARK  status: ('A' for Active; 'I' for Inactive)
REMARK    1  A    between atoms: O2_2  and  C3_3 
ROOT
ATOM      1  C3  ZIN A   1      18.162   0.107   8.171  0.00  0.00     0.068 A 
ATOM      2  C4  ZIN A   1      19.347  -0.613   8.233  0.00  0.00     0.037 A 
ATOM      3  C5  ZIN A   1      20.079  -0.630   9.400  0.00  0.00     0.010 A 
ATOM      4  C6  ZIN A   1      19.644   0.069  10.520  0.00  0.00    -0.049 A 
ATOM      5  C7  ZIN A   1      20.518   0.042  11.745  0.00  0.00     0.072 C 
ATOM      6  C8  ZIN A   1      19.825   0.628  12.961  0.00  0.00     0.197 C 
ATOM      7  C10 ZIN A   1      19.086   1.911  12.578  0.00  0.00     0.030 C 
ATOM      8  C12 ZIN A   1      20.042   2.860  11.852  0.00  0.00     0.008 C 
ATOM      9  C13 ZIN A   1      19.281   4.114  11.417  0.00  0.00     0.001 C 
ATOM     10  C14 ZIN A   1      18.146   3.722  10.468  0.00  0.00     0.001 C 
ATOM     11  C15 ZIN A   1      17.186   2.770  11.187  0.00  0.00     0.015 C 
ATOM     12  C16 ZIN A   1      17.927   1.523  11.656  0.00  0.00    -0.005 C 
ATOM     13  C17 ZIN A   1      16.971   0.585  12.408  0.00  0.00     0.042 C 
ATOM     14  C18 ZIN A   1      17.756  -0.679  12.777  0.00  0.00     0.236 C 
ATOM     15  N19 ZIN A   1      18.923  -0.316  13.606  0.00  0.00    -0.070 N 
ATOM     16  H20 ZIN A   1      18.599   0.113  14.460  0.00  0.00     0.279 HD
ATOM     17  C21 ZIN A   1      19.669  -1.536  13.940  0.00  0.00     0.270 C 
ATOM     18  C22 ZIN A   1      18.459   0.770  10.464  0.00  0.00    -0.040 A 
ATOM     19  C23 ZIN A   1      17.725   0.800   9.288  0.00  0.00     0.045 A 
ENDROOT
BRANCH   1  20
ATOM     20  O2  ZIN A   1      17.438   0.136   7.022  0.00  0.00    -0.356 OA
ATOM     21  C1  ZIN A   1      18.170   0.188   5.795  0.00  0.00     0.210 C 
ENDBRANCH   1  20
TORSDOF 1
ENDMDL
MODEL 4
REMARK VINA RESULT:      -7.0      3.155      4.942
REMARK  1 active torsions:
REMARK  status: ('A' for Active; 'I' for Inactive)
REMARK    1  A    between atoms: O2_2  and  C3_3 
ROOT
ATOM      1  C3  ZIN A   1      18.397   1.540  15.230  0.00  0.00     0.068 A 
ATOM      2  C4  ZIN A   1      17.674   0.540  14.595  0.00  0.00     0.037 A 
ATOM      3  C5  ZIN A   1      17.370   0.657  13.257  0.00  0.00     0.010 A 
ATOM      4  C6  ZIN A   1      17.779   1.770  12.532  0.00  0.00    -0.049 A 
ATOM      5  C7  ZIN A   1      17.371   1.852  11.085  0.00  0.00     0.072 C 
ATOM      6  C8  ZIN A   1      18.078   2.976  10.349  0.00  0.00     0.197 C 
ATOM      7  C10 ZIN A   1      18.095   4.239  11.211  0.00  0.00     0.030 C 
ATOM      8  C12 ZIN A   1      16.676   4.561  11.685  0.00  0.00     0.008 C 
ATOM      9  C13 ZIN A   1      16.710   5.790  12.596  0.00  0.00     0.001 C 
ATOM     10  C14 ZIN A   1      17.592   5.501  13.813  0.00  0.00     0.001 C 
ATOM     11  C15 ZIN A   1      19.014   5.175  13.347  0.00  0.00     0.015 C 
ATOM     12  C16 ZIN A   1      19.004   3.970  12.414  0.00  0.00    -0.005 C 
ATOM     13  C17 ZIN A   1      20.426   3.666  11.919  0.00  0.00     0.042 C 
ATOM     14  C18 ZIN A   1      20.356   2.401  11.056  0.00  0.00     0.236 C 
ATOM     15  N19 ZIN A   1      19.425   2.616   9.930  0.00  0.00    -0.070 N 
ATOM     16  H20 ZIN A   1      19.772   3.370   9.356  0.00  0.00     0.279 HD
ATOM     17  C21 ZIN A   1      19.362   1.391   9.122  0.00  0.00     0.270 C 
ATOM     18  C22 ZIN A   1      18.511   2.755  13.158  0.00  0.00    -0.040 A 
ATOM     19  C23 ZIN A   1      18.810   2.647  14.507  0.00  0.00     0.045 A 
ENDROOT
BRANCH   1  20
ATOM     20  O2  ZIN A   1      18.694   1.436  16.551  0.00  0.00    -0.356 OA
ATOM     21  C1  ZIN A   1      18.832   0.117  17.084  0.00  0.00     0.210 C 
ENDBRANCH   1  20
TORSDOF 1
ENDMDL
MODEL 5
REMARK VINA RESULT:      -7.0      2.115      4.383
REMARK  1 active torsions:
REMARK  status: ('A' for Active; 'I' for Inactive)
REMARK    1  A    between atoms: O2_2  and  C3_3 
ROOT
ATOM      1  C3  ZIN A   1      18.339  -3.907  10.191  0.00  0.00     0.068 A 
ATOM      2  C4  ZIN A   1      19.503  -3.979  10.943  0.00  0.00     0.037 A 
ATOM      3  C5  ZIN A   1      20.098  -2.823  11.400  0.00  0.00     0.010 A 
ATOM      4  C6  ZIN A   1      19.544  -1.580  11.113  0.00  0.00    -0.049 A 
ATOM      5  C7  ZIN A   1      20.272  -0.359  11.606  0.00  0.00     0.072 C 
ATOM      6  C8  ZIN A   1      19.451   0.907  11.446  0.00  0.00     0.197 C 
ATOM      7  C10 ZIN A   1      18.770   0.923  10.077  0.00  0.00     0.030 C 
ATOM      8  C12 ZIN A   1      19.810   0.679   8.981  0.00  0.00     0.008 C 
ATOM      9  C13 ZIN A   1      19.113   0.635   7.620  0.00  0.00     0.001 C 
ATOM     10  C14 ZIN A   1      18.090  -0.503   7.604  0.00  0.00     0.001 C 
ATOM     11  C15 ZIN A   1      17.048  -0.267   8.700  0.00  0.00     0.015 C 
ATOM     12  C16 ZIN A   1      17.720  -0.191  10.066  0.00  0.00    -0.005 C 
ATOM     13  C17 ZIN A   1      16.678   0.081  11.160  0.00  0.00     0.042 C 
ATOM     14  C18 ZIN A   1      17.406   0.062  12.509  0.00  0.00     0.236 C 
ATOM     15  N19 ZIN A   1      18.474   1.083  12.512  0.00  0.00    -0.070 N 
ATOM     16  H20 ZIN A   1      18.058   1.994  12.392  0.00  0.00     0.279 HD
ATOM     17  C21 ZIN A   1      19.168   1.043  13.806  0.00  0.00     0.270 C 
ATOM     18  C22 ZIN A   1      18.379  -1.510  10.381  0.00  0.00    -0.040 A 
ATOM     19  C23 ZIN A   1      17.783  -2.669   9.910  0.00  0.00     0.045 A 
ENDROOT
BRANCH   1  20
ATOM     20  O2  ZIN A   1      17.751  -5.041   9.731  0.00  0.00    -0.356 OA
ATOM     21  C1  ZIN A   1      17.293  -5.979  10.708  0.00  0.00     0.210 C 
ENDBRANCH   1  20
TORSDOF 1
ENDMDL
MODEL 6
REMARK VINA RESULT:      -6.9      3.148      5.398
REMARK  1 active torsions:
REMARK  status: ('A' for Active; 'I' for Inactive)
REMARK    1  A    between atoms: O2_2  and  C3_3 
ROOT
ATOM      1  C3  ZIN A   1      17.345   3.628  10.733  0.00  0.00     0.068 A 
ATOM      2  C4  ZIN A   1      18.127   3.866   9.611  0.00  0.00     0.037 A 
ATOM      3  C5  ZIN A   1      18.930   2.865   9.111  0.00  0.00     0.010 A 
ATOM      4  C6  ZIN A   1      18.968   1.615   9.719  0.00  0.00    -0.049 A 
ATOM      5  C7  ZIN A   1      19.902   0.585   9.144  0.00  0.00     0.072 C 
ATOM      6  C8  ZIN A   1      19.673  -0.795   9.733  0.00  0.00     0.197 C 
ATOM      7  C10 ZIN A   1      19.483  -0.695  11.247  0.00  0.00     0.030 C 
ATOM      8  C12 ZIN A   1      20.642   0.092  11.862  0.00  0.00     0.008 C 
ATOM      9  C13 ZIN A   1      20.414   0.240  13.368  0.00  0.00     0.001 C 
ATOM     10  C14 ZIN A   1      19.106   0.996  13.616  0.00  0.00     0.001 C 
ATOM     11  C15 ZIN A   1      17.942   0.216  13.001  0.00  0.00     0.015 C 
ATOM     12  C16 ZIN A   1      18.159   0.030  11.503  0.00  0.00    -0.005 C 
ATOM     13  C17 ZIN A   1      17.007  -0.783  10.894  0.00  0.00     0.042 C 
ATOM     14  C18 ZIN A   1      17.245  -0.861   9.381  0.00  0.00     0.236 C 
ATOM     15  N19 ZIN A   1      18.554  -1.492   9.116  0.00  0.00    -0.070 N 
ATOM     16  H20 ZIN A   1      18.546  -2.433   9.482  0.00  0.00     0.279 HD
ATOM     17  C21 ZIN A   1      18.769  -1.549   7.664  0.00  0.00     0.270 C 
ATOM     18  C22 ZIN A   1      18.179   1.374  10.822  0.00  0.00    -0.040 A 
ATOM     19  C23 ZIN A   1      17.377   2.382  11.336  0.00  0.00     0.045 A 
ENDROOT
BRANCH   1  20
ATOM     20  O2  ZIN A   1      16.556   4.612  11.238  0.00  0.00    -0.356 OA
ATOM     21  C1  ZIN A   1      16.989   5.233  12.450  0.00  0.00     0.210 C 
ENDBRANCH   1  20
TORSDOF 1
ENDMDL
MODEL 7
REMARK VINA RESULT:      -6.9      2.831      4.996
REMARK  1 active torsions:
REMARK  status: ('A' for Active; 'I' for Inactive)
REMARK    1  A    between atoms: O2_2  and  C3_3 
ROOT
ATOM      1  C3  ZIN A   1      18.373   3.858  12.825  0.00  0.00     0.068 A 
ATOM      2  C4  ZIN A   1      19.545   3.924  12.084  0.00  0.00     0.037 A 
ATOM      3  C5  ZIN A   1      20.135   2.766  11.629  0.00  0.00     0.010 A 
ATOM      4  C6  ZIN A   1      19.571   1.526  11.907  0.00  0.00    -0.049 A 
ATOM      5  C7  ZIN A   1      20.295   0.301  11.417  0.00  0.00     0.072 C 
ATOM      6  C8  ZIN A   1      19.463  -0.959  11.566  0.00  0.00     0.197 C 
ATOM      7  C10 ZIN A   1      18.771  -0.974  12.929  0.00  0.00     0.030 C 
ATOM      8  C12 ZIN A   1      19.803  -0.741  14.035  0.00  0.00     0.008 C 
ATOM      9  C13 ZIN A   1      19.095  -0.696  15.390  0.00  0.00     0.001 C 
ATOM     10  C14 ZIN A   1      18.079   0.449  15.401  0.00  0.00     0.001 C 
ATOM     11  C15 ZIN A   1      17.045   0.223  14.295  0.00  0.00     0.015 C 
ATOM     12  C16 ZIN A   1      17.729   0.147  12.935  0.00  0.00    -0.005 C 
ATOM     13  C17 ZIN A   1      16.694  -0.115  11.831  0.00  0.00     0.042 C 
ATOM     14  C18 ZIN A   1      17.434  -0.098  10.488  0.00  0.00     0.236 C 
ATOM     15  N19 ZIN A   1      18.495  -1.125  10.492  0.00  0.00    -0.070 N 
ATOM     16  H20 ZIN A   1      18.072  -2.034  10.606  0.00  0.00     0.279 HD
ATOM     17  C21 ZIN A   1      19.200  -1.087   9.203  0.00  0.00     0.270 C 
ATOM     18  C22 ZIN A   1      18.399   1.461  12.629  0.00  0.00    -0.040 A 
ATOM     19  C23 ZIN A   1      17.807   2.624  13.098  0.00  0.00     0.045 A 
ENDROOT
BRANCH   1  20
ATOM     20  O2  ZIN A   1      17.789   4.996  13.284  0.00  0.00    -0.356 OA
ATOM     21  C1  ZIN A   1      16.634   5.460  12.583  0.00  0.00     0.210 C 
ENDBRANCH   1  20
TORSDOF 1
ENDMDL
MODEL 8
REMARK VINA RESULT:      -6.9      1.983      4.319
REMARK  1 active torsions:
REMARK  status: ('A' for Active; 'I' for Inactive)
REMARK    1  A    between atoms: O2_2  and  C3_3 
ROOT
ATOM      1  C3  ZIN A   1      17.906  -0.157  15.168  0.00  0.00     0.068 A 
ATOM      2  C4  ZIN A   1      18.922   0.781  15.286  0.00  0.00     0.037 A 
ATOM      3  C5  ZIN A   1      19.634   1.166  14.171  0.00  0.00     0.010 A 
ATOM      4  C6  ZIN A   1      19.346   0.622  12.924  0.00  0.00    -0.049 A 
ATOM      5  C7  ZIN A   1      20.194   1.055  11.759  0.00  0.00     0.072 C 
ATOM      6  C8  ZIN A   1      19.631   0.586  10.429  0.00  0.00     0.197 C 
ATOM      7  C10 ZIN A   1      19.166  -0.866  10.538  0.00  0.00     0.030 C 
ATOM      8  C12 ZIN A   1      20.294  -1.728  11.108  0.00  0.00     0.008 C 
ATOM      9  C13 ZIN A   1      19.801  -3.168  11.271  0.00  0.00     0.001 C 
ATOM     10  C14 ZIN A   1      18.612  -3.197  12.234  0.00  0.00     0.001 C 
ATOM     11  C15 ZIN A   1      17.480  -2.333  11.672  0.00  0.00     0.015 C 
ATOM     12  C16 ZIN A   1      17.954  -0.898  11.473  0.00  0.00    -0.005 C 
ATOM     13  C17 ZIN A   1      16.827  -0.042  10.876  0.00  0.00     0.042 C 
ATOM     14  C18 ZIN A   1      17.343   1.399  10.780  0.00  0.00     0.236 C 
ATOM     15  N19 ZIN A   1      18.557   1.439   9.941  0.00  0.00    -0.070 N 
ATOM     16  H20 ZIN A   1      18.324   1.126   9.010  0.00  0.00     0.279 HD
ATOM     17  C21 ZIN A   1      19.042   2.824   9.869  0.00  0.00     0.270 C 
ATOM     18  C22 ZIN A   1      18.327  -0.297  12.804  0.00  0.00    -0.040 A 
ATOM     19  C23 ZIN A   1      17.615  -0.696  13.925  0.00  0.00     0.045 A 
ENDROOT
BRANCH   1  20
ATOM     20  O2  ZIN A   1      17.205  -0.548  16.264  0.00  0.00    -0.356 OA
ATOM     21  C1  ZIN A   1      17.581   0.032  17.516  0.00  0.00     0.210 C 
ENDBRANCH   1  20
TORSDOF 1
ENDMDL
MODEL 9
REMARK VINA RESULT:      -6.8      4.507      7.162
REMARK  1 active torsions:
REMARK  status: ('A' for Active; 'I' for Inactive)
REMARK    1  A    between atoms: O2_2  and  C3_3 
ROOT
ATOM      1  C3  ZIN A   1      18.362  -1.316   7.386  0.00  0.00     0.068 A 
ATOM      2  C4  ZIN A   1      19.200  -1.873   6.430  0.00  0.00     0.037 A 
ATOM      3  C5  ZIN A   1      19.581  -3.193   6.537  0.00  0.00     0.010 A 
ATOM      4  C6  ZIN A   1      19.135  -3.976   7.596  0.00  0.00    -0.049 A 
ATOM      5  C7  ZIN A   1      19.628  -5.396   7.673  0.00  0.00     0.072 C 
ATOM      6  C8  ZIN A   1      18.886  -6.209   8.718  0.00  0.00     0.197 C 
ATOM      7  C10 ZIN A   1      18.715  -5.389   9.997  0.00  0.00     0.030 C 
ATOM      8  C12 ZIN A   1      20.071  -4.837  10.442  0.00  0.00     0.008 C 
ATOM      9  C13 ZIN A   1      19.883  -3.968  11.687  0.00  0.00     0.001 C 
ATOM     10  C14 ZIN A   1      18.949  -2.800  11.361  0.00  0.00     0.001 C 
ATOM     11  C15 ZIN A   1      17.590  -3.345  10.912  0.00  0.00     0.015 C 
ATOM     12  C16 ZIN A   1      17.754  -4.238   9.688  0.00  0.00    -0.005 C 
ATOM     13  C17 ZIN A   1      16.395  -4.812   9.260  0.00  0.00     0.042 C 
ATOM     14  C18 ZIN A   1      16.618  -5.629   7.982  0.00  0.00     0.236 C 
ATOM     15  N19 ZIN A   1      17.601  -6.700   8.242  0.00  0.00    -0.070 N 
ATOM     16  H20 ZIN A   1      17.235  -7.318   8.951  0.00  0.00     0.279 HD
ATOM     17  C21 ZIN A   1      17.811  -7.465   7.006  0.00  0.00     0.270 C 
ATOM     18  C22 ZIN A   1      18.290  -3.428   8.536  0.00  0.00    -0.040 A 
ATOM     19  C23 ZIN A   1      17.912  -2.097   8.439  0.00  0.00     0.045 A 
ENDROOT
BRANCH   1  20
ATOM     20  O2  ZIN A   1      17.988  -0.014   7.293  0.00  0.00    -0.356 OA
ATOM     21  C1  ZIN A   1      18.788   0.834   6.466  0.00  0.00     0.210 C 
ENDBRANCH   1  20
TORSDOF 1
ENDMDL
