MODEL 1
REMARK VINA RESULT:      -6.0      0.000      0.000
REMARK  26 active torsions:
REMARK  status: ('A' for Active; 'I' for Inactive)
REMARK    1  A    between atoms: C2_2  and  C3_3 
REMARK    2  A    between atoms: C3_3  and  N4_4 
REMARK    3  A    between atoms: C13_13  and  O14_14 
REMARK    4  A    between atoms: C19_18  and  O21_19 
REMARK    5  A    between atoms: O21_19  and  C22_20 
REMARK    6  A    between atoms: C22_20  and  C23_21 
REMARK    7  A    between atoms: C23_21  and  O24_22 
REMARK    8  A    between atoms: O24_22  and  C25_23 
REMARK    9  A    between atoms: C25_23  and  C26_24 
REMARK   10  A    between atoms: C26_24  and  O27_25 
REMARK   11  A    between atoms: O27_25  and  C28_26 
REMARK   12  A    between atoms: C28_26  and  C29_27 
REMARK   13  A    between atoms: C29_27  and  O30_28 
REMARK   14  A    between atoms: O30_28  and  C31_29 
REMARK   15  A    between atoms: C31_29  and  C32_30 
REMARK   16  A    between atoms: C32_30  and  O33_31 
REMARK   17  A    between atoms: O33_31  and  C34_32 
REMARK   18  A    between atoms: C34_32  and  C35_33 
REMARK   19  A    between atoms: C35_33  and  O36_34 
REMARK   20  A    between atoms: O36_34  and  C37_35 
REMARK   21  A    between atoms: C37_35  and  C38_36 
REMARK   22  A    between atoms: C38_36  and  O39_37 
REMARK   23  A    between atoms: O39_37  and  C40_38 
REMARK   24  A    between atoms: C40_38  and  C41_39 
REMARK   25  A    between atoms: C41_39  and  O42_40 
REMARK   26  A    between atoms: C46_44  and  O47_45 
ROOT
ATOM      1  N4  ZIN A   1      19.443   1.231  14.131  0.00  0.00    -0.060 N 
ATOM      2  H5  ZIN A   1      19.997   2.063  14.263  0.00  0.00     0.280 HD
ATOM      3  C6  ZIN A   1      20.300   0.160  13.616  0.00  0.00     0.237 C 
ATOM      4  C7  ZIN A   1      20.923   0.573  12.276  0.00  0.00     0.048 C 
ATOM      5  C8  ZIN A   1      19.782   0.885  11.304  0.00  0.00     0.054 C 
ATOM      6  C9  ZIN A   1      18.883  -0.323  11.203  0.00  0.00    -0.001 A 
ATOM      7  C10 ZIN A   1      17.806  -0.620  12.004  0.00  0.00    -0.046 A 
ATOM      8  C11 ZIN A   1      17.144  -1.802  11.713  0.00  0.00     0.011 A 
ATOM      9  C12 ZIN A   1      17.543  -2.577  10.636  0.00  0.00     0.040 A 
ATOM     10  C13 ZIN A   1      18.592  -2.226   9.789  0.00  0.00     0.099 A 
ATOM     11  C15 ZIN A   1      19.274  -1.038  10.079  0.00  0.00     0.110 A 
ATOM     12  O16 ZIN A   1      20.269  -0.389   9.437  0.00  0.00    -0.339 OA
ATOM     13  C17 ZIN A   1      20.261   1.009   9.870  0.00  0.00     0.174 C 
ATOM     14  C19 ZIN A   1      19.314   1.743   8.941  0.00  0.00     0.152 C 
ATOM     15  C44 ZIN A   1      18.511   2.854   9.576  0.00  0.00     0.037 C 
ATOM     16  C45 ZIN A   1      17.825   2.389  10.860  0.00  0.00     0.044 C 
ATOM     17  C46 ZIN A   1      18.932   2.006  11.874  0.00  0.00     0.101 C 
ATOM     18  C48 ZIN A   1      18.346   1.525  13.200  0.00  0.00     0.228 C 
ATOM     19  C50 ZIN A   1      17.411   0.335  13.083  0.00  0.00     0.075 C 
ENDROOT
BRANCH  14  20
ATOM     20  O21 ZIN A   1      18.399   0.792   8.392  0.00  0.00    -0.381 OA
BRANCH  20  21
ATOM     21  C22 ZIN A   1      18.455   0.689   6.967  0.00  0.00     0.194 C 
BRANCH  21  22
ATOM     22  C23 ZIN A   1      17.636  -0.520   6.511  0.00  0.00     0.193 C 
BRANCH  22  23
ATOM     23  O24 ZIN A   1      18.118  -0.971   5.245  0.00  0.00    -0.387 OA
BRANCH  23  24
ATOM     24  C25 ZIN A   1      19.175  -1.929   5.334  0.00  0.00     0.193 C 
BRANCH  24  25
ATOM     25  C26 ZIN A   1      18.673  -3.291   4.851  0.00  0.00     0.193 C 
BRANCH  25  26
ATOM     26  O27 ZIN A   1      18.107  -4.007   5.951  0.00  0.00    -0.387 OA
BRANCH  26  27
ATOM     27  C28 ZIN A   1      18.479  -5.386   6.000  0.00  0.00     0.193 C 
BRANCH  27  28
ATOM     28  C29 ZIN A   1      19.821  -5.527   6.721  0.00  0.00     0.193 C 
BRANCH  28  29
ATOM     29  O30 ZIN A   1      19.601  -6.011   8.047  0.00  0.00    -0.387 OA
BRANCH  29  30
ATOM     30  C31 ZIN A   1      18.374  -6.726   8.209  0.00  0.00     0.193 C 
BRANCH  30  31
ATOM     31  C32 ZIN A   1      17.585  -6.127   9.375  0.00  0.00     0.193 C 
BRANCH  31  32
ATOM     32  O33 ZIN A   1      16.608  -5.214   8.870  0.00  0.00    -0.387 OA
BRANCH  32  33
ATOM     33  C34 ZIN A   1      15.275  -5.730   8.874  0.00  0.00     0.193 C 
BRANCH  33  34
ATOM     34  C35 ZIN A   1      14.893  -6.167   7.458  0.00  0.00     0.193 C 
BRANCH  34  35
ATOM     35  O36 ZIN A   1      14.031  -7.304   7.526  0.00  0.00    -0.387 OA
BRANCH  35  36
ATOM     36  C37 ZIN A   1      13.230  -7.498   6.358  0.00  0.00     0.193 C 
BRANCH  36  37
ATOM     37  C38 ZIN A   1      13.707  -6.557   5.250  0.00  0.00     0.193 C 
BRANCH  37  38
ATOM     38  O39 ZIN A   1      14.333  -7.319   4.216  0.00  0.00    -0.387 OA
BRANCH  38  39
ATOM     39  C40 ZIN A   1      14.401  -6.644   2.958  0.00  0.00     0.193 C 
BRANCH  39  40
ATOM     40  C41 ZIN A   1      15.742  -6.950   2.287  0.00  0.00     0.193 C 
BRANCH  40  41
ATOM     41  O42 ZIN A   1      16.340  -5.731   1.843  0.00  0.00    -0.394 OA
ATOM     42  C43 ZIN A   1      17.754  -5.667   2.052  0.00  0.00     0.201 C 
ENDBRANCH  40  41
ENDBRANCH  39  40
ENDBRANCH  38  39
ENDBRANCH  37  38
ENDBRANCH  36  37
ENDBRANCH  35  36
ENDBRANCH  34  35
ENDBRANCH  33  34
ENDBRANCH  32  33
ENDBRANCH  31  32
ENDBRANCH  30  31
ENDBRANCH  29  30
ENDBRANCH  28  29
ENDBRANCH  27  28
ENDBRANCH  26  27
ENDBRANCH  25  26
ENDBRANCH  24  25
ENDBRANCH  23  24
ENDBRANCH  22  23
ENDBRANCH  21  22
ENDBRANCH  20  21
ENDBRANCH  14  20
BRANCH  17  43
ATOM     43  O47 ZIN A   1      19.756   3.145  12.127  0.00  0.00    -0.386 OA
ATOM     44  H98 ZIN A   1      20.704   2.974  12.035  0.00  0.00     0.210 HD
ENDBRANCH  17  43
BRANCH  10  45
ATOM     45  O14 ZIN A   1      18.938  -3.001   8.727  0.00  0.00    -0.358 OA
ATOM     46  H62 ZIN A   1      19.760  -2.732   8.294  0.00  0.00     0.217 HD
ENDBRANCH  10  45
BRANCH   1  47
ATOM     47  C3  ZIN A   1      18.879   0.817  15.423  0.00  0.00     0.262 C 
BRANCH  47  48
ATOM     48  C2  ZIN A   1      19.132  -0.654  15.632  0.00  0.00    -0.010 C 
ATOM     49  C1  ZIN A   1      18.447  -1.315  16.531  0.00  0.00     0.008 C 
ENDBRANCH  47  48
ENDBRANCH   1  47
TORSDOF 26
ENDMDL
MODEL 2
REMARK VINA RESULT:      -5.9      1.638      4.575
REMARK  26 active torsions:
REMARK  status: ('A' for Active; 'I' for Inactive)
REMARK    1  A    between atoms: C2_2  and  C3_3 
REMARK    2  A    between atoms: C3_3  and  N4_4 
REMARK    3  A    between atoms: C13_13  and  O14_14 
REMARK    4  A    between atoms: C19_18  and  O21_19 
REMARK    5  A    between atoms: O21_19  and  C22_20 
REMARK    6  A    between atoms: C22_20  and  C23_21 
REMARK    7  A    between atoms: C23_21  and  O24_22 
REMARK    8  A    between atoms: O24_22  and  C25_23 
REMARK    9  A    between atoms: C25_23  and  C26_24 
REMARK   10  A    between atoms: C26_24  and  O27_25 
REMARK   11  A    between atoms: O27_25  and  C28_26 
REMARK   12  A    between atoms: C28_26  and  C29_27 
REMARK   13  A    between atoms: C29_27  and  O30_28 
REMARK   14  A    between atoms: O30_28  and  C31_29 
REMARK   15  A    between atoms: C31_29  and  C32_30 
REMARK   16  A    between atoms: C32_30  and  O33_31 
REMARK   17  A    between atoms: O33_31  and  C34_32 
REMARK   18  A    between atoms: C34_32  and  C35_33 
REMARK   19  A    between atoms: C35_33  and  O36_34 
REMARK   20  A    between atoms: O36_34  and  C37_35 
REMARK   21  A    between atoms: C37_35  and  C38_36 
REMARK   22  A    between atoms: C38_36  and  O39_37 
REMARK   23  A    between atoms: O39_37  and  C40_38 
REMARK   24  A    between atoms: C40_38  and  C41_39 
REMARK   25  A    between atoms: C41_39  and  O42_40 
REMARK   26  A    between atoms: C46_44  and  O47_45 
ROOT
ATOM      1  N4  ZIN A   1      18.553  -0.603  14.396  0.00  0.00    -0.060 N 
ATOM      2  H5  ZIN A   1      18.259  -1.567  14.367  0.00  0.00     0.280 HD
ATOM      3  C6  ZIN A   1      17.410   0.256  14.076  0.00  0.00     0.237 C 
ATOM      4  C7  ZIN A   1      16.873  -0.069  12.676  0.00  0.00     0.048 C 
ATOM      5  C8  ZIN A   1      18.014   0.132  11.676  0.00  0.00     0.054 C 
ATOM      6  C9  ZIN A   1      18.535   1.543  11.808  0.00  0.00    -0.001 A 
ATOM      7  C10 ZIN A   1      19.519   1.984  12.662  0.00  0.00    -0.046 A 
ATOM      8  C11 ZIN A   1      19.811   3.336  12.600  0.00  0.00     0.011 A 
ATOM      9  C12 ZIN A   1      19.167   4.147  11.679  0.00  0.00     0.040 A 
ATOM     10  C13 ZIN A   1      18.224   3.672  10.771  0.00  0.00     0.099 A 
ATOM     11  C15 ZIN A   1      17.914   2.308  10.830  0.00  0.00     0.110 A 
ATOM     12  O16 ZIN A   1      17.114   1.530  10.069  0.00  0.00    -0.339 OA
ATOM     13  C17 ZIN A   1      17.530   0.137  10.238  0.00  0.00     0.174 C 
ATOM     14  C19 ZIN A   1      18.606  -0.121   9.202  0.00  0.00     0.152 C 
ATOM     15  C44 ZIN A   1      19.713  -1.055   9.631  0.00  0.00     0.037 C 
ATOM     16  C45 ZIN A   1      20.294  -0.653  10.987  0.00  0.00     0.044 C 
ATOM     17  C46 ZIN A   1      19.166  -0.786  12.041  0.00  0.00     0.101 C 
ATOM     18  C48 ZIN A   1      19.649  -0.404  13.439  0.00  0.00     0.228 C 
ATOM     19  C50 ZIN A   1      20.209   1.002  13.552  0.00  0.00     0.075 C 
ENDROOT
BRANCH  14  20
ATOM     20  O21 ZIN A   1      19.195   1.131   8.846  0.00  0.00    -0.381 OA
BRANCH  20  21
ATOM     21  C22 ZIN A   1      19.292   1.348   7.437  0.00  0.00     0.194 C 
BRANCH  21  22
ATOM     22  C23 ZIN A   1      18.253   0.486   6.716  0.00  0.00     0.193 C 
BRANCH  22  23
ATOM     23  O24 ZIN A   1      18.549   0.452   5.319  0.00  0.00    -0.387 OA
BRANCH  23  24
ATOM     24  C25 ZIN A   1      19.375  -0.646   4.927  0.00  0.00     0.193 C 
BRANCH  24  25
ATOM     25  C26 ZIN A   1      18.815  -1.942   5.515  0.00  0.00     0.193 C 
BRANCH  25  26
ATOM     26  O27 ZIN A   1      18.432  -2.820   4.453  0.00  0.00    -0.387 OA
BRANCH  26  27
ATOM     27  C28 ZIN A   1      17.068  -2.684   4.050  0.00  0.00     0.193 C 
BRANCH  27  28
ATOM     28  C29 ZIN A   1      16.610  -3.972   3.362  0.00  0.00     0.193 C 
BRANCH  28  29
ATOM     29  O30 ZIN A   1      15.300  -4.316   3.819  0.00  0.00    -0.387 OA
BRANCH  29  30
ATOM     30  C31 ZIN A   1      14.804  -5.547   3.289  0.00  0.00     0.193 C 
BRANCH  30  31
ATOM     31  C32 ZIN A   1      14.294  -6.426   4.432  0.00  0.00     0.193 C 
BRANCH  31  32
ATOM     32  O33 ZIN A   1      14.684  -5.855   5.683  0.00  0.00    -0.387 OA
BRANCH  32  33
ATOM     33  C34 ZIN A   1      15.260  -6.792   6.595  0.00  0.00     0.193 C 
BRANCH  33  34
ATOM     34  C35 ZIN A   1      16.730  -7.017   6.235  0.00  0.00     0.193 C 
BRANCH  34  35
ATOM     35  O36 ZIN A   1      17.454  -5.797   6.405  0.00  0.00    -0.387 OA
BRANCH  35  36
ATOM     36  C37 ZIN A   1      18.836  -5.886   6.048  0.00  0.00     0.193 C 
BRANCH  36  37
ATOM     37  C38 ZIN A   1      19.699  -5.566   7.269  0.00  0.00     0.193 C 
BRANCH  37  38
ATOM     38  O39 ZIN A   1      18.978  -5.890   8.460  0.00  0.00    -0.387 OA
BRANCH  38  39
ATOM     39  C40 ZIN A   1      18.936  -4.831   9.419  0.00  0.00     0.193 C 
BRANCH  39  40
ATOM     40  C41 ZIN A   1      17.640  -4.036   9.245  0.00  0.00     0.193 C 
BRANCH  40  41
ATOM     41  O42 ZIN A   1      16.565  -4.735   9.875  0.00  0.00    -0.394 OA
ATOM     42  C43 ZIN A   1      16.855  -5.169  11.207  0.00  0.00     0.201 C 
ENDBRANCH  40  41
ENDBRANCH  39  40
ENDBRANCH  38  39
ENDBRANCH  37  38
ENDBRANCH  36  37
ENDBRANCH  35  36
ENDBRANCH  34  35
ENDBRANCH  33  34
ENDBRANCH  32  33
ENDBRANCH  31  32
ENDBRANCH  30  31
ENDBRANCH  29  30
ENDBRANCH  28  29
ENDBRANCH  27  28
ENDBRANCH  26  27
ENDBRANCH  25  26
ENDBRANCH  24  25
ENDBRANCH  23  24
ENDBRANCH  22  23
ENDBRANCH  21  22
ENDBRANCH  20  21
ENDBRANCH  14  20
BRANCH  17  43
ATOM     43  O47 ZIN A   1      18.705  -2.138  12.072  0.00  0.00    -0.386 OA
ATOM     44  H98 ZIN A   1      17.954  -2.310  11.487  0.00  0.00     0.210 HD
ENDBRANCH  17  43
BRANCH  10  45
ATOM     45  O14 ZIN A   1      17.632   4.495   9.865  0.00  0.00    -0.358 OA
ATOM     46  H62 ZIN A   1      17.111   5.207  10.262  0.00  0.00     0.217 HD
ENDBRANCH  10  45
BRANCH   1  47
ATOM     47  C3  ZIN A   1      19.031  -0.285  15.748  0.00  0.00     0.262 C 
BRANCH  47  48
ATOM     48  C2  ZIN A   1      18.384   0.992  16.221  0.00  0.00    -0.010 C 
ATOM     49  C1  ZIN A   1      19.007   1.763  17.077  0.00  0.00     0.008 C 
ENDBRANCH  47  48
ENDBRANCH   1  47
TORSDOF 26
ENDMDL
MODEL 3
REMARK VINA RESULT:      -5.9      1.528      4.263
REMARK  26 active torsions:
REMARK  status: ('A' for Active; 'I' for Inactive)
REMARK    1  A    between atoms: C2_2  and  C3_3 
REMARK    2  A    between atoms: C3_3  and  N4_4 
REMARK    3  A    between atoms: C13_13  and  O14_14 
REMARK    4  A    between atoms: C19_18  and  O21_19 
REMARK    5  A    between atoms: O21_19  and  C22_20 
REMARK    6  A    between atoms: C22_20  and  C23_21 
REMARK    7  A    between atoms: C23_21  and  O24_22 
REMARK    8  A    between atoms: O24_22  and  C25_23 
REMARK    9  A    between atoms: C25_23  and  C26_24 
REMARK   10  A    between atoms: C26_24  and  O27_25 
REMARK   11  A    between atoms: O27_25  and  C28_26 
REMARK   12  A    between atoms: C28_26  and  C29_27 
REMARK   13  A    between atoms: C29_27  and  O30_28 
REMARK   14  A    between atoms: O30_28  and  C31_29 
REMARK   15  A    between atoms: C31_29  and  C32_30 
REMARK   16  A    between atoms: C32_30  and  O33_31 
REMARK   17  A    between atoms: O33_31  and  C34_32 
REMARK   18  A    between atoms: C34_32  and  C35_33 
REMARK   19  A    between atoms: C35_33  and  O36_34 
REMARK   20  A    between atoms: O36_34  and  C37_35 
REMARK   21  A    between atoms: C37_35  and  C38_36 
REMARK   22  A    between atoms: C38_36  and  O39_37 
REMARK   23  A    between atoms: O39_37  and  C40_38 
REMARK   24  A    between atoms: C40_38  and  C41_39 
REMARK   25  A    between atoms: C41_39  and  O42_40 
REMARK   26  A    between atoms: C46_44  and  O47_45 
ROOT
ATOM      1  N4  ZIN A   1      18.556  -1.048  14.097  0.00  0.00    -0.060 N 
ATOM      2  H5  ZIN A   1      18.225  -1.998  14.026  0.00  0.00     0.280 HD
ATOM      3  C6  ZIN A   1      17.428  -0.132  13.901  0.00  0.00     0.237 C 
ATOM      4  C7  ZIN A   1      16.801  -0.348  12.518  0.00  0.00     0.048 C 
ATOM      5  C8  ZIN A   1      17.890  -0.120  11.467  0.00  0.00     0.054 C 
ATOM      6  C9  ZIN A   1      18.468   1.261  11.656  0.00  0.00    -0.001 A 
ATOM      7  C10 ZIN A   1      19.514   1.614  12.476  0.00  0.00    -0.046 A 
ATOM      8  C11 ZIN A   1      19.852   2.957  12.482  0.00  0.00     0.011 A 
ATOM      9  C12 ZIN A   1      19.186   3.847  11.654  0.00  0.00     0.040 A 
ATOM     10  C13 ZIN A   1      18.176   3.462  10.775  0.00  0.00     0.099 A 
ATOM     11  C15 ZIN A   1      17.821   2.109  10.767  0.00  0.00     0.110 A 
ATOM     12  O16 ZIN A   1      16.951   1.409  10.007  0.00  0.00    -0.339 OA
ATOM     13  C17 ZIN A   1      17.325  -0.006  10.063  0.00  0.00     0.174 C 
ATOM     14  C19 ZIN A   1      18.329  -0.231   8.950  0.00  0.00     0.152 C 
ATOM     15  C44 ZIN A   1      19.424  -1.227   9.254  0.00  0.00     0.037 C 
ATOM     16  C45 ZIN A   1      20.096  -0.933  10.595  0.00  0.00     0.044 C 
ATOM     17  C46 ZIN A   1      19.026  -1.097  11.704  0.00  0.00     0.101 C 
ATOM     18  C48 ZIN A   1      19.601  -0.823  13.092  0.00  0.00     0.228 C 
ATOM     19  C50 ZIN A   1      20.218   0.554  13.260  0.00  0.00     0.075 C 
ENDROOT
BRANCH  14  20
ATOM     20  O21 ZIN A   1      18.942   1.022   8.640  0.00  0.00    -0.381 OA
BRANCH  20  21
ATOM     21  C22 ZIN A   1      19.251   1.190   7.255  0.00  0.00     0.194 C 
BRANCH  21  22
ATOM     22  C23 ZIN A   1      18.156   0.540   6.406  0.00  0.00     0.193 C 
BRANCH  22  23
ATOM     23  O24 ZIN A   1      18.525   0.598   5.027  0.00  0.00    -0.387 OA
BRANCH  23  24
ATOM     24  C25 ZIN A   1      18.869  -0.670   4.464  0.00  0.00     0.193 C 
BRANCH  24  25
ATOM     25  C26 ZIN A   1      17.670  -1.614   4.560  0.00  0.00     0.193 C 
BRANCH  25  26
ATOM     26  O27 ZIN A   1      18.056  -2.805   5.250  0.00  0.00    -0.387 OA
BRANCH  26  27
ATOM     27  C28 ZIN A   1      18.312  -3.917   4.390  0.00  0.00     0.193 C 
BRANCH  27  28
ATOM     28  C29 ZIN A   1      17.744  -5.191   5.020  0.00  0.00     0.193 C 
BRANCH  28  29
ATOM     29  O30 ZIN A   1      17.304  -6.077   3.989  0.00  0.00    -0.387 OA
BRANCH  29  30
ATOM     30  C31 ZIN A   1      16.786  -5.414   2.834  0.00  0.00     0.193 C 
BRANCH  30  31
ATOM     31  C32 ZIN A   1      15.290  -5.153   3.023  0.00  0.00     0.193 C 
BRANCH  31  32
ATOM     32  O33 ZIN A   1      14.635  -6.373   3.379  0.00  0.00    -0.387 OA
BRANCH  32  33
ATOM     33  C34 ZIN A   1      13.616  -6.217   4.368  0.00  0.00     0.193 C 
BRANCH  33  34
ATOM     34  C35 ZIN A   1      14.205  -6.484   5.754  0.00  0.00     0.193 C 
BRANCH  34  35
ATOM     35  O36 ZIN A   1      13.149  -6.582   6.711  0.00  0.00    -0.387 OA
BRANCH  35  36
ATOM     36  C37 ZIN A   1      13.524  -6.192   8.034  0.00  0.00     0.193 C 
BRANCH  36  37
ATOM     37  C38 ZIN A   1      15.024  -6.424   8.228  0.00  0.00     0.193 C 
BRANCH  37  38
ATOM     38  O39 ZIN A   1      15.618  -5.249   8.783  0.00  0.00    -0.387 OA
BRANCH  38  39
ATOM     39  C40 ZIN A   1      16.396  -5.492   9.957  0.00  0.00     0.193 C 
BRANCH  39  40
ATOM     40  C41 ZIN A   1      17.825  -5.861   9.556  0.00  0.00     0.193 C 
BRANCH  40  41
ATOM     41  O42 ZIN A   1      18.649  -4.694   9.600  0.00  0.00    -0.394 OA
ATOM     42  C43 ZIN A   1      20.000  -4.951   9.989  0.00  0.00     0.201 C 
ENDBRANCH  40  41
ENDBRANCH  39  40
ENDBRANCH  38  39
ENDBRANCH  37  38
ENDBRANCH  36  37
ENDBRANCH  35  36
ENDBRANCH  34  35
ENDBRANCH  33  34
ENDBRANCH  32  33
ENDBRANCH  31  32
ENDBRANCH  30  31
ENDBRANCH  29  30
ENDBRANCH  28  29
ENDBRANCH  27  28
ENDBRANCH  26  27
ENDBRANCH  25  26
ENDBRANCH  24  25
ENDBRANCH  23  24
ENDBRANCH  22  23
ENDBRANCH  21  22
ENDBRANCH  20  21
ENDBRANCH  14  20
BRANCH  17  43
ATOM     43  O47 ZIN A   1      18.518  -2.432  11.677  0.00  0.00    -0.386 OA
ATOM     44  H98 ZIN A   1      19.161  -3.103  11.944  0.00  0.00     0.210 HD
ENDBRANCH  17  43
BRANCH  10  45
ATOM     45  O14 ZIN A   1      17.564   4.362   9.959  0.00  0.00    -0.358 OA
ATOM     46  H62 ZIN A   1      16.844   3.988   9.431  0.00  0.00     0.217 HD
ENDBRANCH  10  45
BRANCH   1  47
ATOM     47  C3  ZIN A   1      19.121  -0.833  15.437  0.00  0.00     0.262 C 
BRANCH  47  48
ATOM     48  C2  ZIN A   1      18.041  -1.016  16.472  0.00  0.00    -0.010 C 
ATOM     49  C1  ZIN A   1      17.994  -0.225  17.515  0.00  0.00     0.008 C 
ENDBRANCH  47  48
ENDBRANCH   1  47
TORSDOF 26
ENDMDL
MODEL 4
REMARK VINA RESULT:      -5.9      1.038      3.165
REMARK  26 active torsions:
REMARK  status: ('A' for Active; 'I' for Inactive)
REMARK    1  A    between atoms: C2_2  and  C3_3 
REMARK    2  A    between atoms: C3_3  and  N4_4 
REMARK    3  A    between atoms: C13_13  and  O14_14 
REMARK    4  A    between atoms: C19_18  and  O21_19 
REMARK    5  A    between atoms: O21_19  and  C22_20 
REMARK    6  A    between atoms: C22_20  and  C23_21 
REMARK    7  A    between atoms: C23_21  and  O24_22 
REMARK    8  A    between atoms: O24_22  and  C25_23 
REMARK    9  A    between atoms: C25_23  and  C26_24 
REMARK   10  A    between atoms: C26_24  and  O27_25 
REMARK   11  A    between atoms: O27_25  and  C28_26 
REMARK   12  A    between atoms: C28_26  and  C29_27 
REMARK   13  A    between atoms: C29_27  and  O30_28 
REMARK   14  A    between atoms: O30_28  and  C31_29 
REMARK   15  A    between atoms: C31_29  and  C32_30 
REMARK   16  A    between atoms: C32_30  and  O33_31 
REMARK   17  A    between atoms: O33_31  and  C34_32 
REMARK   18  A    between atoms: C34_32  and  C35_33 
REMARK   19  A    between atoms: C35_33  and  O36_34 
REMARK   20  A    between atoms: O36_34  and  C37_35 
REMARK   21  A    between atoms: C37_35  and  C38_36 
REMARK   22  A    between atoms: C38_36  and  O39_37 
REMARK   23  A    between atoms: O39_37  and  C40_38 
REMARK   24  A    between atoms: C40_38  and  C41_39 
REMARK   25  A    between atoms: C41_39  and  O42_40 
REMARK   26  A    between atoms: C46_44  and  O47_45 
ROOT
ATOM      1  N4  ZIN A   1      19.094   1.046  14.114  0.00  0.00    -0.060 N 
ATOM      2  H5  ZIN A   1      19.522   1.938  14.308  0.00  0.00     0.280 HD
ATOM      3  C6  ZIN A   1      20.116   0.122  13.613  0.00  0.00     0.237 C 
ATOM      4  C7  ZIN A   1      20.748   0.671  12.328  0.00  0.00     0.048 C 
ATOM      5  C8  ZIN A   1      19.630   0.870  11.302  0.00  0.00     0.054 C 
ATOM      6  C9  ZIN A   1      18.910  -0.442  11.105  0.00  0.00    -0.001 A 
ATOM      7  C10 ZIN A   1      17.841  -0.915  11.830  0.00  0.00    -0.046 A 
ATOM      8  C11 ZIN A   1      17.363  -2.160  11.459  0.00  0.00     0.011 A 
ATOM      9  C12 ZIN A   1      17.921  -2.829  10.382  0.00  0.00     0.040 A 
ATOM     10  C13 ZIN A   1      18.957  -2.305   9.611  0.00  0.00     0.099 A 
ATOM     11  C15 ZIN A   1      19.454  -1.051   9.982  0.00  0.00     0.110 A 
ATOM     12  O16 ZIN A   1      20.386  -0.247   9.423  0.00  0.00    -0.339 OA
ATOM     13  C17 ZIN A   1      20.165   1.118   9.904  0.00  0.00     0.174 C 
ATOM     14  C19 ZIN A   1      19.178   1.758   8.947  0.00  0.00     0.152 C 
ATOM     15  C44 ZIN A   1      18.198   2.723   9.571  0.00  0.00     0.037 C 
ATOM     16  C45 ZIN A   1      17.514   2.116  10.796  0.00  0.00     0.044 C 
ATOM     17  C46 ZIN A   1      18.606   1.841  11.859  0.00  0.00     0.101 C 
ATOM     18  C48 ZIN A   1      18.020   1.231  13.130  0.00  0.00     0.228 C 
ATOM     19  C50 ZIN A   1      17.262  -0.067  12.916  0.00  0.00     0.075 C 
ENDROOT
BRANCH  14  20
ATOM     20  O21 ZIN A   1      18.432   0.717   8.311  0.00  0.00    -0.381 OA
BRANCH  20  21
ATOM     21  C22 ZIN A   1      18.163   0.958   6.928  0.00  0.00     0.194 C 
BRANCH  21  22
ATOM     22  C23 ZIN A   1      19.283   0.353   6.079  0.00  0.00     0.193 C 
BRANCH  22  23
ATOM     23  O24 ZIN A   1      19.229  -1.072   6.164  0.00  0.00    -0.387 OA
BRANCH  23  24
ATOM     24  C25 ZIN A   1      18.764  -1.708   4.972  0.00  0.00     0.193 C 
BRANCH  24  25
ATOM     25  C26 ZIN A   1      19.154  -3.187   4.997  0.00  0.00     0.193 C 
BRANCH  25  26
ATOM     26  O27 ZIN A   1      18.354  -3.907   4.056  0.00  0.00    -0.387 OA
BRANCH  26  27
ATOM     27  C28 ZIN A   1      16.947  -3.763   4.261  0.00  0.00     0.193 C 
BRANCH  27  28
ATOM     28  C29 ZIN A   1      16.202  -4.175   2.989  0.00  0.00     0.193 C 
BRANCH  28  29
ATOM     29  O30 ZIN A   1      15.904  -5.572   3.042  0.00  0.00    -0.387 OA
BRANCH  29  30
ATOM     30  C31 ZIN A   1      14.657  -5.923   2.441  0.00  0.00     0.193 C 
BRANCH  30  31
ATOM     31  C32 ZIN A   1      13.675  -6.368   3.526  0.00  0.00     0.193 C 
BRANCH  31  32
ATOM     32  O33 ZIN A   1      13.461  -7.778   3.426  0.00  0.00    -0.387 OA
BRANCH  32  33
ATOM     33  C34 ZIN A   1      13.739  -8.493   4.631  0.00  0.00     0.193 C 
BRANCH  33  34
ATOM     34  C35 ZIN A   1      13.080  -7.778   5.812  0.00  0.00     0.193 C 
BRANCH  34  35
ATOM     35  O36 ZIN A   1      14.077  -7.424   6.773  0.00  0.00    -0.387 OA
BRANCH  35  36
ATOM     36  C37 ZIN A   1      15.230  -8.268   6.753  0.00  0.00     0.193 C 
BRANCH  36  37
ATOM     37  C38 ZIN A   1      16.320  -7.663   7.639  0.00  0.00     0.193 C 
BRANCH  37  38
ATOM     38  O39 ZIN A   1      16.067  -6.268   7.819  0.00  0.00    -0.387 OA
BRANCH  38  39
ATOM     39  C40 ZIN A   1      17.222  -5.443   7.657  0.00  0.00     0.193 C 
BRANCH  39  40
ATOM     40  C41 ZIN A   1      18.321  -6.236   6.947  0.00  0.00     0.193 C 
BRANCH  40  41
ATOM     41  O42 ZIN A   1      19.575  -5.988   7.584  0.00  0.00    -0.394 OA
ATOM     42  C43 ZIN A   1      19.561  -6.199   8.998  0.00  0.00     0.201 C 
ENDBRANCH  40  41
ENDBRANCH  39  40
ENDBRANCH  38  39
ENDBRANCH  37  38
ENDBRANCH  36  37
ENDBRANCH  35  36
ENDBRANCH  34  35
ENDBRANCH  33  34
ENDBRANCH  32  33
ENDBRANCH  31  32
ENDBRANCH  30  31
ENDBRANCH  29  30
ENDBRANCH  28  29
ENDBRANCH  27  28
ENDBRANCH  26  27
ENDBRANCH  25  26
ENDBRANCH  24  25
ENDBRANCH  23  24
ENDBRANCH  22  23
ENDBRANCH  21  22
ENDBRANCH  20  21
ENDBRANCH  14  20
BRANCH  17  43
ATOM     43  O47 ZIN A   1      19.253   3.069  12.200  0.00  0.00    -0.386 OA
ATOM     44  H98 ZIN A   1      19.166   3.760  11.528  0.00  0.00     0.210 HD
ENDBRANCH  17  43
BRANCH  10  45
ATOM     45  O14 ZIN A   1      19.462  -2.981   8.545  0.00  0.00    -0.358 OA
ATOM     46  H62 ZIN A   1      20.402  -2.818   8.384  0.00  0.00     0.217 HD
ENDBRANCH  10  45
BRANCH   1  47
ATOM     47  C3  ZIN A   1      18.524   0.505  15.355  0.00  0.00     0.262 C 
BRANCH  47  48
ATOM     48  C2  ZIN A   1      18.951  -0.930  15.520  0.00  0.00    -0.010 C 
ATOM     49  C1  ZIN A   1      18.345  -1.698  16.391  0.00  0.00     0.008 C 
ENDBRANCH  47  48
ENDBRANCH   1  47
TORSDOF 26
ENDMDL
MODEL 5
REMARK VINA RESULT:      -5.7      4.320     11.319
REMARK  26 active torsions:
REMARK  status: ('A' for Active; 'I' for Inactive)
REMARK    1  A    between atoms: C2_2  and  C3_3 
REMARK    2  A    between atoms: C3_3  and  N4_4 
REMARK    3  A    between atoms: C13_13  and  O14_14 
REMARK    4  A    between atoms: C19_18  and  O21_19 
REMARK    5  A    between atoms: O21_19  and  C22_20 
REMARK    6  A    between atoms: C22_20  and  C23_21 
REMARK    7  A    between atoms: C23_21  and  O24_22 
REMARK    8  A    between atoms: O24_22  and  C25_23 
REMARK    9  A    between atoms: C25_23  and  C26_24 
REMARK   10  A    between atoms: C26_24  and  O27_25 
REMARK   11  A    between atoms: O27_25  and  C28_26 
REMARK   12  A    between atoms: C28_26  and  C29_27 
REMARK   13  A    between atoms: C29_27  and  O30_28 
REMARK   14  A    between atoms: O30_28  and  C31_29 
REMARK   15  A    between atoms: C31_29  and  C32_30 
REMARK   16  A    between atoms: C32_30  and  O33_31 
REMARK   17  A    between atoms: O33_31  and  C34_32 
REMARK   18  A    between atoms: C34_32  and  C35_33 
REMARK   19  A    between atoms: C35_33  and  O36_34 
REMARK   20  A    between atoms: O36_34  and  C37_35 
REMARK   21  A    between atoms: C37_35  and  C38_36 
REMARK   22  A    between atoms: C38_36  and  O39_37 
REMARK   23  A    between atoms: O39_37  and  C40_38 
REMARK   24  A    between atoms: C40_38  and  C41_39 
REMARK   25  A    between atoms: C41_39  and  O42_40 
REMARK   26  A    between atoms: C46_44  and  O47_45 
ROOT
ATOM      1  N4  ZIN A   1      18.779  -3.478  10.414  0.00  0.00    -0.060 N 
ATOM      2  H5  ZIN A   1      18.588  -3.446   9.424  0.00  0.00     0.280 HD
ATOM      3  C6  ZIN A   1      17.536  -3.231  11.150  0.00  0.00     0.237 C 
ATOM      4  C7  ZIN A   1      16.967  -1.853  10.789  0.00  0.00     0.048 C 
ATOM      5  C8  ZIN A   1      18.028  -0.803  11.125  0.00  0.00     0.054 C 
ATOM      6  C9  ZIN A   1      18.403  -0.937  12.581  0.00  0.00    -0.001 A 
ATOM      7  C10 ZIN A   1      19.375  -1.750  13.113  0.00  0.00    -0.046 A 
ATOM      8  C11 ZIN A   1      19.519  -1.699  14.490  0.00  0.00     0.011 A 
ATOM      9  C12 ZIN A   1      18.747  -0.827  15.240  0.00  0.00     0.040 A 
ATOM     10  C13 ZIN A   1      17.815   0.044  14.678  0.00  0.00     0.099 A 
ATOM     11  C15 ZIN A   1      17.655  -0.005  13.289  0.00  0.00     0.110 A 
ATOM     12  O16 ZIN A   1      16.905   0.731  12.440  0.00  0.00    -0.339 OA
ATOM     13  C17 ZIN A   1      17.475   0.609  11.097  0.00  0.00     0.174 C 
ATOM     14  C19 ZIN A   1      18.518   1.702  10.970  0.00  0.00     0.152 C 
ATOM     15  C44 ZIN A   1      19.738   1.345  10.154  0.00  0.00     0.037 C 
ATOM     16  C45 ZIN A   1      20.341   0.011  10.598  0.00  0.00     0.044 C 
ATOM     17  C46 ZIN A   1      19.288  -1.094  10.331  0.00  0.00     0.101 C 
ATOM     18  C48 ZIN A   1      19.797  -2.473  10.742  0.00  0.00     0.228 C 
ATOM     19  C50 ZIN A   1      20.210  -2.586  12.198  0.00  0.00     0.075 C 
ENDROOT
BRANCH  14  20
ATOM     20  O21 ZIN A   1      18.952   2.061  12.283  0.00  0.00    -0.381 OA
BRANCH  20  21
ATOM     21  C22 ZIN A   1      19.270   3.447  12.430  0.00  0.00     0.194 C 
BRANCH  21  22
ATOM     22  C23 ZIN A   1      18.146   4.295  11.831  0.00  0.00     0.193 C 
BRANCH  22  23
ATOM     23  O24 ZIN A   1      17.062   4.370  12.758  0.00  0.00    -0.387 OA
BRANCH  23  24
ATOM     24  C25 ZIN A   1      16.390   5.632  12.765  0.00  0.00     0.193 C 
BRANCH  24  25
ATOM     25  C26 ZIN A   1      16.192   6.098  14.208  0.00  0.00     0.193 C 
BRANCH  25  26
ATOM     26  O27 ZIN A   1      16.857   7.349  14.400  0.00  0.00    -0.387 OA
BRANCH  26  27
ATOM     27  C28 ZIN A   1      16.422   8.067  15.556  0.00  0.00     0.193 C 
BRANCH  27  28
ATOM     28  C29 ZIN A   1      17.625   8.738  16.222  0.00  0.00     0.193 C 
BRANCH  28  29
ATOM     29  O30 ZIN A   1      17.739   8.282  17.572  0.00  0.00    -0.387 OA
BRANCH  29  30
ATOM     30  C31 ZIN A   1      16.507   7.832  18.139  0.00  0.00     0.193 C 
BRANCH  30  31
ATOM     31  C32 ZIN A   1      16.735   7.430  19.598  0.00  0.00     0.193 C 
BRANCH  31  32
ATOM     32  O33 ZIN A   1      16.102   6.174  19.850  0.00  0.00    -0.387 OA
BRANCH  32  33
ATOM     33  C34 ZIN A   1      17.016   5.099  20.077  0.00  0.00     0.193 C 
BRANCH  33  34
ATOM     34  C35 ZIN A   1      16.247   3.777  20.121  0.00  0.00     0.193 C 
BRANCH  34  35
ATOM     35  O36 ZIN A   1      16.936   2.798  19.340  0.00  0.00    -0.387 OA
BRANCH  35  36
ATOM     36  C37 ZIN A   1      18.213   3.228  18.863  0.00  0.00     0.193 C 
BRANCH  36  37
ATOM     37  C38 ZIN A   1      18.960   2.036  18.261  0.00  0.00     0.193 C 
BRANCH  37  38
ATOM     38  O39 ZIN A   1      19.583   2.434  17.038  0.00  0.00    -0.387 OA
BRANCH  38  39
ATOM     39  C40 ZIN A   1      18.978   3.573  16.422  0.00  0.00     0.193 C 
BRANCH  39  40
ATOM     40  C41 ZIN A   1      20.063   4.583  16.042  0.00  0.00     0.193 C 
BRANCH  40  41
ATOM     41  O42 ZIN A   1      19.461   5.710  15.402  0.00  0.00    -0.394 OA
ATOM     42  C43 ZIN A   1      20.334   6.409  14.512  0.00  0.00     0.201 C 
ENDBRANCH  40  41
ENDBRANCH  39  40
ENDBRANCH  38  39
ENDBRANCH  37  38
ENDBRANCH  36  37
ENDBRANCH  35  36
ENDBRANCH  34  35
ENDBRANCH  33  34
ENDBRANCH  32  33
ENDBRANCH  31  32
ENDBRANCH  30  31
ENDBRANCH  29  30
ENDBRANCH  28  29
ENDBRANCH  27  28
ENDBRANCH  26  27
ENDBRANCH  25  26
ENDBRANCH  24  25
ENDBRANCH  23  24
ENDBRANCH  22  23
ENDBRANCH  21  22
ENDBRANCH  20  21
ENDBRANCH  14  20
BRANCH  17  43
ATOM     43  O47 ZIN A   1      18.975  -1.121   8.937  0.00  0.00    -0.386 OA
ATOM     44  H98 ZIN A   1      19.580  -1.659   8.407  0.00  0.00     0.210 HD
ENDBRANCH  17  43
BRANCH  10  45
ATOM     45  O14 ZIN A   1      17.094   0.904  15.446  0.00  0.00    -0.358 OA
ATOM     46  H62 ZIN A   1      16.581   1.549  14.939  0.00  0.00     0.217 HD
ENDBRANCH  10  45
BRANCH   1  47
ATOM     47  C3  ZIN A   1      19.287  -4.812  10.763  0.00  0.00     0.262 C 
BRANCH  47  48
ATOM     48  C2  ZIN A   1      19.886  -5.457   9.540  0.00  0.00    -0.010 C 
ATOM     49  C1  ZIN A   1      19.117  -6.092   8.691  0.00  0.00     0.008 C 
ENDBRANCH  47  48
ENDBRANCH   1  47
TORSDOF 26
ENDMDL
MODEL 6
REMARK VINA RESULT:      -5.6      1.262      2.238
REMARK  26 active torsions:
REMARK  status: ('A' for Active; 'I' for Inactive)
REMARK    1  A    between atoms: C2_2  and  C3_3 
REMARK    2  A    between atoms: C3_3  and  N4_4 
REMARK    3  A    between atoms: C13_13  and  O14_14 
REMARK    4  A    between atoms: C19_18  and  O21_19 
REMARK    5  A    between atoms: O21_19  and  C22_20 
REMARK    6  A    between atoms: C22_20  and  C23_21 
REMARK    7  A    between atoms: C23_21  and  O24_22 
REMARK    8  A    between atoms: O24_22  and  C25_23 
REMARK    9  A    between atoms: C25_23  and  C26_24 
REMARK   10  A    between atoms: C26_24  and  O27_25 
REMARK   11  A    between atoms: O27_25  and  C28_26 
REMARK   12  A    between atoms: C28_26  and  C29_27 
REMARK   13  A    between atoms: C29_27  and  O30_28 
REMARK   14  A    between atoms: O30_28  and  C31_29 
REMARK   15  A    between atoms: C31_29  and  C32_30 
REMARK   16  A    between atoms: C32_30  and  O33_31 
REMARK   17  A    between atoms: O33_31  and  C34_32 
REMARK   18  A    between atoms: C34_32  and  C35_33 
REMARK   19  A    between atoms: C35_33  and  O36_34 
REMARK   20  A    between atoms: O36_34  and  C37_35 
REMARK   21  A    between atoms: C37_35  and  C38_36 
REMARK   22  A    between atoms: C38_36  and  O39_37 
REMARK   23  A    between atoms: O39_37  and  C40_38 
REMARK   24  A    between atoms: C40_38  and  C41_39 
REMARK   25  A    between atoms: C41_39  and  O42_40 
REMARK   26  A    between atoms: C46_44  and  O47_45 
ROOT
ATOM      1  N4  ZIN A   1      19.001   1.276  14.050  0.00  0.00    -0.060 N 
ATOM      2  H5  ZIN A   1      19.447   2.170  14.181  0.00  0.00     0.280 HD
ATOM      3  C6  ZIN A   1      20.014   0.285  13.677  0.00  0.00     0.237 C 
ATOM      4  C7  ZIN A   1      20.711   0.699  12.375  0.00  0.00     0.048 C 
ATOM      5  C8  ZIN A   1      19.640   0.833  11.290  0.00  0.00     0.054 C 
ATOM      6  C9  ZIN A   1      18.890  -0.473  11.182  0.00  0.00    -0.001 A 
ATOM      7  C10 ZIN A   1      17.781  -0.851  11.901  0.00  0.00    -0.046 A 
ATOM      8  C11 ZIN A   1      17.282  -2.112  11.623  0.00  0.00     0.011 A 
ATOM      9  C12 ZIN A   1      17.862  -2.889  10.633  0.00  0.00     0.040 A 
ATOM     10  C13 ZIN A   1      18.942  -2.464   9.863  0.00  0.00     0.099 A 
ATOM     11  C15 ZIN A   1      19.460  -1.194  10.140  0.00  0.00     0.110 A 
ATOM     12  O16 ZIN A   1      20.435  -0.468   9.551  0.00  0.00    -0.339 OA
ATOM     13  C17 ZIN A   1      20.236   0.940   9.898  0.00  0.00     0.174 C 
ATOM     14  C19 ZIN A   1      19.306   1.516   8.848  0.00  0.00     0.152 C 
ATOM     15  C44 ZIN A   1      18.331   2.558   9.343  0.00  0.00     0.037 C 
ATOM     16  C45 ZIN A   1      17.582   2.082  10.588  0.00  0.00     0.044 C 
ATOM     17  C46 ZIN A   1      18.624   1.876  11.716  0.00  0.00     0.101 C 
ATOM     18  C48 ZIN A   1      17.972   1.398  13.011  0.00  0.00     0.228 C 
ATOM     19  C50 ZIN A   1      17.186   0.106  12.883  0.00  0.00     0.075 C 
ENDROOT
BRANCH  14  20
ATOM     20  O21 ZIN A   1      18.555   0.442   8.278  0.00  0.00    -0.381 OA
BRANCH  20  21
ATOM     21  C22 ZIN A   1      18.610   0.389   6.851  0.00  0.00     0.194 C 
BRANCH  21  22
ATOM     22  C23 ZIN A   1      18.118  -0.979   6.372  0.00  0.00     0.193 C 
BRANCH  22  23
ATOM     23  O24 ZIN A   1      17.405  -0.824   5.143  0.00  0.00    -0.387 OA
BRANCH  23  24
ATOM     24  C25 ZIN A   1      17.737  -1.800   4.153  0.00  0.00     0.193 C 
BRANCH  24  25
ATOM     25  C26 ZIN A   1      16.688  -2.913   4.160  0.00  0.00     0.193 C 
BRANCH  25  26
ATOM     26  O27 ZIN A   1      16.532  -3.429   2.836  0.00  0.00    -0.387 OA
BRANCH  26  27
ATOM     27  C28 ZIN A   1      16.001  -4.755   2.789  0.00  0.00     0.193 C 
BRANCH  27  28
ATOM     28  C29 ZIN A   1      16.063  -5.379   4.185  0.00  0.00     0.193 C 
BRANCH  28  29
ATOM     29  O30 ZIN A   1      17.258  -6.153   4.309  0.00  0.00    -0.387 OA
BRANCH  29  30
ATOM     30  C31 ZIN A   1      17.555  -6.552   5.648  0.00  0.00     0.193 C 
BRANCH  30  31
ATOM     31  C32 ZIN A   1      18.413  -5.480   6.322  0.00  0.00     0.193 C 
BRANCH  31  32
ATOM     32  O33 ZIN A   1      17.728  -4.975   7.470  0.00  0.00    -0.387 OA
BRANCH  32  33
ATOM     33  C34 ZIN A   1      17.188  -5.990   8.318  0.00  0.00     0.193 C 
BRANCH  33  34
ATOM     34  C35 ZIN A   1      15.763  -5.611   8.724  0.00  0.00     0.193 C 
BRANCH  34  35
ATOM     35  O36 ZIN A   1      14.829  -6.293   7.885  0.00  0.00    -0.387 OA
BRANCH  35  36
ATOM     36  C37 ZIN A   1      13.461  -6.059   8.225  0.00  0.00     0.193 C 
BRANCH  36  37
ATOM     37  C38 ZIN A   1      12.611  -7.246   7.769  0.00  0.00     0.193 C 
BRANCH  37  38
ATOM     38  O39 ZIN A   1      13.425  -8.155   7.024  0.00  0.00    -0.387 OA
BRANCH  38  39
ATOM     39  C40 ZIN A   1      13.209  -8.103   5.613  0.00  0.00     0.193 C 
BRANCH  39  40
ATOM     40  C41 ZIN A   1      13.584  -9.449   4.990  0.00  0.00     0.193 C 
BRANCH  40  41
ATOM     41  O42 ZIN A   1      12.783  -9.676   3.828  0.00  0.00    -0.394 OA
ATOM     42  C43 ZIN A   1      12.665  -8.537   2.972  0.00  0.00     0.201 C 
ENDBRANCH  40  41
ENDBRANCH  39  40
ENDBRANCH  38  39
ENDBRANCH  37  38
ENDBRANCH  36  37
ENDBRANCH  35  36
ENDBRANCH  34  35
ENDBRANCH  33  34
ENDBRANCH  32  33
ENDBRANCH  31  32
ENDBRANCH  30  31
ENDBRANCH  29  30
ENDBRANCH  28  29
ENDBRANCH  27  28
ENDBRANCH  26  27
ENDBRANCH  25  26
ENDBRANCH  24  25
ENDBRANCH  23  24
ENDBRANCH  22  23
ENDBRANCH  21  22
ENDBRANCH  20  21
ENDBRANCH  14  20
BRANCH  17  43
ATOM     43  O47 ZIN A   1      19.292   3.113  11.972  0.00  0.00    -0.386 OA
ATOM     44  H98 ZIN A   1      18.697   3.868  12.075  0.00  0.00     0.210 HD
ENDBRANCH  17  43
BRANCH  10  45
ATOM     45  O14 ZIN A   1      19.468  -3.246   8.883  0.00  0.00    -0.358 OA
ATOM     46  H62 ZIN A   1      19.357  -4.195   9.035  0.00  0.00     0.217 HD
ENDBRANCH  10  45
BRANCH   1  47
ATOM     47  C3  ZIN A   1      18.367   0.864  15.310  0.00  0.00     0.262 C 
BRANCH  47  48
ATOM     48  C2  ZIN A   1      18.997  -0.418  15.793  0.00  0.00    -0.010 C 
ATOM     49  C1  ZIN A   1      18.565  -0.986  16.891  0.00  0.00     0.008 C 
ENDBRANCH  47  48
ENDBRANCH   1  47
TORSDOF 26
ENDMDL
MODEL 7
REMARK VINA RESULT:      -5.5      1.954      4.034
REMARK  26 active torsions:
REMARK  status: ('A' for Active; 'I' for Inactive)
REMARK    1  A    between atoms: C2_2  and  C3_3 
REMARK    2  A    between atoms: C3_3  and  N4_4 
REMARK    3  A    between atoms: C13_13  and  O14_14 
REMARK    4  A    between atoms: C19_18  and  O21_19 
REMARK    5  A    between atoms: O21_19  and  C22_20 
REMARK    6  A    between atoms: C22_20  and  C23_21 
REMARK    7  A    between atoms: C23_21  and  O24_22 
REMARK    8  A    between atoms: O24_22  and  C25_23 
REMARK    9  A    between atoms: C25_23  and  C26_24 
REMARK   10  A    between atoms: C26_24  and  O27_25 
REMARK   11  A    between atoms: O27_25  and  C28_26 
REMARK   12  A    between atoms: C28_26  and  C29_27 
REMARK   13  A    between atoms: C29_27  and  O30_28 
REMARK   14  A    between atoms: O30_28  and  C31_29 
REMARK   15  A    between atoms: C31_29  and  C32_30 
REMARK   16  A    between atoms: C32_30  and  O33_31 
REMARK   17  A    between atoms: O33_31  and  C34_32 
REMARK   18  A    between atoms: C34_32  and  C35_33 
REMARK   19  A    between atoms: C35_33  and  O36_34 
REMARK   20  A    between atoms: O36_34  and  C37_35 
REMARK   21  A    between atoms: C37_35  and  C38_36 
REMARK   22  A    between atoms: C38_36  and  O39_37 
REMARK   23  A    between atoms: O39_37  and  C40_38 
REMARK   24  A    between atoms: C40_38  and  C41_39 
REMARK   25  A    between atoms: C41_39  and  O42_40 
REMARK   26  A    between atoms: C46_44  and  O47_45 
ROOT
ATOM      1  N4  ZIN A   1      18.603  -1.080  14.172  0.00  0.00    -0.060 N 
ATOM      2  H5  ZIN A   1      18.385  -2.054  14.030  0.00  0.00     0.280 HD
ATOM      3  C6  ZIN A   1      17.398  -0.280  13.937  0.00  0.00     0.237 C 
ATOM      4  C7  ZIN A   1      16.893  -0.483  12.503  0.00  0.00     0.048 C 
ATOM      5  C8  ZIN A   1      18.020  -0.082  11.547  0.00  0.00     0.054 C 
ATOM      6  C9  ZIN A   1      18.429   1.340  11.845  0.00  0.00    -0.001 A 
ATOM      7  C10 ZIN A   1      19.371   1.756  12.757  0.00  0.00    -0.046 A 
ATOM      8  C11 ZIN A   1      19.557   3.124  12.852  0.00  0.00     0.011 A 
ATOM      9  C12 ZIN A   1      18.856   3.983  12.022  0.00  0.00     0.040 A 
ATOM     10  C13 ZIN A   1      17.956   3.543  11.053  0.00  0.00     0.099 A 
ATOM     11  C15 ZIN A   1      17.754   2.163  10.953  0.00  0.00     0.110 A 
ATOM     12  O16 ZIN A   1      17.020   1.417  10.098  0.00  0.00    -0.339 OA
ATOM     13  C17 ZIN A   1      17.543   0.050  10.113  0.00  0.00     0.174 C 
ATOM     14  C19 ZIN A   1      18.640  -0.004   9.067  0.00  0.00     0.152 C 
ATOM     15  C44 ZIN A   1      19.814  -0.893   9.402  0.00  0.00     0.037 C 
ATOM     16  C45 ZIN A   1      20.356  -0.605  10.802  0.00  0.00     0.044 C 
ATOM     17  C46 ZIN A   1      19.238  -0.944  11.820  0.00  0.00     0.101 C 
ATOM     18  C48 ZIN A   1      19.684  -0.689  13.258  0.00  0.00     0.228 C 
ATOM     19  C50 ZIN A   1      20.132   0.734  13.538  0.00  0.00     0.075 C 
ENDROOT
BRANCH  14  20
ATOM     20  O21 ZIN A   1      19.131   1.322   8.865  0.00  0.00    -0.381 OA
BRANCH  20  21
ATOM     21  C22 ZIN A   1      19.217   1.705   7.490  0.00  0.00     0.194 C 
BRANCH  21  22
ATOM     22  C23 ZIN A   1      18.227   0.878   6.667  0.00  0.00     0.193 C 
BRANCH  22  23
ATOM     23  O24 ZIN A   1      18.945   0.042   5.759  0.00  0.00    -0.387 OA
BRANCH  23  24
ATOM     24  C25 ZIN A   1      18.320  -0.100   4.481  0.00  0.00     0.193 C 
BRANCH  24  25
ATOM     25  C26 ZIN A   1      18.414  -1.557   4.025  0.00  0.00     0.193 C 
BRANCH  25  26
ATOM     26  O27 ZIN A   1      19.462  -2.213   4.742  0.00  0.00    -0.387 OA
BRANCH  26  27
ATOM     27  C28 ZIN A   1      19.075  -3.460   5.325  0.00  0.00     0.193 C 
BRANCH  27  28
ATOM     28  C29 ZIN A   1      19.980  -3.766   6.521  0.00  0.00     0.193 C 
BRANCH  28  29
ATOM     29  O30 ZIN A   1      19.175  -3.997   7.679  0.00  0.00    -0.387 OA
BRANCH  29  30
ATOM     30  C31 ZIN A   1      19.468  -5.222   8.355  0.00  0.00     0.193 C 
BRANCH  30  31
ATOM     31  C32 ZIN A   1      19.190  -6.400   7.419  0.00  0.00     0.193 C 
BRANCH  31  32
ATOM     32  O33 ZIN A   1      18.378  -7.363   8.094  0.00  0.00    -0.387 OA
BRANCH  32  33
ATOM     33  C34 ZIN A   1      17.699  -8.265   7.218  0.00  0.00     0.193 C 
BRANCH  33  34
ATOM     34  C35 ZIN A   1      17.253  -7.517   5.960  0.00  0.00     0.193 C 
BRANCH  34  35
ATOM     35  O36 ZIN A   1      15.842  -7.299   6.011  0.00  0.00    -0.387 OA
BRANCH  35  36
ATOM     36  C37 ZIN A   1      15.468  -6.036   6.568  0.00  0.00     0.193 C 
BRANCH  36  37
ATOM     37  C38 ZIN A   1      14.281  -6.228   7.514  0.00  0.00     0.193 C 
BRANCH  37  38
ATOM     38  O39 ZIN A   1      14.612  -5.710   8.804  0.00  0.00    -0.387 OA
BRANCH  38  39
ATOM     39  C40 ZIN A   1      16.014  -5.683   9.076  0.00  0.00     0.193 C 
BRANCH  39  40
ATOM     40  C41 ZIN A   1      16.382  -4.349   9.728  0.00  0.00     0.193 C 
BRANCH  40  41
ATOM     41  O42 ZIN A   1      16.850  -4.581  11.058  0.00  0.00    -0.394 OA
ATOM     42  C43 ZIN A   1      17.337  -5.907  11.279  0.00  0.00     0.201 C 
ENDBRANCH  40  41
ENDBRANCH  39  40
ENDBRANCH  38  39
ENDBRANCH  37  38
ENDBRANCH  36  37
ENDBRANCH  35  36
ENDBRANCH  34  35
ENDBRANCH  33  34
ENDBRANCH  32  33
ENDBRANCH  31  32
ENDBRANCH  30  31
ENDBRANCH  29  30
ENDBRANCH  28  29
ENDBRANCH  27  28
ENDBRANCH  26  27
ENDBRANCH  25  26
ENDBRANCH  24  25
ENDBRANCH  23  24
ENDBRANCH  22  23
ENDBRANCH  21  22
ENDBRANCH  20  21
ENDBRANCH  14  20
BRANCH  17  43
ATOM     43  O47 ZIN A   1      18.883  -2.322  11.691  0.00  0.00    -0.386 OA
ATOM     44  H98 ZIN A   1      19.632  -2.905  11.502  0.00  0.00     0.210 HD
ENDBRANCH  17  43
BRANCH  10  45
ATOM     45  O14 ZIN A   1      17.306   4.417  10.239  0.00  0.00    -0.358 OA
ATOM     46  H62 ZIN A   1      17.482   5.347  10.438  0.00  0.00     0.217 HD
ENDBRANCH  10  45
BRANCH   1  47
ATOM     47  C3  ZIN A   1      19.048  -0.882  15.558  0.00  0.00     0.262 C 
BRANCH  47  48
ATOM     48  C2  ZIN A   1      17.972  -0.168  16.334  0.00  0.00    -0.010 C 
ATOM     49  C1  ZIN A   1      17.878  -0.336  17.630  0.00  0.00     0.008 C 
ENDBRANCH  47  48
ENDBRANCH   1  47
TORSDOF 26
ENDMDL
MODEL 8
REMARK VINA RESULT:      -5.4      3.354     11.615
REMARK  26 active torsions:
REMARK  status: ('A' for Active; 'I' for Inactive)
REMARK    1  A    between atoms: C2_2  and  C3_3 
REMARK    2  A    between atoms: C3_3  and  N4_4 
REMARK    3  A    between atoms: C13_13  and  O14_14 
REMARK    4  A    between atoms: C19_18  and  O21_19 
REMARK    5  A    between atoms: O21_19  and  C22_20 
REMARK    6  A    between atoms: C22_20  and  C23_21 
REMARK    7  A    between atoms: C23_21  and  O24_22 
REMARK    8  A    between atoms: O24_22  and  C25_23 
REMARK    9  A    between atoms: C25_23  and  C26_24 
REMARK   10  A    between atoms: C26_24  and  O27_25 
REMARK   11  A    between atoms: O27_25  and  C28_26 
REMARK   12  A    between atoms: C28_26  and  C29_27 
REMARK   13  A    between atoms: C29_27  and  O30_28 
REMARK   14  A    between atoms: O30_28  and  C31_29 
REMARK   15  A    between atoms: C31_29  and  C32_30 
REMARK   16  A    between atoms: C32_30  and  O33_31 
REMARK   17  A    between atoms: O33_31  and  C34_32 
REMARK   18  A    between atoms: C34_32  and  C35_33 
REMARK   19  A    between atoms: C35_33  and  O36_34 
REMARK   20  A    between atoms: O36_34  and  C37_35 
REMARK   21  A    between atoms: C37_35  and  C38_36 
REMARK   22  A    between atoms: C38_36  and  O39_37 
REMARK   23  A    between atoms: O39_37  and  C40_38 
REMARK   24  A    between atoms: C40_38  and  C41_39 
REMARK   25  A    between atoms: C41_39  and  O42_40 
REMARK   26  A    between atoms: C46_44  and  O47_45 
ROOT
ATOM      1  N4  ZIN A   1      15.518  -7.873   5.320  0.00  0.00    -0.060 N 
ATOM      2  H5  ZIN A   1      15.075  -8.644   5.797  0.00  0.00     0.280 HD
ATOM      3  C6  ZIN A   1      16.954  -8.141   5.208  0.00  0.00     0.237 C 
ATOM      4  C7  ZIN A   1      17.578  -8.301   6.600  0.00  0.00     0.048 C 
ATOM      5  C8  ZIN A   1      17.314  -7.013   7.385  0.00  0.00     0.054 C 
ATOM      6  C9  ZIN A   1      17.870  -5.846   6.606  0.00  0.00    -0.001 A 
ATOM      7  C10 ZIN A   1      17.223  -5.113   5.640  0.00  0.00    -0.046 A 
ATOM      8  C11 ZIN A   1      17.958  -4.091   5.062  0.00  0.00     0.011 A 
ATOM      9  C12 ZIN A   1      19.245  -3.824   5.502  0.00  0.00     0.040 A 
ATOM     10  C13 ZIN A   1      19.862  -4.530   6.532  0.00  0.00     0.099 A 
ATOM     11  C15 ZIN A   1      19.132  -5.570   7.117  0.00  0.00     0.110 A 
ATOM     12  O16 ZIN A   1      19.401  -6.387   8.158  0.00  0.00    -0.339 OA
ATOM     13  C17 ZIN A   1      18.136  -6.931   8.657  0.00  0.00     0.174 C 
ATOM     14  C19 ZIN A   1      17.621  -5.947   9.688  0.00  0.00     0.152 C 
ATOM     15  C44 ZIN A   1      16.120  -5.784   9.738  0.00  0.00     0.037 C 
ATOM     16  C45 ZIN A   1      15.535  -5.533   8.349  0.00  0.00     0.044 C 
ATOM     17  C46 ZIN A   1      15.816  -6.787   7.484  0.00  0.00     0.101 C 
ATOM     18  C48 ZIN A   1      15.267  -6.635   6.068  0.00  0.00     0.228 C 
ATOM     19  C50 ZIN A   1      15.802  -5.435   5.308  0.00  0.00     0.075 C 
ENDROOT
BRANCH  14  20
ATOM     20  O21 ZIN A   1      18.197  -4.668   9.415  0.00  0.00    -0.381 OA
BRANCH  20  21
ATOM     21  C22 ZIN A   1      18.860  -4.079  10.535  0.00  0.00     0.194 C 
BRANCH  21  22
ATOM     22  C23 ZIN A   1      18.065  -2.864  11.017  0.00  0.00     0.193 C 
BRANCH  22  23
ATOM     23  O24 ZIN A   1      18.717  -1.668  10.588  0.00  0.00    -0.387 OA
BRANCH  23  24
ATOM     24  C25 ZIN A   1      18.895  -0.700  11.624  0.00  0.00     0.193 C 
BRANCH  24  25
ATOM     25  C26 ZIN A   1      17.823   0.384  11.502  0.00  0.00     0.193 C 
BRANCH  25  26
ATOM     26  O27 ZIN A   1      17.800   0.882  10.162  0.00  0.00    -0.387 OA
BRANCH  26  27
ATOM     27  C28 ZIN A   1      18.115   2.271  10.053  0.00  0.00     0.193 C 
BRANCH  27  28
ATOM     28  C29 ZIN A   1      17.785   2.973  11.372  0.00  0.00     0.193 C 
BRANCH  28  29
ATOM     29  O30 ZIN A   1      16.609   3.768  11.208  0.00  0.00    -0.387 OA
BRANCH  29  30
ATOM     30  C31 ZIN A   1      16.836   5.174  11.327  0.00  0.00     0.193 C 
BRANCH  30  31
ATOM     31  C32 ZIN A   1      17.322   5.495  12.742  0.00  0.00     0.193 C 
BRANCH  31  32
ATOM     32  O33 ZIN A   1      16.569   6.590  13.267  0.00  0.00    -0.387 OA
BRANCH  32  33
ATOM     33  C34 ZIN A   1      16.691   6.753  14.681  0.00  0.00     0.193 C 
BRANCH  33  34
ATOM     34  C35 ZIN A   1      17.798   5.837  15.207  0.00  0.00     0.193 C 
BRANCH  34  35
ATOM     35  O36 ZIN A   1      18.836   6.628  15.788  0.00  0.00    -0.387 OA
BRANCH  35  36
ATOM     36  C37 ZIN A   1      20.045   5.908  16.038  0.00  0.00     0.193 C 
BRANCH  36  37
ATOM     37  C38 ZIN A   1      19.820   4.420  15.759  0.00  0.00     0.193 C 
BRANCH  37  38
ATOM     38  O39 ZIN A   1      19.957   3.682  16.975  0.00  0.00    -0.387 OA
BRANCH  38  39
ATOM     39  C40 ZIN A   1      19.011   2.620  17.118  0.00  0.00     0.193 C 
BRANCH  39  40
ATOM     40  C41 ZIN A   1      19.125   2.022  18.521  0.00  0.00     0.193 C 
BRANCH  40  41
ATOM     41  O42 ZIN A   1      19.930   0.842  18.472  0.00  0.00    -0.394 OA
ATOM     42  C43 ZIN A   1      19.217  -0.332  18.075  0.00  0.00     0.201 C 
ENDBRANCH  40  41
ENDBRANCH  39  40
ENDBRANCH  38  39
ENDBRANCH  37  38
ENDBRANCH  36  37
ENDBRANCH  35  36
ENDBRANCH  34  35
ENDBRANCH  33  34
ENDBRANCH  32  33
ENDBRANCH  31  32
ENDBRANCH  30  31
ENDBRANCH  29  30
ENDBRANCH  28  29
ENDBRANCH  27  28
ENDBRANCH  26  27
ENDBRANCH  25  26
ENDBRANCH  24  25
ENDBRANCH  23  24
ENDBRANCH  22  23
ENDBRANCH  21  22
ENDBRANCH  20  21
ENDBRANCH  14  20
BRANCH  17  43
ATOM     43  O47 ZIN A   1      15.203  -7.926   8.091  0.00  0.00    -0.386 OA
ATOM     44  H98 ZIN A   1      15.333  -7.980   9.048  0.00  0.00     0.210 HD
ENDBRANCH  17  43
BRANCH  10  45
ATOM     45  O14 ZIN A   1      21.118  -4.220   6.952  0.00  0.00    -0.358 OA
ATOM     46  H62 ZIN A   1      21.740  -4.960   6.911  0.00  0.00     0.217 HD
ENDBRANCH  10  45
BRANCH   1  47
ATOM     47  C3  ZIN A   1      14.946  -7.748   3.973  0.00  0.00     0.262 C 
BRANCH  47  48
ATOM     48  C2  ZIN A   1      15.957  -8.205   2.953  0.00  0.00    -0.010 C 
ATOM     49  C1  ZIN A   1      15.697  -8.089   1.675  0.00  0.00     0.008 C 
ENDBRANCH  47  48
ENDBRANCH   1  47
TORSDOF 26
ENDMDL
MODEL 9
REMARK VINA RESULT:      -5.4      3.121     10.933
REMARK  26 active torsions:
REMARK  status: ('A' for Active; 'I' for Inactive)
REMARK    1  A    between atoms: C2_2  and  C3_3 
REMARK    2  A    between atoms: C3_3  and  N4_4 
REMARK    3  A    between atoms: C13_13  and  O14_14 
REMARK    4  A    between atoms: C19_18  and  O21_19 
REMARK    5  A    between atoms: O21_19  and  C22_20 
REMARK    6  A    between atoms: C22_20  and  C23_21 
REMARK    7  A    between atoms: C23_21  and  O24_22 
REMARK    8  A    between atoms: O24_22  and  C25_23 
REMARK    9  A    between atoms: C25_23  and  C26_24 
REMARK   10  A    between atoms: C26_24  and  O27_25 
REMARK   11  A    between atoms: O27_25  and  C28_26 
REMARK   12  A    between atoms: C28_26  and  C29_27 
REMARK   13  A    between atoms: C29_27  and  O30_28 
REMARK   14  A    between atoms: O30_28  and  C31_29 
REMARK   15  A    between atoms: C31_29  and  C32_30 
REMARK   16  A    between atoms: C32_30  and  O33_31 
REMARK   17  A    between atoms: O33_31  and  C34_32 
REMARK   18  A    between atoms: C34_32  and  C35_33 
REMARK   19  A    between atoms: C35_33  and  O36_34 
REMARK   20  A    between atoms: O36_34  and  C37_35 
REMARK   21  A    between atoms: C37_35  and  C38_36 
REMARK   22  A    between atoms: C38_36  and  O39_37 
REMARK   23  A    between atoms: O39_37  and  C40_38 
REMARK   24  A    between atoms: C40_38  and  C41_39 
REMARK   25  A    between atoms: C41_39  and  O42_40 
REMARK   26  A    between atoms: C46_44  and  O47_45 
ROOT
ATOM      1  N4  ZIN A   1      15.452  -7.960   5.252  0.00  0.00    -0.060 N 
ATOM      2  H5  ZIN A   1      15.064  -8.741   5.758  0.00  0.00     0.280 HD
ATOM      3  C6  ZIN A   1      16.896  -8.157   5.100  0.00  0.00     0.237 C 
ATOM      4  C7  ZIN A   1      17.568  -8.255   6.475  0.00  0.00     0.048 C 
ATOM      5  C8  ZIN A   1      17.263  -6.966   7.241  0.00  0.00     0.054 C 
ATOM      6  C9  ZIN A   1      17.735  -5.789   6.422  0.00  0.00    -0.001 A 
ATOM      7  C10 ZIN A   1      17.022  -5.111   5.462  0.00  0.00    -0.046 A 
ATOM      8  C11 ZIN A   1      17.686  -4.066   4.841  0.00  0.00     0.011 A 
ATOM      9  C12 ZIN A   1      18.970  -3.725   5.234  0.00  0.00     0.040 A 
ATOM     10  C13 ZIN A   1      19.654  -4.376   6.259  0.00  0.00     0.099 A 
ATOM     11  C15 ZIN A   1      18.995  -5.438   6.888  0.00  0.00     0.110 A 
ATOM     12  O16 ZIN A   1      19.338  -6.218   7.936  0.00  0.00    -0.339 OA
ATOM     13  C17 ZIN A   1      18.118  -6.814   8.485  0.00  0.00     0.174 C 
ATOM     14  C19 ZIN A   1      17.584  -5.835   9.512  0.00  0.00     0.152 C 
ATOM     15  C44 ZIN A   1      16.079  -5.747   9.605  0.00  0.00     0.037 C 
ATOM     16  C45 ZIN A   1      15.440  -5.556   8.230  0.00  0.00     0.044 C 
ATOM     17  C46 ZIN A   1      15.759  -6.813   7.382  0.00  0.00     0.101 C 
ATOM     18  C48 ZIN A   1      15.161  -6.720   5.981  0.00  0.00     0.228 C 
ATOM     19  C50 ZIN A   1      15.610  -5.511   5.181  0.00  0.00     0.075 C 
ENDROOT
BRANCH  14  20
ATOM     20  O21 ZIN A   1      18.086  -4.535   9.194  0.00  0.00    -0.381 OA
BRANCH  20  21
ATOM     21  C22 ZIN A   1      18.287  -3.697  10.334  0.00  0.00     0.194 C 
BRANCH  21  22
ATOM     22  C23 ZIN A   1      18.758  -2.315   9.874  0.00  0.00     0.193 C 
BRANCH  22  23
ATOM     23  O24 ZIN A   1      18.939  -1.471  11.011  0.00  0.00    -0.387 OA
BRANCH  23  24
ATOM     24  C25 ZIN A   1      20.286  -1.034  11.202  0.00  0.00     0.193 C 
BRANCH  24  25
ATOM     25  C26 ZIN A   1      20.288   0.326  11.902  0.00  0.00     0.193 C 
BRANCH  25  26
ATOM     26  O27 ZIN A   1      19.181   0.399  12.804  0.00  0.00    -0.387 OA
BRANCH  26  27
ATOM     27  C28 ZIN A   1      19.554   0.371  14.184  0.00  0.00     0.193 C 
BRANCH  27  28
ATOM     28  C29 ZIN A   1      19.206  -0.996  14.778  0.00  0.00     0.193 C 
BRANCH  28  29
ATOM     29  O30 ZIN A   1      17.873  -0.965  15.294  0.00  0.00    -0.387 OA
BRANCH  29  30
ATOM     30  C31 ZIN A   1      17.789  -0.564  16.663  0.00  0.00     0.193 C 
BRANCH  30  31
ATOM     31  C32 ZIN A   1      19.144  -0.777  17.341  0.00  0.00     0.193 C 
BRANCH  31  32
ATOM     32  O33 ZIN A   1      19.398   0.300  18.246  0.00  0.00    -0.387 OA
BRANCH  32  33
ATOM     33  C34 ZIN A   1      18.340   1.258  18.320  0.00  0.00     0.193 C 
BRANCH  33  34
ATOM     34  C35 ZIN A   1      18.918   2.630  18.675  0.00  0.00     0.193 C 
BRANCH  34  35
ATOM     35  O36 ZIN A   1      19.730   3.099  17.597  0.00  0.00    -0.387 OA
BRANCH  35  36
ATOM     36  C37 ZIN A   1      19.132   4.146  16.830  0.00  0.00     0.193 C 
BRANCH  36  37
ATOM     37  C38 ZIN A   1      19.341   3.870  15.340  0.00  0.00     0.193 C 
BRANCH  37  38
ATOM     38  O39 ZIN A   1      19.186   5.086  14.605  0.00  0.00    -0.387 OA
BRANCH  38  39
ATOM     39  C40 ZIN A   1      18.601   4.912  13.313  0.00  0.00     0.193 C 
BRANCH  39  40
ATOM     40  C41 ZIN A   1      19.659   4.389  12.339  0.00  0.00     0.193 C 
BRANCH  40  41
ATOM     41  O42 ZIN A   1      19.016   3.740  11.241  0.00  0.00    -0.394 OA
ATOM     42  C43 ZIN A   1      17.676   3.322  11.515  0.00  0.00     0.201 C 
ENDBRANCH  40  41
ENDBRANCH  39  40
ENDBRANCH  38  39
ENDBRANCH  37  38
ENDBRANCH  36  37
ENDBRANCH  35  36
ENDBRANCH  34  35
ENDBRANCH  33  34
ENDBRANCH  32  33
ENDBRANCH  31  32
ENDBRANCH  30  31
ENDBRANCH  29  30
ENDBRANCH  28  29
ENDBRANCH  27  28
ENDBRANCH  26  27
ENDBRANCH  25  26
ENDBRANCH  24  25
ENDBRANCH  23  24
ENDBRANCH  22  23
ENDBRANCH  21  22
ENDBRANCH  20  21
ENDBRANCH  14  20
BRANCH  17  43
ATOM     43  O47 ZIN A   1      15.224  -7.968   8.031  0.00  0.00    -0.386 OA
ATOM     44  H98 ZIN A   1      15.112  -7.867   8.986  0.00  0.00     0.210 HD
ENDBRANCH  17  43
BRANCH  10  45
ATOM     45  O14 ZIN A   1      20.904  -3.994   6.633  0.00  0.00    -0.358 OA
ATOM     46  H62 ZIN A   1      20.932  -3.489   7.458  0.00  0.00     0.217 HD
ENDBRANCH  10  45
BRANCH   1  47
ATOM     47  C3  ZIN A   1      14.833  -7.893   3.920  0.00  0.00     0.262 C 
BRANCH  47  48
ATOM     48  C2  ZIN A   1      13.478  -8.549   3.963  0.00  0.00    -0.010 C 
ATOM     49  C1  ZIN A   1      12.697  -8.510   2.911  0.00  0.00     0.008 C 
ENDBRANCH  47  48
ENDBRANCH   1  47
TORSDOF 26
ENDMDL
