MODEL 1
REMARK VINA RESULT:      -4.6      0.000      0.000
REMARK  4 active torsions:
REMARK  status: ('A' for Active; 'I' for Inactive)
REMARK    1  A    between atoms: N1_1  and  C5_5 
REMARK    2  A    between atoms: C5_5  and  C7_6 
REMARK    3  A    between atoms: C5_5  and  C14_13 
REMARK    4  A    between atoms: C7_6  and  C8_7 
ROOT
ATOM      1  C5  <0> d   1      18.404  -0.302   6.257  0.00  0.00     0.289 C 
ENDROOT
BRANCH   1   2
ATOM      2  N1  <0> d   1      16.937  -0.369   6.266  0.00  0.00    -0.065 N 
ATOM      3  H2  <0> d   1      16.585  -0.184   5.339  0.00  0.00     0.275 HD
ATOM      4  H3  <0> d   1      16.572   0.320   6.908  0.00  0.00     0.275 HD
ATOM      5  H4  <0> d   1      16.644  -1.289   6.559  0.00  0.00     0.275 HD
ENDBRANCH   1   2
BRANCH   1   6
ATOM      6  C7  <0> d   1      18.970  -1.392   7.171  0.00  0.00     0.102 C 
BRANCH   6   7
ATOM      7  C8  <0> d   1      19.476  -0.766   8.445  0.00  0.00     0.028 A 
ATOM      8  N13 <0> d   1      19.972  -1.425   9.537  0.00  0.00    -0.355 N 
ATOM      9  C12 <0> d   1      20.313  -0.489  10.448  0.00  0.00     0.180 A 
ATOM     10  H21 <0> d   1      20.068  -2.386   9.635  0.00  0.00     0.166 HD
ATOM     11  N10 <0> d   1      20.037   0.690   9.960  0.00  0.00    -0.360 N 
ATOM     12  C9  <0> d   1      19.522   0.550   8.730  0.00  0.00     0.114 A 
ATOM     13  H11 <0> d   1      20.182   1.533  10.415  0.00  0.00     0.166 HD
ENDBRANCH   6   7
ENDBRANCH   1   6
BRANCH   1  14
ATOM     14  C14 <0> d   1      18.907  -0.514   4.852  0.00  0.00     0.204 C 
ATOM     15  O15 <0> d   1      18.213  -0.199   3.902  0.00  0.00    -0.646 OA
ATOM     16  O16 <0> d   1      20.010  -0.999   4.667  0.00  0.00    -0.646 OA
ENDBRANCH   1  14
TORSDOF 4
ENDMDL
MODEL 2
REMARK VINA RESULT:      -4.6      4.160      5.901
REMARK  4 active torsions:
REMARK  status: ('A' for Active; 'I' for Inactive)
REMARK    1  A    between atoms: N1_1  and  C5_5 
REMARK    2  A    between atoms: C5_5  and  C7_6 
REMARK    3  A    between atoms: C5_5  and  C14_13 
REMARK    4  A    between atoms: C7_6  and  C8_7 
ROOT
ATOM      1  C5  <0> d   1      20.250   0.203  11.875  0.00  0.00     0.289 C 
ENDROOT
BRANCH   1   2
ATOM      2  N1  <0> d   1      21.616   0.651  12.170  0.00  0.00    -0.065 N 
ATOM      3  H2  <0> d   1      21.649   1.045  13.099  0.00  0.00     0.275 HD
ATOM      4  H3  <0> d   1      21.894   1.352  11.498  0.00  0.00     0.275 HD
ATOM      5  H4  <0> d   1      22.248  -0.134  12.116  0.00  0.00     0.275 HD
ENDBRANCH   1   2
BRANCH   1   6
ATOM      6  C7  <0> d   1      20.277  -0.772  10.695  0.00  0.00     0.102 C 
BRANCH   6   7
ATOM      7  C8  <0> d   1      19.818  -0.063   9.448  0.00  0.00     0.028 A 
ATOM      8  N13 <0> d   1      19.810   1.289   9.233  0.00  0.00    -0.355 N 
ATOM      9  C12 <0> d   1      19.327   1.494   7.989  0.00  0.00     0.180 A 
ATOM     10  H21 <0> d   1      20.103   1.972   9.857  0.00  0.00     0.166 HD
ATOM     11  N10 <0> d   1      19.039   0.338   7.456  0.00  0.00    -0.360 N 
ATOM     12  C9  <0> d   1      19.331  -0.637   8.330  0.00  0.00     0.114 A 
ATOM     13  H11 <0> d   1      18.673   0.204   6.569  0.00  0.00     0.166 HD
ENDBRANCH   6   7
ENDBRANCH   1   6
BRANCH   1  14
ATOM     14  C14 <0> d   1      19.676  -0.489  13.085  0.00  0.00     0.204 C 
ATOM     15  O15 <0> d   1      19.755   0.036  14.182  0.00  0.00    -0.646 OA
ATOM     16  O16 <0> d   1      19.132  -1.574  12.966  0.00  0.00    -0.646 OA
ENDBRANCH   1  14
TORSDOF 4
ENDMDL
MODEL 3
REMARK VINA RESULT:      -4.6      7.773      9.600
REMARK  4 active torsions:
REMARK  status: ('A' for Active; 'I' for Inactive)
REMARK    1  A    between atoms: N1_1  and  C5_5 
REMARK    2  A    between atoms: C5_5  and  C7_6 
REMARK    3  A    between atoms: C5_5  and  C14_13 
REMARK    4  A    between atoms: C7_6  and  C8_7 
ROOT
ATOM      1  C5  <0> d   1      18.421   0.275  16.739  0.00  0.00     0.289 C 
ENDROOT
BRANCH   1   2
ATOM      2  N1  <0> d   1      16.953   0.294  16.753  0.00  0.00    -0.065 N 
ATOM      3  H2  <0> d   1      16.618  -0.094  17.622  0.00  0.00     0.275 HD
ATOM      4  H3  <0> d   1      16.601  -0.256  15.983  0.00  0.00     0.275 HD
ATOM      5  H4  <0> d   1      16.627   1.245  16.662  0.00  0.00     0.275 HD
ENDBRANCH   1   2
BRANCH   1   6
ATOM      6  C7  <0> d   1      18.936   1.373  15.805  0.00  0.00     0.102 C 
BRANCH   6   7
ATOM      7  C8  <0> d   1      19.468   0.748  14.542  0.00  0.00     0.028 A 
ATOM      8  N13 <0> d   1      19.980   1.409  13.457  0.00  0.00    -0.355 N 
ATOM      9  C12 <0> d   1      20.342   0.473  12.554  0.00  0.00     0.180 A 
ATOM     10  H21 <0> d   1      20.072   2.370  13.360  0.00  0.00     0.166 HD
ATOM     11  N10 <0> d   1      20.064  -0.706  13.038  0.00  0.00    -0.360 N 
ATOM     12  C9  <0> d   1      19.526  -0.567  14.259  0.00  0.00     0.114 A 
ATOM     13  H11 <0> d   1      20.221  -1.549  12.587  0.00  0.00     0.166 HD
ENDBRANCH   6   7
ENDBRANCH   1   6
BRANCH   1  14
ATOM     14  C14 <0> d   1      18.939   0.518  18.134  0.00  0.00     0.204 C 
ATOM     15  O15 <0> d   1      18.429  -0.052  19.082  0.00  0.00    -0.646 OA
ATOM     16  O16 <0> d   1      19.869   1.286  18.313  0.00  0.00    -0.646 OA
ENDBRANCH   1  14
TORSDOF 4
ENDMDL
MODEL 4
REMARK VINA RESULT:      -4.5      4.739      5.603
REMARK  4 active torsions:
REMARK  status: ('A' for Active; 'I' for Inactive)
REMARK    1  A    between atoms: N1_1  and  C5_5 
REMARK    2  A    between atoms: C5_5  and  C7_6 
REMARK    3  A    between atoms: C5_5  and  C14_13 
REMARK    4  A    between atoms: C7_6  and  C8_7 
ROOT
ATOM      1  C5  <0> d   1      20.328  -0.019  11.502  0.00  0.00     0.289 C 
ENDROOT
BRANCH   1   2
ATOM      2  N1  <0> d   1      21.517   0.574  12.128  0.00  0.00    -0.065 N 
ATOM      3  H2  <0> d   1      21.838   1.353  11.572  0.00  0.00     0.275 HD
ATOM      4  H3  <0> d   1      22.248  -0.120  12.187  0.00  0.00     0.275 HD
ATOM      5  H4  <0> d   1      21.284   0.897  13.055  0.00  0.00     0.275 HD
ENDBRANCH   1   2
BRANCH   1   6
ATOM      6  C7  <0> d   1      19.579  -0.867  12.532  0.00  0.00     0.102 C 
BRANCH   6   7
ATOM      7  C8  <0> d   1      19.504  -2.292  12.050  0.00  0.00     0.028 A 
ATOM      8  N13 <0> d   1      20.529  -3.031  11.521  0.00  0.00    -0.355 N 
ATOM      9  C12 <0> d   1      20.032  -4.250  11.225  0.00  0.00     0.180 A 
ATOM     10  H21 <0> d   1      21.444  -2.734  11.391  0.00  0.00     0.166 HD
ATOM     11  N10 <0> d   1      18.766  -4.274  11.540  0.00  0.00    -0.360 N 
ATOM     12  C9  <0> d   1      18.414  -3.084  12.049  0.00  0.00     0.114 A 
ATOM     13  H11 <0> d   1      18.173  -5.032  11.425  0.00  0.00     0.166 HD
ENDBRANCH   6   7
ENDBRANCH   1   6
BRANCH   1  14
ATOM     14  C14 <0> d   1      19.424   1.079  11.003  0.00  0.00     0.204 C 
ATOM     15  O15 <0> d   1      18.379   0.800  10.442  0.00  0.00    -0.646 OA
ATOM     16  O16 <0> d   1      19.738   2.247  11.161  0.00  0.00    -0.646 OA
ENDBRANCH   1  14
TORSDOF 4
ENDMDL
MODEL 5
REMARK VINA RESULT:      -4.5      1.514      2.050
REMARK  4 active torsions:
REMARK  status: ('A' for Active; 'I' for Inactive)
REMARK    1  A    between atoms: N1_1  and  C5_5 
REMARK    2  A    between atoms: C5_5  and  C7_6 
REMARK    3  A    between atoms: C5_5  and  C14_13 
REMARK    4  A    between atoms: C7_6  and  C8_7 
ROOT
ATOM      1  C5  <0> d   1      18.636  -0.402   6.463  0.00  0.00     0.289 C 
ENDROOT
BRANCH   1   2
ATOM      2  N1  <0> d   1      17.200  -0.627   6.251  0.00  0.00    -0.065 N 
ATOM      3  H2  <0> d   1      16.672   0.072   6.752  0.00  0.00     0.275 HD
ATOM      4  H3  <0> d   1      16.949  -1.544   6.590  0.00  0.00     0.275 HD
ATOM      5  H4  <0> d   1      16.992  -0.565   5.266  0.00  0.00     0.275 HD
ENDBRANCH   1   2
BRANCH   1   6
ATOM      6  C7  <0> d   1      18.992  -0.718   7.918  0.00  0.00     0.102 C 
BRANCH   6   7
ATOM      7  C8  <0> d   1      18.796   0.514   8.762  0.00  0.00     0.028 A 
ATOM      8  N13 <0> d   1      19.642   1.587   8.849  0.00  0.00    -0.355 N 
ATOM      9  C12 <0> d   1      19.086   2.466   9.710  0.00  0.00     0.180 A 
ATOM     10  H21 <0> d   1      20.481   1.698   8.375  0.00  0.00     0.166 HD
ATOM     11  N10 <0> d   1      17.960   1.970  10.146  0.00  0.00    -0.360 N 
ATOM     12  C9  <0> d   1      17.757   0.771   9.580  0.00  0.00     0.114 A 
ATOM     13  H11 <0> d   1      17.366   2.400  10.780  0.00  0.00     0.166 HD
ENDBRANCH   6   7
ENDBRANCH   1   6
BRANCH   1  14
ATOM     14  C14 <0> d   1      19.426  -1.301   5.547  0.00  0.00     0.204 C 
ATOM     15  O15 <0> d   1      19.643  -2.457   5.865  0.00  0.00    -0.646 OA
ATOM     16  O16 <0> d   1      19.846  -0.871   4.486  0.00  0.00    -0.646 OA
ENDBRANCH   1  14
TORSDOF 4
ENDMDL
MODEL 6
REMARK VINA RESULT:      -4.3      3.818      5.249
REMARK  4 active torsions:
REMARK  status: ('A' for Active; 'I' for Inactive)
REMARK    1  A    between atoms: N1_1  and  C5_5 
REMARK    2  A    between atoms: C5_5  and  C7_6 
REMARK    3  A    between atoms: C5_5  and  C14_13 
REMARK    4  A    between atoms: C7_6  and  C8_7 
ROOT
ATOM      1  C5  <0> d   1      18.915   2.367  10.047  0.00  0.00     0.289 C 
ENDROOT
BRANCH   1   2
ATOM      2  N1  <0> d   1      20.031   2.783  10.907  0.00  0.00    -0.065 N 
ATOM      3  H2  <0> d   1      20.096   2.160  11.698  0.00  0.00     0.275 HD
ATOM      4  H3  <0> d   1      19.872   3.725  11.233  0.00  0.00     0.275 HD
ATOM      5  H4  <0> d   1      20.892   2.750  10.381  0.00  0.00     0.275 HD
ENDBRANCH   1   2
BRANCH   1   6
ATOM      6  C7  <0> d   1      19.090   0.896   9.661  0.00  0.00     0.102 C 
BRANCH   6   7
ATOM      7  C8  <0> d   1      18.528   0.669   8.282  0.00  0.00     0.028 A 
ATOM      8  N13 <0> d   1      17.439  -0.095   7.959  0.00  0.00    -0.355 N 
ATOM      9  C12 <0> d   1      17.281  -0.022   6.621  0.00  0.00     0.180 A 
ATOM     10  H21 <0> d   1      16.880  -0.590   8.580  0.00  0.00     0.166 HD
ATOM     11  N10 <0> d   1      18.223   0.735   6.129  0.00  0.00    -0.360 N 
ATOM     12  C9  <0> d   1      19.004   1.174   7.127  0.00  0.00     0.114 A 
ATOM     13  H11 <0> d   1      18.340   0.947   5.190  0.00  0.00     0.166 HD
ENDBRANCH   6   7
ENDBRANCH   1   6
BRANCH   1  14
ATOM     14  C14 <0> d   1      17.616   2.539  10.792  0.00  0.00     0.204 C 
ATOM     15  O15 <0> d   1      17.052   3.619  10.792  0.00  0.00    -0.646 OA
ATOM     16  O16 <0> d   1      17.129   1.597  11.393  0.00  0.00    -0.646 OA
ENDBRANCH   1  14
TORSDOF 4
ENDMDL
MODEL 7
REMARK VINA RESULT:      -4.3      4.607      6.187
REMARK  4 active torsions:
REMARK  status: ('A' for Active; 'I' for Inactive)
REMARK    1  A    between atoms: N1_1  and  C5_5 
REMARK    2  A    between atoms: C5_5  and  C7_6 
REMARK    3  A    between atoms: C5_5  and  C14_13 
REMARK    4  A    between atoms: C7_6  and  C8_7 
ROOT
ATOM      1  C5  <0> d   1      20.269   0.015  12.127  0.00  0.00     0.289 C 
ENDROOT
BRANCH   1   2
ATOM      2  N1  <0> d   1      21.608   0.618  12.112  0.00  0.00    -0.065 N 
ATOM      3  H2  <0> d   1      21.525   1.622  12.064  0.00  0.00     0.275 HD
ATOM      4  H3  <0> d   1      22.118   0.284  11.308  0.00  0.00     0.275 HD
ATOM      5  H4  <0> d   1      22.103   0.362  12.954  0.00  0.00     0.275 HD
ENDBRANCH   1   2
BRANCH   1   6
ATOM      6  C7  <0> d   1      19.214   1.119  12.223  0.00  0.00     0.102 C 
BRANCH   6   7
ATOM      7  C8  <0> d   1      18.795   1.289  13.660  0.00  0.00     0.028 A 
ATOM      8  N13 <0> d   1      19.508   1.909  14.651  0.00  0.00    -0.355 N 
ATOM      9  C12 <0> d   1      18.769   1.841  15.778  0.00  0.00     0.180 A 
ATOM     10  H21 <0> d   1      20.380   2.325  14.558  0.00  0.00     0.166 HD
ATOM     11  N10 <0> d   1      17.660   1.207  15.514  0.00  0.00    -0.360 N 
ATOM     12  C9  <0> d   1      17.649   0.856  14.220  0.00  0.00     0.114 A 
ATOM     13  H11 <0> d   1      16.955   1.019  16.153  0.00  0.00     0.166 HD
ENDBRANCH   6   7
ENDBRANCH   1   6
BRANCH   1  14
ATOM     14  C14 <0> d   1      20.059  -0.772  10.859  0.00  0.00     0.204 C 
ATOM     15  O15 <0> d   1      19.571  -1.888  10.908  0.00  0.00    -0.646 OA
ATOM     16  O16 <0> d   1      20.376  -0.292   9.784  0.00  0.00    -0.646 OA
ENDBRANCH   1  14
TORSDOF 4
ENDMDL
MODEL 8
REMARK VINA RESULT:      -4.3      4.571      5.590
REMARK  4 active torsions:
REMARK  status: ('A' for Active; 'I' for Inactive)
REMARK    1  A    between atoms: N1_1  and  C5_5 
REMARK    2  A    between atoms: C5_5  and  C7_6 
REMARK    3  A    between atoms: C5_5  and  C14_13 
REMARK    4  A    between atoms: C7_6  and  C8_7 
ROOT
ATOM      1  C5  <0> d   1      20.255  -0.099  11.438  0.00  0.00     0.289 C 
ENDROOT
BRANCH   1   2
ATOM      2  N1  <0> d   1      21.541  -0.602  10.941  0.00  0.00    -0.065 N 
ATOM      3  H2  <0> d   1      22.294  -0.179  11.463  0.00  0.00     0.275 HD
ATOM      4  H3  <0> d   1      21.638  -0.370   9.963  0.00  0.00     0.275 HD
ATOM      5  H4  <0> d   1      21.577  -1.605  11.053  0.00  0.00     0.275 HD
ENDBRANCH   1   2
BRANCH   1   6
ATOM      6  C7  <0> d   1      19.654   0.867  10.414  0.00  0.00     0.102 C 
BRANCH   6   7
ATOM      7  C8  <0> d   1      19.471   2.221  11.048  0.00  0.00     0.028 A 
ATOM      8  N13 <0> d   1      20.430   2.958  11.692  0.00  0.00    -0.355 N 
ATOM      9  C12 <0> d   1      19.845   4.103  12.103  0.00  0.00     0.180 A 
ATOM     10  H21 <0> d   1      21.358   2.706  11.822  0.00  0.00     0.166 HD
ATOM     11  N10 <0> d   1      18.590   4.084  11.746  0.00  0.00    -0.360 N 
ATOM     12  C9  <0> d   1      18.333   2.939  11.096  0.00  0.00     0.114 A 
ATOM     13  H11 <0> d   1      17.945   4.785  11.923  0.00  0.00     0.166 HD
ENDBRANCH   6   7
ENDBRANCH   1   6
BRANCH   1  14
ATOM     14  C14 <0> d   1      19.311  -1.255  11.651  0.00  0.00     0.204 C 
ATOM     15  O15 <0> d   1      18.248  -1.292  11.056  0.00  0.00    -0.646 OA
ATOM     16  O16 <0> d   1      19.612  -2.155  12.417  0.00  0.00    -0.646 OA
ENDBRANCH   1  14
TORSDOF 4
ENDMDL
MODEL 9
REMARK VINA RESULT:      -4.3      6.504      7.811
REMARK  4 active torsions:
REMARK  status: ('A' for Active; 'I' for Inactive)
REMARK    1  A    between atoms: N1_1  and  C5_5 
REMARK    2  A    between atoms: C5_5  and  C7_6 
REMARK    3  A    between atoms: C5_5  and  C14_13 
REMARK    4  A    between atoms: C7_6  and  C8_7 
ROOT
ATOM      1  C5  <0> d   1      19.344   3.522  12.272  0.00  0.00     0.289 C 
ENDROOT
BRANCH   1   2
ATOM      2  N1  <0> d   1      20.697   3.341  11.731  0.00  0.00    -0.065 N 
ATOM      3  H2  <0> d   1      20.643   3.175  10.737  0.00  0.00     0.275 HD
ATOM      4  H3  <0> d   1      21.136   2.551  12.180  0.00  0.00     0.275 HD
ATOM      5  H4  <0> d   1      21.243   4.172  11.903  0.00  0.00     0.275 HD
ENDBRANCH   1   2
BRANCH   1   6
ATOM      6  C7  <0> d   1      19.210   4.934  12.848  0.00  0.00     0.102 C 
BRANCH   6   7
ATOM      7  C8  <0> d   1      19.648   4.932  14.289  0.00  0.00     0.028 A 
ATOM      8  N13 <0> d   1      19.482   3.915  15.192  0.00  0.00    -0.355 N 
ATOM      9  C12 <0> d   1      20.019   4.325  16.360  0.00  0.00     0.180 A 
ATOM     10  H21 <0> d   1      19.062   3.057  15.020  0.00  0.00     0.166 HD
ATOM     11  N10 <0> d   1      20.488   5.534  16.204  0.00  0.00    -0.360 N 
ATOM     12  C9  <0> d   1      20.273   5.931  14.941  0.00  0.00     0.114 A 
ATOM     13  H11 <0> d   1      20.921   6.061  16.892  0.00  0.00     0.166 HD
ENDBRANCH   6   7
ENDBRANCH   1   6
BRANCH   1  14
ATOM     14  C14 <0> d   1      18.333   3.331  11.171  0.00  0.00     0.204 C 
ATOM     15  O15 <0> d   1      17.142   3.373  11.423  0.00  0.00    -0.646 OA
ATOM     16  O16 <0> d   1      18.707   3.136  10.027  0.00  0.00    -0.646 OA
ENDBRANCH   1  14
TORSDOF 4
ENDMDL
