MODEL 1
REMARK VINA RESULT:      -5.4      0.000      0.000
REMARK  6 active torsions:
REMARK  status: ('A' for Active; 'I' for Inactive)
REMARK    1  A    between atoms: C2_2  and  O3_3 
REMARK    2  A    between atoms: C2_2  and  C7_7 
REMARK    3  A    between atoms: O3_3  and  C4_4 
REMARK    4  A    between atoms: C4_4  and  C5_5 
REMARK    5  A    between atoms: C5_5  and  O6_6 
REMARK    6  A    between atoms: C12_12  and  O13_13 
ROOT
ATOM      1  C7  <0> d   1      18.689   3.033  10.578  0.00  0.00     0.072 A 
ATOM      2  C8  <0> d   1      17.503   3.768  10.511  0.00  0.00     0.020 A 
ATOM      3  C9  <0> d   1      17.266   4.775  11.420  0.00  0.00     0.001 A 
ATOM      4  C10 <0> d   1      18.200   5.064  12.402  0.00  0.00     0.003 A 
ATOM      5  C11 <0> d   1      19.376   4.347  12.480  0.00  0.00     0.037 A 
ATOM      6  C12 <0> d   1      19.629   3.325  11.577  0.00  0.00     0.082 A 
ENDROOT
BRANCH   1   7
ATOM      7  C2  <0> d   1      18.950   1.953   9.609  0.00  0.00     0.296 C 
ATOM      8  O1  <0> d   1      19.230   2.225   8.458  0.00  0.00    -0.259 OA
BRANCH   7   9
ATOM      9  O3  <0> d   1      18.882   0.666  10.001  0.00  0.00    -0.315 OA
BRANCH   9  10
ATOM     10  C4  <0> d   1      19.999  -0.191   9.640  0.00  0.00     0.205 C 
BRANCH  10  11
ATOM     11  C5  <0> d   1      20.544  -0.872  10.897  0.00  0.00     0.191 C 
BRANCH  11  12
ATOM     12  O6  <0> d   1      21.570  -0.061  11.472  0.00  0.00    -0.399 OA
ATOM     13  H18 <0> d   1      21.984  -0.447  12.256  0.00  0.00     0.209 HD
ENDBRANCH  11  12
ENDBRANCH  10  11
ENDBRANCH   9  10
ENDBRANCH   7   9
ENDBRANCH   1   7
BRANCH   6  14
ATOM     14  O13 <0> d   1      20.785   2.619  11.654  0.00  0.00    -0.360 OA
ATOM     15  H23 <0> d   1      21.565   3.110  11.363  0.00  0.00     0.217 HD
ENDBRANCH   6  14
TORSDOF 6
ENDMDL
MODEL 2
REMARK VINA RESULT:      -5.4      2.714      3.908
REMARK  6 active torsions:
REMARK  status: ('A' for Active; 'I' for Inactive)
REMARK    1  A    between atoms: C2_2  and  O3_3 
REMARK    2  A    between atoms: C2_2  and  C7_7 
REMARK    3  A    between atoms: O3_3  and  C4_4 
REMARK    4  A    between atoms: C4_4  and  C5_5 
REMARK    5  A    between atoms: C5_5  and  O6_6 
REMARK    6  A    between atoms: C12_12  and  O13_13 
ROOT
ATOM      1  C7  <0> d   1      17.988   0.741   9.468  0.00  0.00     0.072 A 
ATOM      2  C8  <0> d   1      17.265  -0.123   8.641  0.00  0.00     0.020 A 
ATOM      3  C9  <0> d   1      17.506  -0.137   7.285  0.00  0.00     0.001 A 
ATOM      4  C10 <0> d   1      18.463   0.701   6.736  0.00  0.00     0.003 A 
ATOM      5  C11 <0> d   1      19.185   1.559   7.542  0.00  0.00     0.037 A 
ATOM      6  C12 <0> d   1      18.951   1.592   8.908  0.00  0.00     0.082 A 
ENDROOT
BRANCH   1   7
ATOM      7  C2  <0> d   1      17.734   0.762  10.921  0.00  0.00     0.296 C 
ATOM      8  O1  <0> d   1      17.141   1.698  11.420  0.00  0.00    -0.259 OA
BRANCH   7   9
ATOM      9  O3  <0> d   1      18.155  -0.259  11.692  0.00  0.00    -0.315 OA
BRANCH   9  10
ATOM     10  C4  <0> d   1      19.580  -0.544  11.689  0.00  0.00     0.205 C 
BRANCH  10  11
ATOM     11  C5  <0> d   1      20.300   0.452  12.601  0.00  0.00     0.191 C 
BRANCH  11  12
ATOM     12  O6  <0> d   1      21.644   0.626  12.149  0.00  0.00    -0.399 OA
ATOM     13  H18 <0> d   1      21.875   0.085  11.381  0.00  0.00     0.209 HD
ENDBRANCH  11  12
ENDBRANCH  10  11
ENDBRANCH   9  10
ENDBRANCH   7   9
ENDBRANCH   1   7
BRANCH   6  14
ATOM     14  O13 <0> d   1      19.659   2.434   9.700  0.00  0.00    -0.360 OA
ATOM     15  H23 <0> d   1      20.382   2.008  10.181  0.00  0.00     0.217 HD
ENDBRANCH   6  14
TORSDOF 6
ENDMDL
MODEL 3
REMARK VINA RESULT:      -5.3      2.182      4.015
REMARK  6 active torsions:
REMARK  status: ('A' for Active; 'I' for Inactive)
REMARK    1  A    between atoms: C2_2  and  O3_3 
REMARK    2  A    between atoms: C2_2  and  C7_7 
REMARK    3  A    between atoms: O3_3  and  C4_4 
REMARK    4  A    between atoms: C4_4  and  C5_5 
REMARK    5  A    between atoms: C5_5  and  O6_6 
REMARK    6  A    between atoms: C12_12  and  O13_13 
ROOT
ATOM      1  C7  <0> d   1      18.248   1.662   9.902  0.00  0.00     0.072 A 
ATOM      2  C8  <0> d   1      19.100   2.057   8.868  0.00  0.00     0.020 A 
ATOM      3  C9  <0> d   1      19.070   1.392   7.661  0.00  0.00     0.001 A 
ATOM      4  C10 <0> d   1      18.199   0.333   7.469  0.00  0.00     0.003 A 
ATOM      5  C11 <0> d   1      17.352  -0.069   8.482  0.00  0.00     0.037 A 
ATOM      6  C12 <0> d   1      17.372   0.585   9.705  0.00  0.00     0.082 A 
ENDROOT
BRANCH   1   7
ATOM      7  C2  <0> d   1      18.275   2.368  11.196  0.00  0.00     0.296 C 
ATOM      8  O1  <0> d   1      17.292   2.972  11.579  0.00  0.00    -0.259 OA
BRANCH   7   9
ATOM      9  O3  <0> d   1      19.386   2.339  11.957  0.00  0.00    -0.315 OA
BRANCH   9  10
ATOM     10  C4  <0> d   1      19.450   1.319  12.990  0.00  0.00     0.205 C 
BRANCH  10  11
ATOM     11  C5  <0> d   1      20.372   0.187  12.532  0.00  0.00     0.191 C 
BRANCH  11  12
ATOM     12  O6  <0> d   1      21.644   0.726  12.167  0.00  0.00    -0.399 OA
ATOM     13  H18 <0> d   1      22.227   0.902  12.918  0.00  0.00     0.209 HD
ENDBRANCH  11  12
ENDBRANCH  10  11
ENDBRANCH   9  10
ENDBRANCH   7   9
ENDBRANCH   1   7
BRANCH   6  14
ATOM     14  O13 <0> d   1      16.541   0.191  10.701  0.00  0.00    -0.360 OA
ATOM     15  H23 <0> d   1      16.997  -0.091  11.506  0.00  0.00     0.217 HD
ENDBRANCH   6  14
TORSDOF 6
ENDMDL
MODEL 4
REMARK VINA RESULT:      -5.2      2.938      4.085
REMARK  6 active torsions:
REMARK  status: ('A' for Active; 'I' for Inactive)
REMARK    1  A    between atoms: C2_2  and  O3_3 
REMARK    2  A    between atoms: C2_2  and  C7_7 
REMARK    3  A    between atoms: O3_3  and  C4_4 
REMARK    4  A    between atoms: C4_4  and  C5_5 
REMARK    5  A    between atoms: C5_5  and  O6_6 
REMARK    6  A    between atoms: C12_12  and  O13_13 
ROOT
ATOM      1  C7  <0> d   1      17.643   0.432   9.967  0.00  0.00     0.072 A 
ATOM      2  C8  <0> d   1      18.140   1.698  10.285  0.00  0.00     0.020 A 
ATOM      3  C9  <0> d   1      18.856   2.410   9.347  0.00  0.00     0.001 A 
ATOM      4  C10 <0> d   1      19.084   1.877   8.089  0.00  0.00     0.003 A 
ATOM      5  C11 <0> d   1      18.599   0.627   7.762  0.00  0.00     0.037 A 
ATOM      6  C12 <0> d   1      17.881  -0.107   8.694  0.00  0.00     0.082 A 
ENDROOT
BRANCH   1   7
ATOM      7  C2  <0> d   1      16.876  -0.337  10.965  0.00  0.00     0.296 C 
ATOM      8  O1  <0> d   1      15.927   0.174  11.526  0.00  0.00    -0.259 OA
BRANCH   7   9
ATOM      9  O3  <0> d   1      17.225  -1.606  11.250  0.00  0.00    -0.315 OA
BRANCH   9  10
ATOM     10  C4  <0> d   1      18.429  -1.798  12.040  0.00  0.00     0.205 C 
BRANCH  10  11
ATOM     11  C5  <0> d   1      19.463  -2.564  11.214  0.00  0.00     0.191 C 
BRANCH  11  12
ATOM     12  O6  <0> d   1      20.665  -1.796  11.122  0.00  0.00    -0.399 OA
ATOM     13  H18 <0> d   1      21.007  -1.498  11.976  0.00  0.00     0.209 HD
ENDBRANCH  11  12
ENDBRANCH  10  11
ENDBRANCH   9  10
ENDBRANCH   7   9
ENDBRANCH   1   7
BRANCH   6  14
ATOM     14  O13 <0> d   1      17.404  -1.335   8.374  0.00  0.00    -0.360 OA
ATOM     15  H23 <0> d   1      16.439  -1.389   8.353  0.00  0.00     0.217 HD
ENDBRANCH   6  14
TORSDOF 6
ENDMDL
MODEL 5
REMARK VINA RESULT:      -5.0      4.166      5.047
REMARK  6 active torsions:
REMARK  status: ('A' for Active; 'I' for Inactive)
REMARK    1  A    between atoms: C2_2  and  O3_3 
REMARK    2  A    between atoms: C2_2  and  C7_7 
REMARK    3  A    between atoms: O3_3  and  C4_4 
REMARK    4  A    between atoms: C4_4  and  C5_5 
REMARK    5  A    between atoms: C5_5  and  O6_6 
REMARK    6  A    between atoms: C12_12  and  O13_13 
ROOT
ATOM      1  C7  <0> d   1      18.138  -0.231  14.468  0.00  0.00     0.072 A 
ATOM      2  C8  <0> d   1      18.558  -1.453  15.000  0.00  0.00     0.020 A 
ATOM      3  C9  <0> d   1      18.806  -1.565  16.351  0.00  0.00     0.001 A 
ATOM      4  C10 <0> d   1      18.639  -0.471  17.184  0.00  0.00     0.003 A 
ATOM      5  C11 <0> d   1      18.224   0.741  16.672  0.00  0.00     0.037 A 
ATOM      6  C12 <0> d   1      17.976   0.875  15.314  0.00  0.00     0.082 A 
ENDROOT
BRANCH   1   7
ATOM      7  C2  <0> d   1      17.871  -0.104  13.023  0.00  0.00     0.296 C 
ATOM      8  O1  <0> d   1      17.039  -0.814  12.494  0.00  0.00    -0.259 OA
BRANCH   7   9
ATOM      9  O3  <0> d   1      18.546   0.804  12.291  0.00  0.00    -0.315 OA
BRANCH   9  10
ATOM     10  C4  <0> d   1      19.983   0.619  12.175  0.00  0.00     0.205 C 
BRANCH  10  11
ATOM     11  C5  <0> d   1      20.277  -0.408  11.080  0.00  0.00     0.191 C 
BRANCH  11  12
ATOM     12  O6  <0> d   1      21.689  -0.595  10.968  0.00  0.00    -0.399 OA
ATOM     13  H18 <0> d   1      22.212   0.152  11.292  0.00  0.00     0.209 HD
ENDBRANCH  11  12
ENDBRANCH  10  11
ENDBRANCH   9  10
ENDBRANCH   7   9
ENDBRANCH   1   7
BRANCH   6  14
ATOM     14  O13 <0> d   1      17.569   2.066  14.810  0.00  0.00    -0.360 OA
ATOM     15  H23 <0> d   1      16.842   2.473  15.301  0.00  0.00     0.217 HD
ENDBRANCH   6  14
TORSDOF 6
ENDMDL
MODEL 6
REMARK VINA RESULT:      -5.0      2.558      3.759
REMARK  6 active torsions:
REMARK  status: ('A' for Active; 'I' for Inactive)
REMARK    1  A    between atoms: C2_2  and  O3_3 
REMARK    2  A    between atoms: C2_2  and  C7_7 
REMARK    3  A    between atoms: O3_3  and  C4_4 
REMARK    4  A    between atoms: C4_4  and  C5_5 
REMARK    5  A    between atoms: C5_5  and  O6_6 
REMARK    6  A    between atoms: C12_12  and  O13_13 
ROOT
ATOM      1  C7  <0> d   1      17.779   0.794  10.504  0.00  0.00     0.072 A 
ATOM      2  C8  <0> d   1      18.440   0.116   9.477  0.00  0.00     0.020 A 
ATOM      3  C9  <0> d   1      19.120   0.827   8.512  0.00  0.00     0.001 A 
ATOM      4  C10 <0> d   1      19.153   2.211   8.556  0.00  0.00     0.003 A 
ATOM      5  C11 <0> d   1      18.504   2.893   9.565  0.00  0.00     0.037 A 
ATOM      6  C12 <0> d   1      17.809   2.196  10.541  0.00  0.00     0.082 A 
ENDROOT
BRANCH   1   7
ATOM      7  C2  <0> d   1      17.048   0.041  11.540  0.00  0.00     0.296 C 
ATOM      8  O1  <0> d   1      15.834   0.073  11.571  0.00  0.00    -0.259 OA
BRANCH   7   9
ATOM      9  O3  <0> d   1      17.727  -0.688  12.447  0.00  0.00    -0.315 OA
BRANCH   9  10
ATOM     10  C4  <0> d   1      18.149  -0.005  13.658  0.00  0.00     0.205 C 
BRANCH  10  11
ATOM     11  C5  <0> d   1      19.649  -0.218  13.866  0.00  0.00     0.191 C 
BRANCH  11  12
ATOM     12  O6  <0> d   1      20.373   0.842  13.238  0.00  0.00    -0.399 OA
ATOM     13  H18 <0> d   1      19.811   1.508  12.819  0.00  0.00     0.209 HD
ENDBRANCH  11  12
ENDBRANCH  10  11
ENDBRANCH   9  10
ENDBRANCH   7   9
ENDBRANCH   1   7
BRANCH   6  14
ATOM     14  O13 <0> d   1      17.171   2.865  11.533  0.00  0.00    -0.360 OA
ATOM     15  H23 <0> d   1      17.365   2.533  12.420  0.00  0.00     0.217 HD
ENDBRANCH   6  14
TORSDOF 6
ENDMDL
MODEL 7
REMARK VINA RESULT:      -4.9      3.676      4.945
REMARK  6 active torsions:
REMARK  status: ('A' for Active; 'I' for Inactive)
REMARK    1  A    between atoms: C2_2  and  O3_3 
REMARK    2  A    between atoms: C2_2  and  C7_7 
REMARK    3  A    between atoms: O3_3  and  C4_4 
REMARK    4  A    between atoms: C4_4  and  C5_5 
REMARK    5  A    between atoms: C5_5  and  O6_6 
REMARK    6  A    between atoms: C12_12  and  O13_13 
ROOT
ATOM      1  C7  <0> d   1      19.021  -1.293   7.983  0.00  0.00     0.072 A 
ATOM      2  C8  <0> d   1      18.297  -0.830   6.881  0.00  0.00     0.020 A 
ATOM      3  C9  <0> d   1      18.250   0.520   6.609  0.00  0.00     0.001 A 
ATOM      4  C10 <0> d   1      18.918   1.421   7.423  0.00  0.00     0.003 A 
ATOM      5  C11 <0> d   1      19.637   0.977   8.514  0.00  0.00     0.037 A 
ATOM      6  C12 <0> d   1      19.691  -0.378   8.807  0.00  0.00     0.082 A 
ENDROOT
BRANCH   1   7
ATOM      7  C2  <0> d   1      19.075  -2.737   8.281  0.00  0.00     0.296 C 
ATOM      8  O1  <0> d   1      19.435  -3.520   7.425  0.00  0.00    -0.259 OA
BRANCH   7   9
ATOM      9  O3  <0> d   1      18.733  -3.185   9.505  0.00  0.00    -0.315 OA
BRANCH   9  10
ATOM     10  C4  <0> d   1      19.402  -4.385   9.977  0.00  0.00     0.205 C 
BRANCH  10  11
ATOM     11  C5  <0> d   1      19.901  -4.160  11.406  0.00  0.00     0.191 C 
BRANCH  11  12
ATOM     12  O6  <0> d   1      20.990  -3.234  11.390  0.00  0.00    -0.399 OA
ATOM     13  H18 <0> d   1      21.588  -3.318  12.146  0.00  0.00     0.209 HD
ENDBRANCH  11  12
ENDBRANCH  10  11
ENDBRANCH   9  10
ENDBRANCH   7   9
ENDBRANCH   1   7
BRANCH   6  14
ATOM     14  O13 <0> d   1      20.397  -0.815   9.879  0.00  0.00    -0.360 OA
ATOM     15  H23 <0> d   1      20.998  -0.155  10.250  0.00  0.00     0.217 HD
ENDBRANCH   6  14
TORSDOF 6
ENDMDL
MODEL 8
REMARK VINA RESULT:      -4.9      3.211      5.226
REMARK  6 active torsions:
REMARK  status: ('A' for Active; 'I' for Inactive)
REMARK    1  A    between atoms: C2_2  and  O3_3 
REMARK    2  A    between atoms: C2_2  and  C7_7 
REMARK    3  A    between atoms: O3_3  and  C4_4 
REMARK    4  A    between atoms: C4_4  and  C5_5 
REMARK    5  A    between atoms: C5_5  and  O6_6 
REMARK    6  A    between atoms: C12_12  and  O13_13 
ROOT
ATOM      1  C7  <0> d   1      19.165  -0.613   7.691  0.00  0.00     0.072 A 
ATOM      2  C8  <0> d   1      19.234  -1.589   6.694  0.00  0.00     0.020 A 
ATOM      3  C9  <0> d   1      19.224  -1.218   5.367  0.00  0.00     0.001 A 
ATOM      4  C10 <0> d   1      19.145   0.120   5.017  0.00  0.00     0.003 A 
ATOM      5  C11 <0> d   1      19.075   1.095   5.992  0.00  0.00     0.037 A 
ATOM      6  C12 <0> d   1      19.079   0.740   7.332  0.00  0.00     0.082 A 
ENDROOT
BRANCH   1   7
ATOM      7  C2  <0> d   1      19.175  -1.004   9.113  0.00  0.00     0.296 C 
ATOM      8  O1  <0> d   1      18.373  -1.818   9.525  0.00  0.00    -0.259 OA
BRANCH   7   9
ATOM      9  O3  <0> d   1      20.078  -0.462   9.953  0.00  0.00    -0.315 OA
BRANCH   9  10
ATOM     10  C4  <0> d   1      19.964  -0.812  11.359  0.00  0.00     0.205 C 
BRANCH  10  11
ATOM     11  C5  <0> d   1      20.350   0.394  12.217  0.00  0.00     0.191 C 
BRANCH  11  12
ATOM     12  O6  <0> d   1      21.756   0.624  12.112  0.00  0.00    -0.399 OA
ATOM     13  H18 <0> d   1      22.253   0.389  12.909  0.00  0.00     0.209 HD
ENDBRANCH  11  12
ENDBRANCH  10  11
ENDBRANCH   9  10
ENDBRANCH   7   9
ENDBRANCH   1   7
BRANCH   6  14
ATOM     14  O13 <0> d   1      19.010   1.696   8.291  0.00  0.00    -0.360 OA
ATOM     15  H23 <0> d   1      19.750   1.682   8.914  0.00  0.00     0.217 HD
ENDBRANCH   6  14
TORSDOF 6
ENDMDL
MODEL 9
REMARK VINA RESULT:      -4.8      2.687      4.729
REMARK  6 active torsions:
REMARK  status: ('A' for Active; 'I' for Inactive)
REMARK    1  A    between atoms: C2_2  and  O3_3 
REMARK    2  A    between atoms: C2_2  and  C7_7 
REMARK    3  A    between atoms: O3_3  and  C4_4 
REMARK    4  A    between atoms: C4_4  and  C5_5 
REMARK    5  A    between atoms: C5_5  and  O6_6 
REMARK    6  A    between atoms: C12_12  and  O13_13 
ROOT
ATOM      1  C7  <0> d   1      17.909   2.022  10.373  0.00  0.00     0.072 A 
ATOM      2  C8  <0> d   1      18.805   2.566   9.450  0.00  0.00     0.020 A 
ATOM      3  C9  <0> d   1      19.112   1.873   8.299  0.00  0.00     0.001 A 
ATOM      4  C10 <0> d   1      18.535   0.638   8.053  0.00  0.00     0.003 A 
ATOM      5  C11 <0> d   1      17.648   0.088   8.957  0.00  0.00     0.037 A 
ATOM      6  C12 <0> d   1      17.332   0.768  10.123  0.00  0.00     0.082 A 
ENDROOT
BRANCH   1   7
ATOM      7  C2  <0> d   1      17.576   2.758  11.607  0.00  0.00     0.296 C 
ATOM      8  O1  <0> d   1      16.941   3.793  11.544  0.00  0.00    -0.259 OA
BRANCH   7   9
ATOM      9  O3  <0> d   1      17.969   2.280  12.803  0.00  0.00    -0.315 OA
BRANCH   9  10
ATOM     10  C4  <0> d   1      18.883   3.105  13.574  0.00  0.00     0.205 C 
BRANCH  10  11
ATOM     11  C5  <0> d   1      18.232   3.477  14.907  0.00  0.00     0.191 C 
BRANCH  11  12
ATOM     12  O6  <0> d   1      17.106   4.324  14.667  0.00  0.00    -0.399 OA
ATOM     13  H18 <0> d   1      16.312   3.851  14.382  0.00  0.00     0.209 HD
ENDBRANCH  11  12
ENDBRANCH  10  11
ENDBRANCH   9  10
ENDBRANCH   7   9
ENDBRANCH   1   7
BRANCH   6  14
ATOM     14  O13 <0> d   1      16.461   0.229  11.011  0.00  0.00    -0.360 OA
ATOM     15  H23 <0> d   1      16.884  -0.269  11.724  0.00  0.00     0.217 HD
ENDBRANCH   6  14
TORSDOF 6
ENDMDL
