MODEL 1
REMARK VINA RESULT:      -8.5      0.000      0.000
REMARK  5 active torsions:
REMARK  status: ('A' for Active; 'I' for Inactive)
REMARK    1  A    between atoms: N10_10  and  C11_11 
REMARK    2  A    between atoms: C11_11  and  C12_12 
REMARK    3  A    between atoms: C12_12  and  C13_13 
REMARK    4  A    between atoms: C13_13  and  N14_14 
REMARK    5  A    between atoms: N18_18  and  C19_19 
ROOT
ATOM      1  N14 ZIN A   1      18.939   4.337  13.224  0.00  0.00    -0.069 N 
ATOM      2  H15 ZIN A   1      18.893   3.508  13.797  0.00  0.00     0.280 HD
ATOM      3  C16 ZIN A   1      20.044   4.208  12.265  0.00  0.00     0.249 C 
ATOM      4  C17 ZIN A   1      19.816   2.976  11.387  0.00  0.00     0.123 C 
ATOM      5  N18 ZIN A   1      18.537   3.116  10.674  0.00  0.00    -0.280 NA
ATOM      6  C26 ZIN A   1      17.425   3.271  11.621  0.00  0.00     0.123 C 
ATOM      7  C27 ZIN A   1      17.674   4.501  12.497  0.00  0.00     0.249 C 
ENDROOT
BRANCH   1   8
ATOM      8  C13 ZIN A   1      19.168   5.510  14.079  0.00  0.00     0.236 C 
BRANCH   8   9
ATOM      9  C12 ZIN A   1      19.939   5.087  15.331  0.00  0.00     0.050 C 
BRANCH   9  10
ATOM     10  C11 ZIN A   1      18.957   4.589  16.392  0.00  0.00     0.158 C 
BRANCH  10  11
ATOM     11  N10 ZIN A   1      18.952   3.124  16.404  0.00  0.00    -0.217 N 
ATOM     12  C2  ZIN A   1      19.216   2.335  17.466  0.00  0.00     0.350 A 
ATOM     13  O1  ZIN A   1      19.496   2.715  18.590  0.00  0.00    -0.244 OA
ATOM     14  N3  ZIN A   1      19.109   1.052  17.066  0.00  0.00    -0.256 N 
ATOM     15  C8  ZIN A   1      18.777   1.045  15.724  0.00  0.00     0.158 A 
ATOM     16  C4  ZIN A   1      19.268  -0.135  17.741  0.00  0.00     0.103 A 
ATOM     17  C7  ZIN A   1      18.603  -0.193  15.053  0.00  0.00     0.053 A 
ATOM     18  N9  ZIN A   1      18.683   2.287  15.312  0.00  0.00    -0.149 NA
ATOM     19  C6  ZIN A   1      18.767  -1.349  15.742  0.00  0.00     0.005 A 
ATOM     20  C5  ZIN A   1      19.105  -1.310  17.111  0.00  0.00     0.018 A 
ENDBRANCH  10  11
ENDBRANCH   9  10
ENDBRANCH   8   9
ENDBRANCH   1   8
BRANCH   5  21
ATOM     21  C19 ZIN A   1      18.320   2.033   9.819  0.00  0.00     0.012 A 
ATOM     22  C25 ZIN A   1      18.826   2.054   8.526  0.00  0.00     0.047 A 
ATOM     23  C23 ZIN A   1      18.612   0.978   7.685  0.00  0.00     0.035 A 
ATOM     24  C22 ZIN A   1      17.886  -0.114   8.126  0.00  0.00     0.024 A 
ATOM     25 Cl24 ZIN A   1      19.252   1.000   6.070  0.00  0.00    -0.084 Cl
ATOM     26  C21 ZIN A   1      17.377  -0.134   9.412  0.00  0.00     0.003 A 
ATOM     27  C20 ZIN A   1      17.591   0.935  10.258  0.00  0.00     0.024 A 
ENDBRANCH   5  21
TORSDOF 5
ENDMDL
MODEL 2
REMARK VINA RESULT:      -8.5      1.359      1.705
REMARK  5 active torsions:
REMARK  status: ('A' for Active; 'I' for Inactive)
REMARK    1  A    between atoms: N10_10  and  C11_11 
REMARK    2  A    between atoms: C11_11  and  C12_12 
REMARK    3  A    between atoms: C12_12  and  C13_13 
REMARK    4  A    between atoms: C13_13  and  N14_14 
REMARK    5  A    between atoms: N18_18  and  C19_19 
ROOT
ATOM      1  N14 ZIN A   1      18.934   4.222  12.409  0.00  0.00    -0.069 N 
ATOM      2  H15 ZIN A   1      18.403   3.567  12.964  0.00  0.00     0.280 HD
ATOM      3  C16 ZIN A   1      20.137   3.561  11.888  0.00  0.00     0.249 C 
ATOM      4  C17 ZIN A   1      19.729   2.359  11.032  0.00  0.00     0.123 C 
ATOM      5  N18 ZIN A   1      18.880   2.819   9.922  0.00  0.00    -0.280 NA
ATOM      6  C26 ZIN A   1      17.683   3.504  10.429  0.00  0.00     0.123 C 
ATOM      7  C27 ZIN A   1      18.110   4.696  11.290  0.00  0.00     0.249 C 
ENDROOT
BRANCH   1   8
ATOM      8  C13 ZIN A   1      19.327   5.364  13.246  0.00  0.00     0.236 C 
BRANCH   8   9
ATOM      9  C12 ZIN A   1      19.466   4.909  14.699  0.00  0.00     0.050 C 
BRANCH   9  10
ATOM     10  C11 ZIN A   1      18.149   4.287  15.167  0.00  0.00     0.158 C 
BRANCH  10  11
ATOM     11  N10 ZIN A   1      18.398   2.930  15.661  0.00  0.00    -0.217 N 
ATOM     12  C2  ZIN A   1      18.218   1.785  14.971  0.00  0.00     0.350 A 
ATOM     13  O1  ZIN A   1      17.823   1.696  13.821  0.00  0.00    -0.244 OA
ATOM     14  N3  ZIN A   1      18.557   0.759  15.775  0.00  0.00    -0.256 N 
ATOM     15  C8  ZIN A   1      18.951   1.278  16.995  0.00  0.00     0.158 A 
ATOM     16  C4  ZIN A   1      18.566  -0.601  15.573  0.00  0.00     0.103 A 
ATOM     17  C7  ZIN A   1      19.362   0.399  18.030  0.00  0.00     0.053 A 
ATOM     18  N9  ZIN A   1      18.856   2.586  16.941  0.00  0.00    -0.149 NA
ATOM     19  C6  ZIN A   1      19.361  -0.938  17.804  0.00  0.00     0.005 A 
ATOM     20  C5  ZIN A   1      18.955  -1.438  16.550  0.00  0.00     0.018 A 
ENDBRANCH  10  11
ENDBRANCH   9  10
ENDBRANCH   8   9
ENDBRANCH   1   8
BRANCH   5  21
ATOM     21  C19 ZIN A   1      18.531   1.755   9.086  0.00  0.00     0.012 A 
ATOM     22  C25 ZIN A   1      19.038   1.689   7.795  0.00  0.00     0.047 A 
ATOM     23  C23 ZIN A   1      18.694   0.633   6.973  0.00  0.00     0.035 A 
ATOM     24  C22 ZIN A   1      17.837  -0.352   7.431  0.00  0.00     0.024 A 
ATOM     25 Cl24 ZIN A   1      19.334   0.546   5.361  0.00  0.00    -0.084 Cl
ATOM     26  C21 ZIN A   1      17.327  -0.286   8.714  0.00  0.00     0.003 A 
ATOM     27  C20 ZIN A   1      17.670   0.764   9.542  0.00  0.00     0.024 A 
ENDBRANCH   5  21
TORSDOF 5
ENDMDL
MODEL 3
REMARK VINA RESULT:      -8.4      2.056      3.222
REMARK  5 active torsions:
REMARK  status: ('A' for Active; 'I' for Inactive)
REMARK    1  A    between atoms: N10_10  and  C11_11 
REMARK    2  A    between atoms: C11_11  and  C12_12 
REMARK    3  A    between atoms: C12_12  and  C13_13 
REMARK    4  A    between atoms: C13_13  and  N14_14 
REMARK    5  A    between atoms: N18_18  and  C19_19 
ROOT
ATOM      1  N14 ZIN A   1      19.748   2.340  10.498  0.00  0.00    -0.069 N 
ATOM      2  H15 ZIN A   1      20.701   2.455  10.186  0.00  0.00     0.280 HD
ATOM      3  C16 ZIN A   1      18.832   2.853   9.471  0.00  0.00     0.249 C 
ATOM      4  C17 ZIN A   1      19.051   2.088   8.164  0.00  0.00     0.123 C 
ATOM      5  N18 ZIN A   1      18.808   0.656   8.392  0.00  0.00    -0.280 NA
ATOM      6  C26 ZIN A   1      19.702   0.134   9.435  0.00  0.00     0.123 C 
ATOM      7  C27 ZIN A   1      19.477   0.916  10.731  0.00  0.00     0.249 C 
ENDROOT
BRANCH   1   8
ATOM      8  C13 ZIN A   1      19.551   3.087  11.748  0.00  0.00     0.236 C 
BRANCH   8   9
ATOM      9  C12 ZIN A   1      18.059   3.144  12.079  0.00  0.00     0.050 C 
BRANCH   9  10
ATOM     10  C11 ZIN A   1      17.874   3.603  13.526  0.00  0.00     0.158 C 
BRANCH  10  11
ATOM     11  N10 ZIN A   1      18.124   2.479  14.431  0.00  0.00    -0.217 N 
ATOM     12  C2  ZIN A   1      18.671   2.552  15.662  0.00  0.00     0.350 A 
ATOM     13  O1  ZIN A   1      19.040   3.570  16.222  0.00  0.00    -0.244 OA
ATOM     14  N3  ZIN A   1      18.730   1.303  16.165  0.00  0.00    -0.256 N 
ATOM     15  C8  ZIN A   1      18.214   0.433  15.222  0.00  0.00     0.158 A 
ATOM     16  C4  ZIN A   1      19.188   0.820  17.368  0.00  0.00     0.103 A 
ATOM     17  C7  ZIN A   1      18.162  -0.955  15.506  0.00  0.00     0.053 A 
ATOM     18  N9  ZIN A   1      17.849   1.129  14.170  0.00  0.00    -0.149 NA
ATOM     19  C6  ZIN A   1      18.620  -1.406  16.700  0.00  0.00     0.005 A 
ATOM     20  C5  ZIN A   1      19.141  -0.495  17.642  0.00  0.00     0.018 A 
ENDBRANCH  10  11
ENDBRANCH   9  10
ENDBRANCH   8   9
ENDBRANCH   1   8
BRANCH   5  21
ATOM     21  C19 ZIN A   1      18.946  -0.070   7.206  0.00  0.00     0.012 A 
ATOM     22  C25 ZIN A   1      19.172  -1.440   7.250  0.00  0.00     0.047 A 
ATOM     23  C23 ZIN A   1      19.303  -2.155   6.075  0.00  0.00     0.035 A 
ATOM     24  C22 ZIN A   1      19.220  -1.506   4.855  0.00  0.00     0.024 A 
ATOM     25 Cl24 ZIN A   1      19.578  -3.869   6.129  0.00  0.00    -0.084 Cl
ATOM     26  C21 ZIN A   1      19.001  -0.142   4.810  0.00  0.00     0.003 A 
ATOM     27  C20 ZIN A   1      18.864   0.578   5.980  0.00  0.00     0.024 A 
ENDBRANCH   5  21
TORSDOF 5
ENDMDL
MODEL 4
REMARK VINA RESULT:      -8.2      4.419      7.377
REMARK  5 active torsions:
REMARK  status: ('A' for Active; 'I' for Inactive)
REMARK    1  A    between atoms: N10_10  and  C11_11 
REMARK    2  A    between atoms: C11_11  and  C12_12 
REMARK    3  A    between atoms: C12_12  and  C13_13 
REMARK    4  A    between atoms: C13_13  and  N14_14 
REMARK    5  A    between atoms: N18_18  and  C19_19 
ROOT
ATOM      1  N14 ZIN A   1      18.657   1.521  10.722  0.00  0.00    -0.069 N 
ATOM      2  H15 ZIN A   1      18.162   0.655  10.571  0.00  0.00     0.280 HD
ATOM      3  C16 ZIN A   1      17.920   2.345  11.688  0.00  0.00     0.249 C 
ATOM      4  C17 ZIN A   1      17.782   1.583  13.008  0.00  0.00     0.123 C 
ATOM      5  N18 ZIN A   1      19.120   1.265  13.528  0.00  0.00    -0.280 NA
ATOM      6  C26 ZIN A   1      19.879   0.460  12.561  0.00  0.00     0.123 C 
ATOM      7  C27 ZIN A   1      19.999   1.233  11.245  0.00  0.00     0.249 C 
ENDROOT
BRANCH   1   8
ATOM      8  C13 ZIN A   1      18.774   2.246   9.449  0.00  0.00     0.236 C 
BRANCH   8   9
ATOM      9  C12 ZIN A   1      19.205   1.276   8.347  0.00  0.00     0.050 C 
BRANCH   9  10
ATOM     10  C11 ZIN A   1      18.044   0.341   8.007  0.00  0.00     0.158 C 
BRANCH  10  11
ATOM     11  N10 ZIN A   1      18.168  -0.894   8.784  0.00  0.00    -0.217 N 
ATOM     12  C2  ZIN A   1      18.848  -2.001   8.421  0.00  0.00     0.350 A 
ATOM     13  O1  ZIN A   1      19.474  -2.149   7.385  0.00  0.00    -0.244 OA
ATOM     14  N3  ZIN A   1      18.717  -2.911   9.406  0.00  0.00    -0.256 N 
ATOM     15  C8  ZIN A   1      17.932  -2.359  10.402  0.00  0.00     0.158 A 
ATOM     16  C4  ZIN A   1      19.206  -4.188   9.546  0.00  0.00     0.103 A 
ATOM     17  C7  ZIN A   1      17.639  -3.118  11.564  0.00  0.00     0.053 A 
ATOM     18  N9  ZIN A   1      17.592  -1.144  10.038  0.00  0.00    -0.149 NA
ATOM     19  C6  ZIN A   1      18.134  -4.376  11.676  0.00  0.00     0.005 A 
ATOM     20  C5  ZIN A   1      18.932  -4.912  10.644  0.00  0.00     0.018 A 
ENDBRANCH  10  11
ENDBRANCH   9  10
ENDBRANCH   8   9
ENDBRANCH   1   8
BRANCH   5  21
ATOM     21  C19 ZIN A   1      19.035   0.615  14.762  0.00  0.00     0.012 A 
ATOM     22  C25 ZIN A   1      19.114   1.345  15.941  0.00  0.00     0.047 A 
ATOM     23  C23 ZIN A   1      19.025   0.699  17.159  0.00  0.00     0.035 A 
ATOM     24  C22 ZIN A   1      18.868  -0.675  17.206  0.00  0.00     0.024 A 
ATOM     25 Cl24 ZIN A   1      19.116   1.613  18.633  0.00  0.00    -0.084 Cl
ATOM     26  C21 ZIN A   1      18.794  -1.405  16.034  0.00  0.00     0.003 A 
ATOM     27  C20 ZIN A   1      18.878  -0.765  14.813  0.00  0.00     0.024 A 
ENDBRANCH   5  21
TORSDOF 5
ENDMDL
MODEL 5
REMARK VINA RESULT:      -8.2      4.464      8.064
REMARK  5 active torsions:
REMARK  status: ('A' for Active; 'I' for Inactive)
REMARK    1  A    between atoms: N10_10  and  C11_11 
REMARK    2  A    between atoms: C11_11  and  C12_12 
REMARK    3  A    between atoms: C12_12  and  C13_13 
REMARK    4  A    between atoms: C13_13  and  N14_14 
REMARK    5  A    between atoms: N18_18  and  C19_19 
ROOT
ATOM      1  N14 ZIN A   1      18.649  -1.337  11.640  0.00  0.00    -0.069 N 
ATOM      2  H15 ZIN A   1      18.182  -1.428  10.751  0.00  0.00     0.280 HD
ATOM      3  C16 ZIN A   1      19.817  -0.459  11.493  0.00  0.00     0.249 C 
ATOM      4  C17 ZIN A   1      19.363   0.916  10.997  0.00  0.00     0.123 C 
ATOM      5  N18 ZIN A   1      18.413   1.491  11.961  0.00  0.00    -0.280 NA
ATOM      6  C26 ZIN A   1      17.250   0.611  12.138  0.00  0.00     0.123 C 
ATOM      7  C27 ZIN A   1      17.724  -0.761  12.624  0.00  0.00     0.249 C 
ENDROOT
BRANCH   1   8
ATOM      8  C13 ZIN A   1      19.088  -2.662  12.099  0.00  0.00     0.236 C 
BRANCH   8   9
ATOM      9  C12 ZIN A   1      19.539  -3.495  10.897  0.00  0.00     0.050 C 
BRANCH   9  10
ATOM     10  C11 ZIN A   1      18.344  -3.750   9.976  0.00  0.00     0.158 C 
BRANCH  10  11
ATOM     11  N10 ZIN A   1      18.415  -2.849   8.823  0.00  0.00    -0.217 N 
ATOM     12  C2  ZIN A   1      19.068  -3.084   7.667  0.00  0.00     0.350 A 
ATOM     13  O1  ZIN A   1      19.703  -4.088   7.393  0.00  0.00    -0.244 OA
ATOM     14  N3  ZIN A   1      18.891  -2.015   6.866  0.00  0.00    -0.256 N 
ATOM     15  C8  ZIN A   1      18.115  -1.092   7.543  0.00  0.00     0.158 A 
ATOM     16  C4  ZIN A   1      19.332  -1.740   5.593  0.00  0.00     0.103 A 
ATOM     17  C7  ZIN A   1      17.779   0.134   6.915  0.00  0.00     0.053 A 
ATOM     18  N9  ZIN A   1      17.824  -1.582   8.726  0.00  0.00    -0.149 NA
ATOM     19  C6  ZIN A   1      18.227   0.381   5.659  0.00  0.00     0.005 A 
ATOM     20  C5  ZIN A   1      19.017  -0.579   4.994  0.00  0.00     0.018 A 
ENDBRANCH  10  11
ENDBRANCH   9  10
ENDBRANCH   8   9
ENDBRANCH   1   8
BRANCH   5  21
ATOM     21  C19 ZIN A   1      18.017   2.772  11.569  0.00  0.00     0.012 A 
ATOM     22  C25 ZIN A   1      17.454   3.640  12.495  0.00  0.00     0.047 A 
ATOM     23  C23 ZIN A   1      17.067   4.908  12.105  0.00  0.00     0.035 A 
ATOM     24  C22 ZIN A   1      17.230   5.309  10.790  0.00  0.00     0.024 A 
ATOM     25 Cl24 ZIN A   1      16.370   5.998  13.264  0.00  0.00    -0.084 Cl
ATOM     26  C21 ZIN A   1      17.785   4.444   9.866  0.00  0.00     0.003 A 
ATOM     27  C20 ZIN A   1      18.178   3.178  10.250  0.00  0.00     0.024 A 
ENDBRANCH   5  21
TORSDOF 5
ENDMDL
MODEL 6
REMARK VINA RESULT:      -8.2      4.596      8.405
REMARK  5 active torsions:
REMARK  status: ('A' for Active; 'I' for Inactive)
REMARK    1  A    between atoms: N10_10  and  C11_11 
REMARK    2  A    between atoms: C11_11  and  C12_12 
REMARK    3  A    between atoms: C12_12  and  C13_13 
REMARK    4  A    between atoms: C13_13  and  N14_14 
REMARK    5  A    between atoms: N18_18  and  C19_19 
ROOT
ATOM      1  N14 ZIN A   1      19.722  -2.157  11.982  0.00  0.00    -0.069 N 
ATOM      2  H15 ZIN A   1      20.164  -2.052  12.884  0.00  0.00     0.280 HD
ATOM      3  C16 ZIN A   1      18.270  -1.994  12.127  0.00  0.00     0.249 C 
ATOM      4  C17 ZIN A   1      17.966  -0.609  12.702  0.00  0.00     0.123 C 
ATOM      5  N18 ZIN A   1      18.506   0.421  11.802  0.00  0.00    -0.280 NA
ATOM      6  C26 ZIN A   1      19.955   0.255  11.628  0.00  0.00     0.123 C 
ATOM      7  C27 ZIN A   1      20.241  -1.138  11.061  0.00  0.00     0.249 C 
ENDROOT
BRANCH   1   8
ATOM      8  C13 ZIN A   1      20.014  -3.494  11.447  0.00  0.00     0.236 C 
BRANCH   8   9
ATOM      9  C12 ZIN A   1      18.833  -3.974  10.601  0.00  0.00     0.050 C 
BRANCH   9  10
ATOM     10  C11 ZIN A   1      19.326  -4.345   9.201  0.00  0.00     0.158 C 
BRANCH  10  11
ATOM     11  N10 ZIN A   1      19.043  -3.246   8.276  0.00  0.00    -0.217 N 
ATOM     12  C2  ZIN A   1      19.587  -3.071   7.054  0.00  0.00     0.350 A 
ATOM     13  O1  ZIN A   1      20.403  -3.804   6.522  0.00  0.00    -0.244 OA
ATOM     14  N3  ZIN A   1      19.068  -1.946   6.526  0.00  0.00    -0.256 N 
ATOM     15  C8  ZIN A   1      18.184  -1.406   7.442  0.00  0.00     0.158 A 
ATOM     16  C4  ZIN A   1      19.274  -1.319   5.319  0.00  0.00     0.103 A 
ATOM     17  C7  ZIN A   1      17.495  -0.207   7.128  0.00  0.00     0.053 A 
ATOM     18  N9  ZIN A   1      18.162  -2.179   8.503  0.00  0.00    -0.149 NA
ATOM     19  C6  ZIN A   1      17.716   0.391   5.931  0.00  0.00     0.005 A 
ATOM     20  C5  ZIN A   1      18.623  -0.183   5.016  0.00  0.00     0.018 A 
ENDBRANCH  10  11
ENDBRANCH   9  10
ENDBRANCH   8   9
ENDBRANCH   1   8
BRANCH   5  21
ATOM     21  C19 ZIN A   1      18.201   1.702  12.267  0.00  0.00     0.012 A 
ATOM     22  C25 ZIN A   1      17.775   2.683  11.380  0.00  0.00     0.047 A 
ATOM     23  C23 ZIN A   1      17.470   3.948  11.845  0.00  0.00     0.035 A 
ATOM     24  C22 ZIN A   1      17.597   4.241  13.192  0.00  0.00     0.024 A 
ATOM     25 Cl24 ZIN A   1      16.931   5.172  10.737  0.00  0.00    -0.084 Cl
ATOM     26  C21 ZIN A   1      18.025   3.268  14.076  0.00  0.00     0.003 A 
ATOM     27  C20 ZIN A   1      18.327   2.001  13.618  0.00  0.00     0.024 A 
ENDBRANCH   5  21
TORSDOF 5
ENDMDL
MODEL 7
REMARK VINA RESULT:      -8.0      3.179      4.429
REMARK  5 active torsions:
REMARK  status: ('A' for Active; 'I' for Inactive)
REMARK    1  A    between atoms: N10_10  and  C11_11 
REMARK    2  A    between atoms: C11_11  and  C12_12 
REMARK    3  A    between atoms: C12_12  and  C13_13 
REMARK    4  A    between atoms: C13_13  and  N14_14 
REMARK    5  A    between atoms: N18_18  and  C19_19 
ROOT
ATOM      1  N14 ZIN A   1      18.793   1.345  10.102  0.00  0.00    -0.069 N 
ATOM      2  H15 ZIN A   1      19.293   1.261  10.975  0.00  0.00     0.280 HD
ATOM      3  C16 ZIN A   1      19.432   0.496   9.089  0.00  0.00     0.249 C 
ATOM      4  C17 ZIN A   1      19.421  -0.960   9.562  0.00  0.00     0.123 C 
ATOM      5  N18 ZIN A   1      18.032  -1.389   9.783  0.00  0.00    -0.280 NA
ATOM      6  C26 ZIN A   1      17.372  -0.532  10.777  0.00  0.00     0.123 C 
ATOM      7  C27 ZIN A   1      17.401   0.920  10.292  0.00  0.00     0.249 C 
ENDROOT
BRANCH   1   8
ATOM      8  C13 ZIN A   1      18.820   2.745   9.656  0.00  0.00     0.236 C 
BRANCH   8   9
ATOM      9  C12 ZIN A   1      18.500   3.664  10.836  0.00  0.00     0.050 C 
BRANCH   9  10
ATOM     10  C11 ZIN A   1      19.612   3.559  11.881  0.00  0.00     0.158 C 
BRANCH  10  11
ATOM     11  N10 ZIN A   1      19.316   2.459  12.801  0.00  0.00    -0.217 N 
ATOM     12  C2  ZIN A   1      18.439   2.490  13.825  0.00  0.00     0.350 A 
ATOM     13  O1  ZIN A   1      17.747   3.440  14.147  0.00  0.00    -0.244 OA
ATOM     14  N3  ZIN A   1      18.460   1.284  14.426  0.00  0.00    -0.256 N 
ATOM     15  C8  ZIN A   1      19.375   0.487  13.763  0.00  0.00     0.158 A 
ATOM     16  C4  ZIN A   1      17.765   0.783  15.502  0.00  0.00     0.103 A 
ATOM     17  C7  ZIN A   1      19.589  -0.845  14.200  0.00  0.00     0.053 A 
ATOM     18  N9  ZIN A   1      19.901   1.184  12.783  0.00  0.00    -0.149 NA
ATOM     19  C6  ZIN A   1      18.891  -1.314  15.264  0.00  0.00     0.005 A 
ATOM     20  C5  ZIN A   1      17.964  -0.478  15.920  0.00  0.00     0.018 A 
ENDBRANCH  10  11
ENDBRANCH   9  10
ENDBRANCH   8   9
ENDBRANCH   1   8
BRANCH   5  21
ATOM     21  C19 ZIN A   1      17.978  -2.732  10.165  0.00  0.00     0.012 A 
ATOM     22  C25 ZIN A   1      18.240  -3.731   9.236  0.00  0.00     0.047 A 
ATOM     23  C23 ZIN A   1      18.191  -5.058   9.619  0.00  0.00     0.035 A 
ATOM     24  C22 ZIN A   1      17.870  -5.392  10.923  0.00  0.00     0.024 A 
ATOM     25 Cl24 ZIN A   1      18.526  -6.307   8.461  0.00  0.00    -0.084 Cl
ATOM     26  C21 ZIN A   1      17.603  -4.399  11.848  0.00  0.00     0.003 A 
ATOM     27  C20 ZIN A   1      17.656  -3.071  11.473  0.00  0.00     0.024 A 
ENDBRANCH   5  21
TORSDOF 5
ENDMDL
MODEL 8
REMARK VINA RESULT:      -8.0      4.394      7.819
REMARK  5 active torsions:
REMARK  status: ('A' for Active; 'I' for Inactive)
REMARK    1  A    between atoms: N10_10  and  C11_11 
REMARK    2  A    between atoms: C11_11  and  C12_12 
REMARK    3  A    between atoms: C12_12  and  C13_13 
REMARK    4  A    between atoms: C13_13  and  N14_14 
REMARK    5  A    between atoms: N18_18  and  C19_19 
ROOT
ATOM      1  N14 ZIN A   1      18.679   1.389  10.630  0.00  0.00    -0.069 N 
ATOM      2  H15 ZIN A   1      18.304   0.467  10.466  0.00  0.00     0.280 HD
ATOM      3  C16 ZIN A   1      17.802   2.116  11.558  0.00  0.00     0.249 C 
ATOM      4  C17 ZIN A   1      17.705   1.346  12.877  0.00  0.00     0.123 C 
ATOM      5  N18 ZIN A   1      19.050   1.202  13.456  0.00  0.00    -0.280 NA
ATOM      6  C26 ZIN A   1      19.945   0.498  12.528  0.00  0.00     0.123 C 
ATOM      7  C27 ZIN A   1      20.022   1.276  11.212  0.00  0.00     0.249 C 
ENDROOT
BRANCH   1   8
ATOM      8  C13 ZIN A   1      18.757   2.119   9.357  0.00  0.00     0.236 C 
BRANCH   8   9
ATOM      9  C12 ZIN A   1      18.822   1.122   8.200  0.00  0.00     0.050 C 
BRANCH   9  10
ATOM     10  C11 ZIN A   1      17.697   0.095   8.347  0.00  0.00     0.158 C 
BRANCH  10  11
ATOM     11  N10 ZIN A   1      18.264  -1.255   8.335  0.00  0.00    -0.217 N 
ATOM     12  C2  ZIN A   1      18.412  -2.067   9.402  0.00  0.00     0.350 A 
ATOM     13  O1  ZIN A   1      18.094  -1.808  10.550  0.00  0.00    -0.244 OA
ATOM     14  N3  ZIN A   1      18.970  -3.217   8.973  0.00  0.00    -0.256 N 
ATOM     15  C8  ZIN A   1      19.178  -3.115   7.610  0.00  0.00     0.158 A 
ATOM     16  C4  ZIN A   1      19.327  -4.366   9.638  0.00  0.00     0.103 A 
ATOM     17  C7  ZIN A   1      19.759  -4.201   6.907  0.00  0.00     0.053 A 
ATOM     18  N9  ZIN A   1      18.759  -1.935   7.213  0.00  0.00    -0.149 NA
ATOM     19  C6  ZIN A   1      20.102  -5.323   7.587  0.00  0.00     0.005 A 
ATOM     20  C5  ZIN A   1      19.877  -5.399   8.977  0.00  0.00     0.018 A 
ENDBRANCH  10  11
ENDBRANCH   9  10
ENDBRANCH   8   9
ENDBRANCH   1   8
BRANCH   5  21
ATOM     21  C19 ZIN A   1      18.995   0.550  14.690  0.00  0.00     0.012 A 
ATOM     22  C25 ZIN A   1      19.084   1.280  15.868  0.00  0.00     0.047 A 
ATOM     23  C23 ZIN A   1      19.025   0.632  17.087  0.00  0.00     0.035 A 
ATOM     24  C22 ZIN A   1      18.888  -0.744  17.135  0.00  0.00     0.024 A 
ATOM     25 Cl24 ZIN A   1      19.127   1.546  18.560  0.00  0.00    -0.084 Cl
ATOM     26  C21 ZIN A   1      18.806  -1.474  15.964  0.00  0.00     0.003 A 
ATOM     27  C20 ZIN A   1      18.859  -0.832  14.743  0.00  0.00     0.024 A 
ENDBRANCH   5  21
TORSDOF 5
ENDMDL
MODEL 9
REMARK VINA RESULT:      -8.0      2.437      5.133
REMARK  5 active torsions:
REMARK  status: ('A' for Active; 'I' for Inactive)
REMARK    1  A    between atoms: N10_10  and  C11_11 
REMARK    2  A    between atoms: C11_11  and  C12_12 
REMARK    3  A    between atoms: C12_12  and  C13_13 
REMARK    4  A    between atoms: C13_13  and  N14_14 
REMARK    5  A    between atoms: N18_18  and  C19_19 
ROOT
ATOM      1  N14 ZIN A   1      18.710  -1.034  12.071  0.00  0.00    -0.069 N 
ATOM      2  H15 ZIN A   1      18.278  -0.122  12.055  0.00  0.00     0.280 HD
ATOM      3  C16 ZIN A   1      17.899  -1.974  11.287  0.00  0.00     0.249 C 
ATOM      4  C17 ZIN A   1      17.787  -1.472   9.846  0.00  0.00     0.123 C 
ATOM      5  N18 ZIN A   1      19.134  -1.356   9.266  0.00  0.00    -0.280 NA
ATOM      6  C26 ZIN A   1      19.965  -0.437  10.055  0.00  0.00     0.123 C 
ATOM      7  C27 ZIN A   1      20.058  -0.948  11.495  0.00  0.00     0.249 C 
ENDROOT
BRANCH   1   8
ATOM      8  C13 ZIN A   1      18.802  -1.506  13.460  0.00  0.00     0.236 C 
BRANCH   8   9
ATOM      9  C12 ZIN A   1      18.326  -0.404  14.407  0.00  0.00     0.050 C 
BRANCH   9  10
ATOM     10  C11 ZIN A   1      19.305   0.770  14.357  0.00  0.00     0.158 C 
BRANCH  10  11
ATOM     11  N10 ZIN A   1      18.662   1.916  13.710  0.00  0.00    -0.217 N 
ATOM     12  C2  ZIN A   1      18.181   3.015  14.327  0.00  0.00     0.350 A 
ATOM     13  O1  ZIN A   1      18.210   3.233  15.527  0.00  0.00    -0.244 OA
ATOM     14  N3  ZIN A   1      17.670   3.830  13.385  0.00  0.00    -0.256 N 
ATOM     15  C8  ZIN A   1      17.831   3.222  12.153  0.00  0.00     0.158 A 
ATOM     16  C4  ZIN A   1      17.068   5.064  13.468  0.00  0.00     0.103 A 
ATOM     17  C7  ZIN A   1      17.372   3.879  10.983  0.00  0.00     0.053 A 
ATOM     18  N9  ZIN A   1      18.425   2.066  12.336  0.00  0.00    -0.149 NA
ATOM     19  C6  ZIN A   1      16.782   5.095  11.093  0.00  0.00     0.005 A 
ATOM     20  C5  ZIN A   1      16.632   5.691  12.362  0.00  0.00     0.018 A 
ENDBRANCH  10  11
ENDBRANCH   9  10
ENDBRANCH   8   9
ENDBRANCH   1   8
BRANCH   5  21
ATOM     21  C19 ZIN A   1      19.070  -0.951   7.930  0.00  0.00     0.012 A 
ATOM     22  C25 ZIN A   1      19.163  -1.892   6.912  0.00  0.00     0.047 A 
ATOM     23  C23 ZIN A   1      19.094  -1.488   5.592  0.00  0.00     0.035 A 
ATOM     24  C22 ZIN A   1      18.943  -0.148   5.284  0.00  0.00     0.024 A 
ATOM     25 Cl24 ZIN A   1      19.203  -2.665   4.320  0.00  0.00    -0.084 Cl
ATOM     26  C21 ZIN A   1      18.856   0.791   6.296  0.00  0.00     0.003 A 
ATOM     27  C20 ZIN A   1      18.919   0.394   7.616  0.00  0.00     0.024 A 
ENDBRANCH   5  21
TORSDOF 5
ENDMDL
