MODEL 1
REMARK VINA RESULT:      -3.7      0.000      0.000
REMARK  4 active torsions:
REMARK  status: ('A' for Active; 'I' for Inactive)
REMARK    1  A    between atoms: C2_2  and  O4_3 
REMARK    2  A    between atoms: C2_2  and  C5_4 
REMARK    3  A    between atoms: C5_4  and  N7_5 
REMARK    4  A    between atoms: C5_4  and  C11_9 
ROOT
ATOM      1  C5  <0> d   1      18.118  -1.262   5.704  0.00  0.00     0.311 C 
ENDROOT
BRANCH   1   2
ATOM      2  C2  <0> d   1      18.807  -0.028   5.117  0.00  0.00     0.155 C 
ATOM      3  C1  <0> d   1      18.924   1.051   6.196  0.00  0.00     0.042 C 
BRANCH   2   4
ATOM      4  O4  <0> d   1      20.111  -0.385   4.657  0.00  0.00    -0.393 OA
ATOM      5  H17 <0> d   1      20.111  -0.934   3.861  0.00  0.00     0.210 HD
ENDBRANCH   2   4
ENDBRANCH   1   2
BRANCH   1   6
ATOM      6  N7  <0> d   1      17.305  -0.866   6.861  0.00  0.00    -0.063 N 
ATOM      7  H8  <0> d   1      17.888  -0.820   7.683  0.00  0.00     0.275 HD
ATOM      8  H9  <0> d   1      16.893   0.038   6.689  0.00  0.00     0.275 HD
ATOM      9  H10 <0> d   1      16.573  -1.546   7.006  0.00  0.00     0.275 HD
ENDBRANCH   1   6
BRANCH   1  10
ATOM     10  C11 <0> d   1      19.160  -2.260   6.140  0.00  0.00     0.207 C 
ATOM     11  O12 <0> d   1      19.578  -3.090   5.352  0.00  0.00    -0.646 OA
ATOM     12  O13 <0> d   1      19.582  -2.237   7.284  0.00  0.00    -0.646 OA
ENDBRANCH   1  10
TORSDOF 4
ENDMDL
MODEL 2
REMARK VINA RESULT:      -3.6     11.291     12.205
REMARK  4 active torsions:
REMARK  status: ('A' for Active; 'I' for Inactive)
REMARK    1  A    between atoms: C2_2  and  O4_3 
REMARK    2  A    between atoms: C2_2  and  C5_4 
REMARK    3  A    between atoms: C5_4  and  N7_5 
REMARK    4  A    between atoms: C5_4  and  C11_9 
ROOT
ATOM      1  C5  <0> d   1      18.144   1.287  17.561  0.00  0.00     0.311 C 
ENDROOT
BRANCH   1   2
ATOM      2  C2  <0> d   1      18.617  -0.131  17.884  0.00  0.00     0.155 C 
ATOM      3  C1  <0> d   1      18.417  -1.027  16.660  0.00  0.00     0.042 C 
BRANCH   2   4
ATOM      4  O4  <0> d   1      20.003  -0.103  18.233  0.00  0.00    -0.393 OA
ATOM      5  H17 <0> d   1      20.294  -0.866  18.750  0.00  0.00     0.210 HD
ENDBRANCH   2   4
ENDBRANCH   1   2
BRANCH   1   6
ATOM      6  N7  <0> d   1      17.754   1.363  16.147  0.00  0.00    -0.063 N 
ATOM      7  H8  <0> d   1      16.756   1.235  16.066  0.00  0.00     0.275 HD
ATOM      8  H9  <0> d   1      18.008   2.265  15.775  0.00  0.00     0.275 HD
ATOM      9  H10 <0> d   1      18.228   0.640  15.627  0.00  0.00     0.275 HD
ENDBRANCH   1   6
BRANCH   1  10
ATOM     10  C11 <0> d   1      19.261   2.263  17.826  0.00  0.00     0.207 C 
ATOM     11  O12 <0> d   1      19.627   2.475  18.969  0.00  0.00    -0.646 OA
ATOM     12  O13 <0> d   1      19.798   2.841  16.896  0.00  0.00    -0.646 OA
ENDBRANCH   1  10
TORSDOF 4
ENDMDL
MODEL 3
REMARK VINA RESULT:      -3.6      6.093      6.892
REMARK  4 active torsions:
REMARK  status: ('A' for Active; 'I' for Inactive)
REMARK    1  A    between atoms: C2_2  and  O4_3 
REMARK    2  A    between atoms: C2_2  and  C5_4 
REMARK    3  A    between atoms: C5_4  and  N7_5 
REMARK    4  A    between atoms: C5_4  and  C11_9 
ROOT
ATOM      1  C5  <0> d   1      20.187   0.281  12.058  0.00  0.00     0.311 C 
ENDROOT
BRANCH   1   2
ATOM      2  C2  <0> d   1      19.952  -0.843  11.048  0.00  0.00     0.155 C 
ATOM      3  C1  <0> d   1      20.009  -0.274   9.629  0.00  0.00     0.042 C 
BRANCH   2   4
ATOM      4  O4  <0> d   1      20.964  -1.841  11.202  0.00  0.00    -0.393 OA
ATOM      5  H17 <0> d   1      20.636  -2.747  11.135  0.00  0.00     0.210 HD
ENDBRANCH   2   4
ENDBRANCH   1   2
BRANCH   1   6
ATOM      6  N7  <0> d   1      21.617   0.615  12.097  0.00  0.00    -0.063 N 
ATOM      7  H8  <0> d   1      22.020   0.476  11.182  0.00  0.00     0.275 HD
ATOM      8  H9  <0> d   1      21.731   1.578  12.372  0.00  0.00     0.275 HD
ATOM      9  H10 <0> d   1      22.084   0.018  12.764  0.00  0.00     0.275 HD
ENDBRANCH   1   6
BRANCH   1  10
ATOM     10  C11 <0> d   1      19.740  -0.169  13.425  0.00  0.00     0.207 C 
ATOM     11  O12 <0> d   1      19.372  -1.318  13.599  0.00  0.00    -0.646 OA
ATOM     12  O13 <0> d   1      19.745   0.617  14.357  0.00  0.00    -0.646 OA
ENDBRANCH   1  10
TORSDOF 4
ENDMDL
MODEL 4
REMARK VINA RESULT:      -3.6      5.333      5.966
REMARK  4 active torsions:
REMARK  status: ('A' for Active; 'I' for Inactive)
REMARK    1  A    between atoms: C2_2  and  O4_3 
REMARK    2  A    between atoms: C2_2  and  C5_4 
REMARK    3  A    between atoms: C5_4  and  N7_5 
REMARK    4  A    between atoms: C5_4  and  C11_9 
ROOT
ATOM      1  C5  <0> d   1      20.197  -0.308  11.035  0.00  0.00     0.311 C 
ENDROOT
BRANCH   1   2
ATOM      2  C2  <0> d   1      19.956   0.820  12.040  0.00  0.00     0.155 C 
ATOM      3  C1  <0> d   1      20.044   0.262  13.463  0.00  0.00     0.042 C 
BRANCH   2   4
ATOM      4  O4  <0> d   1      20.947   1.834  11.865  0.00  0.00    -0.393 OA
ATOM      5  H17 <0> d   1      21.849   1.495  11.794  0.00  0.00     0.210 HD
ENDBRANCH   2   4
ENDBRANCH   1   2
BRANCH   1   6
ATOM      6  N7  <0> d   1      21.631  -0.620  10.983  0.00  0.00    -0.063 N 
ATOM      7  H8  <0> d   1      22.058  -0.390  11.868  0.00  0.00     0.275 HD
ATOM      8  H9  <0> d   1      21.756  -1.602  10.795  0.00  0.00     0.275 HD
ATOM      9  H10 <0> d   1      22.067  -0.079  10.250  0.00  0.00     0.275 HD
ENDBRANCH   1   6
BRANCH   1  10
ATOM     10  C11 <0> d   1      19.728   0.126   9.670  0.00  0.00     0.207 C 
ATOM     11  O12 <0> d   1      19.786  -0.648   8.731  0.00  0.00    -0.646 OA
ATOM     12  O13 <0> d   1      19.292   1.253   9.506  0.00  0.00    -0.646 OA
ENDBRANCH   1  10
TORSDOF 4
ENDMDL
MODEL 5
REMARK VINA RESULT:      -3.5      6.352      7.140
REMARK  4 active torsions:
REMARK  status: ('A' for Active; 'I' for Inactive)
REMARK    1  A    between atoms: C2_2  and  O4_3 
REMARK    2  A    between atoms: C2_2  and  C5_4 
REMARK    3  A    between atoms: C5_4  and  N7_5 
REMARK    4  A    between atoms: C5_4  and  C11_9 
ROOT
ATOM      1  C5  <0> d   1      19.651   1.686  11.405  0.00  0.00     0.311 C 
ENDROOT
BRANCH   1   2
ATOM      2  C2  <0> d   1      20.344   0.391  11.833  0.00  0.00     0.155 C 
ATOM      3  C1  <0> d   1      20.308  -0.613  10.679  0.00  0.00     0.042 C 
BRANCH   2   4
ATOM      4  O4  <0> d   1      21.703   0.671  12.178  0.00  0.00    -0.393 OA
ATOM      5  H17 <0> d   1      21.822   0.983  13.085  0.00  0.00     0.210 HD
ENDBRANCH   2   4
ENDBRANCH   1   2
BRANCH   1   6
ATOM      6  N7  <0> d   1      20.522   2.830  11.704  0.00  0.00    -0.063 N 
ATOM      7  H8  <0> d   1      21.433   2.674  11.299  0.00  0.00     0.275 HD
ATOM      8  H9  <0> d   1      20.120   3.670  11.316  0.00  0.00     0.275 HD
ATOM      9  H10 <0> d   1      20.612   2.932  12.704  0.00  0.00     0.275 HD
ENDBRANCH   1   6
BRANCH   1  10
ATOM     10  C11 <0> d   1      18.353   1.833  12.156  0.00  0.00     0.207 C 
ATOM     11  O12 <0> d   1      18.313   1.613  13.355  0.00  0.00    -0.646 OA
ATOM     12  O13 <0> d   1      17.342   2.172  11.565  0.00  0.00    -0.646 OA
ENDBRANCH   1  10
TORSDOF 4
ENDMDL
MODEL 6
REMARK VINA RESULT:      -3.4     10.377     11.207
REMARK  4 active torsions:
REMARK  status: ('A' for Active; 'I' for Inactive)
REMARK    1  A    between atoms: C2_2  and  O4_3 
REMARK    2  A    between atoms: C2_2  and  C5_4 
REMARK    3  A    between atoms: C5_4  and  N7_5 
REMARK    4  A    between atoms: C5_4  and  C11_9 
ROOT
ATOM      1  C5  <0> d   1      18.415   0.473  16.952  0.00  0.00     0.311 C 
ENDROOT
BRANCH   1   2
ATOM      2  C2  <0> d   1      18.466   0.613  15.429  0.00  0.00     0.155 C 
ATOM      3  C1  <0> d   1      18.123  -0.731  14.782  0.00  0.00     0.042 C 
BRANCH   2   4
ATOM      4  O4  <0> d   1      17.520   1.599  15.010  0.00  0.00    -0.393 OA
ATOM      5  H17 <0> d   1      17.048   2.026  15.738  0.00  0.00     0.210 HD
ENDBRANCH   2   4
ENDBRANCH   1   2
BRANCH   1   6
ATOM      6  N7  <0> d   1      17.039   0.689  17.418  0.00  0.00    -0.063 N 
ATOM      7  H8  <0> d   1      16.702   1.575  17.073  0.00  0.00     0.275 HD
ATOM      8  H9  <0> d   1      16.447  -0.052  17.077  0.00  0.00     0.275 HD
ATOM      9  H10 <0> d   1      17.022   0.694  18.427  0.00  0.00     0.275 HD
ENDBRANCH   1   6
BRANCH   1  10
ATOM     10  C11 <0> d   1      19.325   1.495  17.582  0.00  0.00     0.207 C 
ATOM     11  O12 <0> d   1      19.803   1.289  18.684  0.00  0.00    -0.646 OA
ATOM     12  O13 <0> d   1      19.581   2.530  16.990  0.00  0.00    -0.646 OA
ENDBRANCH   1  10
TORSDOF 4
ENDMDL
MODEL 7
REMARK VINA RESULT:      -3.4      6.642      7.633
REMARK  4 active torsions:
REMARK  status: ('A' for Active; 'I' for Inactive)
REMARK    1  A    between atoms: C2_2  and  O4_3 
REMARK    2  A    between atoms: C2_2  and  C5_4 
REMARK    3  A    between atoms: C5_4  and  N7_5 
REMARK    4  A    between atoms: C5_4  and  C11_9 
ROOT
ATOM      1  C5  <0> d   1      20.087   0.604  11.913  0.00  0.00     0.311 C 
ENDROOT
BRANCH   1   2
ATOM      2  C2  <0> d   1      19.341   0.389  13.232  0.00  0.00     0.155 C 
ATOM      3  C1  <0> d   1      19.393  -1.092  13.612  0.00  0.00     0.042 C 
BRANCH   2   4
ATOM      4  O4  <0> d   1      19.959   1.167  14.260  0.00  0.00    -0.393 OA
ATOM      5  H17 <0> d   1      19.574   1.036  15.137  0.00  0.00     0.210 HD
ENDBRANCH   2   4
ENDBRANCH   1   2
BRANCH   1   6
ATOM      6  N7  <0> d   1      21.535   0.599  12.163  0.00  0.00    -0.063 N 
ATOM      7  H8  <0> d   1      21.873   1.549  12.201  0.00  0.00     0.275 HD
ATOM      8  H9  <0> d   1      21.724   0.139  13.040  0.00  0.00     0.275 HD
ATOM      9  H10 <0> d   1      22.003   0.106  11.417  0.00  0.00     0.275 HD
ENDBRANCH   1   6
BRANCH   1  10
ATOM     10  C11 <0> d   1      19.685   1.927  11.317  0.00  0.00     0.207 C 
ATOM     11  O12 <0> d   1      19.740   2.942  11.990  0.00  0.00    -0.646 OA
ATOM     12  O13 <0> d   1      19.302   1.983  10.160  0.00  0.00    -0.646 OA
ENDBRANCH   1  10
TORSDOF 4
ENDMDL
MODEL 8
REMARK VINA RESULT:      -3.4      6.720      7.726
REMARK  4 active torsions:
REMARK  status: ('A' for Active; 'I' for Inactive)
REMARK    1  A    between atoms: C2_2  and  O4_3 
REMARK    2  A    between atoms: C2_2  and  C5_4 
REMARK    3  A    between atoms: C5_4  and  N7_5 
REMARK    4  A    between atoms: C5_4  and  C11_9 
ROOT
ATOM      1  C5  <0> d   1      19.319   3.714  11.804  0.00  0.00     0.311 C 
ENDROOT
BRANCH   1   2
ATOM      2  C2  <0> d   1      18.409   3.420  10.610  0.00  0.00     0.155 C 
ATOM      3  C1  <0> d   1      19.078   2.387   9.700  0.00  0.00     0.042 C 
BRANCH   2   4
ATOM      4  O4  <0> d   1      17.161   2.904  11.079  0.00  0.00    -0.393 OA
ATOM      5  H17 <0> d   1      16.525   2.714  10.376  0.00  0.00     0.210 HD
ENDBRANCH   2   4
ENDBRANCH   1   2
BRANCH   1   6
ATOM      6  N7  <0> d   1      20.642   3.122  11.569  0.00  0.00    -0.063 N 
ATOM      7  H8  <0> d   1      20.971   2.684  12.417  0.00  0.00     0.275 HD
ATOM      8  H9  <0> d   1      20.577   2.431  10.837  0.00  0.00     0.275 HD
ATOM      9  H10 <0> d   1      21.290   3.845  11.291  0.00  0.00     0.275 HD
ENDBRANCH   1   6
BRANCH   1  10
ATOM     10  C11 <0> d   1      18.719   3.122  13.053  0.00  0.00     0.207 C 
ATOM     11  O12 <0> d   1      18.958   1.965  13.355  0.00  0.00    -0.646 OA
ATOM     12  O13 <0> d   1      17.992   3.799  13.760  0.00  0.00    -0.646 OA
ENDBRANCH   1  10
TORSDOF 4
ENDMDL
MODEL 9
REMARK VINA RESULT:      -3.4      1.552      2.260
REMARK  4 active torsions:
REMARK  status: ('A' for Active; 'I' for Inactive)
REMARK    1  A    between atoms: C2_2  and  O4_3 
REMARK    2  A    between atoms: C2_2  and  C5_4 
REMARK    3  A    between atoms: C5_4  and  N7_5 
REMARK    4  A    between atoms: C5_4  and  C11_9 
ROOT
ATOM      1  C5  <0> d   1      18.398  -1.413   6.625  0.00  0.00     0.311 C 
ENDROOT
BRANCH   1   2
ATOM      2  C2  <0> d   1      19.068  -0.454   7.612  0.00  0.00     0.155 C 
ATOM      3  C1  <0> d   1      17.996   0.299   8.401  0.00  0.00     0.042 C 
BRANCH   2   4
ATOM      4  O4  <0> d   1      19.890  -1.198   8.514  0.00  0.00    -0.393 OA
ATOM      5  H17 <0> d   1      20.465  -0.651   9.065  0.00  0.00     0.210 HD
ENDBRANCH   2   4
ENDBRANCH   1   2
BRANCH   1   6
ATOM      6  N7  <0> d   1      17.765  -2.513   7.365  0.00  0.00    -0.063 N 
ATOM      7  H8  <0> d   1      17.404  -2.166   8.241  0.00  0.00     0.275 HD
ATOM      8  H9  <0> d   1      17.009  -2.896   6.818  0.00  0.00     0.275 HD
ATOM      9  H10 <0> d   1      18.448  -3.234   7.545  0.00  0.00     0.275 HD
ENDBRANCH   1   6
BRANCH   1  10
ATOM     10  C11 <0> d   1      19.432  -1.971   5.683  0.00  0.00     0.207 C 
ATOM     11  O12 <0> d   1      19.951  -3.049   5.916  0.00  0.00    -0.646 OA
ATOM     12  O13 <0> d   1      19.752  -1.343   4.688  0.00  0.00    -0.646 OA
ENDBRANCH   1  10
TORSDOF 4
ENDMDL
