MODEL 1
REMARK VINA RESULT:      -5.0      0.000      0.000
REMARK  11 active torsions:
REMARK  status: ('A' for Active; 'I' for Inactive)
REMARK    1  A    between atoms: C2_2  and  C3_3 
REMARK    2  A    between atoms: C3_3  and  C5_4 
REMARK    3  A    between atoms: C3_3  and  N7_6 
REMARK    4  A    between atoms: C5_4  and  O6_5 
REMARK    5  A    between atoms: N7_6  and  C10_9 
REMARK    6  A    between atoms: C10_9  and  C11_10 
REMARK    7  A    between atoms: C11_10  and  N12_11 
REMARK    8  A    between atoms: N12_11  and  C15_14 
REMARK    9  A    between atoms: C15_14  and  C17_15 
REMARK   10  A    between atoms: C15_14  and  C19_17 
REMARK   11  A    between atoms: C19_17  and  O20_18 
ROOT
ATOM      1  C10 ZIN A   1      18.469   1.616  13.949  0.00  0.00     0.260 C 
ENDROOT
BRANCH   1   2
ATOM      2  N7  ZIN A   1      19.572   1.960  13.041  0.00  0.00    -0.067 N 
ATOM      3  H8  ZIN A   1      20.447   1.663  13.446  0.00  0.00     0.277 HD
ATOM      4  H9  ZIN A   1      19.589   2.959  12.897  0.00  0.00     0.277 HD
BRANCH   2   5
ATOM      5  C3  ZIN A   1      19.374   1.283  11.752  0.00  0.00     0.209 C 
BRANCH   5   6
ATOM      6  C2  ZIN A   1      19.476   2.306  10.618  0.00  0.00     0.030 C 
ATOM      7  C1  ZIN A   1      18.080   2.829  10.274  0.00  0.00     0.007 C 
ENDBRANCH   5   6
BRANCH   5   8
ATOM      8  C5  ZIN A   1      20.447   0.210  11.570  0.00  0.00     0.197 C 
BRANCH   8   9
ATOM      9  O6  ZIN A   1      21.673   0.658  12.153  0.00  0.00    -0.399 OA
ATOM     10  H28 ZIN A   1      21.714   0.549  13.113  0.00  0.00     0.209 HD
ENDBRANCH   8   9
ENDBRANCH   5   8
ENDBRANCH   2   5
ENDBRANCH   1   2
BRANCH   1  11
ATOM     11  C11 ZIN A   1      18.797   2.110  15.359  0.00  0.00     0.260 C 
BRANCH  11  12
ATOM     12  N12 ZIN A   1      19.122   0.962  16.217  0.00  0.00    -0.067 N 
ATOM     13  H13 ZIN A   1      19.187   0.129  15.653  0.00  0.00     0.277 HD
ATOM     14  H14 ZIN A   1      20.004   1.127  16.679  0.00  0.00     0.277 HD
BRANCH  12  15
ATOM     15  C15 ZIN A   1      18.066   0.790  17.225  0.00  0.00     0.209 C 
BRANCH  15  16
ATOM     16  C17 ZIN A   1      17.255  -0.467  16.903  0.00  0.00     0.030 C 
ATOM     17  C18 ZIN A   1      18.163  -1.504  16.239  0.00  0.00     0.007 C 
ENDBRANCH  15  16
BRANCH  15  18
ATOM     18  C19 ZIN A   1      18.701   0.647  18.608  0.00  0.00     0.197 C 
BRANCH  18  19
ATOM     19  O20 ZIN A   1      19.612   1.725  18.828  0.00  0.00    -0.399 OA
ATOM     20  H40 ZIN A   1      20.141   1.958  18.052  0.00  0.00     0.209 HD
ENDBRANCH  18  19
ENDBRANCH  15  18
ENDBRANCH  12  15
ENDBRANCH  11  12
ENDBRANCH   1  11
TORSDOF 11
ENDMDL
MODEL 2
REMARK VINA RESULT:      -5.0      3.208      3.968
REMARK  11 active torsions:
REMARK  status: ('A' for Active; 'I' for Inactive)
REMARK    1  A    between atoms: C2_2  and  C3_3 
REMARK    2  A    between atoms: C3_3  and  C5_4 
REMARK    3  A    between atoms: C3_3  and  N7_6 
REMARK    4  A    between atoms: C5_4  and  O6_5 
REMARK    5  A    between atoms: N7_6  and  C10_9 
REMARK    6  A    between atoms: C10_9  and  C11_10 
REMARK    7  A    between atoms: C11_10  and  N12_11 
REMARK    8  A    between atoms: N12_11  and  C15_14 
REMARK    9  A    between atoms: C15_14  and  C17_15 
REMARK   10  A    between atoms: C15_14  and  C19_17 
REMARK   11  A    between atoms: C19_17  and  O20_18 
ROOT
ATOM      1  C10 ZIN A   1      19.014   2.883  10.350  0.00  0.00     0.260 C 
ENDROOT
BRANCH   1   2
ATOM      2  N7  ZIN A   1      19.755   1.750   9.779  0.00  0.00    -0.067 N 
ATOM      3  H8  ZIN A   1      20.509   1.495  10.399  0.00  0.00     0.277 HD
ATOM      4  H9  ZIN A   1      20.131   2.012   8.881  0.00  0.00     0.277 HD
BRANCH   2   5
ATOM      5  C3  ZIN A   1      18.848   0.605   9.615  0.00  0.00     0.209 C 
BRANCH   5   6
ATOM      6  C2  ZIN A   1      17.981   0.817   8.371  0.00  0.00     0.030 C 
ATOM      7  C1  ZIN A   1      18.880   0.999   7.148  0.00  0.00     0.007 C 
ENDBRANCH   5   6
BRANCH   5   8
ATOM      8  C5  ZIN A   1      19.668  -0.675   9.455  0.00  0.00     0.197 C 
BRANCH   8   9
ATOM      9  O6  ZIN A   1      21.047  -0.392   9.698  0.00  0.00    -0.399 OA
ATOM     10  H28 ZIN A   1      21.467   0.136   9.005  0.00  0.00     0.209 HD
ENDBRANCH   8   9
ENDBRANCH   5   8
ENDBRANCH   2   5
ENDBRANCH   1   2
BRANCH   1  11
ATOM     11  C11 ZIN A   1      18.517   2.514  11.749  0.00  0.00     0.260 C 
BRANCH  11  12
ATOM     12  N12 ZIN A   1      19.666   2.350  12.649  0.00  0.00    -0.067 N 
ATOM     13  H13 ZIN A   1      20.512   2.277  12.105  0.00  0.00     0.277 HD
ATOM     14  H14 ZIN A   1      19.728   3.147  13.265  0.00  0.00     0.277 HD
BRANCH  12  15
ATOM     15  C15 ZIN A   1      19.492   1.128  13.448  0.00  0.00     0.209 C 
BRANCH  15  16
ATOM     16  C17 ZIN A   1      18.072   0.591  13.256  0.00  0.00     0.030 C 
ATOM     17  C18 ZIN A   1      18.112  -0.935  13.158  0.00  0.00     0.007 C 
ENDBRANCH  15  16
BRANCH  15  18
ATOM     18  C19 ZIN A   1      20.502   0.074  12.993  0.00  0.00     0.197 C 
BRANCH  18  19
ATOM     19  O20 ZIN A   1      21.535   0.702  12.230  0.00  0.00    -0.399 OA
ATOM     20  H40 ZIN A   1      21.991   1.415  12.697  0.00  0.00     0.209 HD
ENDBRANCH  18  19
ENDBRANCH  15  18
ENDBRANCH  12  15
ENDBRANCH  11  12
ENDBRANCH   1  11
TORSDOF 11
ENDMDL
MODEL 3
REMARK VINA RESULT:      -5.0      2.605      3.585
REMARK  11 active torsions:
REMARK  status: ('A' for Active; 'I' for Inactive)
REMARK    1  A    between atoms: C2_2  and  C3_3 
REMARK    2  A    between atoms: C3_3  and  C5_4 
REMARK    3  A    between atoms: C3_3  and  N7_6 
REMARK    4  A    between atoms: C5_4  and  O6_5 
REMARK    5  A    between atoms: N7_6  and  C10_9 
REMARK    6  A    between atoms: C10_9  and  C11_10 
REMARK    7  A    between atoms: C11_10  and  N12_11 
REMARK    8  A    between atoms: N12_11  and  C15_14 
REMARK    9  A    between atoms: C15_14  and  C17_15 
REMARK   10  A    between atoms: C15_14  and  C19_17 
REMARK   11  A    between atoms: C19_17  and  O20_18 
ROOT
ATOM      1  C10 ZIN A   1      17.915   3.028  14.306  0.00  0.00     0.260 C 
ENDROOT
BRANCH   1   2
ATOM      2  N7  ZIN A   1      17.780   4.008  13.220  0.00  0.00    -0.067 N 
ATOM      3  H8  ZIN A   1      18.093   4.912  13.541  0.00  0.00     0.277 HD
ATOM      4  H9  ZIN A   1      16.814   4.067  12.938  0.00  0.00     0.277 HD
BRANCH   2   5
ATOM      5  C3  ZIN A   1      18.600   3.585  12.076  0.00  0.00     0.209 C 
BRANCH   5   6
ATOM      6  C2  ZIN A   1      17.820   3.812  10.779  0.00  0.00     0.030 C 
ATOM      7  C1  ZIN A   1      16.783   4.915  10.993  0.00  0.00     0.007 C 
ENDBRANCH   5   6
BRANCH   5   8
ATOM      8  C5  ZIN A   1      19.892   4.402  12.044  0.00  0.00     0.197 C 
BRANCH   8   9
ATOM      9  O6  ZIN A   1      21.001   3.530  11.820  0.00  0.00    -0.399 OA
ATOM     10  H28 ZIN A   1      21.492   3.303  12.622  0.00  0.00     0.209 HD
ENDBRANCH   8   9
ENDBRANCH   5   8
ENDBRANCH   2   5
ENDBRANCH   1   2
BRANCH   1  11
ATOM     11  C11 ZIN A   1      18.415   1.700  13.735  0.00  0.00     0.260 C 
BRANCH  11  12
ATOM     12  N12 ZIN A   1      19.533   1.207  14.550  0.00  0.00    -0.067 N 
ATOM     13  H13 ZIN A   1      20.238   1.925  14.623  0.00  0.00     0.277 HD
ATOM     14  H14 ZIN A   1      19.199   0.968  15.471  0.00  0.00     0.277 HD
BRANCH  12  15
ATOM     15  C15 ZIN A   1      20.113   0.014  13.916  0.00  0.00     0.209 C 
BRANCH  15  16
ATOM     16  C17 ZIN A   1      19.186  -1.182  14.136  0.00  0.00     0.030 C 
ATOM     17  C18 ZIN A   1      18.962  -1.385  15.636  0.00  0.00     0.007 C 
ENDBRANCH  15  16
BRANCH  15  18
ATOM     18  C19 ZIN A   1      20.277   0.264  12.416  0.00  0.00     0.197 C 
BRANCH  18  19
ATOM     19  O20 ZIN A   1      21.630   0.633  12.139  0.00  0.00    -0.399 OA
ATOM     20  H40 ZIN A   1      21.807   1.579  12.237  0.00  0.00     0.209 HD
ENDBRANCH  18  19
ENDBRANCH  15  18
ENDBRANCH  12  15
ENDBRANCH  11  12
ENDBRANCH   1  11
TORSDOF 11
ENDMDL
MODEL 4
REMARK VINA RESULT:      -4.9      2.259      5.776
REMARK  11 active torsions:
REMARK  status: ('A' for Active; 'I' for Inactive)
REMARK    1  A    between atoms: C2_2  and  C3_3 
REMARK    2  A    between atoms: C3_3  and  C5_4 
REMARK    3  A    between atoms: C3_3  and  N7_6 
REMARK    4  A    between atoms: C5_4  and  O6_5 
REMARK    5  A    between atoms: N7_6  and  C10_9 
REMARK    6  A    between atoms: C10_9  and  C11_10 
REMARK    7  A    between atoms: C11_10  and  N12_11 
REMARK    8  A    between atoms: N12_11  and  C15_14 
REMARK    9  A    between atoms: C15_14  and  C17_15 
REMARK   10  A    between atoms: C15_14  and  C19_17 
REMARK   11  A    between atoms: C19_17  and  O20_18 
ROOT
ATOM      1  C10 ZIN A   1      18.759   1.552  13.097  0.00  0.00     0.260 C 
ENDROOT
BRANCH   1   2
ATOM      2  N7  ZIN A   1      19.613   1.346  14.275  0.00  0.00    -0.067 N 
ATOM      3  H8  ZIN A   1      19.551   2.151  14.880  0.00  0.00     0.277 HD
ATOM      4  H9  ZIN A   1      20.569   1.220  13.980  0.00  0.00     0.277 HD
BRANCH   2   5
ATOM      5  C3  ZIN A   1      19.163   0.151  15.003  0.00  0.00     0.209 C 
BRANCH   5   6
ATOM      6  C2  ZIN A   1      17.866   0.468  15.751  0.00  0.00     0.030 C 
ATOM      7  C1  ZIN A   1      17.399  -0.774  16.511  0.00  0.00     0.007 C 
ENDBRANCH   5   6
BRANCH   5   8
ATOM      8  C5  ZIN A   1      18.916  -0.986  14.011  0.00  0.00     0.197 C 
BRANCH   8   9
ATOM      9  O6  ZIN A   1      20.141  -1.679  13.766  0.00  0.00    -0.399 OA
ATOM     10  H28 ZIN A   1      20.566  -2.021  14.565  0.00  0.00     0.209 HD
ENDBRANCH   8   9
ENDBRANCH   5   8
ENDBRANCH   2   5
ENDBRANCH   1   2
BRANCH   1  11
ATOM     11  C11 ZIN A   1      19.392   2.607  12.187  0.00  0.00     0.260 C 
BRANCH  11  12
ATOM     12  N12 ZIN A   1      20.081   1.942  11.074  0.00  0.00    -0.067 N 
ATOM     13  H13 ZIN A   1      20.099   2.558  10.274  0.00  0.00     0.277 HD
ATOM     14  H14 ZIN A   1      21.026   1.719  11.348  0.00  0.00     0.277 HD
BRANCH  12  15
ATOM     15  C15 ZIN A   1      19.368   0.706  10.723  0.00  0.00     0.209 C 
BRANCH  15  16
ATOM     16  C17 ZIN A   1      18.562   0.928   9.443  0.00  0.00     0.030 C 
ATOM     17  C18 ZIN A   1      19.358   1.818   8.486  0.00  0.00     0.007 C 
ENDBRANCH  15  16
BRANCH  15  18
ATOM     18  C19 ZIN A   1      20.379  -0.420  10.502  0.00  0.00     0.197 C 
BRANCH  18  19
ATOM     19  O20 ZIN A   1      21.508  -0.222  11.356  0.00  0.00    -0.399 OA
ATOM     20  H40 ZIN A   1      21.358   0.421  12.063  0.00  0.00     0.209 HD
ENDBRANCH  18  19
ENDBRANCH  15  18
ENDBRANCH  12  15
ENDBRANCH  11  12
ENDBRANCH   1  11
TORSDOF 11
ENDMDL
MODEL 5
REMARK VINA RESULT:      -4.9      3.374      6.906
REMARK  11 active torsions:
REMARK  status: ('A' for Active; 'I' for Inactive)
REMARK    1  A    between atoms: C2_2  and  C3_3 
REMARK    2  A    between atoms: C3_3  and  C5_4 
REMARK    3  A    between atoms: C3_3  and  N7_6 
REMARK    4  A    between atoms: C5_4  and  O6_5 
REMARK    5  A    between atoms: N7_6  and  C10_9 
REMARK    6  A    between atoms: C10_9  and  C11_10 
REMARK    7  A    between atoms: C11_10  and  N12_11 
REMARK    8  A    between atoms: N12_11  and  C15_14 
REMARK    9  A    between atoms: C15_14  and  C17_15 
REMARK   10  A    between atoms: C15_14  and  C19_17 
REMARK   11  A    between atoms: C19_17  and  O20_18 
ROOT
ATOM      1  C10 ZIN A   1      19.298  -2.299  10.777  0.00  0.00     0.260 C 
ENDROOT
BRANCH   1   2
ATOM      2  N7  ZIN A   1      20.240  -1.363  11.406  0.00  0.00    -0.067 N 
ATOM      3  H8  ZIN A   1      20.591  -0.720  10.712  0.00  0.00     0.277 HD
ATOM      4  H9  ZIN A   1      21.008  -1.878  11.808  0.00  0.00     0.277 HD
BRANCH   2   5
ATOM      5  C3  ZIN A   1      19.548  -0.611  12.463  0.00  0.00     0.209 C 
BRANCH   5   6
ATOM      6  C2  ZIN A   1      19.425  -1.486  13.713  0.00  0.00     0.030 C 
ATOM      7  C1  ZIN A   1      18.635  -0.736  14.786  0.00  0.00     0.007 C 
ENDBRANCH   5   6
BRANCH   5   8
ATOM      8  C5  ZIN A   1      20.348   0.649  12.798  0.00  0.00     0.197 C 
BRANCH   8   9
ATOM      9  O6  ZIN A   1      21.600   0.616  12.111  0.00  0.00    -0.399 OA
ATOM     10  H28 ZIN A   1      22.345   0.939  12.635  0.00  0.00     0.209 HD
ENDBRANCH   8   9
ENDBRANCH   5   8
ENDBRANCH   2   5
ENDBRANCH   1   2
BRANCH   1  11
ATOM     11  C11 ZIN A   1      18.734  -1.672   9.500  0.00  0.00     0.260 C 
BRANCH  11  12
ATOM     12  N12 ZIN A   1      19.735  -0.773   8.912  0.00  0.00    -0.067 N 
ATOM     13  H13 ZIN A   1      20.161  -0.222   9.641  0.00  0.00     0.277 HD
ATOM     14  H14 ZIN A   1      20.443  -1.318   8.443  0.00  0.00     0.277 HD
BRANCH  12  15
ATOM     15  C15 ZIN A   1      19.083   0.119   7.942  0.00  0.00     0.209 C 
BRANCH  15  16
ATOM     16  C17 ZIN A   1      17.589  -0.204   7.877  0.00  0.00     0.030 C 
ATOM     17  C18 ZIN A   1      17.092  -0.032   6.440  0.00  0.00     0.007 C 
ENDBRANCH  15  16
BRANCH  15  18
ATOM     18  C19 ZIN A   1      19.272   1.572   8.379  0.00  0.00     0.197 C 
BRANCH  18  19
ATOM     19  O20 ZIN A   1      19.934   1.606   9.645  0.00  0.00    -0.399 OA
ATOM     20  H40 ZIN A   1      19.337   1.545  10.404  0.00  0.00     0.209 HD
ENDBRANCH  18  19
ENDBRANCH  15  18
ENDBRANCH  12  15
ENDBRANCH  11  12
ENDBRANCH   1  11
TORSDOF 11
ENDMDL
MODEL 6
REMARK VINA RESULT:      -4.9      5.138      6.258
REMARK  11 active torsions:
REMARK  status: ('A' for Active; 'I' for Inactive)
REMARK    1  A    between atoms: C2_2  and  C3_3 
REMARK    2  A    between atoms: C3_3  and  C5_4 
REMARK    3  A    between atoms: C3_3  and  N7_6 
REMARK    4  A    between atoms: C5_4  and  O6_5 
REMARK    5  A    between atoms: N7_6  and  C10_9 
REMARK    6  A    between atoms: C10_9  and  C11_10 
REMARK    7  A    between atoms: C11_10  and  N12_11 
REMARK    8  A    between atoms: N12_11  and  C15_14 
REMARK    9  A    between atoms: C15_14  and  C17_15 
REMARK   10  A    between atoms: C15_14  and  C19_17 
REMARK   11  A    between atoms: C19_17  and  O20_18 
ROOT
ATOM      1  C10 ZIN A   1      18.937  -1.261   8.126  0.00  0.00     0.260 C 
ENDROOT
BRANCH   1   2
ATOM      2  N7  ZIN A   1      20.090  -0.905   8.964  0.00  0.00    -0.067 N 
ATOM      3  H8  ZIN A   1      20.880  -0.688   8.376  0.00  0.00     0.277 HD
ATOM      4  H9  ZIN A   1      20.321  -1.681   9.566  0.00  0.00     0.277 HD
BRANCH   2   5
ATOM      5  C3  ZIN A   1      19.754   0.268   9.785  0.00  0.00     0.209 C 
BRANCH   5   6
ATOM      6  C2  ZIN A   1      18.236   0.355   9.952  0.00  0.00     0.030 C 
ATOM      7  C1  ZIN A   1      17.844   1.785  10.327  0.00  0.00     0.007 C 
ENDBRANCH   5   6
BRANCH   5   8
ATOM      8  C5  ZIN A   1      20.412   0.133  11.159  0.00  0.00     0.197 C 
BRANCH   8   9
ATOM      9  O6  ZIN A   1      21.649  -0.570  11.028  0.00  0.00    -0.399 OA
ATOM     10  H28 ZIN A   1      21.624  -1.476  11.366  0.00  0.00     0.209 HD
ENDBRANCH   8   9
ENDBRANCH   5   8
ENDBRANCH   2   5
ENDBRANCH   1   2
BRANCH   1  11
ATOM     11  C11 ZIN A   1      18.652  -2.758   8.261  0.00  0.00     0.260 C 
BRANCH  11  12
ATOM     12  N12 ZIN A   1      19.558  -3.341   9.260  0.00  0.00    -0.067 N 
ATOM     13  H13 ZIN A   1      20.021  -4.145   8.866  0.00  0.00     0.277 HD
ATOM     14  H14 ZIN A   1      20.246  -2.654   9.531  0.00  0.00     0.277 HD
BRANCH  12  15
ATOM     15  C15 ZIN A   1      18.785  -3.751  10.441  0.00  0.00     0.209 C 
BRANCH  15  16
ATOM     16  C17 ZIN A   1      18.468  -5.245  10.349  0.00  0.00     0.030 C 
ATOM     17  C18 ZIN A   1      17.332  -5.586  11.315  0.00  0.00     0.007 C 
ENDBRANCH  15  16
BRANCH  15  18
ATOM     18  C19 ZIN A   1      19.603  -3.480  11.704  0.00  0.00     0.197 C 
BRANCH  18  19
ATOM     19  O20 ZIN A   1      20.981  -3.326  11.356  0.00  0.00    -0.399 OA
ATOM     20  H40 ZIN A   1      21.260  -3.868  10.605  0.00  0.00     0.209 HD
ENDBRANCH  18  19
ENDBRANCH  15  18
ENDBRANCH  12  15
ENDBRANCH  11  12
ENDBRANCH   1  11
TORSDOF 11
ENDMDL
MODEL 7
REMARK VINA RESULT:      -4.9      1.420      2.043
REMARK  11 active torsions:
REMARK  status: ('A' for Active; 'I' for Inactive)
REMARK    1  A    between atoms: C2_2  and  C3_3 
REMARK    2  A    between atoms: C3_3  and  C5_4 
REMARK    3  A    between atoms: C3_3  and  N7_6 
REMARK    4  A    between atoms: C5_4  and  O6_5 
REMARK    5  A    between atoms: N7_6  and  C10_9 
REMARK    6  A    between atoms: C10_9  and  C11_10 
REMARK    7  A    between atoms: C11_10  and  N12_11 
REMARK    8  A    between atoms: N12_11  and  C15_14 
REMARK    9  A    between atoms: C15_14  and  C17_15 
REMARK   10  A    between atoms: C15_14  and  C19_17 
REMARK   11  A    between atoms: C19_17  and  O20_18 
ROOT
ATOM      1  C10 ZIN A   1      18.908   2.546  13.982  0.00  0.00     0.260 C 
ENDROOT
BRANCH   1   2
ATOM      2  N7  ZIN A   1      18.510   1.617  12.916  0.00  0.00    -0.067 N 
ATOM      3  H8  ZIN A   1      18.645   2.056  12.018  0.00  0.00     0.277 HD
ATOM      4  H9  ZIN A   1      17.538   1.372  13.028  0.00  0.00     0.277 HD
BRANCH   2   5
ATOM      5  C3  ZIN A   1      19.333   0.401  12.995  0.00  0.00     0.209 C 
BRANCH   5   6
ATOM      6  C2  ZIN A   1      18.425  -0.831  12.966  0.00  0.00     0.030 C 
ATOM      7  C1  ZIN A   1      19.282  -2.093  12.865  0.00  0.00     0.007 C 
ENDBRANCH   5   6
BRANCH   5   8
ATOM      8  C5  ZIN A   1      20.292   0.358  11.805  0.00  0.00     0.197 C 
BRANCH   8   9
ATOM      9  O6  ZIN A   1      21.613   0.676  12.247  0.00  0.00    -0.399 OA
ATOM     10  H28 ZIN A   1      21.853   1.605  12.131  0.00  0.00     0.209 HD
ENDBRANCH   8   9
ENDBRANCH   5   8
ENDBRANCH   2   5
ENDBRANCH   1   2
BRANCH   1  11
ATOM     11  C11 ZIN A   1      19.120   1.769  15.283  0.00  0.00     0.260 C 
BRANCH  11  12
ATOM     12  N12 ZIN A   1      17.864   1.734  16.043  0.00  0.00    -0.067 N 
ATOM     13  H13 ZIN A   1      17.661   2.655  16.400  0.00  0.00     0.277 HD
ATOM     14  H14 ZIN A   1      17.113   1.435  15.438  0.00  0.00     0.277 HD
BRANCH  12  15
ATOM     15  C15 ZIN A   1      17.995   0.792  17.164  0.00  0.00     0.209 C 
BRANCH  15  16
ATOM     16  C17 ZIN A   1      17.667  -0.622  16.682  0.00  0.00     0.030 C 
ATOM     17  C18 ZIN A   1      18.954  -1.445  16.599  0.00  0.00     0.007 C 
ENDBRANCH  15  16
BRANCH  15  18
ATOM     18  C19 ZIN A   1      19.428   0.830  17.695  0.00  0.00     0.197 C 
BRANCH  18  19
ATOM     19  O20 ZIN A   1      19.487   1.674  18.847  0.00  0.00    -0.399 OA
ATOM     20  H40 ZIN A   1      19.637   2.607  18.644  0.00  0.00     0.209 HD
ENDBRANCH  18  19
ENDBRANCH  15  18
ENDBRANCH  12  15
ENDBRANCH  11  12
ENDBRANCH   1  11
TORSDOF 11
ENDMDL
MODEL 8
REMARK VINA RESULT:      -4.8      4.670      6.748
REMARK  11 active torsions:
REMARK  status: ('A' for Active; 'I' for Inactive)
REMARK    1  A    between atoms: C2_2  and  C3_3 
REMARK    2  A    between atoms: C3_3  and  C5_4 
REMARK    3  A    between atoms: C3_3  and  N7_6 
REMARK    4  A    between atoms: C5_4  and  O6_5 
REMARK    5  A    between atoms: N7_6  and  C10_9 
REMARK    6  A    between atoms: C10_9  and  C11_10 
REMARK    7  A    between atoms: C11_10  and  N12_11 
REMARK    8  A    between atoms: N12_11  and  C15_14 
REMARK    9  A    between atoms: C15_14  and  C17_15 
REMARK   10  A    between atoms: C15_14  and  C19_17 
REMARK   11  A    between atoms: C19_17  and  O20_18 
ROOT
ATOM      1  C10 ZIN A   1      17.357  -1.311  11.949  0.00  0.00     0.260 C 
ENDROOT
BRANCH   1   2
ATOM      2  N7  ZIN A   1      18.733  -1.818  11.852  0.00  0.00    -0.067 N 
ATOM      3  H8  ZIN A   1      19.307  -1.369  12.549  0.00  0.00     0.277 HD
ATOM      4  H9  ZIN A   1      19.101  -1.620  10.934  0.00  0.00     0.277 HD
BRANCH   2   5
ATOM      5  C3  ZIN A   1      18.735  -3.271  12.077  0.00  0.00     0.209 C 
BRANCH   5   6
ATOM      6  C2  ZIN A   1      17.476  -3.884  11.459  0.00  0.00     0.030 C 
ATOM      7  C1  ZIN A   1      17.414  -5.373  11.800  0.00  0.00     0.007 C 
ENDBRANCH   5   6
BRANCH   5   8
ATOM      8  C5  ZIN A   1      19.975  -3.885  11.425  0.00  0.00     0.197 C 
BRANCH   8   9
ATOM      9  O6  ZIN A   1      20.997  -2.893  11.317  0.00  0.00    -0.399 OA
ATOM     10  H28 ZIN A   1      21.799  -3.099  11.817  0.00  0.00     0.209 HD
ENDBRANCH   8   9
ENDBRANCH   5   8
ENDBRANCH   2   5
ENDBRANCH   1   2
BRANCH   1  11
ATOM     11  C11 ZIN A   1      17.144  -0.214  10.903  0.00  0.00     0.260 C 
BRANCH  11  12
ATOM     12  N12 ZIN A   1      18.417   0.472  10.647  0.00  0.00    -0.067 N 
ATOM     13  H13 ZIN A   1      18.382   1.402  11.038  0.00  0.00     0.277 HD
ATOM     14  H14 ZIN A   1      19.170  -0.045  11.076  0.00  0.00     0.277 HD
BRANCH  12  15
ATOM     15  C15 ZIN A   1      18.645   0.559   9.198  0.00  0.00     0.209 C 
BRANCH  15  16
ATOM     16  C17 ZIN A   1      19.042   1.989   8.829  0.00  0.00     0.030 C 
ATOM     17  C18 ZIN A   1      18.948   2.881  10.068  0.00  0.00     0.007 C 
ENDBRANCH  15  16
BRANCH  15  18
ATOM     18  C19 ZIN A   1      19.766  -0.402   8.801  0.00  0.00     0.197 C 
BRANCH  18  19
ATOM     19  O20 ZIN A   1      20.752  -0.437   9.835  0.00  0.00    -0.399 OA
ATOM     20  H40 ZIN A   1      20.648   0.257  10.501  0.00  0.00     0.209 HD
ENDBRANCH  18  19
ENDBRANCH  15  18
ENDBRANCH  12  15
ENDBRANCH  11  12
ENDBRANCH   1  11
TORSDOF 11
ENDMDL
MODEL 9
REMARK VINA RESULT:      -4.8      0.850      5.803
REMARK  11 active torsions:
REMARK  status: ('A' for Active; 'I' for Inactive)
REMARK    1  A    between atoms: C2_2  and  C3_3 
REMARK    2  A    between atoms: C3_3  and  C5_4 
REMARK    3  A    between atoms: C3_3  and  N7_6 
REMARK    4  A    between atoms: C5_4  and  O6_5 
REMARK    5  A    between atoms: N7_6  and  C10_9 
REMARK    6  A    between atoms: C10_9  and  C11_10 
REMARK    7  A    between atoms: C11_10  and  N12_11 
REMARK    8  A    between atoms: N12_11  and  C15_14 
REMARK    9  A    between atoms: C15_14  and  C17_15 
REMARK   10  A    between atoms: C15_14  and  C19_17 
REMARK   11  A    between atoms: C19_17  and  O20_18 
ROOT
ATOM      1  C10 ZIN A   1      18.892   2.127  15.247  0.00  0.00     0.260 C 
ENDROOT
BRANCH   1   2
ATOM      2  N7  ZIN A   1      17.889   1.120  15.616  0.00  0.00    -0.067 N 
ATOM      3  H8  ZIN A   1      18.033   0.284  15.070  0.00  0.00     0.277 HD
ATOM      4  H9  ZIN A   1      16.965   1.484  15.437  0.00  0.00     0.277 HD
BRANCH   2   5
ATOM      5  C3  ZIN A   1      18.020   0.801  17.045  0.00  0.00     0.209 C 
BRANCH   5   6
ATOM      6  C2  ZIN A   1      18.548  -0.627  17.201  0.00  0.00     0.030 C 
ATOM      7  C1  ZIN A   1      18.241  -1.427  15.935  0.00  0.00     0.007 C 
ENDBRANCH   5   6
BRANCH   5   8
ATOM      8  C5  ZIN A   1      18.995   1.781  17.699  0.00  0.00     0.197 C 
BRANCH   8   9
ATOM      9  O6  ZIN A   1      19.946   1.056  18.481  0.00  0.00    -0.399 OA
ATOM     10  H28 ZIN A   1      20.689   1.591  18.792  0.00  0.00     0.209 HD
ENDBRANCH   8   9
ENDBRANCH   5   8
ENDBRANCH   2   5
ENDBRANCH   1   2
BRANCH   1  11
ATOM     11  C11 ZIN A   1      18.503   2.769  13.913  0.00  0.00     0.260 C 
BRANCH  11  12
ATOM     12  N12 ZIN A   1      19.599   2.603  12.951  0.00  0.00    -0.067 N 
ATOM     13  H13 ZIN A   1      19.673   3.431  12.379  0.00  0.00     0.277 HD
ATOM     14  H14 ZIN A   1      20.465   2.459  13.449  0.00  0.00     0.277 HD
BRANCH  12  15
ATOM     15  C15 ZIN A   1      19.328   1.439  12.095  0.00  0.00     0.209 C 
BRANCH  15  16
ATOM     16  C17 ZIN A   1      19.541   1.823  10.630  0.00  0.00     0.030 C 
ATOM     17  C18 ZIN A   1      18.676   3.039  10.290  0.00  0.00     0.007 C 
ENDBRANCH  15  16
BRANCH  15  18
ATOM     18  C19 ZIN A   1      20.278   0.301  12.468  0.00  0.00     0.197 C 
BRANCH  18  19
ATOM     19  O20 ZIN A   1      21.618   0.671  12.140  0.00  0.00    -0.399 OA
ATOM     20  H40 ZIN A   1      22.266   0.447  12.823  0.00  0.00     0.209 HD
ENDBRANCH  18  19
ENDBRANCH  15  18
ENDBRANCH  12  15
ENDBRANCH  11  12
ENDBRANCH   1  11
TORSDOF 11
ENDMDL
