MODEL 1
REMARK VINA RESULT:      -6.0      0.000      0.000
REMARK  4 active torsions:
REMARK  status: ('A' for Active; 'I' for Inactive)
REMARK    1  A    between atoms: C2_2  and  C3_3 
REMARK    2  A    between atoms: C3_3  and  C4_4 
REMARK    3  A    between atoms: C4_4  and  C7_6 
REMARK    4  A    between atoms: C7_6  and  C8_7 
ROOT
ATOM      1  C7  ZIN A   1      18.029   0.734  11.616  0.00  0.00     0.127 A 
ATOM      2  C10 ZIN A   1      16.883  -0.259  11.667  0.00  0.00     0.266 A 
ATOM      3  O11 ZIN A   1      15.733   0.100  11.540  0.00  0.00    -0.270 OA
ATOM      4  N12 ZIN A   1      17.193  -1.560  11.858  0.00  0.00    -0.157 NA
ATOM      5  C13 ZIN A   1      18.457  -1.973  11.999  0.00  0.00     0.351 A 
ATOM      6  O14 ZIN A   1      18.646  -3.162  12.167  0.00  0.00    -0.244 OA
ATOM      7  N15 ZIN A   1      19.530  -1.174  11.968  0.00  0.00    -0.276 N 
ATOM      8  C16 ZIN A   1      19.423   0.159  11.787  0.00  0.00     0.244 A 
ATOM      9  O17 ZIN A   1      20.403   0.871  11.762  0.00  0.00    -0.272 OA
ATOM     10  H33 ZIN A   1      20.411  -1.564  12.080  0.00  0.00     0.173 HD
ENDROOT
BRANCH   1  11
ATOM     11  C4  ZIN A   1      17.974   1.455  10.267  0.00  0.00     0.009 C 
ATOM     12  C6  ZIN A   1      18.531   2.871  10.423  0.00  0.00     0.011 C 
BRANCH  11  13
ATOM     13  C3  ZIN A   1      18.812   0.687   9.243  0.00  0.00     0.005 C 
BRANCH  13  14
ATOM     14  C2  ZIN A   1      19.336   1.658   8.183  0.00  0.00    -0.004 C 
ATOM     15  C1  ZIN A   1      18.915   1.172   6.795  0.00  0.00     0.005 C 
ENDBRANCH  13  14
ENDBRANCH  11  13
ENDBRANCH   1  11
BRANCH   1  16
ATOM     16  C8  ZIN A   1      17.803   1.771  12.718  0.00  0.00     0.025 C 
ATOM     17  C9  ZIN A   1      17.813   1.078  14.081  0.00  0.00     0.007 C 
ENDBRANCH   1  16
TORSDOF 4
ENDMDL
MODEL 2
REMARK VINA RESULT:      -6.0      1.192      2.008
REMARK  4 active torsions:
REMARK  status: ('A' for Active; 'I' for Inactive)
REMARK    1  A    between atoms: C2_2  and  C3_3 
REMARK    2  A    between atoms: C3_3  and  C4_4 
REMARK    3  A    between atoms: C4_4  and  C7_6 
REMARK    4  A    between atoms: C7_6  and  C8_7 
ROOT
ATOM      1  C7  ZIN A   1      18.237   0.499  12.286  0.00  0.00     0.127 A 
ATOM      2  C10 ZIN A   1      17.065  -0.384  11.903  0.00  0.00     0.266 A 
ATOM      3  O11 ZIN A   1      15.977   0.089  11.652  0.00  0.00    -0.270 OA
ATOM      4  N12 ZIN A   1      17.278  -1.717  11.851  0.00  0.00    -0.157 NA
ATOM      5  C13 ZIN A   1      18.471  -2.254  12.125  0.00  0.00     0.351 A 
ATOM      6  O14 ZIN A   1      18.575  -3.462  12.054  0.00  0.00    -0.244 OA
ATOM      7  N15 ZIN A   1      19.561  -1.558  12.471  0.00  0.00    -0.276 N 
ATOM      8  C16 ZIN A   1      19.546  -0.212  12.576  0.00  0.00     0.244 A 
ATOM      9  O17 ZIN A   1      20.540   0.405  12.891  0.00  0.00    -0.272 OA
ATOM     10  H33 ZIN A   1      20.386  -2.035  12.652  0.00  0.00     0.173 HD
ENDROOT
BRANCH   1  11
ATOM     11  C4  ZIN A   1      18.478   1.492  11.147  0.00  0.00     0.009 C 
ATOM     12  C6  ZIN A   1      18.018   0.873   9.826  0.00  0.00     0.011 C 
BRANCH  11  13
ATOM     13  C3  ZIN A   1      17.687   2.774  11.413  0.00  0.00     0.005 C 
BRANCH  13  14
ATOM     14  C2  ZIN A   1      17.950   3.778  10.288  0.00  0.00    -0.004 C 
ATOM     15  C1  ZIN A   1      17.132   5.047  10.536  0.00  0.00     0.005 C 
ENDBRANCH  13  14
ENDBRANCH  11  13
ENDBRANCH   1  11
BRANCH   1  16
ATOM     16  C8  ZIN A   1      17.841   1.294  13.532  0.00  0.00     0.025 C 
ATOM     17  C9  ZIN A   1      17.669   0.339  14.713  0.00  0.00     0.007 C 
ENDBRANCH   1  16
TORSDOF 4
ENDMDL
MODEL 3
REMARK VINA RESULT:      -6.0      2.148      4.291
REMARK  4 active torsions:
REMARK  status: ('A' for Active; 'I' for Inactive)
REMARK    1  A    between atoms: C2_2  and  C3_3 
REMARK    2  A    between atoms: C3_3  and  C4_4 
REMARK    3  A    between atoms: C4_4  and  C7_6 
REMARK    4  A    between atoms: C7_6  and  C8_7 
ROOT
ATOM      1  C7  ZIN A   1      18.216  -0.389  10.632  0.00  0.00     0.127 A 
ATOM      2  C10 ZIN A   1      17.101   0.527  11.101  0.00  0.00     0.266 A 
ATOM      3  O11 ZIN A   1      16.010   0.089  11.399  0.00  0.00    -0.270 OA
ATOM      4  N12 ZIN A   1      17.368   1.849  11.174  0.00  0.00    -0.157 NA
ATOM      5  C13 ZIN A   1      18.566   2.347  10.849  0.00  0.00     0.351 A 
ATOM      6  O14 ZIN A   1      18.720   3.549  10.945  0.00  0.00    -0.244 OA
ATOM      7  N15 ZIN A   1      19.607   1.621  10.427  0.00  0.00    -0.276 N 
ATOM      8  C16 ZIN A   1      19.533   0.280  10.289  0.00  0.00     0.244 A 
ATOM      9  O17 ZIN A   1      20.485  -0.365   9.905  0.00  0.00    -0.272 OA
ATOM     10  H33 ZIN A   1      20.439   2.071  10.214  0.00  0.00     0.173 HD
ENDROOT
BRANCH   1  11
ATOM     11  C4  ZIN A   1      18.478  -1.421  11.731  0.00  0.00     0.009 C 
ATOM     12  C6  ZIN A   1      18.183  -0.797  13.097  0.00  0.00     0.011 C 
BRANCH  11  13
ATOM     13  C3  ZIN A   1      17.570  -2.634  11.518  0.00  0.00     0.005 C 
BRANCH  13  14
ATOM     14  C2  ZIN A   1      18.359  -3.915  11.797  0.00  0.00    -0.004 C 
ATOM     15  C1  ZIN A   1      19.836  -3.686  11.466  0.00  0.00     0.005 C 
ENDBRANCH  13  14
ENDBRANCH  11  13
ENDBRANCH   1  11
BRANCH   1  16
ATOM     16  C8  ZIN A   1      17.723  -1.134   9.390  0.00  0.00     0.025 C 
ATOM     17  C9  ZIN A   1      17.400  -0.127   8.286  0.00  0.00     0.007 C 
ENDBRANCH   1  16
TORSDOF 4
ENDMDL
MODEL 4
REMARK VINA RESULT:      -6.0      2.258      3.082
REMARK  4 active torsions:
REMARK  status: ('A' for Active; 'I' for Inactive)
REMARK    1  A    between atoms: C2_2  and  C3_3 
REMARK    2  A    between atoms: C3_3  and  C4_4 
REMARK    3  A    between atoms: C4_4  and  C7_6 
REMARK    4  A    between atoms: C7_6  and  C8_7 
ROOT
ATOM      1  C7  ZIN A   1      18.632   2.633  11.070  0.00  0.00     0.127 A 
ATOM      2  C10 ZIN A   1      17.617   1.623  11.569  0.00  0.00     0.266 A 
ATOM      3  O11 ZIN A   1      16.857   1.065  10.807  0.00  0.00    -0.270 OA
ATOM      4  N12 ZIN A   1      17.591   1.368  12.896  0.00  0.00    -0.157 NA
ATOM      5  C13 ZIN A   1      18.422   1.975  13.749  0.00  0.00     0.351 A 
ATOM      6  O14 ZIN A   1      18.331   1.685  14.926  0.00  0.00    -0.244 OA
ATOM      7  N15 ZIN A   1      19.349   2.877  13.403  0.00  0.00    -0.276 N 
ATOM      8  C16 ZIN A   1      19.526   3.262  12.122  0.00  0.00     0.244 A 
ATOM      9  O17 ZIN A   1      20.369   4.080  11.823  0.00  0.00    -0.272 OA
ATOM     10  H33 ZIN A   1      19.908   3.265  14.094  0.00  0.00     0.173 HD
ENDROOT
BRANCH   1  11
ATOM     11  C4  ZIN A   1      19.525   1.940  10.039  0.00  0.00     0.009 C 
ATOM     12  C6  ZIN A   1      19.580   0.441  10.337  0.00  0.00     0.011 C 
BRANCH  11  13
ATOM     13  C3  ZIN A   1      18.953   2.161   8.637  0.00  0.00     0.005 C 
BRANCH  13  14
ATOM     14  C2  ZIN A   1      18.920   0.829   7.884  0.00  0.00    -0.004 C 
ATOM     15  C1  ZIN A   1      18.921   1.096   6.378  0.00  0.00     0.005 C 
ENDBRANCH  13  14
ENDBRANCH  11  13
ENDBRANCH   1  11
BRANCH   1  16
ATOM     16  C8  ZIN A   1      17.871   3.755  10.360  0.00  0.00     0.025 C 
ATOM     17  C9  ZIN A   1      17.025   4.521  11.377  0.00  0.00     0.007 C 
ENDBRANCH   1  16
TORSDOF 4
ENDMDL
MODEL 5
REMARK VINA RESULT:      -5.9      2.017      4.640
REMARK  4 active torsions:
REMARK  status: ('A' for Active; 'I' for Inactive)
REMARK    1  A    between atoms: C2_2  and  C3_3 
REMARK    2  A    between atoms: C3_3  and  C4_4 
REMARK    3  A    between atoms: C4_4  and  C7_6 
REMARK    4  A    between atoms: C7_6  and  C8_7 
ROOT
ATOM      1  C7  ZIN A   1      18.262  -0.487  11.167  0.00  0.00     0.127 A 
ATOM      2  C10 ZIN A   1      17.120   0.492  11.365  0.00  0.00     0.266 A 
ATOM      3  O11 ZIN A   1      15.983   0.107  11.531  0.00  0.00    -0.270 OA
ATOM      4  N12 ZIN A   1      17.418   1.810  11.351  0.00  0.00    -0.157 NA
ATOM      5  C13 ZIN A   1      18.667   2.251  11.170  0.00  0.00     0.351 A 
ATOM      6  O14 ZIN A   1      18.846   3.452  11.171  0.00  0.00    -0.244 OA
ATOM      7  N15 ZIN A   1      19.736   1.466  10.987  0.00  0.00    -0.276 N 
ATOM      8  C16 ZIN A   1      19.638   0.120  10.970  0.00  0.00     0.244 A 
ATOM      9  O17 ZIN A   1      20.615  -0.579  10.803  0.00  0.00    -0.272 OA
ATOM     10  H33 ZIN A   1      20.606   1.877  10.863  0.00  0.00     0.173 HD
ENDROOT
BRANCH   1  11
ATOM     11  C4  ZIN A   1      18.317  -1.407  12.388  0.00  0.00     0.009 C 
ATOM     12  C6  ZIN A   1      19.025  -2.710  12.012  0.00  0.00     0.011 C 
BRANCH  11  13
ATOM     13  C3  ZIN A   1      19.087  -0.714  13.514  0.00  0.00     0.005 C 
BRANCH  13  14
ATOM     14  C2  ZIN A   1      18.211  -0.652  14.767  0.00  0.00    -0.004 C 
ATOM     15  C1  ZIN A   1      18.901  -1.400  15.909  0.00  0.00     0.005 C 
ENDBRANCH  13  14
ENDBRANCH  11  13
ENDBRANCH   1  11
BRANCH   1  16
ATOM     16  C8  ZIN A   1      17.940  -1.344   9.941  0.00  0.00     0.025 C 
ATOM     17  C9  ZIN A   1      17.804  -0.446   8.711  0.00  0.00     0.007 C 
ENDBRANCH   1  16
TORSDOF 4
ENDMDL
MODEL 6
REMARK VINA RESULT:      -5.8      2.117      4.737
REMARK  4 active torsions:
REMARK  status: ('A' for Active; 'I' for Inactive)
REMARK    1  A    between atoms: C2_2  and  C3_3 
REMARK    2  A    between atoms: C3_3  and  C4_4 
REMARK    3  A    between atoms: C4_4  and  C7_6 
REMARK    4  A    between atoms: C7_6  and  C8_7 
ROOT
ATOM      1  C7  ZIN A   1      18.718   0.199  12.216  0.00  0.00     0.127 A 
ATOM      2  C10 ZIN A   1      17.385   0.669  11.665  0.00  0.00     0.266 A 
ATOM      3  O11 ZIN A   1      16.346   0.137  11.992  0.00  0.00    -0.270 OA
ATOM      4  N12 ZIN A   1      17.398   1.705  10.798  0.00  0.00    -0.157 NA
ATOM      5  C13 ZIN A   1      18.536   2.302  10.428  0.00  0.00     0.351 A 
ATOM      6  O14 ZIN A   1      18.457   3.227   9.643  0.00  0.00    -0.244 OA
ATOM      7  N15 ZIN A   1      19.756   1.959  10.859  0.00  0.00    -0.276 N 
ATOM      8  C16 ZIN A   1      19.945   0.946  11.731  0.00  0.00     0.244 A 
ATOM      9  O17 ZIN A   1      21.056   0.645  12.112  0.00  0.00    -0.272 OA
ATOM     10  H33 ZIN A   1      20.525   2.451  10.534  0.00  0.00     0.173 HD
ENDROOT
BRANCH   1  11
ATOM     11  C4  ZIN A   1      18.667   0.306  13.741  0.00  0.00     0.009 C 
ATOM     12  C6  ZIN A   1      17.867   1.548  14.139  0.00  0.00     0.011 C 
BRANCH  11  13
ATOM     13  C3  ZIN A   1      17.994  -0.941  14.318  0.00  0.00     0.005 C 
BRANCH  13  14
ATOM     14  C2  ZIN A   1      18.518  -1.195  15.733  0.00  0.00    -0.004 C 
ATOM     15  C1  ZIN A   1      17.365  -1.072  16.732  0.00  0.00     0.005 C 
ENDBRANCH  13  14
ENDBRANCH  11  13
ENDBRANCH   1  11
BRANCH   1  16
ATOM     16  C8  ZIN A   1      18.884  -1.278  11.850  0.00  0.00     0.025 C 
ATOM     17  C9  ZIN A   1      18.957  -1.421  10.329  0.00  0.00     0.007 C 
ENDBRANCH   1  16
TORSDOF 4
ENDMDL
MODEL 7
REMARK VINA RESULT:      -5.8      1.661      3.143
REMARK  4 active torsions:
REMARK  status: ('A' for Active; 'I' for Inactive)
REMARK    1  A    between atoms: C2_2  and  C3_3 
REMARK    2  A    between atoms: C3_3  and  C4_4 
REMARK    3  A    between atoms: C4_4  and  C7_6 
REMARK    4  A    between atoms: C7_6  and  C8_7 
ROOT
ATOM      1  C7  ZIN A   1      18.063  -0.203  10.599  0.00  0.00     0.127 A 
ATOM      2  C10 ZIN A   1      19.551  -0.084  10.869  0.00  0.00     0.266 A 
ATOM      3  O11 ZIN A   1      20.369  -0.377  10.025  0.00  0.00    -0.270 OA
ATOM      4  N12 ZIN A   1      19.930   0.363  12.087  0.00  0.00    -0.157 NA
ATOM      5  C13 ZIN A   1      19.039   0.691  13.029  0.00  0.00     0.351 A 
ATOM      6  O14 ZIN A   1      19.467   1.084  14.096  0.00  0.00    -0.244 OA
ATOM      7  N15 ZIN A   1      17.711   0.620  12.883  0.00  0.00    -0.276 N 
ATOM      8  C16 ZIN A   1      17.140   0.196  11.735  0.00  0.00     0.244 A 
ATOM      9  O17 ZIN A   1      15.935   0.136  11.618  0.00  0.00    -0.272 OA
ATOM     10  H33 ZIN A   1      17.142   0.880  13.624  0.00  0.00     0.173 HD
ENDROOT
BRANCH   1  11
ATOM     11  C4  ZIN A   1      17.728   0.669   9.386  0.00  0.00     0.009 C 
ATOM     12  C6  ZIN A   1      18.621   1.911   9.390  0.00  0.00     0.011 C 
BRANCH  11  13
ATOM     13  C3  ZIN A   1      17.968  -0.129   8.103  0.00  0.00     0.005 C 
BRANCH  13  14
ATOM     14  C2  ZIN A   1      18.657   0.765   7.069  0.00  0.00    -0.004 C 
ATOM     15  C1  ZIN A   1      18.160   0.399   5.669  0.00  0.00     0.005 C 
ENDBRANCH  13  14
ENDBRANCH  11  13
ENDBRANCH   1  11
BRANCH   1  16
ATOM     16  C8  ZIN A   1      17.765  -1.658  10.232  0.00  0.00     0.025 C 
ATOM     17  C9  ZIN A   1      17.982  -2.547  11.457  0.00  0.00     0.007 C 
ENDBRANCH   1  16
TORSDOF 4
ENDMDL
MODEL 8
REMARK VINA RESULT:      -5.8      1.537      3.329
REMARK  4 active torsions:
REMARK  status: ('A' for Active; 'I' for Inactive)
REMARK    1  A    between atoms: C2_2  and  C3_3 
REMARK    2  A    between atoms: C3_3  and  C4_4 
REMARK    3  A    between atoms: C4_4  and  C7_6 
REMARK    4  A    between atoms: C7_6  and  C8_7 
ROOT
ATOM      1  C7  ZIN A   1      18.228   0.175  10.356  0.00  0.00     0.127 A 
ATOM      2  C10 ZIN A   1      19.489  -0.651  10.186  0.00  0.00     0.266 A 
ATOM      3  O11 ZIN A   1      20.421  -0.247   9.523  0.00  0.00    -0.270 OA
ATOM      4  N12 ZIN A   1      19.536  -1.853  10.800  0.00  0.00    -0.157 NA
ATOM      5  C13 ZIN A   1      18.517  -2.312  11.535  0.00  0.00     0.351 A 
ATOM      6  O14 ZIN A   1      18.644  -3.403  12.054  0.00  0.00    -0.244 OA
ATOM      7  N15 ZIN A   1      17.369  -1.657  11.743  0.00  0.00    -0.276 N 
ATOM      8  C16 ZIN A   1      17.135  -0.439  11.210  0.00  0.00     0.244 A 
ATOM      9  O17 ZIN A   1      16.089   0.142  11.406  0.00  0.00    -0.272 OA
ATOM     10  H33 ZIN A   1      16.684  -2.070  12.292  0.00  0.00     0.173 HD
ENDROOT
BRANCH   1  11
ATOM     11  C4  ZIN A   1      18.619   1.518  10.978  0.00  0.00     0.009 C 
ATOM     12  C6  ZIN A   1      19.796   1.314  11.933  0.00  0.00     0.011 C 
BRANCH  11  13
ATOM     13  C3  ZIN A   1      19.024   2.493   9.870  0.00  0.00     0.005 C 
BRANCH  13  14
ATOM     14  C2  ZIN A   1      18.219   3.787  10.013  0.00  0.00    -0.004 C 
ATOM     15  C1  ZIN A   1      17.311   3.689  11.240  0.00  0.00     0.005 C 
ENDBRANCH  13  14
ENDBRANCH  11  13
ENDBRANCH   1  11
BRANCH   1  16
ATOM     16  C8  ZIN A   1      17.651   0.447   8.966  0.00  0.00     0.025 C 
ATOM     17  C9  ZIN A   1      17.463  -0.877   8.224  0.00  0.00     0.007 C 
ENDBRANCH   1  16
TORSDOF 4
ENDMDL
MODEL 9
REMARK VINA RESULT:      -5.7      1.742      3.535
REMARK  4 active torsions:
REMARK  status: ('A' for Active; 'I' for Inactive)
REMARK    1  A    between atoms: C2_2  and  C3_3 
REMARK    2  A    between atoms: C3_3  and  C4_4 
REMARK    3  A    between atoms: C4_4  and  C7_6 
REMARK    4  A    between atoms: C7_6  and  C8_7 
ROOT
ATOM      1  C7  ZIN A   1      18.459  -0.333  11.082  0.00  0.00     0.127 A 
ATOM      2  C10 ZIN A   1      19.886  -0.217  11.583  0.00  0.00     0.266 A 
ATOM      3  O11 ZIN A   1      20.827  -0.509  10.877  0.00  0.00    -0.270 OA
ATOM      4  N12 ZIN A   1      20.069   0.226  12.847  0.00  0.00    -0.157 NA
ATOM      5  C13 ZIN A   1      19.042   0.553  13.638  0.00  0.00     0.351 A 
ATOM      6  O14 ZIN A   1      19.297   0.943  14.760  0.00  0.00    -0.244 OA
ATOM      7  N15 ZIN A   1      17.753   0.484  13.284  0.00  0.00    -0.276 N 
ATOM      8  C16 ZIN A   1      17.370   0.064  12.060  0.00  0.00     0.244 A 
ATOM      9  O17 ZIN A   1      16.198   0.006  11.754  0.00  0.00    -0.272 OA
ATOM     10  H33 ZIN A   1      17.075   0.743  13.928  0.00  0.00     0.173 HD
ENDROOT
BRANCH   1  11
ATOM     11  C4  ZIN A   1      18.320   0.543   9.834  0.00  0.00     0.009 C 
ATOM     12  C6  ZIN A   1      17.377  -0.134   8.839  0.00  0.00     0.011 C 
BRANCH  11  13
ATOM     13  C3  ZIN A   1      17.752   1.907  10.229  0.00  0.00     0.005 C 
BRANCH  13  14
ATOM     14  C2  ZIN A   1      18.831   2.978  10.056  0.00  0.00    -0.004 C 
ATOM     15  C1  ZIN A   1      19.233   3.523  11.429  0.00  0.00     0.005 C 
ENDBRANCH  13  14
ENDBRANCH  11  13
ENDBRANCH   1  11
BRANCH   1  16
ATOM     16  C8  ZIN A   1      18.221  -1.787  10.669  0.00  0.00     0.025 C 
ATOM     17  C9  ZIN A   1      18.270  -2.683  11.907  0.00  0.00     0.007 C 
ENDBRANCH   1  16
TORSDOF 4
ENDMDL
