MODEL 1
REMARK VINA RESULT:      -5.2      0.000      0.000
REMARK  3 active torsions:
REMARK  status: ('A' for Active; 'I' for Inactive)
REMARK    1  A    between atoms: C2_2  and  N3_3 
REMARK    2  A    between atoms: N3_3  and  C6_6 
REMARK    3  A    between atoms: C10_10  and  O11_11 
ROOT
ATOM      1  C6  ZIN A   1      19.032  -0.133   7.155  0.00  0.00     0.138 A 
ATOM      2  C7  ZIN A   1      18.866   0.687   6.055  0.00  0.00     0.037 A 
ATOM      3  C8  ZIN A   1      18.933   0.157   4.779  0.00  0.00     0.005 A 
ATOM      4  C9  ZIN A   1      19.164  -1.193   4.601  0.00  0.00     0.036 A 
ATOM      5  C10 ZIN A   1      19.331  -2.018   5.705  0.00  0.00     0.067 A 
ATOM      6  C12 ZIN A   1      19.270  -1.483   6.983  0.00  0.00     0.073 A 
ENDROOT
BRANCH   1   7
ATOM      7  N3  ZIN A   1      18.965   0.405   8.444  0.00  0.00    -0.045 N 
ATOM      8  C4  ZIN A   1      19.916  -0.295   9.318  0.00  0.00     0.279 C 
ATOM      9  C5  ZIN A   1      17.603   0.243   8.972  0.00  0.00     0.279 C 
BRANCH   7  10
ATOM     10  C2  ZIN A   1      19.304   1.834   8.396  0.00  0.00     0.238 C 
ATOM     11  C1  ZIN A   1      18.655   2.552   9.580  0.00  0.00     0.035 C 
ENDBRANCH   7  10
ENDBRANCH   1   7
BRANCH   5  12
ATOM     12  O11 ZIN A   1      19.560  -3.346   5.532  0.00  0.00    -0.361 OA
ATOM     13  H27 ZIN A   1      20.098  -3.556   4.756  0.00  0.00     0.217 HD
ENDBRANCH   5  12
TORSDOF 3
ENDMDL
MODEL 2
REMARK VINA RESULT:      -5.2      2.452      4.603
REMARK  3 active torsions:
REMARK  status: ('A' for Active; 'I' for Inactive)
REMARK    1  A    between atoms: C2_2  and  N3_3 
REMARK    2  A    between atoms: N3_3  and  C6_6 
REMARK    3  A    between atoms: C10_10  and  O11_11 
ROOT
ATOM      1  C6  ZIN A   1      18.321   0.720   8.239  0.00  0.00     0.138 A 
ATOM      2  C7  ZIN A   1      19.067   1.867   8.434  0.00  0.00     0.037 A 
ATOM      3  C8  ZIN A   1      18.978   2.558   9.629  0.00  0.00     0.005 A 
ATOM      4  C9  ZIN A   1      18.143   2.103  10.631  0.00  0.00     0.036 A 
ATOM      5  C10 ZIN A   1      17.393   0.951  10.437  0.00  0.00     0.067 A 
ATOM      6  C12 ZIN A   1      17.480   0.264   9.235  0.00  0.00     0.073 A 
ENDROOT
BRANCH   1   7
ATOM      7  N3  ZIN A   1      18.413   0.023   7.030  0.00  0.00    -0.045 N 
ATOM      8  C4  ZIN A   1      17.064  -0.230   6.507  0.00  0.00     0.279 C 
ATOM      9  C5  ZIN A   1      19.101  -1.255   7.252  0.00  0.00     0.279 C 
BRANCH   7  10
ATOM     10  C2  ZIN A   1      19.171   0.825   6.060  0.00  0.00     0.238 C 
ATOM     11  C1  ZIN A   1      19.246   0.077   4.727  0.00  0.00     0.035 C 
ENDBRANCH   7  10
ENDBRANCH   1   7
BRANCH   5  12
ATOM     12  O11 ZIN A   1      16.571   0.502  11.421  0.00  0.00    -0.361 OA
ATOM     13  H27 ZIN A   1      16.181  -0.365  11.243  0.00  0.00     0.217 HD
ENDBRANCH   5  12
TORSDOF 3
ENDMDL
MODEL 3
REMARK VINA RESULT:      -5.1      7.459      9.656
REMARK  3 active torsions:
REMARK  status: ('A' for Active; 'I' for Inactive)
REMARK    1  A    between atoms: C2_2  and  N3_3 
REMARK    2  A    between atoms: N3_3  and  C6_6 
REMARK    3  A    between atoms: C10_10  and  O11_11 
ROOT
ATOM      1  C6  ZIN A   1      18.926   0.635  15.608  0.00  0.00     0.138 A 
ATOM      2  C7  ZIN A   1      18.879  -0.715  15.900  0.00  0.00     0.037 A 
ATOM      3  C8  ZIN A   1      19.058  -1.150  17.201  0.00  0.00     0.005 A 
ATOM      4  C9  ZIN A   1      19.284  -0.235  18.211  0.00  0.00     0.036 A 
ATOM      5  C10 ZIN A   1      19.332   1.120  17.920  0.00  0.00     0.067 A 
ATOM      6  C12 ZIN A   1      19.159   1.553  16.613  0.00  0.00     0.073 A 
ENDROOT
BRANCH   1   7
ATOM      7  N3  ZIN A   1      18.745   1.071  14.292  0.00  0.00    -0.045 N 
ATOM      8  C4  ZIN A   1      19.844   0.572  13.454  0.00  0.00     0.279 C 
ATOM      9  C5  ZIN A   1      18.733   2.540  14.260  0.00  0.00     0.279 C 
BRANCH   7  10
ATOM     10  C2  ZIN A   1      17.467   0.560  13.778  0.00  0.00     0.238 C 
ATOM     11  C1  ZIN A   1      17.686  -0.069  12.400  0.00  0.00     0.035 C 
ENDBRANCH   7  10
ENDBRANCH   1   7
BRANCH   5  12
ATOM     12  O11 ZIN A   1      19.555   2.022  18.912  0.00  0.00    -0.361 OA
ATOM     13  H27 ZIN A   1      19.229   1.742  19.778  0.00  0.00     0.217 HD
ENDBRANCH   5  12
TORSDOF 3
ENDMDL
MODEL 4
REMARK VINA RESULT:      -5.1      1.282      1.744
REMARK  3 active torsions:
REMARK  status: ('A' for Active; 'I' for Inactive)
REMARK    1  A    between atoms: C2_2  and  N3_3 
REMARK    2  A    between atoms: N3_3  and  C6_6 
REMARK    3  A    between atoms: C10_10  and  O11_11 
ROOT
ATOM      1  C6  ZIN A   1      18.788  -0.579   7.372  0.00  0.00     0.138 A 
ATOM      2  C7  ZIN A   1      18.834   0.762   7.040  0.00  0.00     0.037 A 
ATOM      3  C8  ZIN A   1      19.106   1.146   5.740  0.00  0.00     0.005 A 
ATOM      4  C9  ZIN A   1      19.333   0.190   4.769  0.00  0.00     0.036 A 
ATOM      5  C10 ZIN A   1      19.288  -1.157   5.100  0.00  0.00     0.067 A 
ATOM      6  C12 ZIN A   1      19.021  -1.539   6.406  0.00  0.00     0.073 A 
ENDROOT
BRANCH   1   7
ATOM      7  N3  ZIN A   1      18.513  -0.965   8.687  0.00  0.00    -0.045 N 
ATOM      8  C4  ZIN A   1      19.688  -0.704   9.531  0.00  0.00     0.279 C 
ATOM      9  C5  ZIN A   1      18.194  -2.399   8.721  0.00  0.00     0.279 C 
BRANCH   7  10
ATOM     10  C2  ZIN A   1      17.367  -0.197   9.193  0.00  0.00     0.238 C 
ATOM     11  C1  ZIN A   1      17.601   0.159  10.663  0.00  0.00     0.035 C 
ENDBRANCH   7  10
ENDBRANCH   1   7
BRANCH   5  12
ATOM     12  O11 ZIN A   1      19.512  -2.099   4.147  0.00  0.00    -0.361 OA
ATOM     13  H27 ZIN A   1      20.322  -1.958   3.636  0.00  0.00     0.217 HD
ENDBRANCH   5  12
TORSDOF 3
ENDMDL
MODEL 5
REMARK VINA RESULT:      -5.0      2.320      3.369
REMARK  3 active torsions:
REMARK  status: ('A' for Active; 'I' for Inactive)
REMARK    1  A    between atoms: C2_2  and  N3_3 
REMARK    2  A    between atoms: N3_3  and  C6_6 
REMARK    3  A    between atoms: C10_10  and  O11_11 
ROOT
ATOM      1  C6  ZIN A   1      18.337   1.671   9.653  0.00  0.00     0.138 A 
ATOM      2  C7  ZIN A   1      19.089   2.287   8.670  0.00  0.00     0.037 A 
ATOM      3  C8  ZIN A   1      19.179   1.723   7.410  0.00  0.00     0.005 A 
ATOM      4  C9  ZIN A   1      18.516   0.544   7.131  0.00  0.00     0.036 A 
ATOM      5  C10 ZIN A   1      17.762  -0.076   8.117  0.00  0.00     0.067 A 
ATOM      6  C12 ZIN A   1      17.679   0.488   9.381  0.00  0.00     0.073 A 
ENDROOT
BRANCH   1   7
ATOM      7  N3  ZIN A   1      18.249   2.242  10.926  0.00  0.00    -0.045 N 
ATOM      8  C4  ZIN A   1      17.543   1.323  11.829  0.00  0.00     0.279 C 
ATOM      9  C5  ZIN A   1      17.512   3.510  10.844  0.00  0.00     0.279 C 
BRANCH   7  10
ATOM     10  C2  ZIN A   1      19.601   2.495  11.444  0.00  0.00     0.238 C 
ATOM     11  C1  ZIN A   1      19.669   3.909  12.025  0.00  0.00     0.035 C 
ENDBRANCH   7  10
ENDBRANCH   1   7
BRANCH   5  12
ATOM     12  O11 ZIN A   1      17.110  -1.237   7.845  0.00  0.00    -0.361 OA
ATOM     13  H27 ZIN A   1      17.571  -2.029   8.155  0.00  0.00     0.217 HD
ENDBRANCH   5  12
TORSDOF 3
ENDMDL
MODEL 6
REMARK VINA RESULT:      -4.9      2.662      3.919
REMARK  3 active torsions:
REMARK  status: ('A' for Active; 'I' for Inactive)
REMARK    1  A    between atoms: C2_2  and  N3_3 
REMARK    2  A    between atoms: N3_3  and  C6_6 
REMARK    3  A    between atoms: C10_10  and  O11_11 
ROOT
ATOM      1  C6  ZIN A   1      18.282   1.988   9.862  0.00  0.00     0.138 A 
ATOM      2  C7  ZIN A   1      17.556   0.850  10.161  0.00  0.00     0.037 A 
ATOM      3  C8  ZIN A   1      17.420  -0.153   9.219  0.00  0.00     0.005 A 
ATOM      4  C9  ZIN A   1      18.009  -0.020   7.976  0.00  0.00     0.036 A 
ATOM      5  C10 ZIN A   1      18.737   1.122   7.674  0.00  0.00     0.067 A 
ATOM      6  C12 ZIN A   1      18.867   2.129   8.619  0.00  0.00     0.073 A 
ENDROOT
BRANCH   1   7
ATOM      7  N3  ZIN A   1      18.419   3.001  10.816  0.00  0.00    -0.045 N 
ATOM      8  C4  ZIN A   1      19.830   3.119  11.208  0.00  0.00     0.279 C 
ATOM      9  C5  ZIN A   1      17.607   2.675  11.997  0.00  0.00     0.279 C 
BRANCH   7  10
ATOM     10  C2  ZIN A   1      17.962   4.276  10.245  0.00  0.00     0.238 C 
ATOM     11  C1  ZIN A   1      16.821   4.836  11.097  0.00  0.00     0.035 C 
ENDBRANCH   7  10
ENDBRANCH   1   7
BRANCH   5  12
ATOM     12  O11 ZIN A   1      19.317   1.255   6.452  0.00  0.00    -0.361 OA
ATOM     13  H27 ZIN A   1      20.284   1.234   6.471  0.00  0.00     0.217 HD
ENDBRANCH   5  12
TORSDOF 3
ENDMDL
MODEL 7
REMARK VINA RESULT:      -4.9      2.214      3.414
REMARK  3 active torsions:
REMARK  status: ('A' for Active; 'I' for Inactive)
REMARK    1  A    between atoms: C2_2  and  N3_3 
REMARK    2  A    between atoms: N3_3  and  C6_6 
REMARK    3  A    between atoms: C10_10  and  O11_11 
ROOT
ATOM      1  C6  ZIN A   1      18.172   0.941   9.484  0.00  0.00     0.138 A 
ATOM      2  C7  ZIN A   1      19.093   1.788   8.896  0.00  0.00     0.037 A 
ATOM      3  C8  ZIN A   1      19.282   1.765   7.526  0.00  0.00     0.005 A 
ATOM      4  C9  ZIN A   1      18.550   0.895   6.742  0.00  0.00     0.036 A 
ATOM      5  C10 ZIN A   1      17.626   0.043   7.329  0.00  0.00     0.067 A 
ATOM      6  C12 ZIN A   1      17.443   0.064   8.704  0.00  0.00     0.073 A 
ENDROOT
BRANCH   1   7
ATOM      7  N3  ZIN A   1      17.984   0.966  10.869  0.00  0.00    -0.045 N 
ATOM      8  C4  ZIN A   1      17.638   2.329  11.292  0.00  0.00     0.279 C 
ATOM      9  C5  ZIN A   1      19.221   0.543  11.539  0.00  0.00     0.279 C 
BRANCH   7  10
ATOM     10  C2  ZIN A   1      16.894   0.049  11.231  0.00  0.00     0.238 C 
ATOM     11  C1  ZIN A   1      17.340  -0.841  12.392  0.00  0.00     0.035 C 
ENDBRANCH   7  10
ENDBRANCH   1   7
BRANCH   5  12
ATOM     12  O11 ZIN A   1      16.905  -0.814   6.559  0.00  0.00    -0.361 OA
ATOM     13  H27 ZIN A   1      16.170  -1.238   7.024  0.00  0.00     0.217 HD
ENDBRANCH   5  12
TORSDOF 3
ENDMDL
MODEL 8
REMARK VINA RESULT:      -4.9      2.951      4.098
REMARK  3 active torsions:
REMARK  status: ('A' for Active; 'I' for Inactive)
REMARK    1  A    between atoms: C2_2  and  N3_3 
REMARK    2  A    between atoms: N3_3  and  C6_6 
REMARK    3  A    between atoms: C10_10  and  O11_11 
ROOT
ATOM      1  C6  ZIN A   1      18.991   2.089  10.282  0.00  0.00     0.138 A 
ATOM      2  C7  ZIN A   1      18.849   2.235   8.915  0.00  0.00     0.037 A 
ATOM      3  C8  ZIN A   1      19.222   1.209   8.066  0.00  0.00     0.005 A 
ATOM      4  C9  ZIN A   1      19.739   0.036   8.583  0.00  0.00     0.036 A 
ATOM      5  C10 ZIN A   1      19.883  -0.111   9.955  0.00  0.00     0.067 A 
ATOM      6  C12 ZIN A   1      19.513   0.922  10.804  0.00  0.00     0.073 A 
ENDROOT
BRANCH   1   7
ATOM      7  N3  ZIN A   1      18.613   3.128  11.138  0.00  0.00    -0.045 N 
ATOM      8  C4  ZIN A   1      19.804   3.674  11.803  0.00  0.00     0.279 C 
ATOM      9  C5  ZIN A   1      17.679   2.615  12.149  0.00  0.00     0.279 C 
BRANCH   7  10
ATOM     10  C2  ZIN A   1      17.958   4.189  10.361  0.00  0.00     0.238 C 
ATOM     11  C1  ZIN A   1      16.842   4.819  11.197  0.00  0.00     0.035 C 
ENDBRANCH   7  10
ENDBRANCH   1   7
BRANCH   5  12
ATOM     12  O11 ZIN A   1      20.392  -1.263  10.465  0.00  0.00    -0.361 OA
ATOM     13  H27 ZIN A   1      20.343  -1.322  11.430  0.00  0.00     0.217 HD
ENDBRANCH   5  12
TORSDOF 3
ENDMDL
MODEL 9
REMARK VINA RESULT:      -4.8      4.886      5.904
REMARK  3 active torsions:
REMARK  status: ('A' for Active; 'I' for Inactive)
REMARK    1  A    between atoms: C2_2  and  N3_3 
REMARK    2  A    between atoms: N3_3  and  C6_6 
REMARK    3  A    between atoms: C10_10  and  O11_11 
ROOT
ATOM      1  C6  ZIN A   1      18.829   0.673  11.581  0.00  0.00     0.138 A 
ATOM      2  C7  ZIN A   1      17.759   1.182  10.869  0.00  0.00     0.037 A 
ATOM      3  C8  ZIN A   1      17.777   2.495  10.435  0.00  0.00     0.005 A 
ATOM      4  C9  ZIN A   1      18.864   3.301  10.712  0.00  0.00     0.036 A 
ATOM      5  C10 ZIN A   1      19.938   2.792  11.427  0.00  0.00     0.067 A 
ATOM      6  C12 ZIN A   1      19.915   1.477  11.867  0.00  0.00     0.073 A 
ENDROOT
BRANCH   1   7
ATOM      7  N3  ZIN A   1      18.808  -0.654  12.020  0.00  0.00    -0.045 N 
ATOM      8  C4  ZIN A   1      19.510  -1.503  11.047  0.00  0.00     0.279 C 
ATOM      9  C5  ZIN A   1      17.416  -1.106  12.150  0.00  0.00     0.279 C 
BRANCH   7  10
ATOM     10  C2  ZIN A   1      19.478  -0.749  13.325  0.00  0.00     0.238 C 
ATOM     11  C1  ZIN A   1      18.511  -1.341  14.352  0.00  0.00     0.035 C 
ENDBRANCH   7  10
ENDBRANCH   1   7
BRANCH   5  12
ATOM     12  O11 ZIN A   1      21.009   3.583  11.702  0.00  0.00    -0.361 OA
ATOM     13  H27 ZIN A   1      21.542   3.808  10.926  0.00  0.00     0.217 HD
ENDBRANCH   5  12
TORSDOF 3
ENDMDL
