MODEL 1
REMARK VINA RESULT:      -8.1      0.000      0.000
REMARK  5 active torsions:
REMARK  status: ('A' for Active; 'I' for Inactive)
REMARK    1  A    between atoms: N2_2  and  C4_4 
REMARK    2  A    between atoms: N2_2  and  C13_13 
REMARK    3  A    between atoms: C4_4  and  C5_5 
REMARK    4  A    between atoms: C6_6  and  C7_7 
REMARK    5  A    between atoms: C13_13  and  C14_14 
ROOT
ATOM      1  C1  ZIN A   1      20.119  -3.444  11.528  0.00  0.00     0.270 C 
ATOM      2  N2  ZIN A   1      19.320  -2.278  11.127  0.00  0.00    -0.068 N 
ATOM      3  H3  ZIN A   1      18.980  -2.411  10.186  0.00  0.00     0.280 HD
ENDROOT
BRANCH   2   4
ATOM      4  C4  ZIN A   1      18.181  -2.125  12.042  0.00  0.00     0.262 C 
BRANCH   4   5
ATOM      5  C5  ZIN A   1      18.679  -1.669  13.389  0.00  0.00     0.001 C 
ATOM      6  C6  ZIN A   1      17.974  -0.795  14.095  0.00  0.00     0.009 C 
BRANCH   6   7
ATOM      7  C7  ZIN A   1      18.461  -0.347  15.416  0.00  0.00    -0.036 A 
ATOM      8  C12 ZIN A   1      18.604   1.015  15.686  0.00  0.00     0.011 A 
ATOM      9  C11 ZIN A   1      19.052   1.426  16.924  0.00  0.00     0.001 A 
ATOM     10  C10 ZIN A   1      19.372   0.493  17.892  0.00  0.00     0.000 A 
ATOM     11  C9  ZIN A   1      19.238  -0.860  17.630  0.00  0.00     0.001 A 
ATOM     12  C8  ZIN A   1      18.784  -1.284  16.399  0.00  0.00     0.011 A 
ENDBRANCH   6   7
ENDBRANCH   4   5
ENDBRANCH   2   4
BRANCH   2  13
ATOM     13  C13 ZIN A   1      20.156  -1.070  11.180  0.00  0.00     0.274 C 
BRANCH  13  14
ATOM     14  C14 ZIN A   1      19.686  -0.089  10.136  0.00  0.00    -0.021 A 
ATOM     15  C23 ZIN A   1      19.637  -0.454   8.826  0.00  0.00     0.010 A 
ATOM     16  C22 ZIN A   1      19.201   0.438   7.849  0.00  0.00     0.002 A 
ATOM     17  C21 ZIN A   1      18.820   1.704   8.174  0.00  0.00     0.012 A 
ATOM     18  C20 ZIN A   1      18.863   2.120   9.516  0.00  0.00    -0.025 A 
ATOM     19  C15 ZIN A   1      19.302   1.210  10.511  0.00  0.00    -0.018 A 
ATOM     20  C19 ZIN A   1      18.478   3.417   9.890  0.00  0.00     0.012 A 
ATOM     21  C16 ZIN A   1      19.345   1.625  11.853  0.00  0.00     0.013 A 
ATOM     22  C17 ZIN A   1      18.965   2.892  12.178  0.00  0.00     0.001 A 
ATOM     23  C18 ZIN A   1      18.533   3.785  11.199  0.00  0.00     0.001 A 
ENDBRANCH  13  14
ENDBRANCH   2  13
TORSDOF 5
ENDMDL
MODEL 2
REMARK VINA RESULT:      -8.1      2.076      7.181
REMARK  5 active torsions:
REMARK  status: ('A' for Active; 'I' for Inactive)
REMARK    1  A    between atoms: N2_2  and  C4_4 
REMARK    2  A    between atoms: N2_2  and  C13_13 
REMARK    3  A    between atoms: C4_4  and  C5_5 
REMARK    4  A    between atoms: C6_6  and  C7_7 
REMARK    5  A    between atoms: C13_13  and  C14_14 
ROOT
ATOM      1  C1  ZIN A   1      17.249   4.443  14.177  0.00  0.00     0.270 C 
ATOM      2  N2  ZIN A   1      17.912   3.463  13.307  0.00  0.00    -0.068 N 
ATOM      3  H3  ZIN A   1      17.274   2.708  13.104  0.00  0.00     0.280 HD
ENDROOT
BRANCH   2   4
ATOM      4  C4  ZIN A   1      18.313   4.115  12.052  0.00  0.00     0.262 C 
BRANCH   4   5
ATOM      5  C5  ZIN A   1      17.964   3.222  10.889  0.00  0.00     0.001 C 
ATOM      6  C6  ZIN A   1      18.916   2.533  10.274  0.00  0.00     0.009 C 
BRANCH   6   7
ATOM      7  C7  ZIN A   1      18.574   1.657   9.135  0.00  0.00    -0.036 A 
ATOM      8  C12 ZIN A   1      17.639   0.633   9.293  0.00  0.00     0.011 A 
ATOM      9  C11 ZIN A   1      17.319  -0.177   8.223  0.00  0.00     0.001 A 
ATOM     10  C10 ZIN A   1      17.932   0.015   6.999  0.00  0.00     0.000 A 
ATOM     11  C9  ZIN A   1      18.864   1.025   6.835  0.00  0.00     0.001 A 
ATOM     12  C8  ZIN A   1      19.188   1.846   7.896  0.00  0.00     0.011 A 
ENDBRANCH   6   7
ENDBRANCH   4   5
ENDBRANCH   2   4
BRANCH   2  13
ATOM     13  C13 ZIN A   1      19.102   2.932  13.984  0.00  0.00     0.274 C 
BRANCH  13  14
ATOM     14  C14 ZIN A   1      18.870   1.487  14.346  0.00  0.00    -0.021 A 
ATOM     15  C23 ZIN A   1      18.597   0.573  13.375  0.00  0.00     0.010 A 
ATOM     16  C22 ZIN A   1      18.384  -0.767  13.690  0.00  0.00     0.002 A 
ATOM     17  C21 ZIN A   1      18.435  -1.200  14.980  0.00  0.00     0.012 A 
ATOM     18  C20 ZIN A   1      18.709  -0.286  16.010  0.00  0.00    -0.025 A 
ATOM     19  C15 ZIN A   1      18.930   1.077  15.689  0.00  0.00    -0.018 A 
ATOM     20  C19 ZIN A   1      18.769  -0.695  17.353  0.00  0.00     0.012 A 
ATOM     21  C16 ZIN A   1      19.204   1.992  16.719  0.00  0.00     0.013 A 
ATOM     22  C17 ZIN A   1      19.253   1.559  18.010  0.00  0.00     0.001 A 
ATOM     23  C18 ZIN A   1      19.037   0.219  18.325  0.00  0.00     0.001 A 
ENDBRANCH  13  14
ENDBRANCH   2  13
TORSDOF 5
ENDMDL
MODEL 3
REMARK VINA RESULT:      -7.9      1.078      3.014
REMARK  5 active torsions:
REMARK  status: ('A' for Active; 'I' for Inactive)
REMARK    1  A    between atoms: N2_2  and  C4_4 
REMARK    2  A    between atoms: N2_2  and  C13_13 
REMARK    3  A    between atoms: C4_4  and  C5_5 
REMARK    4  A    between atoms: C6_6  and  C7_7 
REMARK    5  A    between atoms: C13_13  and  C14_14 
ROOT
ATOM      1  C1  ZIN A   1      17.479  -2.036  11.243  0.00  0.00     0.270 C 
ATOM      2  N2  ZIN A   1      18.746  -1.469  11.725  0.00  0.00    -0.068 N 
ATOM      3  H3  ZIN A   1      18.576  -0.556  12.121  0.00  0.00     0.280 HD
ENDROOT
BRANCH   2   4
ATOM      4  C4  ZIN A   1      19.319  -2.350  12.752  0.00  0.00     0.262 C 
BRANCH   4   5
ATOM      5  C5  ZIN A   1      19.561  -1.560  14.012  0.00  0.00     0.001 C 
ATOM      6  C6  ZIN A   1      18.543  -0.992  14.644  0.00  0.00     0.009 C 
BRANCH   6   7
ATOM      7  C7  ZIN A   1      18.780  -0.218  15.880  0.00  0.00    -0.036 A 
ATOM      8  C12 ZIN A   1      18.972  -0.878  17.095  0.00  0.00     0.011 A 
ATOM      9  C11 ZIN A   1      19.200  -0.150  18.244  0.00  0.00     0.001 A 
ATOM     10  C10 ZIN A   1      19.226   1.232  18.196  0.00  0.00     0.000 A 
ATOM     11  C9  ZIN A   1      19.031   1.893  16.997  0.00  0.00     0.001 A 
ATOM     12  C8  ZIN A   1      18.809   1.176  15.839  0.00  0.00     0.011 A 
ENDBRANCH   6   7
ENDBRANCH   4   5
ENDBRANCH   2   4
BRANCH   2  13
ATOM     13  C13 ZIN A   1      19.687  -1.349  10.603  0.00  0.00     0.274 C 
BRANCH  13  14
ATOM     14  C14 ZIN A   1      19.444  -0.047   9.882  0.00  0.00    -0.021 A 
ATOM     15  C23 ZIN A   1      19.387   1.121  10.577  0.00  0.00     0.010 A 
ATOM     16  C22 ZIN A   1      19.169   2.333   9.927  0.00  0.00     0.002 A 
ATOM     17  C21 ZIN A   1      18.996   2.384   8.578  0.00  0.00     0.012 A 
ATOM     18  C20 ZIN A   1      19.042   1.198   7.826  0.00  0.00    -0.025 A 
ATOM     19  C15 ZIN A   1      19.269  -0.035   8.487  0.00  0.00    -0.018 A 
ATOM     20  C19 ZIN A   1      18.868   1.210   6.432  0.00  0.00     0.012 A 
ATOM     21  C16 ZIN A   1      19.316  -1.222   7.736  0.00  0.00     0.013 A 
ATOM     22  C17 ZIN A   1      19.141  -1.171   6.386  0.00  0.00     0.001 A 
ATOM     23  C18 ZIN A   1      18.919   0.041   5.736  0.00  0.00     0.001 A 
ENDBRANCH  13  14
ENDBRANCH   2  13
TORSDOF 5
ENDMDL
MODEL 4
REMARK VINA RESULT:      -7.8      1.865      5.175
REMARK  5 active torsions:
REMARK  status: ('A' for Active; 'I' for Inactive)
REMARK    1  A    between atoms: N2_2  and  C4_4 
REMARK    2  A    between atoms: N2_2  and  C13_13 
REMARK    3  A    between atoms: C4_4  and  C5_5 
REMARK    4  A    between atoms: C6_6  and  C7_7 
REMARK    5  A    between atoms: C13_13  and  C14_14 
ROOT
ATOM      1  C1  ZIN A   1      17.441   0.212  15.024  0.00  0.00     0.270 C 
ATOM      2  N2  ZIN A   1      18.278   0.284  13.820  0.00  0.00    -0.068 N 
ATOM      3  H3  ZIN A   1      18.783   1.158  13.813  0.00  0.00     0.280 HD
ENDROOT
BRANCH   2   4
ATOM      4  C4  ZIN A   1      19.233  -0.833  13.819  0.00  0.00     0.262 C 
BRANCH   4   5
ATOM      5  C5  ZIN A   1      18.659  -1.982  13.031  0.00  0.00     0.001 C 
ATOM      6  C6  ZIN A   1      19.445  -2.704  12.244  0.00  0.00     0.009 C 
BRANCH   6   7
ATOM      7  C7  ZIN A   1      18.883  -3.831  11.471  0.00  0.00    -0.036 A 
ATOM      8  C12 ZIN A   1      19.589  -4.361  10.390  0.00  0.00     0.011 A 
ATOM      9  C11 ZIN A   1      19.061  -5.418   9.677  0.00  0.00     0.001 A 
ATOM     10  C10 ZIN A   1      17.831  -5.945  10.025  0.00  0.00     0.000 A 
ATOM     11  C9  ZIN A   1      17.123  -5.421  11.092  0.00  0.00     0.001 A 
ATOM     12  C8  ZIN A   1      17.643  -4.368  11.817  0.00  0.00     0.011 A 
ENDBRANCH   6   7
ENDBRANCH   4   5
ENDBRANCH   2   4
BRANCH   2  13
ATOM     13  C13 ZIN A   1      17.427   0.201  12.625  0.00  0.00     0.274 C 
BRANCH  13  14
ATOM     14  C14 ZIN A   1      17.778   1.321  11.679  0.00  0.00    -0.021 A 
ATOM     15  C23 ZIN A   1      17.701   2.615  12.092  0.00  0.00     0.010 A 
ATOM     16  C22 ZIN A   1      18.026   3.663  11.234  0.00  0.00     0.002 A 
ATOM     17  C21 ZIN A   1      18.423   3.423   9.953  0.00  0.00     0.012 A 
ATOM     18  C20 ZIN A   1      18.509   2.100   9.489  0.00  0.00    -0.025 A 
ATOM     19  C15 ZIN A   1      18.183   1.034  10.364  0.00  0.00    -0.018 A 
ATOM     20  C19 ZIN A   1      18.914   1.813   8.175  0.00  0.00     0.012 A 
ATOM     21  C16 ZIN A   1      18.270  -0.290   9.900  0.00  0.00     0.013 A 
ATOM     22  C17 ZIN A   1      18.665  -0.530   8.619  0.00  0.00     0.001 A 
ATOM     23  C18 ZIN A   1      18.986   0.519   7.759  0.00  0.00     0.001 A 
ENDBRANCH  13  14
ENDBRANCH   2  13
TORSDOF 5
ENDMDL
MODEL 5
REMARK VINA RESULT:      -7.7      1.920      6.993
REMARK  5 active torsions:
REMARK  status: ('A' for Active; 'I' for Inactive)
REMARK    1  A    between atoms: N2_2  and  C4_4 
REMARK    2  A    between atoms: N2_2  and  C13_13 
REMARK    3  A    between atoms: C4_4  and  C5_5 
REMARK    4  A    between atoms: C6_6  and  C7_7 
REMARK    5  A    between atoms: C13_13  and  C14_14 
ROOT
ATOM      1  C1  ZIN A   1      17.433   4.205  13.677  0.00  0.00     0.270 C 
ATOM      2  N2  ZIN A   1      17.939   3.171  12.766  0.00  0.00    -0.068 N 
ATOM      3  H3  ZIN A   1      17.227   2.470  12.623  0.00  0.00     0.280 HD
ENDROOT
BRANCH   2   4
ATOM      4  C4  ZIN A   1      18.290   3.783  11.476  0.00  0.00     0.262 C 
BRANCH   4   5
ATOM      5  C5  ZIN A   1      17.944   2.831  10.360  0.00  0.00     0.001 C 
ATOM      6  C6  ZIN A   1      18.892   2.403   9.537  0.00  0.00     0.009 C 
BRANCH   6   7
ATOM      7  C7  ZIN A   1      18.554   1.470   8.443  0.00  0.00    -0.036 A 
ATOM      8  C12 ZIN A   1      17.716   0.380   8.684  0.00  0.00     0.011 A 
ATOM      9  C11 ZIN A   1      17.399  -0.484   7.656  0.00  0.00     0.001 A 
ATOM     10  C10 ZIN A   1      17.920  -0.279   6.391  0.00  0.00     0.000 A 
ATOM     11  C9  ZIN A   1      18.756   0.796   6.146  0.00  0.00     0.001 A 
ATOM     12  C8  ZIN A   1      19.075   1.671   7.164  0.00  0.00     0.011 A 
ENDBRANCH   6   7
ENDBRANCH   4   5
ENDBRANCH   2   4
BRANCH   2  13
ATOM     13  C13 ZIN A   1      19.133   2.545  13.350  0.00  0.00     0.274 C 
BRANCH  13  14
ATOM     14  C14 ZIN A   1      18.808   1.132  13.762  0.00  0.00    -0.021 A 
ATOM     15  C23 ZIN A   1      18.124   0.894  14.914  0.00  0.00     0.010 A 
ATOM     16  C22 ZIN A   1      17.811  -0.404  15.308  0.00  0.00     0.002 A 
ATOM     17  C21 ZIN A   1      18.188  -1.475  14.556  0.00  0.00     0.012 A 
ATOM     18  C20 ZIN A   1      18.901  -1.271  13.363  0.00  0.00    -0.025 A 
ATOM     19  C15 ZIN A   1      19.215   0.051  12.960  0.00  0.00    -0.018 A 
ATOM     20  C19 ZIN A   1      19.306  -2.350  12.561  0.00  0.00     0.012 A 
ATOM     21  C16 ZIN A   1      19.928   0.257  11.766  0.00  0.00     0.013 A 
ATOM     22  C17 ZIN A   1      20.306  -0.815  11.015  0.00  0.00     0.001 A 
ATOM     23  C18 ZIN A   1      19.996  -2.114  11.411  0.00  0.00     0.001 A 
ENDBRANCH  13  14
ENDBRANCH   2  13
TORSDOF 5
ENDMDL
MODEL 6
REMARK VINA RESULT:      -7.7      1.774      7.195
REMARK  5 active torsions:
REMARK  status: ('A' for Active; 'I' for Inactive)
REMARK    1  A    between atoms: N2_2  and  C4_4 
REMARK    2  A    between atoms: N2_2  and  C13_13 
REMARK    3  A    between atoms: C4_4  and  C5_5 
REMARK    4  A    between atoms: C6_6  and  C7_7 
REMARK    5  A    between atoms: C13_13  and  C14_14 
ROOT
ATOM      1  C1  ZIN A   1      17.405   2.794  11.849  0.00  0.00     0.270 C 
ATOM      2  N2  ZIN A   1      18.476   2.140  11.085  0.00  0.00    -0.068 N 
ATOM      3  H3  ZIN A   1      18.126   1.285  10.680  0.00  0.00     0.280 HD
ENDROOT
BRANCH   2   4
ATOM      4  C4  ZIN A   1      18.932   3.038  10.014  0.00  0.00     0.262 C 
BRANCH   4   5
ATOM      5  C5  ZIN A   1      19.173   2.239   8.759  0.00  0.00     0.001 C 
ATOM      6  C6  ZIN A   1      18.536   1.091   8.572  0.00  0.00     0.009 C 
BRANCH   6   7
ATOM      7  C7  ZIN A   1      18.770   0.308   7.341  0.00  0.00    -0.036 A 
ATOM      8  C12 ZIN A   1      18.715  -1.086   7.376  0.00  0.00     0.011 A 
ATOM      9  C11 ZIN A   1      18.928  -1.811   6.222  0.00  0.00     0.001 A 
ATOM     10  C10 ZIN A   1      19.209  -1.160   5.034  0.00  0.00     0.000 A 
ATOM     11  C9  ZIN A   1      19.271   0.222   4.993  0.00  0.00     0.001 A 
ATOM     12  C8  ZIN A   1      19.053   0.958   6.139  0.00  0.00     0.011 A 
ENDBRANCH   6   7
ENDBRANCH   4   5
ENDBRANCH   2   4
BRANCH   2  13
ATOM     13  C13 ZIN A   1      19.601   1.835  11.979  0.00  0.00     0.274 C 
BRANCH  13  14
ATOM     14  C14 ZIN A   1      19.468   0.423  12.490  0.00  0.00    -0.021 A 
ATOM     15  C23 ZIN A   1      19.548  -0.627  11.628  0.00  0.00     0.010 A 
ATOM     16  C22 ZIN A   1      19.432  -1.938  12.082  0.00  0.00     0.002 A 
ATOM     17  C21 ZIN A   1      19.225  -2.208  13.401  0.00  0.00     0.012 A 
ATOM     18  C20 ZIN A   1      19.130  -1.150  14.320  0.00  0.00    -0.025 A 
ATOM     19  C15 ZIN A   1      19.253   0.185  13.858  0.00  0.00    -0.018 A 
ATOM     20  C19 ZIN A   1      18.917  -1.388  15.688  0.00  0.00     0.012 A 
ATOM     21  C16 ZIN A   1      19.159   1.243  14.777  0.00  0.00     0.013 A 
ATOM     22  C17 ZIN A   1      18.950   0.974  16.096  0.00  0.00     0.001 A 
ATOM     23  C18 ZIN A   1      18.830  -0.338  16.550  0.00  0.00     0.001 A 
ENDBRANCH  13  14
ENDBRANCH   2  13
TORSDOF 5
ENDMDL
MODEL 7
REMARK VINA RESULT:      -7.5      1.992      3.901
REMARK  5 active torsions:
REMARK  status: ('A' for Active; 'I' for Inactive)
REMARK    1  A    between atoms: N2_2  and  C4_4 
REMARK    2  A    between atoms: N2_2  and  C13_13 
REMARK    3  A    between atoms: C4_4  and  C5_5 
REMARK    4  A    between atoms: C6_6  and  C7_7 
REMARK    5  A    between atoms: C13_13  and  C14_14 
ROOT
ATOM      1  C1  ZIN A   1      17.292  -4.184   8.974  0.00  0.00     0.270 C 
ATOM      2  N2  ZIN A   1      18.248  -3.316   9.674  0.00  0.00    -0.068 N 
ATOM      3  H3  ZIN A   1      17.776  -2.482   9.990  0.00  0.00     0.280 HD
ENDROOT
BRANCH   2   4
ATOM      4  C4  ZIN A   1      18.804  -4.032  10.831  0.00  0.00     0.262 C 
BRANCH   4   5
ATOM      5  C5  ZIN A   1      18.926  -3.084  11.996  0.00  0.00     0.001 C 
ATOM      6  C6  ZIN A   1      18.019  -2.134  12.175  0.00  0.00     0.009 C 
BRANCH   6   7
ATOM      7  C7  ZIN A   1      18.138  -1.205  13.318  0.00  0.00    -0.036 A 
ATOM      8  C12 ZIN A   1      17.508   0.040  13.278  0.00  0.00     0.011 A 
ATOM      9  C11 ZIN A   1      17.617   0.900  14.351  0.00  0.00     0.001 A 
ATOM     10  C10 ZIN A   1      18.360   0.536  15.460  0.00  0.00     0.000 A 
ATOM     11  C9  ZIN A   1      18.992  -0.694  15.504  0.00  0.00     0.001 A 
ATOM     12  C8  ZIN A   1      18.885  -1.565  14.440  0.00  0.00     0.011 A 
ENDBRANCH   6   7
ENDBRANCH   4   5
ENDBRANCH   2   4
BRANCH   2  13
ATOM     13  C13 ZIN A   1      19.337  -2.946   8.759  0.00  0.00     0.274 C 
BRANCH  13  14
ATOM     14  C14 ZIN A   1      19.207  -1.491   8.388  0.00  0.00    -0.021 A 
ATOM     15  C23 ZIN A   1      19.183  -0.536   9.358  0.00  0.00     0.010 A 
ATOM     16  C22 ZIN A   1      19.069   0.813   9.034  0.00  0.00     0.002 A 
ATOM     17  C21 ZIN A   1      18.969   1.217   7.737  0.00  0.00     0.012 A 
ATOM     18  C20 ZIN A   1      18.983   0.260   6.708  0.00  0.00    -0.025 A 
ATOM     19  C15 ZIN A   1      19.104  -1.113   7.038  0.00  0.00    -0.018 A 
ATOM     20  C19 ZIN A   1      18.882   0.638   5.359  0.00  0.00     0.012 A 
ATOM     21  C16 ZIN A   1      19.119  -2.070   6.010  0.00  0.00     0.013 A 
ATOM     22  C17 ZIN A   1      19.017  -1.667   4.713  0.00  0.00     0.001 A 
ATOM     23  C18 ZIN A   1      18.899  -0.316   4.389  0.00  0.00     0.001 A 
ENDBRANCH  13  14
ENDBRANCH   2  13
TORSDOF 5
ENDMDL
MODEL 8
REMARK VINA RESULT:      -7.2      1.912      7.414
REMARK  5 active torsions:
REMARK  status: ('A' for Active; 'I' for Inactive)
REMARK    1  A    between atoms: N2_2  and  C4_4 
REMARK    2  A    between atoms: N2_2  and  C13_13 
REMARK    3  A    between atoms: C4_4  and  C5_5 
REMARK    4  A    between atoms: C6_6  and  C7_7 
REMARK    5  A    between atoms: C13_13  and  C14_14 
ROOT
ATOM      1  C1  ZIN A   1      17.718   2.788  11.728  0.00  0.00     0.270 C 
ATOM      2  N2  ZIN A   1      18.666   2.007  10.922  0.00  0.00    -0.068 N 
ATOM      3  H3  ZIN A   1      18.224   1.151  10.619  0.00  0.00     0.280 HD
ENDROOT
BRANCH   2   4
ATOM      4  C4  ZIN A   1      19.072   2.791   9.747  0.00  0.00     0.262 C 
BRANCH   4   5
ATOM      5  C5  ZIN A   1      19.375   1.858   8.603  0.00  0.00     0.001 C 
ATOM      6  C6  ZIN A   1      18.406   1.128   8.068  0.00  0.00     0.009 C 
BRANCH   6   7
ATOM      7  C7  ZIN A   1      18.703   0.214   6.945  0.00  0.00    -0.036 A 
ATOM      8  C12 ZIN A   1      18.779   0.706   5.641  0.00  0.00     0.011 A 
ATOM      9  C11 ZIN A   1      19.064  -0.152   4.599  0.00  0.00     0.001 A 
ATOM     10  C10 ZIN A   1      19.261  -1.499   4.842  0.00  0.00     0.000 A 
ATOM     11  C9  ZIN A   1      19.182  -1.995   6.132  0.00  0.00     0.001 A 
ATOM     12  C8  ZIN A   1      18.905  -1.146   7.183  0.00  0.00     0.011 A 
ENDBRANCH   6   7
ENDBRANCH   4   5
ENDBRANCH   2   4
BRANCH   2  13
ATOM     13  C13 ZIN A   1      19.851   1.688  11.730  0.00  0.00     0.274 C 
BRANCH  13  14
ATOM     14  C14 ZIN A   1      19.514   0.586  12.701  0.00  0.00    -0.021 A 
ATOM     15  C23 ZIN A   1      19.400   0.855  14.030  0.00  0.00     0.010 A 
ATOM     16  C22 ZIN A   1      19.084  -0.150  14.942  0.00  0.00     0.002 A 
ATOM     17  C21 ZIN A   1      18.889  -1.434  14.530  0.00  0.00     0.012 A 
ATOM     18  C20 ZIN A   1      19.004  -1.752  13.167  0.00  0.00    -0.025 A 
ATOM     19  C15 ZIN A   1      19.321  -0.728  12.239  0.00  0.00    -0.018 A 
ATOM     20  C19 ZIN A   1      18.811  -3.064  12.705  0.00  0.00     0.012 A 
ATOM     21  C16 ZIN A   1      19.435  -1.045  10.875  0.00  0.00     0.013 A 
ATOM     22  C17 ZIN A   1      19.242  -2.329  10.464  0.00  0.00     0.001 A 
ATOM     23  C18 ZIN A   1      18.930  -3.335  11.376  0.00  0.00     0.001 A 
ENDBRANCH  13  14
ENDBRANCH   2  13
TORSDOF 5
ENDMDL
MODEL 9
REMARK VINA RESULT:      -7.2      2.185      7.473
REMARK  5 active torsions:
REMARK  status: ('A' for Active; 'I' for Inactive)
REMARK    1  A    between atoms: N2_2  and  C4_4 
REMARK    2  A    between atoms: N2_2  and  C13_13 
REMARK    3  A    between atoms: C4_4  and  C5_5 
REMARK    4  A    between atoms: C6_6  and  C7_7 
REMARK    5  A    between atoms: C13_13  and  C14_14 
ROOT
ATOM      1  C1  ZIN A   1      19.222   5.778  14.334  0.00  0.00     0.270 C 
ATOM      2  N2  ZIN A   1      18.379   4.588  14.506  0.00  0.00    -0.068 N 
ATOM      3  H3  ZIN A   1      17.862   4.664  15.370  0.00  0.00     0.280 HD
ENDROOT
BRANCH   2   4
ATOM      4  C4  ZIN A   1      17.440   4.485  13.380  0.00  0.00     0.262 C 
BRANCH   4   5
ATOM      5  C5  ZIN A   1      17.853   3.345  12.486  0.00  0.00     0.001 C 
ATOM      6  C6  ZIN A   1      18.480   3.593  11.344  0.00  0.00     0.009 C 
BRANCH   6   7
ATOM      7  C7  ZIN A   1      18.886   2.475  10.466  0.00  0.00    -0.036 A 
ATOM      8  C12 ZIN A   1      19.321   1.271  11.021  0.00  0.00     0.011 A 
ATOM      9  C11 ZIN A   1      19.692   0.229  10.196  0.00  0.00     0.001 A 
ATOM     10  C10 ZIN A   1      19.645   0.380   8.822  0.00  0.00     0.000 A 
ATOM     11  C9  ZIN A   1      19.220   1.573   8.265  0.00  0.00     0.001 A 
ATOM     12  C8  ZIN A   1      18.840   2.620   9.079  0.00  0.00     0.011 A 
ENDBRANCH   6   7
ENDBRANCH   4   5
ENDBRANCH   2   4
BRANCH   2  13
ATOM     13  C13 ZIN A   1      19.227   3.388  14.547  0.00  0.00     0.274 C 
BRANCH  13  14
ATOM     14  C14 ZIN A   1      19.113   2.739  15.903  0.00  0.00    -0.021 A 
ATOM     15  C23 ZIN A   1      19.088   3.504  17.028  0.00  0.00     0.010 A 
ATOM     16  C22 ZIN A   1      18.978   2.922  18.289  0.00  0.00     0.002 A 
ATOM     17  C21 ZIN A   1      18.902   1.570  18.433  0.00  0.00     0.012 A 
ATOM     18  C20 ZIN A   1      18.932   0.747  17.295  0.00  0.00    -0.025 A 
ATOM     19  C15 ZIN A   1      19.038   1.340  16.012  0.00  0.00    -0.018 A 
ATOM     20  C19 ZIN A   1      18.856  -0.651  17.404  0.00  0.00     0.012 A 
ATOM     21  C16 ZIN A   1      19.067   0.517  14.873  0.00  0.00     0.013 A 
ATOM     22  C17 ZIN A   1      18.993  -0.835  15.017  0.00  0.00     0.001 A 
ATOM     23  C18 ZIN A   1      18.888  -1.417  16.279  0.00  0.00     0.001 A 
ENDBRANCH  13  14
ENDBRANCH   2  13
TORSDOF 5
ENDMDL
