MODEL 1
REMARK VINA RESULT:      -7.4      0.000      0.000
REMARK  4 active torsions:
REMARK  status: ('A' for Active; 'I' for Inactive)
REMARK    1  A    between atoms: O2_2  and  C3_3 
REMARK    2  A    between atoms: C8_8  and  O9_9 
REMARK    3  A    between atoms: C16_15  and  C18_16 
REMARK    4  A    between atoms: C18_16  and  C19_17 
ROOT
ATOM      1  C3  ZIN A   1      16.940   5.122  14.418  0.00  0.00     0.102 A 
ATOM      2  C4  ZIN A   1      16.629   5.363  13.091  0.00  0.00     0.047 A 
ATOM      3  C5  ZIN A   1      17.262   4.650  12.083  0.00  0.00    -0.045 A 
ATOM      4  C6  ZIN A   1      18.208   3.699  12.399  0.00  0.00    -0.015 A 
ATOM      5  C7  ZIN A   1      18.521   3.454  13.729  0.00  0.00     0.049 A 
ATOM      6  C8  ZIN A   1      17.897   4.165  14.739  0.00  0.00     0.102 A 
ATOM      7  C11 ZIN A   1      18.927   2.906  11.341  0.00  0.00     0.263 C 
ATOM      8  C13 ZIN A   1      18.993   1.435  11.772  0.00  0.00     0.119 C 
ATOM      9  C14 ZIN A   1      19.617   0.638  10.646  0.00  0.00     0.135 C 
ATOM     10  O15 ZIN A   1      20.520  -0.136  10.855  0.00  0.00    -0.297 OA
ATOM     11  C16 ZIN A   1      19.069   0.845   9.249  0.00  0.00     0.084 C 
ATOM     12  C22 ZIN A   1      19.002   2.351   8.979  0.00  0.00     0.285 C 
ATOM     13  N23 ZIN A   1      18.229   2.992  10.056  0.00  0.00     0.099 N 
ATOM     14  C24 ZIN A   1      17.951   4.398   9.731  0.00  0.00     0.278 C 
ATOM     15  C25 ZIN A   1      16.887   4.943  10.652  0.00  0.00     0.069 C 
ENDROOT
BRANCH  11  16
ATOM     16  C18 ZIN A   1      17.668   0.238   9.149  0.00  0.00     0.018 C 
BRANCH  16  17
ATOM     17  C19 ZIN A   1      17.625  -0.760   7.990  0.00  0.00    -0.022 C 
ATOM     18  C20 ZIN A   1      17.177  -0.042   6.715  0.00  0.00     0.009 C 
ATOM     19  C21 ZIN A   1      19.019  -1.354   7.777  0.00  0.00     0.009 C 
ENDBRANCH  16  17
ENDBRANCH  11  16
BRANCH   6  20
ATOM     20  O9  ZIN A   1      18.209   3.920  16.040  0.00  0.00    -0.353 OA
ATOM     21  C10 ZIN A   1      19.588   4.018  16.406  0.00  0.00     0.210 C 
ENDBRANCH   6  20
BRANCH   1  22
ATOM     22  O2  ZIN A   1      16.318   5.824  15.403  0.00  0.00    -0.353 OA
ATOM     23  C1  ZIN A   1      14.954   6.187  15.179  0.00  0.00     0.210 C 
ENDBRANCH   1  22
TORSDOF 4
ENDMDL
MODEL 2
REMARK VINA RESULT:      -7.4      2.431      3.948
REMARK  4 active torsions:
REMARK  status: ('A' for Active; 'I' for Inactive)
REMARK    1  A    between atoms: O2_2  and  C3_3 
REMARK    2  A    between atoms: C8_8  and  O9_9 
REMARK    3  A    between atoms: C16_15  and  C18_16 
REMARK    4  A    between atoms: C18_16  and  C19_17 
ROOT
ATOM      1  C3  ZIN A   1      19.158   1.450  16.543  0.00  0.00     0.102 A 
ATOM      2  C4  ZIN A   1      18.840   0.322  15.806  0.00  0.00     0.047 A 
ATOM      3  C5  ZIN A   1      18.404   0.443  14.495  0.00  0.00    -0.045 A 
ATOM      4  C6  ZIN A   1      18.281   1.689  13.919  0.00  0.00    -0.015 A 
ATOM      5  C7  ZIN A   1      18.601   2.822  14.655  0.00  0.00     0.049 A 
ATOM      6  C8  ZIN A   1      19.033   2.709  15.965  0.00  0.00     0.102 A 
ATOM      7  C11 ZIN A   1      17.805   1.871  12.503  0.00  0.00     0.263 C 
ATOM      8  C13 ZIN A   1      18.684   2.917  11.807  0.00  0.00     0.119 C 
ATOM      9  C14 ZIN A   1      18.261   3.002  10.355  0.00  0.00     0.135 C 
ATOM     10  O15 ZIN A   1      18.042   4.067   9.830  0.00  0.00    -0.297 OA
ATOM     11  C16 ZIN A   1      18.123   1.705   9.585  0.00  0.00     0.084 C 
ATOM     12  C22 ZIN A   1      17.278   0.739  10.422  0.00  0.00     0.285 C 
ATOM     13  N23 ZIN A   1      17.884   0.613  11.757  0.00  0.00     0.099 N 
ATOM     14  C24 ZIN A   1      17.239  -0.464  12.521  0.00  0.00     0.278 C 
ATOM     15  C25 ZIN A   1      18.074  -0.814  13.730  0.00  0.00     0.069 C 
ENDROOT
BRANCH  11  16
ATOM     16  C18 ZIN A   1      19.507   1.101   9.338  0.00  0.00     0.018 C 
BRANCH  16  17
ATOM     17  C19 ZIN A   1      19.599   0.609   7.893  0.00  0.00    -0.022 C 
ATOM     18  C20 ZIN A   1      19.121  -0.843   7.817  0.00  0.00     0.009 C 
ATOM     19  C21 ZIN A   1      18.718   1.483   6.999  0.00  0.00     0.009 C 
ENDBRANCH  16  17
ENDBRANCH  11  16
BRANCH   6  20
ATOM     20  O9  ZIN A   1      19.344   3.823  16.680  0.00  0.00    -0.353 OA
ATOM     21  C10 ZIN A   1      19.964   4.897  15.970  0.00  0.00     0.210 C 
ENDBRANCH   6  20
BRANCH   1  22
ATOM     22  O2  ZIN A   1      19.586   1.327  17.828  0.00  0.00    -0.353 OA
ATOM     23  C1  ZIN A   1      19.082   0.219  18.577  0.00  0.00     0.210 C 
ENDBRANCH   1  22
TORSDOF 4
ENDMDL
MODEL 3
REMARK VINA RESULT:      -7.1      3.127      7.471
REMARK  4 active torsions:
REMARK  status: ('A' for Active; 'I' for Inactive)
REMARK    1  A    between atoms: O2_2  and  C3_3 
REMARK    2  A    between atoms: C8_8  and  O9_9 
REMARK    3  A    between atoms: C16_15  and  C18_16 
REMARK    4  A    between atoms: C18_16  and  C19_17 
ROOT
ATOM      1  C3  ZIN A   1      18.546  -4.016  10.734  0.00  0.00     0.102 A 
ATOM      2  C4  ZIN A   1      18.770  -3.289  11.891  0.00  0.00     0.047 A 
ATOM      3  C5  ZIN A   1      19.061  -1.935  11.821  0.00  0.00    -0.045 A 
ATOM      4  C6  ZIN A   1      19.131  -1.305  10.597  0.00  0.00    -0.015 A 
ATOM      5  C7  ZIN A   1      18.905  -2.031   9.436  0.00  0.00     0.049 A 
ATOM      6  C8  ZIN A   1      18.619  -3.383   9.498  0.00  0.00     0.102 A 
ATOM      7  C11 ZIN A   1      19.451   0.160  10.471  0.00  0.00     0.263 C 
ATOM      8  C13 ZIN A   1      18.510   0.793   9.437  0.00  0.00     0.119 C 
ATOM      9  C14 ZIN A   1      18.772   2.284   9.408  0.00  0.00     0.135 C 
ATOM     10  O15 ZIN A   1      18.942   2.868   8.365  0.00  0.00    -0.297 OA
ATOM     11  C16 ZIN A   1      18.812   3.018  10.732  0.00  0.00     0.084 C 
ATOM     12  C22 ZIN A   1      19.735   2.245  11.681  0.00  0.00     0.285 C 
ATOM     13  N23 ZIN A   1      19.278   0.848  11.752  0.00  0.00     0.099 N 
ATOM     14  C24 ZIN A   1      19.993   0.121  12.811  0.00  0.00     0.278 C 
ATOM     15  C25 ZIN A   1      19.292  -1.184  13.108  0.00  0.00     0.069 C 
ENDROOT
BRANCH  11  16
ATOM     16  C18 ZIN A   1      17.403   3.090  11.326  0.00  0.00     0.018 C 
BRANCH  16  17
ATOM     17  C19 ZIN A   1      17.016   4.554  11.543  0.00  0.00    -0.022 C 
ATOM     18  C20 ZIN A   1      17.742   5.096  12.776  0.00  0.00     0.009 C 
ATOM     19  C21 ZIN A   1      17.412   5.374  10.315  0.00  0.00     0.009 C 
ENDBRANCH  16  17
ENDBRANCH  11  16
BRANCH   6  20
ATOM     20  O9  ZIN A   1      18.399  -4.088   8.356  0.00  0.00    -0.353 OA
ATOM     21  C10 ZIN A   1      19.461  -4.121   7.400  0.00  0.00     0.210 C 
ENDBRANCH   6  20
BRANCH   1  22
ATOM     22  O2  ZIN A   1      18.261  -5.344  10.807  0.00  0.00    -0.353 OA
ATOM     23  C1  ZIN A   1      17.382  -5.763  11.853  0.00  0.00     0.210 C 
ENDBRANCH   1  22
TORSDOF 4
ENDMDL
MODEL 4
REMARK VINA RESULT:      -6.9      3.230      4.710
REMARK  4 active torsions:
REMARK  status: ('A' for Active; 'I' for Inactive)
REMARK    1  A    between atoms: O2_2  and  C3_3 
REMARK    2  A    between atoms: C8_8  and  O9_9 
REMARK    3  A    between atoms: C16_15  and  C18_16 
REMARK    4  A    between atoms: C18_16  and  C19_17 
ROOT
ATOM      1  C3  ZIN A   1      18.050   2.465  11.429  0.00  0.00     0.102 A 
ATOM      2  C4  ZIN A   1      17.731   2.042  10.149  0.00  0.00     0.047 A 
ATOM      3  C5  ZIN A   1      18.110   0.780   9.714  0.00  0.00    -0.045 A 
ATOM      4  C6  ZIN A   1      18.811  -0.059  10.554  0.00  0.00    -0.015 A 
ATOM      5  C7  ZIN A   1      19.130   0.362  11.838  0.00  0.00     0.049 A 
ATOM      6  C8  ZIN A   1      18.759   1.620  12.276  0.00  0.00     0.102 A 
ATOM      7  C11 ZIN A   1      19.250  -1.433  10.124  0.00  0.00     0.263 C 
ATOM      8  C13 ZIN A   1      18.978  -2.426  11.261  0.00  0.00     0.119 C 
ATOM      9  C14 ZIN A   1      19.321  -3.816  10.768  0.00  0.00     0.135 C 
ATOM     10  O15 ZIN A   1      20.016  -4.556  11.421  0.00  0.00    -0.297 OA
ATOM     11  C16 ZIN A   1      18.761  -4.247   9.428  0.00  0.00     0.084 C 
ATOM     12  C22 ZIN A   1      19.051  -3.139   8.410  0.00  0.00     0.285 C 
ATOM     13  N23 ZIN A   1      18.522  -1.867   8.930  0.00  0.00     0.099 N 
ATOM     14  C24 ZIN A   1      18.580  -0.820   7.900  0.00  0.00     0.278 C 
ATOM     15  C25 ZIN A   1      17.737   0.362   8.314  0.00  0.00     0.069 C 
ENDROOT
BRANCH  11  16
ATOM     16  C18 ZIN A   1      17.250  -4.461   9.544  0.00  0.00     0.018 C 
BRANCH  16  17
ATOM     17  C19 ZIN A   1      16.928  -5.943   9.342  0.00  0.00    -0.022 C 
ATOM     18  C20 ZIN A   1      15.613  -6.078   8.571  0.00  0.00     0.009 C 
ATOM     19  C21 ZIN A   1      18.055  -6.606   8.548  0.00  0.00     0.009 C 
ENDBRANCH  16  17
ENDBRANCH  11  16
BRANCH   6  20
ATOM     20  O9  ZIN A   1      19.076   2.025  13.536  0.00  0.00    -0.353 OA
ATOM     21  C10 ZIN A   1      19.273   1.003  14.516  0.00  0.00     0.210 C 
ENDBRANCH   6  20
BRANCH   1  22
ATOM     22  O2  ZIN A   1      17.676   3.702  11.851  0.00  0.00    -0.353 OA
ATOM     23  C1  ZIN A   1      17.052   4.556  10.890  0.00  0.00     0.210 C 
ENDBRANCH   1  22
TORSDOF 4
ENDMDL
MODEL 5
REMARK VINA RESULT:      -6.8      2.312      7.416
REMARK  4 active torsions:
REMARK  status: ('A' for Active; 'I' for Inactive)
REMARK    1  A    between atoms: O2_2  and  C3_3 
REMARK    2  A    between atoms: C8_8  and  O9_9 
REMARK    3  A    between atoms: C16_15  and  C18_16 
REMARK    4  A    between atoms: C18_16  and  C19_17 
ROOT
ATOM      1  C3  ZIN A   1      18.490  -1.535   8.791  0.00  0.00     0.102 A 
ATOM      2  C4  ZIN A   1      19.156  -1.365   9.993  0.00  0.00     0.047 A 
ATOM      3  C5  ZIN A   1      19.339  -0.094  10.518  0.00  0.00    -0.045 A 
ATOM      4  C6  ZIN A   1      18.861   1.008   9.843  0.00  0.00    -0.015 A 
ATOM      5  C7  ZIN A   1      18.191   0.840   8.639  0.00  0.00     0.049 A 
ATOM      6  C8  ZIN A   1      18.009  -0.424   8.108  0.00  0.00     0.102 A 
ATOM      7  C11 ZIN A   1      19.042   2.406  10.370  0.00  0.00     0.263 C 
ATOM      8  C13 ZIN A   1      17.729   3.182  10.200  0.00  0.00     0.119 C 
ATOM      9  C14 ZIN A   1      17.898   4.545  10.836  0.00  0.00     0.135 C 
ATOM     10  O15 ZIN A   1      17.588   5.552  10.246  0.00  0.00    -0.297 OA
ATOM     11  C16 ZIN A   1      18.468   4.602  12.238  0.00  0.00     0.084 C 
ATOM     12  C22 ZIN A   1      19.734   3.740  12.276  0.00  0.00     0.285 C 
ATOM     13  N23 ZIN A   1      19.403   2.391  11.789  0.00  0.00     0.099 N 
ATOM     14  C24 ZIN A   1      20.526   1.468  12.009  0.00  0.00     0.278 C 
ATOM     15  C25 ZIN A   1      20.067   0.040  11.832  0.00  0.00     0.069 C 
ENDROOT
BRANCH  11  16
ATOM     16  C18 ZIN A   1      17.442   4.060  13.235  0.00  0.00     0.018 C 
BRANCH  16  17
ATOM     17  C19 ZIN A   1      17.047   5.168  14.214  0.00  0.00    -0.022 C 
ATOM     18  C20 ZIN A   1      18.147   6.231  14.252  0.00  0.00     0.009 C 
ATOM     19  C21 ZIN A   1      15.734   5.807  13.758  0.00  0.00     0.009 C 
ENDBRANCH  16  17
ENDBRANCH  11  16
BRANCH   6  20
ATOM     20  O9  ZIN A   1      17.352  -0.580   6.927  0.00  0.00    -0.353 OA
ATOM     21  C10 ZIN A   1      17.742   0.275   5.850  0.00  0.00     0.210 C 
ENDBRANCH   6  20
BRANCH   1  22
ATOM     22  O2  ZIN A   1      18.313  -2.783   8.280  0.00  0.00    -0.353 OA
ATOM     23  C1  ZIN A   1      19.011  -3.853   8.920  0.00  0.00     0.210 C 
ENDBRANCH   1  22
TORSDOF 4
ENDMDL
MODEL 6
REMARK VINA RESULT:      -6.8      2.843      3.720
REMARK  4 active torsions:
REMARK  status: ('A' for Active; 'I' for Inactive)
REMARK    1  A    between atoms: O2_2  and  C3_3 
REMARK    2  A    between atoms: C8_8  and  O9_9 
REMARK    3  A    between atoms: C16_15  and  C18_16 
REMARK    4  A    between atoms: C18_16  and  C19_17 
ROOT
ATOM      1  C3  ZIN A   1      18.099   2.874  13.793  0.00  0.00     0.102 A 
ATOM      2  C4  ZIN A   1      17.717   2.746  12.468  0.00  0.00     0.047 A 
ATOM      3  C5  ZIN A   1      18.140   1.658  11.719  0.00  0.00    -0.045 A 
ATOM      4  C6  ZIN A   1      18.947   0.698  12.291  0.00  0.00    -0.015 A 
ATOM      5  C7  ZIN A   1      19.330   0.822  13.619  0.00  0.00     0.049 A 
ATOM      6  C8  ZIN A   1      18.915   1.907  14.370  0.00  0.00     0.102 A 
ATOM      7  C11 ZIN A   1      19.437  -0.497  11.517  0.00  0.00     0.263 C 
ATOM      8  C13 ZIN A   1      19.305  -1.751  12.390  0.00  0.00     0.119 C 
ATOM      9  C14 ZIN A   1      19.696  -2.952  11.556  0.00  0.00     0.135 C 
ATOM     10  O15 ZIN A   1      20.479  -3.772  11.972  0.00  0.00    -0.297 OA
ATOM     11  C16 ZIN A   1      19.071  -3.091  10.184  0.00  0.00     0.084 C 
ATOM     12  C22 ZIN A   1      19.220  -1.753   9.452  0.00  0.00     0.285 C 
ATOM     13  N23 ZIN A   1      18.654  -0.687  10.294  0.00  0.00     0.099 N 
ATOM     14  C24 ZIN A   1      18.577   0.578   9.548  0.00  0.00     0.278 C 
ATOM     15  C25 ZIN A   1      17.695   1.560  10.282  0.00  0.00     0.069 C 
ENDROOT
BRANCH  11  16
ATOM     16  C18 ZIN A   1      17.587  -3.440  10.326  0.00  0.00     0.018 C 
BRANCH  16  17
ATOM     17  C19 ZIN A   1      17.401  -4.951  10.167  0.00  0.00    -0.022 C 
ATOM     18  C20 ZIN A   1      18.531  -5.516   9.304  0.00  0.00     0.009 C 
ATOM     19  C21 ZIN A   1      17.430  -5.615  11.544  0.00  0.00     0.009 C 
ENDBRANCH  16  17
ENDBRANCH  11  16
BRANCH   6  20
ATOM     20  O9  ZIN A   1      19.295   2.023  15.671  0.00  0.00    -0.353 OA
ATOM     21  C10 ZIN A   1      19.031   0.907  16.525  0.00  0.00     0.210 C 
ENDBRANCH   6  20
BRANCH   1  22
ATOM     22  O2  ZIN A   1      17.682   3.943  14.523  0.00  0.00    -0.353 OA
ATOM     23  C1  ZIN A   1      18.272   5.208  14.218  0.00  0.00     0.210 C 
ENDBRANCH   1  22
TORSDOF 4
ENDMDL
MODEL 7
REMARK VINA RESULT:      -6.7      2.136      2.591
REMARK  4 active torsions:
REMARK  status: ('A' for Active; 'I' for Inactive)
REMARK    1  A    between atoms: O2_2  and  C3_3 
REMARK    2  A    between atoms: C8_8  and  O9_9 
REMARK    3  A    between atoms: C16_15  and  C18_16 
REMARK    4  A    between atoms: C18_16  and  C19_17 
ROOT
ATOM      1  C3  ZIN A   1      18.399   6.959  14.874  0.00  0.00     0.102 A 
ATOM      2  C4  ZIN A   1      17.398   6.654  13.967  0.00  0.00     0.047 A 
ATOM      3  C5  ZIN A   1      17.558   5.606  13.073  0.00  0.00    -0.045 A 
ATOM      4  C6  ZIN A   1      18.718   4.863  13.079  0.00  0.00    -0.015 A 
ATOM      5  C7  ZIN A   1      19.724   5.164  13.988  0.00  0.00     0.049 A 
ATOM      6  C8  ZIN A   1      19.572   6.211  14.879  0.00  0.00     0.102 A 
ATOM      7  C11 ZIN A   1      18.940   3.722  12.123  0.00  0.00     0.263 C 
ATOM      8  C13 ZIN A   1      19.556   2.541  12.884  0.00  0.00     0.119 C 
ATOM      9  C14 ZIN A   1      19.666   1.369  11.931  0.00  0.00     0.135 C 
ATOM     10  O15 ZIN A   1      20.695   0.746  11.824  0.00  0.00    -0.297 OA
ATOM     11  C16 ZIN A   1      18.442   1.005  11.118  0.00  0.00     0.084 C 
ATOM     12  C22 ZIN A   1      17.901   2.283  10.468  0.00  0.00     0.285 C 
ATOM     13  N23 ZIN A   1      17.678   3.290  11.518  0.00  0.00     0.099 N 
ATOM     14  C24 ZIN A   1      16.959   4.453  10.979  0.00  0.00     0.278 C 
ATOM     15  C25 ZIN A   1      16.437   5.310  12.108  0.00  0.00     0.069 C 
ENDROOT
BRANCH  11  16
ATOM     16  C18 ZIN A   1      17.376   0.398  12.033  0.00  0.00     0.018 C 
BRANCH  16  17
ATOM     17  C19 ZIN A   1      17.366  -1.123  11.866  0.00  0.00    -0.022 C 
ATOM     18  C20 ZIN A   1      17.872  -1.486  10.469  0.00  0.00     0.009 C 
ATOM     19  C21 ZIN A   1      18.275  -1.757  12.919  0.00  0.00     0.009 C 
ENDBRANCH  16  17
ENDBRANCH  11  16
BRANCH   6  20
ATOM     20  O9  ZIN A   1      20.562   6.500  15.767  0.00  0.00    -0.353 OA
ATOM     21  C10 ZIN A   1      21.795   5.792  15.618  0.00  0.00     0.210 C 
ENDBRANCH   6  20
BRANCH   1  22
ATOM     22  O2  ZIN A   1      18.239   7.987  15.749  0.00  0.00    -0.353 OA
ATOM     23  C1  ZIN A   1      17.236   7.831  16.756  0.00  0.00     0.210 C 
ENDBRANCH   1  22
TORSDOF 4
ENDMDL
MODEL 8
REMARK VINA RESULT:      -6.6      2.611      7.288
REMARK  4 active torsions:
REMARK  status: ('A' for Active; 'I' for Inactive)
REMARK    1  A    between atoms: O2_2  and  C3_3 
REMARK    2  A    between atoms: C8_8  and  O9_9 
REMARK    3  A    between atoms: C16_15  and  C18_16 
REMARK    4  A    between atoms: C18_16  and  C19_17 
ROOT
ATOM      1  C3  ZIN A   1      18.606  -2.151  11.591  0.00  0.00     0.102 A 
ATOM      2  C4  ZIN A   1      18.177  -1.896  12.882  0.00  0.00     0.047 A 
ATOM      3  C5  ZIN A   1      18.419  -0.663  13.470  0.00  0.00    -0.045 A 
ATOM      4  C6  ZIN A   1      19.092   0.316  12.771  0.00  0.00    -0.015 A 
ATOM      5  C7  ZIN A   1      19.522   0.064  11.475  0.00  0.00     0.049 A 
ATOM      6  C8  ZIN A   1      19.287  -1.165  10.885  0.00  0.00     0.102 A 
ATOM      7  C11 ZIN A   1      19.385   1.666  13.369  0.00  0.00     0.263 C 
ATOM      8  C13 ZIN A   1      19.095   2.752  12.326  0.00  0.00     0.119 C 
ATOM      9  C14 ZIN A   1      19.286   4.103  12.982  0.00  0.00     0.135 C 
ATOM     10  O15 ZIN A   1      19.952   4.963  12.457  0.00  0.00    -0.297 OA
ATOM     11  C16 ZIN A   1      18.614   4.339  14.317  0.00  0.00     0.084 C 
ATOM     12  C22 ZIN A   1      18.938   3.154  15.233  0.00  0.00     0.285 C 
ATOM     13  N23 ZIN A   1      18.553   1.908  14.550  0.00  0.00     0.099 N 
ATOM     14  C24 ZIN A   1      18.641   0.763  15.467  0.00  0.00     0.278 C 
ATOM     15  C25 ZIN A   1      17.929  -0.430  14.877  0.00  0.00     0.069 C 
ENDROOT
BRANCH  11  16
ATOM     16  C18 ZIN A   1      17.099   4.443  14.122  0.00  0.00     0.018 C 
BRANCH  16  17
ATOM     17  C19 ZIN A   1      16.705   5.914  13.966  0.00  0.00    -0.022 C 
ATOM     18  C20 ZIN A   1      15.267   6.110  14.450  0.00  0.00     0.009 C 
ATOM     19  C21 ZIN A   1      17.647   6.785  14.799  0.00  0.00     0.009 C 
ENDBRANCH  16  17
ENDBRANCH  11  16
BRANCH   6  20
ATOM     20  O9  ZIN A   1      19.712  -1.404   9.615  0.00  0.00    -0.353 OA
ATOM     21  C10 ZIN A   1      19.411  -0.410   8.632  0.00  0.00     0.210 C 
ENDBRANCH   6  20
BRANCH   1  22
ATOM     22  O2  ZIN A   1      18.366  -3.360  11.018  0.00  0.00    -0.353 OA
ATOM     23  C1  ZIN A   1      19.254  -4.427  11.359  0.00  0.00     0.210 C 
ENDBRANCH   1  22
TORSDOF 4
ENDMDL
MODEL 9
REMARK VINA RESULT:      -6.5      2.842      4.994
REMARK  4 active torsions:
REMARK  status: ('A' for Active; 'I' for Inactive)
REMARK    1  A    between atoms: O2_2  and  C3_3 
REMARK    2  A    between atoms: C8_8  and  O9_9 
REMARK    3  A    between atoms: C16_15  and  C18_16 
REMARK    4  A    between atoms: C18_16  and  C19_17 
ROOT
ATOM      1  C3  ZIN A   1      19.068   0.724  14.163  0.00  0.00     0.102 A 
ATOM      2  C4  ZIN A   1      19.255  -0.629  13.936  0.00  0.00     0.047 A 
ATOM      3  C5  ZIN A   1      18.804  -1.211  12.761  0.00  0.00    -0.045 A 
ATOM      4  C6  ZIN A   1      18.162  -0.445  11.812  0.00  0.00    -0.015 A 
ATOM      5  C7  ZIN A   1      17.974   0.913  12.036  0.00  0.00     0.049 A 
ATOM      6  C8  ZIN A   1      18.418   1.499  13.207  0.00  0.00     0.102 A 
ATOM      7  C11 ZIN A   1      17.647  -1.033  10.526  0.00  0.00     0.263 C 
ATOM      8  C13 ZIN A   1      17.997  -0.091   9.367  0.00  0.00     0.119 C 
ATOM      9  C14 ZIN A   1      17.572  -0.753   8.073  0.00  0.00     0.135 C 
ATOM     10  O15 ZIN A   1      16.920  -0.155   7.251  0.00  0.00    -0.297 OA
ATOM     11  C16 ZIN A   1      17.993  -2.189   7.846  0.00  0.00     0.084 C 
ATOM     12  C22 ZIN A   1      17.641  -2.996   9.100  0.00  0.00     0.285 C 
ATOM     13  N23 ZIN A   1      18.250  -2.343  10.270  0.00  0.00     0.099 N 
ATOM     14  C24 ZIN A   1      18.125  -3.193  11.463  0.00  0.00     0.278 C 
ATOM     15  C25 ZIN A   1      19.035  -2.687  12.557  0.00  0.00     0.069 C 
ENDROOT
BRANCH  11  16
ATOM     16  C18 ZIN A   1      19.502  -2.251   7.597  0.00  0.00     0.018 C 
BRANCH  16  17
ATOM     17  C19 ZIN A   1      19.785  -3.159   6.398  0.00  0.00    -0.022 C 
ATOM     18  C20 ZIN A   1      20.043  -4.585   6.888  0.00  0.00     0.009 C 
ATOM     19  C21 ZIN A   1      18.578  -3.153   5.458  0.00  0.00     0.009 C 
ENDBRANCH  16  17
ENDBRANCH  11  16
BRANCH   6  20
ATOM     20  O9  ZIN A   1      18.230   2.829  13.419  0.00  0.00    -0.353 OA
ATOM     21  C10 ZIN A   1      17.835   3.616  12.293  0.00  0.00     0.210 C 
ENDBRANCH   6  20
BRANCH   1  22
ATOM     22  O2  ZIN A   1      19.513   1.291  15.316  0.00  0.00    -0.353 OA
ATOM     23  C1  ZIN A   1      18.940   0.816  16.536  0.00  0.00     0.210 C 
ENDBRANCH   1  22
TORSDOF 4
ENDMDL
