MODEL 1
REMARK VINA RESULT:      -8.6      0.000      0.000
REMARK  2 active torsions:
REMARK  status: ('A' for Active; 'I' for Inactive)
REMARK    1  A    between atoms: C2_2  and  C4_4 
REMARK    2  A    between atoms: C7_6  and  C8_7 
ROOT
ATOM      1  C4  <0> d   1      17.848  -1.244  11.581  0.00  0.00     0.301 C 
ATOM      2  N6  <0> d   1      17.863  -1.018  10.137  0.00  0.00    -0.262 NA
ATOM      3  C7  <0> d   1      18.161   0.126   9.632  0.00  0.00     0.075 C 
ATOM      4  C14 <0> d   1      18.508   1.326  10.411  0.00  0.00     0.021 A 
ATOM      5  C15 <0> d   1      17.997   2.556   9.972  0.00  0.00     0.040 A 
ATOM      6  C16 <0> d   1      18.282   3.716  10.658  0.00  0.00     0.035 A 
ATOM      7 Cl17 <0> d   1      17.643   5.232  10.103  0.00  0.00    -0.084 Cl
ATOM      8  C18 <0> d   1      19.079   3.673  11.790  0.00  0.00     0.026 A 
ATOM      9  C19 <0> d   1      19.589   2.472  12.233  0.00  0.00     0.032 A 
ATOM     10  C20 <0> d   1      19.311   1.287  11.549  0.00  0.00     0.047 A 
ATOM     11  N21 <0> d   1      19.863   0.118  12.052  0.00  0.00    -0.324 N 
ATOM     12  C22 <0> d   1      19.240  -1.059  12.120  0.00  0.00     0.257 C 
ATOM     13  O23 <0> d   1      19.811  -2.001  12.628  0.00  0.00    -0.270 OA
ATOM     14  H32 <0> d   1      20.775   0.159  12.380  0.00  0.00     0.169 HD
ENDROOT
BRANCH   3  15
ATOM     15  C8  <0> d   1      18.154   0.247   8.155  0.00  0.00    -0.007 A 
ATOM     16  C13 <0> d   1      19.211   0.877   7.500  0.00  0.00     0.014 A 
ATOM     17  C12 <0> d   1      19.203   0.983   6.124  0.00  0.00     0.001 A 
ATOM     18  C11 <0> d   1      18.141   0.475   5.396  0.00  0.00     0.000 A 
ATOM     19  C10 <0> d   1      17.085  -0.145   6.040  0.00  0.00     0.001 A 
ATOM     20  C9  <0> d   1      17.087  -0.262   7.415  0.00  0.00     0.014 A 
ENDBRANCH   3  15
BRANCH   1  21
ATOM     21  C2  <0> d   1      16.917  -0.258  12.237  0.00  0.00     0.208 C 
ATOM     22  O1  <0> d   1      15.910   0.109  11.656  0.00  0.00    -0.646 OA
ATOM     23  O3  <0> d   1      17.167   0.169  13.352  0.00  0.00    -0.646 OA
ENDBRANCH   1  21
TORSDOF 2
ENDMDL
MODEL 2
REMARK VINA RESULT:      -8.3      2.802      4.280
REMARK  2 active torsions:
REMARK  status: ('A' for Active; 'I' for Inactive)
REMARK    1  A    between atoms: C2_2  and  C4_4 
REMARK    2  A    between atoms: C7_6  and  C8_7 
ROOT
ATOM      1  C4  <0> d   1      18.138  -0.259  12.637  0.00  0.00     0.301 C 
ATOM      2  N6  <0> d   1      18.102  -1.623  12.113  0.00  0.00    -0.262 NA
ATOM      3  C7  <0> d   1      18.240  -1.872  10.859  0.00  0.00     0.075 C 
ATOM      4  C14 <0> d   1      18.438  -0.853   9.815  0.00  0.00     0.021 A 
ATOM      5  C15 <0> d   1      17.764  -1.031   8.598  0.00  0.00     0.040 A 
ATOM      6  C16 <0> d   1      17.904  -0.113   7.581  0.00  0.00     0.035 A 
ATOM      7 Cl17 <0> d   1      17.064  -0.346   6.079  0.00  0.00    -0.084 Cl
ATOM      8  C18 <0> d   1      18.715   0.996   7.756  0.00  0.00     0.026 A 
ATOM      9  C19 <0> d   1      19.385   1.184   8.946  0.00  0.00     0.032 A 
ATOM     10  C20 <0> d   1      19.255   0.263   9.987  0.00  0.00     0.047 A 
ATOM     11  N21 <0> d   1      19.963   0.516  11.152  0.00  0.00    -0.324 N 
ATOM     12  C22 <0> d   1      19.501   0.327  12.388  0.00  0.00     0.257 C 
ATOM     13  O23 <0> d   1      20.198   0.633  13.333  0.00  0.00    -0.270 OA
ATOM     14  H32 <0> d   1      20.866   0.858  11.061  0.00  0.00     0.169 HD
ENDROOT
BRANCH   3  15
ATOM     15  C8  <0> d   1      18.197  -3.290  10.433  0.00  0.00    -0.007 A 
ATOM     16  C13 <0> d   1      17.082  -4.076  10.727  0.00  0.00     0.014 A 
ATOM     17  C12 <0> d   1      17.045  -5.394  10.323  0.00  0.00     0.001 A 
ATOM     18  C11 <0> d   1      18.115  -5.940   9.636  0.00  0.00     0.000 A 
ATOM     19  C10 <0> d   1      19.226  -5.168   9.346  0.00  0.00     0.001 A 
ATOM     20  C9  <0> d   1      19.272  -3.847   9.740  0.00  0.00     0.014 A 
ENDBRANCH   3  15
BRANCH   1  21
ATOM     21  C2  <0> d   1      17.094   0.577  11.942  0.00  0.00     0.208 C 
ATOM     22  O1  <0> d   1      16.036   0.074  11.606  0.00  0.00    -0.646 OA
ATOM     23  O3  <0> d   1      17.307   1.757  11.720  0.00  0.00    -0.646 OA
ENDBRANCH   1  21
TORSDOF 2
ENDMDL
MODEL 3
REMARK VINA RESULT:      -8.1      3.171      5.515
REMARK  2 active torsions:
REMARK  status: ('A' for Active; 'I' for Inactive)
REMARK    1  A    between atoms: C2_2  and  C4_4 
REMARK    2  A    between atoms: C7_6  and  C8_7 
ROOT
ATOM      1  C4  <0> d   1      18.284   0.380  10.592  0.00  0.00     0.301 C 
ATOM      2  N6  <0> d   1      18.191   1.698  11.218  0.00  0.00    -0.262 NA
ATOM      3  C7  <0> d   1      18.241   1.849  12.493  0.00  0.00     0.075 C 
ATOM      4  C14 <0> d   1      18.384   0.754  13.466  0.00  0.00     0.021 A 
ATOM      5  C15 <0> d   1      17.627   0.828  14.645  0.00  0.00     0.040 A 
ATOM      6  C16 <0> d   1      17.713  -0.166  15.594  0.00  0.00     0.035 A 
ATOM      7 Cl17 <0> d   1      16.771  -0.060  17.049  0.00  0.00    -0.084 Cl
ATOM      8  C18 <0> d   1      18.552  -1.249  15.390  0.00  0.00     0.026 A 
ATOM      9  C19 <0> d   1      19.303  -1.335  14.237  0.00  0.00     0.032 A 
ATOM     10  C20 <0> d   1      19.229  -0.336  13.264  0.00  0.00     0.047 A 
ATOM     11  N21 <0> d   1      20.017  -0.490  12.134  0.00  0.00    -0.324 N 
ATOM     12  C22 <0> d   1      19.636  -0.209  10.887  0.00  0.00     0.257 C 
ATOM     13  O23 <0> d   1      20.400  -0.432   9.971  0.00  0.00    -0.270 OA
ATOM     14  H32 <0> d   1      20.917  -0.828  12.259  0.00  0.00     0.169 HD
ENDROOT
BRANCH   3  15
ATOM     15  C8  <0> d   1      18.146   3.229  13.025  0.00  0.00    -0.007 A 
ATOM     16  C13 <0> d   1      17.187   4.108  12.524  0.00  0.00     0.014 A 
ATOM     17  C12 <0> d   1      17.099   5.390  13.026  0.00  0.00     0.001 A 
ATOM     18  C11 <0> d   1      17.969   5.808  14.018  0.00  0.00     0.000 A 
ATOM     19  C10 <0> d   1      18.927   4.942  14.516  0.00  0.00     0.001 A 
ATOM     20  C9  <0> d   1      19.020   3.656  14.025  0.00  0.00     0.014 A 
ENDBRANCH   3  15
BRANCH   1  21
ATOM     21  C2  <0> d   1      17.210  -0.519  11.147  0.00  0.00     0.208 C 
ATOM     22  O1  <0> d   1      16.129  -0.052  11.466  0.00  0.00    -0.646 OA
ATOM     23  O3  <0> d   1      17.419  -1.713  11.274  0.00  0.00    -0.646 OA
ENDBRANCH   1  21
TORSDOF 2
ENDMDL
MODEL 4
REMARK VINA RESULT:      -8.0      3.570      6.509
REMARK  2 active torsions:
REMARK  status: ('A' for Active; 'I' for Inactive)
REMARK    1  A    between atoms: C2_2  and  C4_4 
REMARK    2  A    between atoms: C7_6  and  C8_7 
ROOT
ATOM      1  C4  <0> d   1      17.911   1.594  11.571  0.00  0.00     0.301 C 
ATOM      2  N6  <0> d   1      17.912   1.155  12.965  0.00  0.00    -0.262 NA
ATOM      3  C7  <0> d   1      18.253  -0.038  13.301  0.00  0.00     0.075 C 
ATOM      4  C14 <0> d   1      18.669  -1.092  12.361  0.00  0.00     0.021 A 
ATOM      5  C15 <0> d   1      18.207  -2.395  12.600  0.00  0.00     0.040 A 
ATOM      6  C16 <0> d   1      18.557  -3.425  11.757  0.00  0.00     0.035 A 
ATOM      7 Cl17 <0> d   1      17.979  -5.033  12.065  0.00  0.00    -0.084 Cl
ATOM      8  C18 <0> d   1      19.371  -3.180  10.663  0.00  0.00     0.026 A 
ATOM      9  C19 <0> d   1      19.832  -1.905  10.416  0.00  0.00     0.032 A 
ATOM     10  C20 <0> d   1      19.488  -0.848  11.261  0.00  0.00     0.047 A 
ATOM     11  N21 <0> d   1      19.994   0.405  10.951  0.00  0.00    -0.324 N 
ATOM     12  C22 <0> d   1      19.320   1.551  11.043  0.00  0.00     0.257 C 
ATOM     13  O23 <0> d   1      19.855   2.582  10.695  0.00  0.00    -0.270 OA
ATOM     14  H32 <0> d   1      20.913   0.453  10.642  0.00  0.00     0.169 HD
ENDROOT
BRANCH   3  15
ATOM     15  C8  <0> d   1      18.227  -0.378  14.743  0.00  0.00    -0.007 A 
ATOM     16  C13 <0> d   1      17.218   0.126  15.563  0.00  0.00     0.014 A 
ATOM     17  C12 <0> d   1      17.194  -0.198  16.904  0.00  0.00     0.001 A 
ATOM     18  C11 <0> d   1      18.177  -1.014  17.437  0.00  0.00     0.000 A 
ATOM     19  C10 <0> d   1      19.184  -1.513  16.631  0.00  0.00     0.001 A 
ATOM     20  C9  <0> d   1      19.213  -1.200  15.287  0.00  0.00     0.014 A 
ENDBRANCH   3  15
BRANCH   1  21
ATOM     21  C2  <0> d   1      17.038   0.678  10.753  0.00  0.00     0.208 C 
ATOM     22  O1  <0> d   1      16.050   0.170  11.255  0.00  0.00    -0.646 OA
ATOM     23  O3  <0> d   1      17.316   0.448   9.589  0.00  0.00    -0.646 OA
ENDBRANCH   1  21
TORSDOF 2
ENDMDL
MODEL 5
REMARK VINA RESULT:      -8.0      2.696      5.482
REMARK  2 active torsions:
REMARK  status: ('A' for Active; 'I' for Inactive)
REMARK    1  A    between atoms: C2_2  and  C4_4 
REMARK    2  A    between atoms: C7_6  and  C8_7 
ROOT
ATOM      1  C4  <0> d   1      19.266  -1.677  10.673  0.00  0.00     0.301 C 
ATOM      2  N6  <0> d   1      19.035  -1.628  12.116  0.00  0.00    -0.262 NA
ATOM      3  C7  <0> d   1      18.711  -0.537  12.715  0.00  0.00     0.075 C 
ATOM      4  C14 <0> d   1      18.543   0.768  12.055  0.00  0.00     0.021 A 
ATOM      5  C15 <0> d   1      19.032   1.901  12.722  0.00  0.00     0.040 A 
ATOM      6  C16 <0> d   1      18.908   3.151  12.158  0.00  0.00     0.035 A 
ATOM      7 Cl17 <0> d   1      19.518   4.545  12.995  0.00  0.00    -0.084 Cl
ATOM      8  C18 <0> d   1      18.298   3.297  10.923  0.00  0.00     0.026 A 
ATOM      9  C19 <0> d   1      17.812   2.193  10.256  0.00  0.00     0.032 A 
ATOM     10  C20 <0> d   1      17.927   0.918  10.814  0.00  0.00     0.047 A 
ATOM     11  N21 <0> d   1      17.410  -0.144  10.087  0.00  0.00    -0.324 N 
ATOM     12  C22 <0> d   1      17.985  -1.340   9.960  0.00  0.00     0.257 C 
ATOM     13  O23 <0> d   1      17.460  -2.176   9.255  0.00  0.00    -0.270 OA
ATOM     14  H32 <0> d   1      16.564  -0.005   9.634  0.00  0.00     0.169 HD
ENDROOT
BRANCH   3  15
ATOM     15  C8  <0> d   1      18.492  -0.598  14.179  0.00  0.00    -0.007 A 
ATOM     16  C13 <0> d   1      17.455   0.131  14.762  0.00  0.00     0.014 A 
ATOM     17  C12 <0> d   1      17.252   0.067  16.125  0.00  0.00     0.001 A 
ATOM     18  C11 <0> d   1      18.082  -0.708  16.915  0.00  0.00     0.000 A 
ATOM     19  C10 <0> d   1      19.117  -1.428  16.344  0.00  0.00     0.001 A 
ATOM     20  C9  <0> d   1      19.325  -1.377  14.981  0.00  0.00     0.014 A 
ENDBRANCH   3  15
BRANCH   1  21
ATOM     21  C2  <0> d   1      20.330  -0.679  10.298  0.00  0.00     0.208 C 
ATOM     22  O1  <0> d   1      20.278  -0.108   9.222  0.00  0.00    -0.646 OA
ATOM     23  O3  <0> d   1      21.241  -0.439  11.071  0.00  0.00    -0.646 OA
ENDBRANCH   1  21
TORSDOF 2
ENDMDL
MODEL 6
REMARK VINA RESULT:      -7.9      2.680      4.218
REMARK  2 active torsions:
REMARK  status: ('A' for Active; 'I' for Inactive)
REMARK    1  A    between atoms: C2_2  and  C4_4 
REMARK    2  A    between atoms: C7_6  and  C8_7 
ROOT
ATOM      1  C4  <0> d   1      19.185   1.575  12.145  0.00  0.00     0.301 C 
ATOM      2  N6  <0> d   1      18.941   1.529  10.705  0.00  0.00    -0.262 NA
ATOM      3  C7  <0> d   1      18.649   0.433  10.100  0.00  0.00     0.075 C 
ATOM      4  C14 <0> d   1      18.532  -0.882  10.750  0.00  0.00     0.021 A 
ATOM      5  C15 <0> d   1      19.053  -1.993  10.069  0.00  0.00     0.040 A 
ATOM      6  C16 <0> d   1      18.979  -3.251  10.624  0.00  0.00     0.035 A 
ATOM      7 Cl17 <0> d   1      19.627  -4.616   9.769  0.00  0.00    -0.084 Cl
ATOM      8  C18 <0> d   1      18.386  -3.427  11.863  0.00  0.00     0.026 A 
ATOM      9  C19 <0> d   1      17.869  -2.346  12.544  0.00  0.00     0.032 A 
ATOM     10  C20 <0> d   1      17.935  -1.064  11.996  0.00  0.00     0.047 A 
ATOM     11  N21 <0> d   1      17.390  -0.026  12.738  0.00  0.00    -0.324 N 
ATOM     12  C22 <0> d   1      17.924   1.188  12.869  0.00  0.00     0.257 C 
ATOM     13  O23 <0> d   1      17.378   2.000  13.586  0.00  0.00    -0.270 OA
ATOM     14  H32 <0> d   1      16.553  -0.197  13.198  0.00  0.00     0.169 HD
ENDROOT
BRANCH   3  15
ATOM     15  C8  <0> d   1      18.413   0.498   8.639  0.00  0.00    -0.007 A 
ATOM     16  C13 <0> d   1      17.351  -0.205   8.070  0.00  0.00     0.014 A 
ATOM     17  C12 <0> d   1      17.133  -0.138   6.709  0.00  0.00     0.001 A 
ATOM     18  C11 <0> d   1      17.972   0.616   5.908  0.00  0.00     0.000 A 
ATOM     19  C10 <0> d   1      19.030   1.312   6.465  0.00  0.00     0.001 A 
ATOM     20  C9  <0> d   1      19.255   1.256   7.825  0.00  0.00     0.014 A 
ENDBRANCH   3  15
BRANCH   1  21
ATOM     21  C2  <0> d   1      20.287   0.611  12.502  0.00  0.00     0.208 C 
ATOM     22  O1  <0> d   1      21.151   0.343  11.684  0.00  0.00    -0.646 OA
ATOM     23  O3  <0> d   1      20.318   0.102  13.609  0.00  0.00    -0.646 OA
ENDBRANCH   1  21
TORSDOF 2
ENDMDL
MODEL 7
REMARK VINA RESULT:      -7.6      3.668      4.716
REMARK  2 active torsions:
REMARK  status: ('A' for Active; 'I' for Inactive)
REMARK    1  A    between atoms: C2_2  and  C4_4 
REMARK    2  A    between atoms: C7_6  and  C8_7 
ROOT
ATOM      1  C4  <0> d   1      18.614  -5.146   8.147  0.00  0.00     0.301 C 
ATOM      2  N6  <0> d   1      18.594  -3.819   7.532  0.00  0.00    -0.262 NA
ATOM      3  C7  <0> d   1      18.617  -2.745   8.237  0.00  0.00     0.075 C 
ATOM      4  C14 <0> d   1      18.659  -2.702   9.708  0.00  0.00     0.021 A 
ATOM      5  C15 <0> d   1      17.875  -1.734  10.353  0.00  0.00     0.040 A 
ATOM      6  C16 <0> d   1      17.867  -1.643  11.727  0.00  0.00     0.035 A 
ATOM      7 Cl17 <0> d   1      16.893  -0.439  12.511  0.00  0.00    -0.084 Cl
ATOM      8  C18 <0> d   1      18.636  -2.513  12.483  0.00  0.00     0.026 A 
ATOM      9  C19 <0> d   1      19.411  -3.469  11.864  0.00  0.00     0.032 A 
ATOM     10  C20 <0> d   1      19.433  -3.574  10.472  0.00  0.00     0.047 A 
ATOM     11  N21 <0> d   1      20.240  -4.558   9.920  0.00  0.00    -0.324 N 
ATOM     12  C22 <0> d   1      19.915  -5.326   8.881  0.00  0.00     0.257 C 
ATOM     13  O23 <0> d   1      20.687  -6.189   8.519  0.00  0.00    -0.270 OA
ATOM     14  H32 <0> d   1      21.112  -4.698  10.323  0.00  0.00     0.169 HD
ENDROOT
BRANCH   3  15
ATOM     15  C8  <0> d   1      18.601  -1.451   7.515  0.00  0.00    -0.007 A 
ATOM     16  C13 <0> d   1      17.978  -1.350   6.272  0.00  0.00     0.014 A 
ATOM     17  C12 <0> d   1      17.961  -0.142   5.607  0.00  0.00     0.001 A 
ATOM     18  C11 <0> d   1      18.572   0.967   6.166  0.00  0.00     0.000 A 
ATOM     19  C10 <0> d   1      19.198   0.873   7.397  0.00  0.00     0.001 A 
ATOM     20  C9  <0> d   1      19.215  -0.329   8.074  0.00  0.00     0.014 A 
ENDBRANCH   3  15
BRANCH   1  21
ATOM     21  C2  <0> d   1      17.466  -5.272   9.114  0.00  0.00     0.208 C 
ATOM     22  O1  <0> d   1      16.399  -4.737   8.867  0.00  0.00    -0.646 OA
ATOM     23  O3  <0> d   1      17.603  -5.913  10.143  0.00  0.00    -0.646 OA
ENDBRANCH   1  21
TORSDOF 2
ENDMDL
MODEL 8
REMARK VINA RESULT:      -7.5      3.790      6.340
REMARK  2 active torsions:
REMARK  status: ('A' for Active; 'I' for Inactive)
REMARK    1  A    between atoms: C2_2  and  C4_4 
REMARK    2  A    between atoms: C7_6  and  C8_7 
ROOT
ATOM      1  C4  <0> d   1      18.405   4.708  14.649  0.00  0.00     0.301 C 
ATOM      2  N6  <0> d   1      18.361   3.343  15.171  0.00  0.00    -0.262 NA
ATOM      3  C7  <0> d   1      18.407   2.318  14.397  0.00  0.00     0.075 C 
ATOM      4  C14 <0> d   1      18.500   2.375  12.929  0.00  0.00     0.021 A 
ATOM      5  C15 <0> d   1      17.738   1.455  12.193  0.00  0.00     0.040 A 
ATOM      6  C16 <0> d   1      17.777   1.457  10.817  0.00  0.00     0.035 A 
ATOM      7 Cl17 <0> d   1      16.829   0.312   9.920  0.00  0.00    -0.084 Cl
ATOM      8  C18 <0> d   1      18.574   2.372  10.148  0.00  0.00     0.026 A 
ATOM      9  C19 <0> d   1      19.329   3.281  10.857  0.00  0.00     0.032 A 
ATOM     10  C20 <0> d   1      19.302   3.292  12.253  0.00  0.00     0.047 A 
ATOM     11  N21 <0> d   1      20.092   4.233  12.897  0.00  0.00    -0.324 N 
ATOM     12  C22 <0> d   1      19.731   4.931  13.974  0.00  0.00     0.257 C 
ATOM     13  O23 <0> d   1      20.492   5.764  14.420  0.00  0.00    -0.270 OA
ATOM     14  H32 <0> d   1      20.977   4.396  12.536  0.00  0.00     0.169 HD
ENDROOT
BRANCH   3  15
ATOM     15  C8  <0> d   1      18.364   0.979  15.029  0.00  0.00    -0.007 A 
ATOM     16  C13 <0> d   1      17.347   0.662  15.930  0.00  0.00     0.014 A 
ATOM     17  C12 <0> d   1      17.308  -0.588  16.511  0.00  0.00     0.001 A 
ATOM     18  C11 <0> d   1      18.282  -1.524  16.210  0.00  0.00     0.000 A 
ATOM     19  C10 <0> d   1      19.296  -1.215  15.321  0.00  0.00     0.001 A 
ATOM     20  C9  <0> d   1      19.341   0.030  14.729  0.00  0.00     0.014 A 
ENDBRANCH   3  15
BRANCH   1  21
ATOM     21  C2  <0> d   1      17.292   4.904  13.652  0.00  0.00     0.208 C 
ATOM     22  O1  <0> d   1      16.179   4.468  13.889  0.00  0.00    -0.646 OA
ATOM     23  O3  <0> d   1      17.504   5.501  12.611  0.00  0.00    -0.646 OA
ENDBRANCH   1  21
TORSDOF 2
ENDMDL
MODEL 9
REMARK VINA RESULT:      -6.7      1.935      4.535
REMARK  2 active torsions:
REMARK  status: ('A' for Active; 'I' for Inactive)
REMARK    1  A    between atoms: C2_2  and  C4_4 
REMARK    2  A    between atoms: C7_6  and  C8_7 
ROOT
ATOM      1  C4  <0> d   1      19.276  -0.318  12.657  0.00  0.00     0.301 C 
ATOM      2  N6  <0> d   1      18.811   1.057  12.481  0.00  0.00    -0.262 NA
ATOM      3  C7  <0> d   1      18.350   1.479  11.358  0.00  0.00     0.075 C 
ATOM      4  C14 <0> d   1      18.238   0.668  10.135  0.00  0.00     0.021 A 
ATOM      5  C15 <0> d   1      18.565   1.280   8.916  0.00  0.00     0.040 A 
ATOM      6  C16 <0> d   1      18.483   0.576   7.736  0.00  0.00     0.035 A 
ATOM      7 Cl17 <0> d   1      18.890   1.348   6.235  0.00  0.00    -0.084 Cl
ATOM      8  C18 <0> d   1      18.076  -0.748   7.746  0.00  0.00     0.026 A 
ATOM      9  C19 <0> d   1      17.751  -1.363   8.936  0.00  0.00     0.032 A 
ATOM     10  C20 <0> d   1      17.827  -0.664  10.142  0.00  0.00     0.047 A 
ATOM     11  N21 <0> d   1      17.480  -1.348  11.297  0.00  0.00    -0.324 N 
ATOM     12  C22 <0> d   1      18.115  -1.256  12.465  0.00  0.00     0.257 C 
ATOM     13  O23 <0> d   1      17.747  -1.944  13.394  0.00  0.00    -0.270 OA
ATOM     14  H32 <0> d   1      16.713  -1.941  11.252  0.00  0.00     0.169 HD
ENDROOT
BRANCH   3  15
ATOM     15  C8  <0> d   1      17.898   2.888  11.289  0.00  0.00    -0.007 A 
ATOM     16  C13 <0> d   1      17.362   3.508  12.417  0.00  0.00     0.014 A 
ATOM     17  C12 <0> d   1      16.947   4.822  12.348  0.00  0.00     0.001 A 
ATOM     18  C11 <0> d   1      17.052   5.522  11.159  0.00  0.00     0.000 A 
ATOM     19  C10 <0> d   1      17.578   4.911  10.034  0.00  0.00     0.001 A 
ATOM     20  C9  <0> d   1      18.001   3.599  10.093  0.00  0.00     0.014 A 
ENDBRANCH   3  15
BRANCH   1  21
ATOM     21  C2  <0> d   1      20.345  -0.624  11.640  0.00  0.00     0.208 C 
ATOM     22  O1  <0> d   1      20.404  -1.730  11.131  0.00  0.00    -0.646 OA
ATOM     23  O3  <0> d   1      21.150   0.236  11.324  0.00  0.00    -0.646 OA
ENDBRANCH   1  21
TORSDOF 2
ENDMDL
