MODEL 1
REMARK VINA RESULT:      -9.1      0.000      0.000
REMARK  5 active torsions:
REMARK  status: ('A' for Active; 'I' for Inactive)
REMARK    1  A    between atoms: O2_2  and  C3_3 
REMARK    2  A    between atoms: C4_4  and  O5_5 
REMARK    3  A    between atoms: C9_9  and  N10_10 
REMARK    4  A    between atoms: C12_12  and  N13_13 
REMARK       I    between atoms: N16_16  and  C17_17 
REMARK    5  A    between atoms: C17_17  and  C19_19 
ROOT
ATOM      1  C3  ZIN A   1      19.279  -1.965   5.796  0.00  0.00     0.103 A 
ATOM      2  C4  ZIN A   1      18.686  -3.233   5.728  0.00  0.00     0.102 A 
ATOM      3  C7  ZIN A   1      18.371  -3.917   6.868  0.00  0.00     0.057 A 
ATOM      4  C8  ZIN A   1      18.641  -3.347   8.118  0.00  0.00     0.039 A 
ATOM      5  C9  ZIN A   1      18.334  -4.016   9.328  0.00  0.00     0.137 A 
ATOM      6  N11 ZIN A   1      18.620  -3.412  10.471  0.00  0.00    -0.202 NA
ATOM      7  C12 ZIN A   1      19.183  -2.207  10.499  0.00  0.00     0.184 A 
ATOM      8  N32 ZIN A   1      19.490  -1.539   9.404  0.00  0.00    -0.330 N 
ATOM      9  H33 ZIN A   1      19.900  -0.662   9.473  0.00  0.00     0.168 HD
ATOM     10  C34 ZIN A   1      19.240  -2.065   8.193  0.00  0.00     0.051 A 
ATOM     11  C35 ZIN A   1      19.560  -1.383   7.014  0.00  0.00     0.070 A 
ENDROOT
BRANCH   7  12
ATOM     12  N13 ZIN A   1      19.457  -1.630  11.726  0.00  0.00    -0.250 NA
ATOM     13  C31 ZIN A   1      19.596  -0.172  11.602  0.00  0.00     0.118 C 
ATOM     14  C30 ZIN A   1      20.075   0.407  12.938  0.00  0.00     0.140 C 
ATOM     15  N16 ZIN A   1      19.159  -0.042  13.997  0.00  0.00    -0.348 N 
ATOM     16  C15 ZIN A   1      18.862  -1.479  14.097  0.00  0.00     0.140 C 
ATOM     17  C17 ZIN A   1      18.607   0.839  14.853  0.00  0.00     0.251 C 
ATOM     18  C14 ZIN A   1      18.431  -1.984  12.715  0.00  0.00     0.118 C 
ATOM     19  O18 ZIN A   1      17.853   0.451  15.721  0.00  0.00    -0.270 OA
BRANCH  17  20
ATOM     20  C19 ZIN A   1      18.925   2.307  14.733  0.00  0.00     0.245 C 
ATOM     21  O29 ZIN A   1      17.760   3.021  14.301  0.00  0.00    -0.331 OA
ATOM     22  C28 ZIN A   1      17.790   4.375  14.429  0.00  0.00     0.103 A 
ATOM     23  C23 ZIN A   1      18.720   4.992  15.258  0.00  0.00     0.102 A 
ATOM     24  C27 ZIN A   1      16.879   5.145  13.723  0.00  0.00     0.040 A 
ATOM     25  O22 ZIN A   1      19.628   4.255  15.956  0.00  0.00    -0.345 OA
ATOM     26  C24 ZIN A   1      18.728   6.373  15.380  0.00  0.00     0.039 A 
ATOM     27  C21 ZIN A   1      19.347   2.859  16.102  0.00  0.00     0.218 C 
ATOM     28  C25 ZIN A   1      17.814   7.135  14.675  0.00  0.00     0.003 A 
ATOM     29  C26 ZIN A   1      16.891   6.522  13.848  0.00  0.00     0.003 A 
ENDBRANCH  17  20
ENDBRANCH   7  12
BRANCH   5  30
ATOM     30  N10 ZIN A   1      17.751  -5.267   9.315  0.00  0.00    -0.383 N 
ATOM     31  H43 ZIN A   1      17.091  -5.500   9.987  0.00  0.00     0.157 HD
ATOM     32  H44 ZIN A   1      18.000  -5.910   8.634  0.00  0.00     0.157 HD
ENDBRANCH   5  30
BRANCH   1  33
ATOM     33  O2  ZIN A   1      19.584  -1.304   4.649  0.00  0.00    -0.353 OA
ATOM     34  C1  ZIN A   1      18.823  -0.131   4.355  0.00  0.00     0.210 C 
ENDBRANCH   1  33
BRANCH   2  35
ATOM     35  O5  ZIN A   1      18.423  -3.788   4.515  0.00  0.00    -0.353 OA
ATOM     36  C6  ZIN A   1      17.074  -3.709   4.046  0.00  0.00     0.210 C 
ENDBRANCH   2  35
TORSDOF 5
ENDMDL
MODEL 2
REMARK VINA RESULT:      -9.0      2.596     10.413
REMARK  5 active torsions:
REMARK  status: ('A' for Active; 'I' for Inactive)
REMARK    1  A    between atoms: O2_2  and  C3_3 
REMARK    2  A    between atoms: C4_4  and  O5_5 
REMARK    3  A    between atoms: C9_9  and  N10_10 
REMARK    4  A    between atoms: C12_12  and  N13_13 
REMARK       I    between atoms: N16_16  and  C17_17 
REMARK    5  A    between atoms: C17_17  and  C19_19 
ROOT
ATOM      1  C3  ZIN A   1      19.190   2.080  17.281  0.00  0.00     0.103 A 
ATOM      2  C4  ZIN A   1      18.633   3.364  17.374  0.00  0.00     0.102 A 
ATOM      3  C7  ZIN A   1      18.352   4.086  16.249  0.00  0.00     0.057 A 
ATOM      4  C8  ZIN A   1      18.621   3.538  14.988  0.00  0.00     0.039 A 
ATOM      5  C9  ZIN A   1      18.347   4.247  13.793  0.00  0.00     0.137 A 
ATOM      6  N11 ZIN A   1      18.629   3.663  12.637  0.00  0.00    -0.202 NA
ATOM      7  C12 ZIN A   1      19.156   2.443  12.585  0.00  0.00     0.184 A 
ATOM      8  N32 ZIN A   1      19.430   1.739  13.666  0.00  0.00    -0.330 N 
ATOM      9  H33 ZIN A   1      19.815   0.852  13.579  0.00  0.00     0.168 HD
ATOM     10  C34 ZIN A   1      19.182   2.242  14.887  0.00  0.00     0.051 A 
ATOM     11  C35 ZIN A   1      19.467   1.521  16.052  0.00  0.00     0.070 A 
ENDROOT
BRANCH   7  12
ATOM     12  N13 ZIN A   1      19.427   1.889  11.347  0.00  0.00    -0.250 NA
ATOM     13  C31 ZIN A   1      19.530   0.425  11.437  0.00  0.00     0.118 C 
ATOM     14  C30 ZIN A   1      20.007  -0.133  10.092  0.00  0.00     0.140 C 
ATOM     15  N16 ZIN A   1      19.112   0.363   9.036  0.00  0.00    -0.348 N 
ATOM     16  C15 ZIN A   1      18.850   1.809   8.968  0.00  0.00     0.140 C 
ATOM     17  C17 ZIN A   1      18.546  -0.483   8.154  0.00  0.00     0.251 C 
ATOM     18  C14 ZIN A   1      18.419   2.292  10.358  0.00  0.00     0.118 C 
ATOM     19  O18 ZIN A   1      17.810  -0.056   7.289  0.00  0.00    -0.270 OA
BRANCH  17  20
ATOM     20  C19 ZIN A   1      18.827  -1.961   8.241  0.00  0.00     0.245 C 
ATOM     21  O29 ZIN A   1      17.792  -2.607   8.992  0.00  0.00    -0.331 OA
ATOM     22  C28 ZIN A   1      17.735  -3.964   8.912  0.00  0.00     0.103 A 
ATOM     23  C23 ZIN A   1      18.387  -4.646   7.891  0.00  0.00     0.102 A 
ATOM     24  C27 ZIN A   1      17.014  -4.671   9.862  0.00  0.00     0.040 A 
ATOM     25  O22 ZIN A   1      19.105  -3.972   6.951  0.00  0.00    -0.345 OA
ATOM     26  C24 ZIN A   1      18.308  -6.028   7.824  0.00  0.00     0.039 A 
ATOM     27  C21 ZIN A   1      18.850  -2.568   6.832  0.00  0.00     0.218 C 
ATOM     28  C25 ZIN A   1      17.586  -6.727   8.773  0.00  0.00     0.003 A 
ATOM     29  C26 ZIN A   1      16.940  -6.050   9.791  0.00  0.00     0.003 A 
ENDBRANCH  17  20
ENDBRANCH   7  12
BRANCH   5  30
ATOM     30  N10 ZIN A   1      17.801   5.514  13.831  0.00  0.00    -0.383 N 
ATOM     31  H43 ZIN A   1      17.253   5.783  14.585  0.00  0.00     0.157 HD
ATOM     32  H44 ZIN A   1      17.966   6.134  13.104  0.00  0.00     0.157 HD
ENDBRANCH   5  30
BRANCH   1  33
ATOM     33  O2  ZIN A   1      19.461   1.382  18.414  0.00  0.00    -0.353 OA
ATOM     34  C1  ZIN A   1      19.253  -0.031  18.370  0.00  0.00     0.210 C 
ENDBRANCH   1  33
BRANCH   2  35
ATOM     35  O5  ZIN A   1      18.372   3.896  18.598  0.00  0.00    -0.353 OA
ATOM     36  C6  ZIN A   1      17.079   4.473  18.791  0.00  0.00     0.210 C 
ENDBRANCH   2  35
TORSDOF 5
ENDMDL
MODEL 3
REMARK VINA RESULT:      -9.0      2.590      4.610
REMARK  5 active torsions:
REMARK  status: ('A' for Active; 'I' for Inactive)
REMARK    1  A    between atoms: O2_2  and  C3_3 
REMARK    2  A    between atoms: C4_4  and  O5_5 
REMARK    3  A    between atoms: C9_9  and  N10_10 
REMARK    4  A    between atoms: C12_12  and  N13_13 
REMARK       I    between atoms: N16_16  and  C17_17 
REMARK    5  A    between atoms: C17_17  and  C19_19 
ROOT
ATOM      1  C3  ZIN A   1      18.124  -5.908   7.262  0.00  0.00     0.103 A 
ATOM      2  C4  ZIN A   1      18.376  -5.773   5.890  0.00  0.00     0.102 A 
ATOM      3  C7  ZIN A   1      18.503  -4.537   5.323  0.00  0.00     0.057 A 
ATOM      4  C8  ZIN A   1      18.381  -3.392   6.119  0.00  0.00     0.039 A 
ATOM      5  C9  ZIN A   1      18.505  -2.089   5.578  0.00  0.00     0.137 A 
ATOM      6  N11 ZIN A   1      18.376  -1.054   6.396  0.00  0.00    -0.202 NA
ATOM      7  C12 ZIN A   1      18.138  -1.219   7.694  0.00  0.00     0.184 A 
ATOM      8  N32 ZIN A   1      18.014  -2.408   8.250  0.00  0.00    -0.330 N 
ATOM      9  H33 ZIN A   1      17.840  -2.479   9.202  0.00  0.00     0.168 HD
ATOM     10  C34 ZIN A   1      18.127  -3.521   7.507  0.00  0.00     0.051 A 
ATOM     11  C35 ZIN A   1      17.995  -4.797   8.067  0.00  0.00     0.070 A 
ENDROOT
BRANCH   7  12
ATOM     12  N13 ZIN A   1      18.015  -0.097   8.494  0.00  0.00    -0.250 NA
ATOM     13  C31 ZIN A   1      17.632  -0.467   9.864  0.00  0.00     0.118 C 
ATOM     14  C30 ZIN A   1      17.331   0.802  10.667  0.00  0.00     0.140 C 
ATOM     15  N16 ZIN A   1      18.487   1.704  10.567  0.00  0.00    -0.348 N 
ATOM     16  C15 ZIN A   1      19.016   2.014   9.230  0.00  0.00     0.140 C 
ATOM     17  C17 ZIN A   1      19.049   2.233  11.672  0.00  0.00     0.251 C 
ATOM     18  C14 ZIN A   1      19.251   0.697   8.483  0.00  0.00     0.118 C 
ATOM     19  O18 ZIN A   1      20.004   2.976  11.571  0.00  0.00    -0.270 OA
BRANCH  17  20
ATOM     20  C19 ZIN A   1      18.492   1.903  13.032  0.00  0.00     0.245 C 
ATOM     21  O29 ZIN A   1      19.031   0.655  13.485  0.00  0.00    -0.331 OA
ATOM     22  C28 ZIN A   1      18.866   0.361  14.804  0.00  0.00     0.103 A 
ATOM     23  C23 ZIN A   1      18.537   1.354  15.719  0.00  0.00     0.102 A 
ATOM     24  C27 ZIN A   1      19.033  -0.946  15.235  0.00  0.00     0.040 A 
ATOM     25  O22 ZIN A   1      18.363   2.643  15.317  0.00  0.00    -0.345 OA
ATOM     26  C24 ZIN A   1      18.383   1.033  17.059  0.00  0.00     0.039 A 
ATOM     27  C21 ZIN A   1      18.895   2.993  14.035  0.00  0.00     0.218 C 
ATOM     28  C25 ZIN A   1      18.553  -0.272  17.483  0.00  0.00     0.003 A 
ATOM     29  C26 ZIN A   1      18.877  -1.260  16.572  0.00  0.00     0.003 A 
ENDBRANCH  17  20
ENDBRANCH   7  12
BRANCH   5  30
ATOM     30  N10 ZIN A   1      18.751  -1.902   4.234  0.00  0.00    -0.383 N 
ATOM     31  H43 ZIN A   1      18.905  -2.668   3.658  0.00  0.00     0.157 HD
ATOM     32  H44 ZIN A   1      18.771  -1.006   3.865  0.00  0.00     0.157 HD
ENDBRANCH   5  30
BRANCH   1  33
ATOM     33  O2  ZIN A   1      18.001  -7.148   7.804  0.00  0.00    -0.353 OA
ATOM     34  C1  ZIN A   1      16.678  -7.595   8.108  0.00  0.00     0.210 C 
ENDBRANCH   1  33
BRANCH   2  35
ATOM     35  O5  ZIN A   1      18.495  -6.885   5.116  0.00  0.00    -0.353 OA
ATOM     36  C6  ZIN A   1      17.377  -7.221   4.290  0.00  0.00     0.210 C 
ENDBRANCH   2  35
TORSDOF 5
ENDMDL
MODEL 4
REMARK VINA RESULT:      -8.8      1.836      9.398
REMARK  5 active torsions:
REMARK  status: ('A' for Active; 'I' for Inactive)
REMARK    1  A    between atoms: O2_2  and  C3_3 
REMARK    2  A    between atoms: C4_4  and  O5_5 
REMARK    3  A    between atoms: C9_9  and  N10_10 
REMARK    4  A    between atoms: C12_12  and  N13_13 
REMARK       I    between atoms: N16_16  and  C17_17 
REMARK    5  A    between atoms: C17_17  and  C19_19 
ROOT
ATOM      1  C3  ZIN A   1      18.742   3.683  14.724  0.00  0.00     0.103 A 
ATOM      2  C4  ZIN A   1      18.963   3.352  16.068  0.00  0.00     0.102 A 
ATOM      3  C7  ZIN A   1      18.988   2.046  16.469  0.00  0.00     0.057 A 
ATOM      4  C8  ZIN A   1      18.792   1.027  15.529  0.00  0.00     0.039 A 
ATOM      5  C9  ZIN A   1      18.809  -0.341  15.897  0.00  0.00     0.137 A 
ATOM      6  N11 ZIN A   1      18.615  -1.248  14.950  0.00  0.00    -0.202 NA
ATOM      7  C12 ZIN A   1      18.408  -0.898  13.684  0.00  0.00     0.184 A 
ATOM      8  N32 ZIN A   1      18.383   0.359  13.287  0.00  0.00    -0.330 N 
ATOM      9  H33 ZIN A   1      18.228   0.567  12.352  0.00  0.00     0.168 HD
ATOM     10  C34 ZIN A   1      18.569   1.355  14.170  0.00  0.00     0.051 A 
ATOM     11  C35 ZIN A   1      18.542   2.699  13.780  0.00  0.00     0.070 A 
ENDROOT
BRANCH   7  12
ATOM     12  N13 ZIN A   1      18.212  -1.894  12.743  0.00  0.00    -0.250 NA
ATOM     13  C31 ZIN A   1      17.979  -1.320  11.410  0.00  0.00     0.118 C 
ATOM     14  C30 ZIN A   1      17.589  -2.438  10.438  0.00  0.00     0.140 C 
ATOM     15  N16 ZIN A   1      18.621  -3.485  10.492  0.00  0.00    -0.348 N 
ATOM     16  C15 ZIN A   1      19.008  -4.013  11.809  0.00  0.00     0.140 C 
ATOM     17  C17 ZIN A   1      19.196  -3.948   9.365  0.00  0.00     0.251 C 
ATOM     18  C14 ZIN A   1      19.341  -2.833  12.728  0.00  0.00     0.118 C 
ATOM     19  O18 ZIN A   1      20.045  -4.812   9.428  0.00  0.00    -0.270 OA
BRANCH  17  20
ATOM     20  C19 ZIN A   1      18.785  -3.393   8.026  0.00  0.00     0.245 C 
ATOM     21  O29 ZIN A   1      19.014  -1.979   7.998  0.00  0.00    -0.331 OA
ATOM     22  C28 ZIN A   1      18.978  -1.378   6.777  0.00  0.00     0.103 A 
ATOM     23  C23 ZIN A   1      19.085  -2.127   5.611  0.00  0.00     0.102 A 
ATOM     24  C27 ZIN A   1      18.835  -0.001   6.701  0.00  0.00     0.040 A 
ATOM     25  O22 ZIN A   1      19.221  -3.481   5.663  0.00  0.00    -0.345 OA
ATOM     26  C24 ZIN A   1      19.055  -1.494   4.379  0.00  0.00     0.039 A 
ATOM     27  C21 ZIN A   1      19.626  -4.039   6.917  0.00  0.00     0.218 C 
ATOM     28  C25 ZIN A   1      18.915  -0.120   4.310  0.00  0.00     0.003 A 
ATOM     29  C26 ZIN A   1      18.805   0.625   5.469  0.00  0.00     0.003 A 
ENDBRANCH  17  20
ENDBRANCH   7  12
BRANCH   5  30
ATOM     30  N10 ZIN A   1      19.021  -0.719  17.206  0.00  0.00    -0.383 N 
ATOM     31  H43 ZIN A   1      19.917  -0.694  17.579  0.00  0.00     0.157 HD
ATOM     32  H44 ZIN A   1      18.275  -1.009  17.753  0.00  0.00     0.157 HD
ENDBRANCH   5  30
BRANCH   1  33
ATOM     33  O2  ZIN A   1      18.721   4.988  14.348  0.00  0.00    -0.353 OA
ATOM     34  C1  ZIN A   1      19.906   5.508  13.742  0.00  0.00     0.210 C 
ENDBRANCH   1  33
BRANCH   2  35
ATOM     35  O5  ZIN A   1      19.154   4.341  16.981  0.00  0.00    -0.353 OA
ATOM     36  C6  ZIN A   1      18.053   4.651  17.839  0.00  0.00     0.210 C 
ENDBRANCH   2  35
TORSDOF 5
ENDMDL
MODEL 5
REMARK VINA RESULT:      -8.8      2.496      9.892
REMARK  5 active torsions:
REMARK  status: ('A' for Active; 'I' for Inactive)
REMARK    1  A    between atoms: O2_2  and  C3_3 
REMARK    2  A    between atoms: C4_4  and  O5_5 
REMARK    3  A    between atoms: C9_9  and  N10_10 
REMARK    4  A    between atoms: C12_12  and  N13_13 
REMARK       I    between atoms: N16_16  and  C17_17 
REMARK    5  A    between atoms: C17_17  and  C19_19 
ROOT
ATOM      1  C3  ZIN A   1      18.084   6.095  15.645  0.00  0.00     0.103 A 
ATOM      2  C4  ZIN A   1      18.359   5.992  17.016  0.00  0.00     0.102 A 
ATOM      3  C7  ZIN A   1      18.522   4.769  17.604  0.00  0.00     0.057 A 
ATOM      4  C8  ZIN A   1      18.416   3.607  16.831  0.00  0.00     0.039 A 
ATOM      5  C9  ZIN A   1      18.577   2.318  17.394  0.00  0.00     0.137 A 
ATOM      6  N11 ZIN A   1      18.461   1.265  16.598  0.00  0.00    -0.202 NA
ATOM      7  C12 ZIN A   1      18.201   1.400  15.300  0.00  0.00     0.184 A 
ATOM      8  N32 ZIN A   1      18.042   2.575  14.724  0.00  0.00    -0.330 N 
ATOM      9  H33 ZIN A   1      17.852   2.625  13.774  0.00  0.00     0.168 HD
ATOM     10  C34 ZIN A   1      18.139   3.705  15.445  0.00  0.00     0.051 A 
ATOM     11  C35 ZIN A   1      17.970   4.966  14.863  0.00  0.00     0.070 A 
ENDROOT
BRANCH   7  12
ATOM     12  N13 ZIN A   1      18.092   0.261  14.523  0.00  0.00    -0.250 NA
ATOM     13  C31 ZIN A   1      17.678   0.596  13.153  0.00  0.00     0.118 C 
ATOM     14  C30 ZIN A   1      17.395  -0.695  12.378  0.00  0.00     0.140 C 
ATOM     15  N16 ZIN A   1      18.575  -1.566  12.475  0.00  0.00    -0.348 N 
ATOM     16  C15 ZIN A   1      19.133  -1.838  13.808  0.00  0.00     0.140 C 
ATOM     17  C17 ZIN A   1      19.132  -2.102  11.371  0.00  0.00     0.251 C 
ATOM     18  C14 ZIN A   1      19.347  -0.502  14.528  0.00  0.00     0.118 C 
ATOM     19  O18 ZIN A   1      20.106  -2.819  11.469  0.00  0.00    -0.270 OA
BRANCH  17  20
ATOM     20  C19 ZIN A   1      18.545  -1.811  10.014  0.00  0.00     0.245 C 
ATOM     21  O29 ZIN A   1      19.091  -0.589   9.502  0.00  0.00    -0.331 OA
ATOM     22  C28 ZIN A   1      18.896  -0.340   8.179  0.00  0.00     0.103 A 
ATOM     23  C23 ZIN A   1      18.526  -1.358   7.309  0.00  0.00     0.102 A 
ATOM     24  C27 ZIN A   1      19.073   0.949   7.697  0.00  0.00     0.040 A 
ATOM     25  O22 ZIN A   1      18.343  -2.629   7.761  0.00  0.00    -0.345 OA
ATOM     26  C24 ZIN A   1      18.342  -1.083   5.962  0.00  0.00     0.039 A 
ATOM     27  C21 ZIN A   1      18.903  -2.943   9.041  0.00  0.00     0.218 C 
ATOM     28  C25 ZIN A   1      18.522   0.203   5.488  0.00  0.00     0.003 A 
ATOM     29  C26 ZIN A   1      18.886   1.217   6.354  0.00  0.00     0.003 A 
ENDBRANCH  17  20
ENDBRANCH   7  12
BRANCH   5  30
ATOM     30  N10 ZIN A   1      18.847   2.162  18.738  0.00  0.00    -0.383 N 
ATOM     31  H43 ZIN A   1      19.020   2.940  19.291  0.00  0.00     0.157 HD
ATOM     32  H44 ZIN A   1      18.863   1.275  19.129  0.00  0.00     0.157 HD
ENDBRANCH   5  30
BRANCH   1  33
ATOM     33  O2  ZIN A   1      17.924   7.322  15.083  0.00  0.00    -0.353 OA
ATOM     34  C1  ZIN A   1      16.599   7.690  14.696  0.00  0.00     0.210 C 
ENDBRANCH   1  33
BRANCH   2  35
ATOM     35  O5  ZIN A   1      18.462   7.120  17.768  0.00  0.00    -0.353 OA
ATOM     36  C6  ZIN A   1      17.333   7.467  18.574  0.00  0.00     0.210 C 
ENDBRANCH   2  35
TORSDOF 5
ENDMDL
MODEL 6
REMARK VINA RESULT:      -8.7      2.261     10.606
REMARK  5 active torsions:
REMARK  status: ('A' for Active; 'I' for Inactive)
REMARK    1  A    between atoms: O2_2  and  C3_3 
REMARK    2  A    between atoms: C4_4  and  O5_5 
REMARK    3  A    between atoms: C9_9  and  N10_10 
REMARK    4  A    between atoms: C12_12  and  N13_13 
REMARK       I    between atoms: N16_16  and  C17_17 
REMARK    5  A    between atoms: C17_17  and  C19_19 
ROOT
ATOM      1  C3  ZIN A   1      18.234   0.493  16.306  0.00  0.00     0.103 A 
ATOM      2  C4  ZIN A   1      19.035   1.521  15.791  0.00  0.00     0.102 A 
ATOM      3  C7  ZIN A   1      19.614   1.402  14.559  0.00  0.00     0.057 A 
ATOM      4  C8  ZIN A   1      19.403   0.244  13.802  0.00  0.00     0.039 A 
ATOM      5  C9  ZIN A   1      19.981   0.073  12.519  0.00  0.00     0.137 A 
ATOM      6  N11 ZIN A   1      19.736  -1.052  11.864  0.00  0.00    -0.202 NA
ATOM      7  C12 ZIN A   1      18.970  -2.006  12.383  0.00  0.00     0.184 A 
ATOM      8  N32 ZIN A   1      18.407  -1.900  13.571  0.00  0.00    -0.330 N 
ATOM      9  H33 ZIN A   1      17.855  -2.623  13.910  0.00  0.00     0.168 HD
ATOM     10  C34 ZIN A   1      18.594  -0.798  14.317  0.00  0.00     0.051 A 
ATOM     11  C35 ZIN A   1      18.015  -0.659  15.583  0.00  0.00     0.070 A 
ENDROOT
BRANCH   7  12
ATOM     12  N13 ZIN A   1      18.753  -3.158  11.648  0.00  0.00    -0.250 NA
ATOM     13  C31 ZIN A   1      17.728  -2.938  10.616  0.00  0.00     0.118 C 
ATOM     14  C30 ZIN A   1      17.388  -4.274   9.947  0.00  0.00     0.140 C 
ATOM     15  N16 ZIN A   1      18.635  -4.885   9.464  0.00  0.00    -0.348 N 
ATOM     16  C15 ZIN A   1      19.757  -5.014  10.406  0.00  0.00     0.140 C 
ATOM     17  C17 ZIN A   1      18.747  -5.317   8.193  0.00  0.00     0.251 C 
ATOM     18  C14 ZIN A   1      20.005  -3.649  11.058  0.00  0.00     0.118 C 
ATOM     19  O18 ZIN A   1      19.783  -5.820   7.811  0.00  0.00    -0.270 OA
BRANCH  17  20
ATOM     20  C19 ZIN A   1      17.584  -5.176   7.244  0.00  0.00     0.245 C 
ATOM     21  O29 ZIN A   1      18.018  -4.529   6.042  0.00  0.00    -0.331 OA
ATOM     22  C28 ZIN A   1      17.174  -4.592   4.976  0.00  0.00     0.103 A 
ATOM     23  C23 ZIN A   1      16.146  -5.526   4.935  0.00  0.00     0.102 A 
ATOM     24  C27 ZIN A   1      17.348  -3.712   3.918  0.00  0.00     0.040 A 
ATOM     25  O22 ZIN A   1      15.953  -6.395   5.965  0.00  0.00    -0.345 OA
ATOM     26  C24 ZIN A   1      15.303  -5.578   3.835  0.00  0.00     0.039 A 
ATOM     27  C21 ZIN A   1      17.045  -6.564   6.876  0.00  0.00     0.218 C 
ATOM     28  C25 ZIN A   1      15.484  -4.700   2.783  0.00  0.00     0.003 A 
ATOM     29  C26 ZIN A   1      16.505  -3.768   2.824  0.00  0.00     0.003 A 
ENDBRANCH  17  20
ENDBRANCH   7  12
BRANCH   5  30
ATOM     30  N10 ZIN A   1      20.779   1.054  11.968  0.00  0.00    -0.383 N 
ATOM     31  H43 ZIN A   1      21.735   1.054  12.137  0.00  0.00     0.157 HD
ATOM     32  H44 ZIN A   1      20.385   1.743  11.412  0.00  0.00     0.157 HD
ENDBRANCH   5  30
BRANCH   1  33
ATOM     33  O2  ZIN A   1      17.670   0.634  17.534  0.00  0.00    -0.353 OA
ATOM     34  C1  ZIN A   1      18.407   0.127  18.648  0.00  0.00     0.210 C 
ENDBRANCH   1  33
BRANCH   2  35
ATOM     35  O5  ZIN A   1      19.240   2.647  16.525  0.00  0.00    -0.353 OA
ATOM     36  C6  ZIN A   1      18.828   3.885  15.942  0.00  0.00     0.210 C 
ENDBRANCH   2  35
TORSDOF 5
ENDMDL
MODEL 7
REMARK VINA RESULT:      -8.5      2.724     10.132
REMARK  5 active torsions:
REMARK  status: ('A' for Active; 'I' for Inactive)
REMARK    1  A    between atoms: O2_2  and  C3_3 
REMARK    2  A    between atoms: C4_4  and  O5_5 
REMARK    3  A    between atoms: C9_9  and  N10_10 
REMARK    4  A    between atoms: C12_12  and  N13_13 
REMARK       I    between atoms: N16_16  and  C17_17 
REMARK    5  A    between atoms: C17_17  and  C19_19 
ROOT
ATOM      1  C3  ZIN A   1      18.317   4.112  14.910  0.00  0.00     0.103 A 
ATOM      2  C4  ZIN A   1      17.613   5.250  14.491  0.00  0.00     0.102 A 
ATOM      3  C7  ZIN A   1      17.390   5.481  13.163  0.00  0.00     0.057 A 
ATOM      4  C8  ZIN A   1      17.866   4.573  12.210  0.00  0.00     0.039 A 
ATOM      5  C9  ZIN A   1      17.660   4.769  10.823  0.00  0.00     0.137 A 
ATOM      6  N11 ZIN A   1      18.142   3.865   9.982  0.00  0.00    -0.202 NA
ATOM      7  C12 ZIN A   1      18.804   2.796  10.415  0.00  0.00     0.184 A 
ATOM      8  N32 ZIN A   1      19.024   2.564  11.694  0.00  0.00    -0.330 N 
ATOM      9  H33 ZIN A   1      19.513   1.770  11.963  0.00  0.00     0.168 HD
ATOM     10  C34 ZIN A   1      18.577   3.420  12.627  0.00  0.00     0.051 A 
ATOM     11  C35 ZIN A   1      18.800   3.205  13.992  0.00  0.00     0.070 A 
ENDROOT
BRANCH   7  12
ATOM     12  N13 ZIN A   1      19.281   1.889   9.485  0.00  0.00    -0.250 NA
ATOM     13  C31 ZIN A   1      19.191   0.514   9.997  0.00  0.00     0.118 C 
ATOM     14  C30 ZIN A   1      19.891  -0.438   9.021  0.00  0.00     0.140 C 
ATOM     15  N16 ZIN A   1      19.321  -0.235   7.681  0.00  0.00    -0.348 N 
ATOM     16  C15 ZIN A   1      19.250   1.137   7.155  0.00  0.00     0.140 C 
ATOM     17  C17 ZIN A   1      18.874  -1.277   6.954  0.00  0.00     0.251 C 
ATOM     18  C14 ZIN A   1      18.576   2.027   8.204  0.00  0.00     0.118 C 
ATOM     19  O18 ZIN A   1      18.406  -1.092   5.850  0.00  0.00    -0.270 OA
BRANCH  17  20
ATOM     20  C19 ZIN A   1      18.956  -2.675   7.512  0.00  0.00     0.245 C 
ATOM     21  O29 ZIN A   1      18.086  -2.795   8.644  0.00  0.00    -0.331 OA
ATOM     22  C28 ZIN A   1      17.817  -4.057   9.078  0.00  0.00     0.103 A 
ATOM     23  C23 ZIN A   1      18.059  -5.156   8.263  0.00  0.00     0.102 A 
ATOM     24  C27 ZIN A   1      17.293  -4.242  10.348  0.00  0.00     0.040 A 
ATOM     25  O22 ZIN A   1      18.579  -4.998   7.015  0.00  0.00    -0.345 OA
ATOM     26  C24 ZIN A   1      17.769  -6.432   8.721  0.00  0.00     0.039 A 
ATOM     27  C21 ZIN A   1      18.503  -3.684   6.449  0.00  0.00     0.218 C 
ATOM     28  C25 ZIN A   1      17.244  -6.610   9.988  0.00  0.00     0.003 A 
ATOM     29  C26 ZIN A   1      17.006  -5.517  10.800  0.00  0.00     0.003 A 
ENDBRANCH  17  20
ENDBRANCH   7  12
BRANCH   5  30
ATOM     30  N10 ZIN A   1      16.976   5.873  10.359  0.00  0.00    -0.383 N 
ATOM     31  H43 ZIN A   1      17.253   6.763  10.628  0.00  0.00     0.157 HD
ATOM     32  H44 ZIN A   1      16.219   5.759   9.764  0.00  0.00     0.157 HD
ENDBRANCH   5  30
BRANCH   1  33
ATOM     33  O2  ZIN A   1      18.527   3.903  16.236  0.00  0.00    -0.353 OA
ATOM     34  C1  ZIN A   1      19.006   2.613  16.622  0.00  0.00     0.210 C 
ENDBRANCH   1  33
BRANCH   2  35
ATOM     35  O5  ZIN A   1      17.150   6.132  15.416  0.00  0.00    -0.353 OA
ATOM     36  C6  ZIN A   1      15.732   6.241  15.554  0.00  0.00     0.210 C 
ENDBRANCH   2  35
TORSDOF 5
ENDMDL
MODEL 8
REMARK VINA RESULT:      -8.4      2.836      4.165
REMARK  5 active torsions:
REMARK  status: ('A' for Active; 'I' for Inactive)
REMARK    1  A    between atoms: O2_2  and  C3_3 
REMARK    2  A    between atoms: C4_4  and  O5_5 
REMARK    3  A    between atoms: C9_9  and  N10_10 
REMARK    4  A    between atoms: C12_12  and  N13_13 
REMARK       I    between atoms: N16_16  and  C17_17 
REMARK    5  A    between atoms: C17_17  and  C19_19 
ROOT
ATOM      1  C3  ZIN A   1      18.365  -0.813   6.632  0.00  0.00     0.103 A 
ATOM      2  C4  ZIN A   1      19.087  -1.865   7.211  0.00  0.00     0.102 A 
ATOM      3  C7  ZIN A   1      19.603  -1.747   8.471  0.00  0.00     0.057 A 
ATOM      4  C8  ZIN A   1      19.407  -0.564   9.193  0.00  0.00     0.039 A 
ATOM      5  C9  ZIN A   1      19.921  -0.393  10.502  0.00  0.00     0.137 A 
ATOM      6  N11 ZIN A   1      19.695   0.756  11.121  0.00  0.00    -0.202 NA
ATOM      7  C12 ZIN A   1      19.004   1.734  10.542  0.00  0.00     0.184 A 
ATOM      8  N32 ZIN A   1      18.503   1.629   9.327  0.00  0.00    -0.330 N 
ATOM      9  H33 ZIN A   1      18.006   2.369   8.944  0.00  0.00     0.168 HD
ATOM     10  C34 ZIN A   1      18.677   0.504   8.614  0.00  0.00     0.051 A 
ATOM     11  C35 ZIN A   1      18.162   0.364   7.320  0.00  0.00     0.070 A 
ENDROOT
BRANCH   7  12
ATOM     12  N13 ZIN A   1      18.802   2.910  11.243  0.00  0.00    -0.250 NA
ATOM     13  C31 ZIN A   1      17.785   2.731  12.289  0.00  0.00     0.118 C 
ATOM     14  C30 ZIN A   1      17.461   4.091  12.918  0.00  0.00     0.140 C 
ATOM     15  N16 ZIN A   1      18.717   4.707  13.371  0.00  0.00    -0.348 N 
ATOM     16  C15 ZIN A   1      19.832   4.797  12.416  0.00  0.00     0.140 C 
ATOM     17  C17 ZIN A   1      18.843   5.178  14.627  0.00  0.00     0.251 C 
ATOM     18  C14 ZIN A   1      20.063   3.410  11.805  0.00  0.00     0.118 C 
ATOM     19  O18 ZIN A   1      19.887   5.684  14.983  0.00  0.00    -0.270 OA
BRANCH  17  20
ATOM     20  C19 ZIN A   1      17.688   5.076  15.589  0.00  0.00     0.245 C 
ATOM     21  O29 ZIN A   1      18.141   4.526  16.831  0.00  0.00    -0.331 OA
ATOM     22  C28 ZIN A   1      17.300   4.643  17.895  0.00  0.00     0.103 A 
ATOM     23  C23 ZIN A   1      16.250   5.553  17.875  0.00  0.00     0.102 A 
ATOM     24  C27 ZIN A   1      17.499   3.844  19.011  0.00  0.00     0.040 A 
ATOM     25  O22 ZIN A   1      16.033   6.344  16.788  0.00  0.00    -0.345 OA
ATOM     26  C24 ZIN A   1      15.411   5.663  18.973  0.00  0.00     0.039 A 
ATOM     27  C21 ZIN A   1      17.117   6.474  15.862  0.00  0.00     0.218 C 
ATOM     28  C25 ZIN A   1      15.616   4.865  20.084  0.00  0.00     0.003 A 
ATOM     29  C26 ZIN A   1      16.658   3.957  20.102  0.00  0.00     0.003 A 
ENDBRANCH  17  20
ENDBRANCH   7  12
BRANCH   5  30
ATOM     30  N10 ZIN A   1      20.640  -1.398  11.116  0.00  0.00    -0.383 N 
ATOM     31  H43 ZIN A   1      21.453  -1.185  11.601  0.00  0.00     0.157 HD
ATOM     32  H44 ZIN A   1      20.332  -2.316  11.061  0.00  0.00     0.157 HD
ENDBRANCH   5  30
BRANCH   1  33
ATOM     33  O2  ZIN A   1      17.863  -0.953   5.378  0.00  0.00    -0.353 OA
ATOM     34  C1  ZIN A   1      18.487  -0.193   4.341  0.00  0.00     0.210 C 
ENDBRANCH   1  33
BRANCH   2  35
ATOM     35  O5  ZIN A   1      19.278  -3.015   6.511  0.00  0.00    -0.353 OA
ATOM     36  C6  ZIN A   1      18.888  -4.234   7.148  0.00  0.00     0.210 C 
ENDBRANCH   2  35
TORSDOF 5
ENDMDL
MODEL 9
REMARK VINA RESULT:      -8.3      2.955     10.816
REMARK  5 active torsions:
REMARK  status: ('A' for Active; 'I' for Inactive)
REMARK    1  A    between atoms: O2_2  and  C3_3 
REMARK    2  A    between atoms: C4_4  and  O5_5 
REMARK    3  A    between atoms: C9_9  and  N10_10 
REMARK    4  A    between atoms: C12_12  and  N13_13 
REMARK       I    between atoms: N16_16  and  C17_17 
REMARK    5  A    between atoms: C17_17  and  C19_19 
ROOT
ATOM      1  C3  ZIN A   1      18.478   3.632  10.812  0.00  0.00     0.103 A 
ATOM      2  C4  ZIN A   1      19.119   3.008  11.892  0.00  0.00     0.102 A 
ATOM      3  C7  ZIN A   1      19.627   1.746  11.766  0.00  0.00     0.057 A 
ATOM      4  C8  ZIN A   1      19.508   1.068  10.546  0.00  0.00     0.039 A 
ATOM      5  C9  ZIN A   1      20.018  -0.241  10.366  0.00  0.00     0.137 A 
ATOM      6  N11 ZIN A   1      19.867  -0.817   9.182  0.00  0.00    -0.202 NA
ATOM      7  C12 ZIN A   1      19.254  -0.195   8.179  0.00  0.00     0.184 A 
ATOM      8  N32 ZIN A   1      18.761   1.023   8.292  0.00  0.00    -0.330 N 
ATOM      9  H33 ZIN A   1      18.322   1.437   7.532  0.00  0.00     0.168 HD
ATOM     10  C34 ZIN A   1      18.862   1.694   9.451  0.00  0.00     0.051 A 
ATOM     11  C35 ZIN A   1      18.344   2.985   9.603  0.00  0.00     0.070 A 
ENDROOT
BRANCH   7  12
ATOM     12  N13 ZIN A   1      19.129  -0.851   6.968  0.00  0.00    -0.250 NA
ATOM     13  C31 ZIN A   1      19.263  -2.305   7.141  0.00  0.00     0.118 C 
ATOM     14  C30 ZIN A   1      19.299  -2.978   5.765  0.00  0.00     0.140 C 
ATOM     15  N16 ZIN A   1      18.116  -2.549   5.004  0.00  0.00    -0.348 N 
ATOM     16  C15 ZIN A   1      17.839  -1.108   4.902  0.00  0.00     0.140 C 
ATOM     17  C17 ZIN A   1      17.308  -3.452   4.414  0.00  0.00     0.251 C 
ATOM     18  C14 ZIN A   1      17.860  -0.508   6.312  0.00  0.00     0.118 C 
ATOM     19  O18 ZIN A   1      16.337  -3.081   3.790  0.00  0.00    -0.270 OA
BRANCH  17  20
ATOM     20  C19 ZIN A   1      17.611  -4.924   4.531  0.00  0.00     0.245 C 
ATOM     21  O29 ZIN A   1      17.144  -5.415   5.793  0.00  0.00    -0.331 OA
ATOM     22  C28 ZIN A   1      17.070  -6.767   5.933  0.00  0.00     0.103 A 
ATOM     23  C23 ZIN A   1      17.085  -7.600   4.821  0.00  0.00     0.102 A 
ATOM     24  C27 ZIN A   1      16.976  -7.314   7.204  0.00  0.00     0.040 A 
ATOM     25  O22 ZIN A   1      17.182  -7.084   3.565  0.00  0.00    -0.345 OA
ATOM     26  C24 ZIN A   1      16.999  -8.974   4.987  0.00  0.00     0.039 A 
ATOM     27  C21 ZIN A   1      16.885  -5.691   3.417  0.00  0.00     0.218 C 
ATOM     28  C25 ZIN A   1      16.903  -9.513   6.256  0.00  0.00     0.003 A 
ATOM     29  C26 ZIN A   1      16.892  -8.685   7.363  0.00  0.00     0.003 A 
ENDBRANCH  17  20
ENDBRANCH   7  12
BRANCH   5  30
ATOM     30  N10 ZIN A   1      20.656  -0.899  11.397  0.00  0.00    -0.383 N 
ATOM     31  H43 ZIN A   1      21.569  -0.667  11.629  0.00  0.00     0.157 HD
ATOM     32  H44 ZIN A   1      20.191  -1.593  11.889  0.00  0.00     0.157 HD
ENDBRANCH   5  30
BRANCH   1  33
ATOM     33  O2  ZIN A   1      17.980   4.887  10.962  0.00  0.00    -0.353 OA
ATOM     34  C1  ZIN A   1      16.633   4.999  11.427  0.00  0.00     0.210 C 
ENDBRANCH   1  33
BRANCH   2  35
ATOM     35  O5  ZIN A   1      19.234   3.665  13.076  0.00  0.00    -0.353 OA
ATOM     36  C6  ZIN A   1      18.655   3.039  14.224  0.00  0.00     0.210 C 
ENDBRANCH   2  35
TORSDOF 5
ENDMDL
