MODEL 1
REMARK VINA RESULT:      -7.5      0.000      0.000
REMARK  2 active torsions:
REMARK  status: ('A' for Active; 'I' for Inactive)
REMARK    1  A    between atoms: C8_8  and  N9_9 
REMARK       I    between atoms: N9_9  and  C10_10 
REMARK    2  A    between atoms: C10_10  and  C12_12 
ROOT
ATOM      1  N9  <0> d   1      19.902   1.088  13.816  0.00  0.00    -0.324 N 
ATOM      2  C10 <0> d   1      19.217   1.651  12.801  0.00  0.00     0.253 C 
ATOM      3  O11 <0> d   1      18.008   1.563  12.763  0.00  0.00    -0.271 OA
ATOM      4  H30 <0> d   1      20.871   1.089  13.806  0.00  0.00     0.169 HD
ENDROOT
BRANCH   1   5
ATOM      5  C8  <0> d   1      19.214   0.502  14.884  0.00  0.00     0.046 A 
ATOM      6  C2  <0> d   1      18.864   1.265  15.989  0.00  0.00    -0.035 A 
ATOM      7  C1  <0> d   1      19.219   2.728  16.039  0.00  0.00     0.050 C 
ATOM      8  C3  <0> d   1      18.184   0.683  17.041  0.00  0.00     0.009 A 
ATOM      9  C4  <0> d   1      17.858  -0.660  16.998  0.00  0.00     0.001 A 
ATOM     10  C5  <0> d   1      18.210  -1.425  15.901  0.00  0.00     0.009 A 
ATOM     11  C6  <0> d   1      18.889  -0.848  14.845  0.00  0.00    -0.035 A 
ATOM     12  C7  <0> d   1      19.273  -1.683  13.650  0.00  0.00     0.050 C 
ENDBRANCH   1   5
BRANCH   2  13
ATOM     13  C12 <0> d   1      19.953   2.392  11.715  0.00  0.00     0.279 C 
ATOM     14  N18 <0> d   1      19.396   2.024  10.408  0.00  0.00    -0.062 N 
ATOM     15  C17 <0> d   1      17.957   2.307  10.381  0.00  0.00     0.235 C 
ATOM     16  H19 <0> d   1      19.856   2.557   9.685  0.00  0.00     0.280 HD
ATOM     17  C20 <0> d   1      19.617   0.591  10.173  0.00  0.00     0.270 C 
ATOM     18  C16 <0> d   1      17.726   3.810  10.546  0.00  0.00     0.028 C 
ATOM     19  C15 <0> d   1      18.313   4.267  11.885  0.00  0.00     0.004 C 
ATOM     20  C14 <0> d   1      19.799   3.900  11.932  0.00  0.00     0.043 C 
ENDBRANCH   2  13
TORSDOF 2
ENDMDL
MODEL 2
REMARK VINA RESULT:      -7.5      0.008      2.019
REMARK  2 active torsions:
REMARK  status: ('A' for Active; 'I' for Inactive)
REMARK    1  A    between atoms: C8_8  and  N9_9 
REMARK       I    between atoms: N9_9  and  C10_10 
REMARK    2  A    between atoms: C10_10  and  C12_12 
ROOT
ATOM      1  N9  <0> d   1      19.904   1.081  13.816  0.00  0.00    -0.324 N 
ATOM      2  C10 <0> d   1      19.218   1.648  12.803  0.00  0.00     0.253 C 
ATOM      3  O11 <0> d   1      18.009   1.564  12.768  0.00  0.00    -0.271 OA
ATOM      4  H30 <0> d   1      20.873   1.079  13.803  0.00  0.00     0.169 HD
ENDROOT
BRANCH   1   5
ATOM      5  C8  <0> d   1      19.216   0.496  14.885  0.00  0.00     0.046 A 
ATOM      6  C2  <0> d   1      18.879  -0.850  14.842  0.00  0.00    -0.035 A 
ATOM      7  C1  <0> d   1      19.257  -1.685  13.647  0.00  0.00     0.050 C 
ATOM      8  C3  <0> d   1      18.200  -1.425  15.899  0.00  0.00     0.009 A 
ATOM      9  C4  <0> d   1      17.851  -0.658  16.997  0.00  0.00     0.001 A 
ATOM     10  C5  <0> d   1      18.181   0.684  17.040  0.00  0.00     0.009 A 
ATOM     11  C6  <0> d   1      18.860   1.264  15.986  0.00  0.00    -0.035 A 
ATOM     12  C7  <0> d   1      19.218   2.727  16.034  0.00  0.00     0.050 C 
ENDBRANCH   1   5
BRANCH   2  13
ATOM     13  C12 <0> d   1      19.953   2.388  11.716  0.00  0.00     0.279 C 
ATOM     14  N18 <0> d   1      19.397   2.016  10.410  0.00  0.00    -0.062 N 
ATOM     15  C17 <0> d   1      17.957   2.298  10.382  0.00  0.00     0.235 C 
ATOM     16  H19 <0> d   1      19.857   2.548   9.686  0.00  0.00     0.280 HD
ATOM     17  C20 <0> d   1      19.619   0.583  10.178  0.00  0.00     0.270 C 
ATOM     18  C16 <0> d   1      17.726   3.802  10.545  0.00  0.00     0.028 C 
ATOM     19  C15 <0> d   1      18.313   4.261  11.882  0.00  0.00     0.004 C 
ATOM     20  C14 <0> d   1      19.798   3.895  11.930  0.00  0.00     0.043 C 
ENDBRANCH   2  13
TORSDOF 2
ENDMDL
MODEL 3
REMARK VINA RESULT:      -7.4      3.698      7.751
REMARK  2 active torsions:
REMARK  status: ('A' for Active; 'I' for Inactive)
REMARK    1  A    between atoms: C8_8  and  N9_9 
REMARK       I    between atoms: N9_9  and  C10_10 
REMARK    2  A    between atoms: C10_10  and  C12_12 
ROOT
ATOM      1  N9  <0> d   1      19.844  -1.247   9.141  0.00  0.00    -0.324 N 
ATOM      2  C10 <0> d   1      18.964  -1.689  10.062  0.00  0.00     0.253 C 
ATOM      3  O11 <0> d   1      17.773  -1.610   9.849  0.00  0.00    -0.271 OA
ATOM      4  H30 <0> d   1      20.792  -1.236   9.343  0.00  0.00     0.169 HD
ENDROOT
BRANCH   1   5
ATOM      5  C8  <0> d   1      19.389  -0.805   7.895  0.00  0.00     0.046 A 
ATOM      6  C2  <0> d   1      19.242  -1.704   6.848  0.00  0.00    -0.035 A 
ATOM      7  C1  <0> d   1      19.567  -3.161   7.054  0.00  0.00     0.050 C 
ATOM      8  C3  <0> d   1      18.792  -1.265   5.618  0.00  0.00     0.009 A 
ATOM      9  C4  <0> d   1      18.494   0.073   5.427  0.00  0.00     0.001 A 
ATOM     10  C5  <0> d   1      18.645   0.973   6.466  0.00  0.00     0.009 A 
ATOM     11  C6  <0> d   1      19.094   0.539   7.699  0.00  0.00    -0.035 A 
ATOM     12  C7  <0> d   1      19.258   1.521   8.829  0.00  0.00     0.050 C 
ENDBRANCH   1   5
BRANCH   2  13
ATOM     13  C12 <0> d   1      19.461  -2.282  11.355  0.00  0.00     0.279 C 
ATOM     14  N18 <0> d   1      18.323  -2.521  12.251  0.00  0.00    -0.062 N 
ATOM     15  C17 <0> d   1      17.344  -3.393  11.593  0.00  0.00     0.235 C 
ATOM     16  H19 <0> d   1      18.651  -2.964  13.097  0.00  0.00     0.280 HD
ATOM     17  C20 <0> d   1      17.690  -1.239  12.584  0.00  0.00     0.270 C 
ATOM     18  C16 <0> d   1      17.977  -4.758  11.315  0.00  0.00     0.028 C 
ATOM     19  C15 <0> d   1      19.194  -4.575  10.404  0.00  0.00     0.004 C 
ATOM     20  C14 <0> d   1      20.176  -3.605  11.068  0.00  0.00     0.043 C 
ENDBRANCH   2  13
TORSDOF 2
ENDMDL
MODEL 4
REMARK VINA RESULT:      -7.4      3.690      7.476
REMARK  2 active torsions:
REMARK  status: ('A' for Active; 'I' for Inactive)
REMARK    1  A    between atoms: C8_8  and  N9_9 
REMARK       I    between atoms: N9_9  and  C10_10 
REMARK    2  A    between atoms: C10_10  and  C12_12 
ROOT
ATOM      1  N9  <0> d   1      19.846  -1.242   9.154  0.00  0.00    -0.324 N 
ATOM      2  C10 <0> d   1      18.965  -1.684  10.073  0.00  0.00     0.253 C 
ATOM      3  O11 <0> d   1      17.775  -1.606   9.859  0.00  0.00    -0.271 OA
ATOM      4  H30 <0> d   1      20.794  -1.231   9.358  0.00  0.00     0.169 HD
ENDROOT
BRANCH   1   5
ATOM      5  C8  <0> d   1      19.393  -0.799   7.908  0.00  0.00     0.046 A 
ATOM      6  C2  <0> d   1      19.091   0.542   7.712  0.00  0.00    -0.035 A 
ATOM      7  C1  <0> d   1      19.257   1.525   8.843  0.00  0.00     0.050 C 
ATOM      8  C3  <0> d   1      18.644   0.976   6.480  0.00  0.00     0.009 A 
ATOM      9  C4  <0> d   1      18.490   0.075   5.442  0.00  0.00     0.001 A 
ATOM     10  C5  <0> d   1      18.784  -1.263   5.634  0.00  0.00     0.009 A 
ATOM     11  C6  <0> d   1      19.233  -1.703   6.864  0.00  0.00    -0.035 A 
ATOM     12  C7  <0> d   1      19.552  -3.160   7.073  0.00  0.00     0.050 C 
ENDBRANCH   1   5
BRANCH   2  13
ATOM     13  C12 <0> d   1      19.460  -2.278  11.367  0.00  0.00     0.279 C 
ATOM     14  N18 <0> d   1      18.321  -2.519  12.261  0.00  0.00    -0.062 N 
ATOM     15  C17 <0> d   1      17.344  -3.391  11.601  0.00  0.00     0.235 C 
ATOM     16  H19 <0> d   1      18.647  -2.961  13.108  0.00  0.00     0.280 HD
ATOM     17  C20 <0> d   1      17.686  -1.237  12.594  0.00  0.00     0.270 C 
ATOM     18  C16 <0> d   1      17.978  -4.755  11.323  0.00  0.00     0.028 C 
ATOM     19  C15 <0> d   1      19.197  -4.570  10.415  0.00  0.00     0.004 C 
ATOM     20  C14 <0> d   1      20.176  -3.600  11.081  0.00  0.00     0.043 C 
ENDBRANCH   2  13
TORSDOF 2
ENDMDL
MODEL 5
REMARK VINA RESULT:      -7.1      3.774      7.668
REMARK  2 active torsions:
REMARK  status: ('A' for Active; 'I' for Inactive)
REMARK    1  A    between atoms: C8_8  and  N9_9 
REMARK       I    between atoms: N9_9  and  C10_10 
REMARK    2  A    between atoms: C10_10  and  C12_12 
ROOT
ATOM      1  N9  <0> d   1      19.803  -1.416   8.576  0.00  0.00    -0.324 N 
ATOM      2  C10 <0> d   1      19.035  -1.991   9.524  0.00  0.00     0.253 C 
ATOM      3  O11 <0> d   1      17.850  -2.151   9.328  0.00  0.00    -0.271 OA
ATOM      4  H30 <0> d   1      20.733  -1.215   8.762  0.00  0.00     0.169 HD
ENDROOT
BRANCH   1   5
ATOM      5  C8  <0> d   1      19.257  -1.110   7.325  0.00  0.00     0.046 A 
ATOM      6  C2  <0> d   1      19.229  -2.071   6.324  0.00  0.00    -0.035 A 
ATOM      7  C1  <0> d   1      19.782  -3.448   6.584  0.00  0.00     0.050 C 
ATOM      8  C3  <0> d   1      18.689  -1.766   5.090  0.00  0.00     0.009 A 
ATOM      9  C4  <0> d   1      18.182  -0.502   4.849  0.00  0.00     0.001 A 
ATOM     10  C5  <0> d   1      18.213   0.460   5.842  0.00  0.00     0.009 A 
ATOM     11  C6  <0> d   1      18.751   0.160   7.078  0.00  0.00    -0.035 A 
ATOM     12  C7  <0> d   1      18.785   1.209   8.160  0.00  0.00     0.050 C 
ENDBRANCH   1   5
BRANCH   2  13
ATOM     13  C12 <0> d   1      19.651  -2.435  10.825  0.00  0.00     0.279 C 
ATOM     14  N18 <0> d   1      19.986  -1.258  11.635  0.00  0.00    -0.062 N 
ATOM     15  C17 <0> d   1      18.784  -0.444  11.851  0.00  0.00     0.235 C 
ATOM     16  H19 <0> d   1      20.353  -1.558  12.526  0.00  0.00     0.280 HD
ATOM     17  C20 <0> d   1      20.999  -0.458  10.934  0.00  0.00     0.270 C 
ATOM     18  C16 <0> d   1      17.757  -1.247  12.651  0.00  0.00     0.028 C 
ATOM     19  C15 <0> d   1      17.386  -2.512  11.870  0.00  0.00     0.004 C 
ATOM     20  C14 <0> d   1      18.656  -3.316  11.585  0.00  0.00     0.043 C 
ENDBRANCH   2  13
TORSDOF 2
ENDMDL
MODEL 6
REMARK VINA RESULT:      -7.1      3.787      7.418
REMARK  2 active torsions:
REMARK  status: ('A' for Active; 'I' for Inactive)
REMARK    1  A    between atoms: C8_8  and  N9_9 
REMARK       I    between atoms: N9_9  and  C10_10 
REMARK    2  A    between atoms: C10_10  and  C12_12 
ROOT
ATOM      1  N9  <0> d   1      19.804  -1.449   8.537  0.00  0.00    -0.324 N 
ATOM      2  C10 <0> d   1      19.023  -1.975   9.501  0.00  0.00     0.253 C 
ATOM      3  O11 <0> d   1      17.826  -2.068   9.327  0.00  0.00    -0.271 OA
ATOM      4  H30 <0> d   1      20.748  -1.301   8.705  0.00  0.00     0.169 HD
ENDROOT
BRANCH   1   5
ATOM      5  C8  <0> d   1      19.255  -1.117   7.295  0.00  0.00     0.046 A 
ATOM      6  C2  <0> d   1      18.795   0.172   7.059  0.00  0.00    -0.035 A 
ATOM      7  C1  <0> d   1      18.892   1.217   8.140  0.00  0.00     0.050 C 
ATOM      8  C3  <0> d   1      18.252   0.497   5.831  0.00  0.00     0.009 A 
ATOM      9  C4  <0> d   1      18.161  -0.462   4.838  0.00  0.00     0.001 A 
ATOM     10  C5  <0> d   1      18.613  -1.748   5.071  0.00  0.00     0.009 A 
ATOM     11  C6  <0> d   1      19.157  -2.078   6.297  0.00  0.00    -0.035 A 
ATOM     12  C7  <0> d   1      19.649  -3.480   6.550  0.00  0.00     0.050 C 
ENDBRANCH   1   5
BRANCH   2  13
ATOM     13  C12 <0> d   1      19.635  -2.450  10.793  0.00  0.00     0.279 C 
ATOM     14  N18 <0> d   1      20.003  -1.291  11.614  0.00  0.00    -0.062 N 
ATOM     15  C17 <0> d   1      18.824  -0.450  11.848  0.00  0.00     0.235 C 
ATOM     16  H19 <0> d   1      20.368  -1.609  12.500  0.00  0.00     0.280 HD
ATOM     17  C20 <0> d   1      21.031  -0.508  10.916  0.00  0.00     0.270 C 
ATOM     18  C16 <0> d   1      17.782  -1.237  12.644  0.00  0.00     0.028 C 
ATOM     19  C15 <0> d   1      17.375  -2.483  11.851  0.00  0.00     0.004 C 
ATOM     20  C14 <0> d   1      18.624  -3.315  11.550  0.00  0.00     0.043 C 
ENDBRANCH   2  13
TORSDOF 2
ENDMDL
MODEL 7
REMARK VINA RESULT:      -7.0      4.654      7.061
REMARK  2 active torsions:
REMARK  status: ('A' for Active; 'I' for Inactive)
REMARK    1  A    between atoms: C8_8  and  N9_9 
REMARK       I    between atoms: N9_9  and  C10_10 
REMARK    2  A    between atoms: C10_10  and  C12_12 
ROOT
ATOM      1  N9  <0> d   1      17.769  -2.609   8.225  0.00  0.00    -0.324 N 
ATOM      2  C10 <0> d   1      18.211  -1.353   8.435  0.00  0.00     0.253 C 
ATOM      3  O11 <0> d   1      19.339  -1.167   8.839  0.00  0.00    -0.271 OA
ATOM      4  H30 <0> d   1      16.844  -2.763   7.979  0.00  0.00     0.169 HD
ENDROOT
BRANCH   1   5
ATOM      5  C8  <0> d   1      18.645  -3.691   8.362  0.00  0.00     0.046 A 
ATOM      6  C2  <0> d   1      18.784  -4.323   9.589  0.00  0.00    -0.035 A 
ATOM      7  C1  <0> d   1      17.986  -3.850  10.777  0.00  0.00     0.050 C 
ATOM      8  C3  <0> d   1      19.650  -5.391   9.721  0.00  0.00     0.009 A 
ATOM      9  C4  <0> d   1      20.385  -5.826   8.633  0.00  0.00     0.001 A 
ATOM     10  C5  <0> d   1      20.253  -5.195   7.409  0.00  0.00     0.009 A 
ATOM     11  C6  <0> d   1      19.388  -4.127   7.271  0.00  0.00    -0.035 A 
ATOM     12  C7  <0> d   1      19.246  -3.439   5.938  0.00  0.00     0.050 C 
ENDBRANCH   1   5
BRANCH   2  13
ATOM     13  C12 <0> d   1      17.304  -0.181   8.166  0.00  0.00     0.279 C 
ATOM     14  N18 <0> d   1      17.950   1.053   8.629  0.00  0.00    -0.062 N 
ATOM     15  C17 <0> d   1      19.252   1.211   7.972  0.00  0.00     0.235 C 
ATOM     16  H19 <0> d   1      17.363   1.843   8.405  0.00  0.00     0.280 HD
ATOM     17  C20 <0> d   1      18.141   0.985  10.084  0.00  0.00     0.270 C 
ATOM     18  C16 <0> d   1      19.051   1.362   6.463  0.00  0.00     0.028 C 
ATOM     19  C15 <0> d   1      18.350   0.114   5.919  0.00  0.00     0.004 C 
ATOM     20  C14 <0> d   1      17.027  -0.083   6.664  0.00  0.00     0.043 C 
ENDBRANCH   2  13
TORSDOF 2
ENDMDL
MODEL 8
REMARK VINA RESULT:      -7.0      4.700      7.217
REMARK  2 active torsions:
REMARK  status: ('A' for Active; 'I' for Inactive)
REMARK    1  A    between atoms: C8_8  and  N9_9 
REMARK       I    between atoms: N9_9  and  C10_10 
REMARK    2  A    between atoms: C10_10  and  C12_12 
ROOT
ATOM      1  N9  <0> d   1      17.771  -2.593   8.155  0.00  0.00    -0.324 N 
ATOM      2  C10 <0> d   1      18.209  -1.338   8.379  0.00  0.00     0.253 C 
ATOM      3  O11 <0> d   1      19.332  -1.153   8.797  0.00  0.00    -0.271 OA
ATOM      4  H30 <0> d   1      16.849  -2.746   7.898  0.00  0.00     0.169 HD
ENDROOT
BRANCH   1   5
ATOM      5  C8  <0> d   1      18.648  -3.674   8.292  0.00  0.00     0.046 A 
ATOM      6  C2  <0> d   1      19.388  -4.113   7.203  0.00  0.00    -0.035 A 
ATOM      7  C1  <0> d   1      19.252  -3.421   5.870  0.00  0.00     0.050 C 
ATOM      8  C3  <0> d   1      20.253  -5.180   7.341  0.00  0.00     0.009 A 
ATOM      9  C4  <0> d   1      20.378  -5.817   8.563  0.00  0.00     0.001 A 
ATOM     10  C5  <0> d   1      19.638  -5.386   9.649  0.00  0.00     0.009 A 
ATOM     11  C6  <0> d   1      18.772  -4.318   9.517  0.00  0.00    -0.035 A 
ATOM     12  C7  <0> d   1      17.967  -3.850  10.701  0.00  0.00     0.050 C 
ENDBRANCH   1   5
BRANCH   2  13
ATOM     13  C12 <0> d   1      17.302  -0.164   8.111  0.00  0.00     0.279 C 
ATOM     14  N18 <0> d   1      17.956   1.071   8.559  0.00  0.00    -0.062 N 
ATOM     15  C17 <0> d   1      19.253   1.220   7.889  0.00  0.00     0.235 C 
ATOM     16  H19 <0> d   1      17.370   1.861   8.334  0.00  0.00     0.280 HD
ATOM     17  C20 <0> d   1      18.160   1.012  10.012  0.00  0.00     0.270 C 
ATOM     18  C16 <0> d   1      19.038   1.361   6.381  0.00  0.00     0.028 C 
ATOM     19  C15 <0> d   1      18.329   0.111   5.852  0.00  0.00     0.004 C 
ATOM     20  C14 <0> d   1      17.012  -0.077   6.610  0.00  0.00     0.043 C 
ENDBRANCH   2  13
TORSDOF 2
ENDMDL
MODEL 9
REMARK VINA RESULT:      -6.9      4.111      7.034
REMARK  2 active torsions:
REMARK  status: ('A' for Active; 'I' for Inactive)
REMARK    1  A    between atoms: C8_8  and  N9_9 
REMARK       I    between atoms: N9_9  and  C10_10 
REMARK    2  A    between atoms: C10_10  and  C12_12 
ROOT
ATOM      1  N9  <0> d   1      17.458  -1.221   8.959  0.00  0.00    -0.324 N 
ATOM      2  C10 <0> d   1      18.216  -2.237   9.416  0.00  0.00     0.253 C 
ATOM      3  O11 <0> d   1      19.312  -2.013   9.884  0.00  0.00    -0.271 OA
ATOM      4  H30 <0> d   1      16.618  -1.406   8.512  0.00  0.00     0.169 HD
ENDROOT
BRANCH   1   5
ATOM      5  C8  <0> d   1      17.884   0.101   9.129  0.00  0.00     0.046 A 
ATOM      6  C2  <0> d   1      18.612   0.732   8.130  0.00  0.00    -0.035 A 
ATOM      7  C1  <0> d   1      18.941  -0.004   6.857  0.00  0.00     0.050 C 
ATOM      8  C3  <0> d   1      19.031   2.037   8.301  0.00  0.00     0.009 A 
ATOM      9  C4  <0> d   1      18.731   2.713   9.470  0.00  0.00     0.001 A 
ATOM     10  C5  <0> d   1      18.011   2.086  10.470  0.00  0.00     0.009 A 
ATOM     11  C6  <0> d   1      17.588   0.781  10.304  0.00  0.00    -0.035 A 
ATOM     12  C7  <0> d   1      16.804   0.098  11.394  0.00  0.00     0.050 C 
ENDBRANCH   1   5
BRANCH   2  13
ATOM     13  C12 <0> d   1      17.702  -3.652   9.346  0.00  0.00     0.279 C 
ATOM     14  N18 <0> d   1      18.818  -4.565   9.075  0.00  0.00    -0.062 N 
ATOM     15  C17 <0> d   1      19.850  -4.411  10.107  0.00  0.00     0.235 C 
ATOM     16  H19 <0> d   1      18.481  -5.516   9.077  0.00  0.00     0.280 HD
ATOM     17  C20 <0> d   1      19.393  -4.253   7.760  0.00  0.00     0.270 C 
ATOM     18  C16 <0> d   1      19.278  -4.811  11.469  0.00  0.00     0.028 C 
ATOM     19  C15 <0> d   1      18.084  -3.911  11.799  0.00  0.00     0.004 C 
ATOM     20  C14 <0> d   1      17.046  -4.023  10.679  0.00  0.00     0.043 C 
ENDBRANCH   2  13
TORSDOF 2
ENDMDL
