MODEL 1
REMARK VINA RESULT:      -6.2      0.000      0.000
REMARK  5 active torsions:
REMARK  status: ('A' for Active; 'I' for Inactive)
REMARK    1  A    between atoms: C2_2  and  O4_3 
REMARK    2  A    between atoms: C2_2  and  C5_4 
REMARK    3  A    between atoms: C5_4  and  O7_5 
REMARK    4  A    between atoms: C5_4  and  C8_6 
REMARK    5  A    between atoms: C18_15  and  N19_16 
ROOT
ATOM      1  C8  <0> d   1      19.891  -0.048  12.643  0.00  0.00     0.131 C 
ATOM      2  C10 <0> d   1      18.402  -0.223  12.978  0.00  0.00     0.149 C 
ATOM      3  N11 <0> d   1      17.617   0.586  12.035  0.00  0.00    -0.370 N 
ATOM      4  C12 <0> d   1      18.014   1.888  11.773  0.00  0.00     0.175 A 
ATOM      5  C13 <0> d   1      19.301   2.297  12.095  0.00  0.00     0.146 A 
ATOM      6  N14 <0> d   1      20.203   1.389  12.694  0.00  0.00    -0.373 N 
ATOM      7  C15 <0> d   1      19.687   3.613  11.819  0.00  0.00     0.313 A 
ATOM      8  O16 <0> d   1      20.812   4.003  12.089  0.00  0.00    -0.263 OA
ATOM      9  N17 <0> d   1      18.786   4.441  11.246  0.00  0.00    -0.020 NA
ATOM     10  C18 <0> d   1      17.535   3.993  10.951  0.00  0.00     0.725 A 
ATOM     11  N20 <0> d   1      17.167   2.757  11.208  0.00  0.00    -0.043 NA
ATOM     12  H28 <0> d   1      16.831   0.215  11.604  0.00  0.00     0.161 HD
ATOM     13  H29 <0> d   1      21.011   1.706  13.129  0.00  0.00     0.160 HD
ENDROOT
BRANCH   1  14
ATOM     14  C5  <0> d   1      20.171  -0.588  11.239  0.00  0.00     0.170 C 
BRANCH  14  15
ATOM     15  C2  <0> d   1      19.715  -2.046  11.153  0.00  0.00     0.145 C 
ATOM     16  C1  <0> d   1      19.043  -2.291   9.800  0.00  0.00     0.042 C 
BRANCH  15  17
ATOM     17  O4  <0> d   1      20.848  -2.907  11.285  0.00  0.00    -0.393 OA
ATOM     18  H24 <0> d   1      21.625  -2.480  11.668  0.00  0.00     0.210 HD
ENDBRANCH  15  17
ENDBRANCH  14  15
BRANCH  14  19
ATOM     19  O7  <0> d   1      21.572  -0.511  10.969  0.00  0.00    -0.391 OA
ATOM     20  H25 <0> d   1      22.099  -1.179  11.430  0.00  0.00     0.210 HD
ENDBRANCH  14  19
ENDBRANCH   1  14
BRANCH  10  21
ATOM     21  N19 <0> d   1      16.636   4.853  10.372  0.00  0.00    -0.231 N 
ATOM     22  H30 <0> d   1      16.129   5.469  10.923  0.00  0.00     0.174 HD
ATOM     23  H31 <0> d   1      16.506   4.843   9.410  0.00  0.00     0.174 HD
ENDBRANCH  10  21
TORSDOF 5
ENDMDL
MODEL 2
REMARK VINA RESULT:      -6.1      3.503      5.256
REMARK  5 active torsions:
REMARK  status: ('A' for Active; 'I' for Inactive)
REMARK    1  A    between atoms: C2_2  and  O4_3 
REMARK    2  A    between atoms: C2_2  and  C5_4 
REMARK    3  A    between atoms: C5_4  and  O7_5 
REMARK    4  A    between atoms: C5_4  and  C8_6 
REMARK    5  A    between atoms: C18_15  and  N19_16 
ROOT
ATOM      1  C8  <0> d   1      17.993   1.465  15.793  0.00  0.00     0.131 C 
ATOM      2  C10 <0> d   1      17.665  -0.011  15.519  0.00  0.00     0.149 C 
ATOM      3  N11 <0> d   1      18.770  -0.594  14.744  0.00  0.00    -0.370 N 
ATOM      4  C12 <0> d   1      19.279   0.109  13.664  0.00  0.00     0.175 A 
ATOM      5  C13 <0> d   1      19.014   1.466  13.534  0.00  0.00     0.146 A 
ATOM      6  N14 <0> d   1      18.223   2.129  14.500  0.00  0.00    -0.373 N 
ATOM      7  C15 <0> d   1      19.539   2.160  12.439  0.00  0.00     0.313 A 
ATOM      8  O16 <0> d   1      19.325   3.355  12.297  0.00  0.00    -0.263 OA
ATOM      9  N17 <0> d   1      20.287   1.480  11.544  0.00  0.00    -0.020 NA
ATOM     10  C18 <0> d   1      20.517   0.150  11.714  0.00  0.00     0.725 A 
ATOM     11  N20 <0> d   1      20.027  -0.509  12.742  0.00  0.00    -0.043 NA
ATOM     12  H28 <0> d   1      19.137  -1.459  14.986  0.00  0.00     0.161 HD
ATOM     13  H29 <0> d   1      17.842   3.001  14.315  0.00  0.00     0.160 HD
ENDROOT
BRANCH   1  14
ATOM     14  C5  <0> d   1      19.253   1.563  16.656  0.00  0.00     0.170 C 
BRANCH  14  15
ATOM     15  C2  <0> d   1      18.905   1.228  18.107  0.00  0.00     0.145 C 
ATOM     16  C1  <0> d   1      19.315  -0.215  18.410  0.00  0.00     0.042 C 
BRANCH  15  17
ATOM     17  O4  <0> d   1      19.604   2.116  18.982  0.00  0.00    -0.393 OA
ATOM     18  H24 <0> d   1      19.028   2.638  19.555  0.00  0.00     0.210 HD
ENDBRANCH  15  17
ENDBRANCH  14  15
BRANCH  14  19
ATOM     19  O7  <0> d   1      19.776   2.891  16.586  0.00  0.00    -0.391 OA
ATOM     20  H25 <0> d   1      20.627   3.001  17.034  0.00  0.00     0.210 HD
ENDBRANCH  14  19
ENDBRANCH   1  14
BRANCH  10  21
ATOM     21  N19 <0> d   1      21.278  -0.522  10.791  0.00  0.00    -0.231 N 
ATOM     22  H30 <0> d   1      22.244  -0.537  10.877  0.00  0.00     0.174 HD
ATOM     23  H31 <0> d   1      20.851  -0.980  10.050  0.00  0.00     0.174 HD
ENDBRANCH  10  21
TORSDOF 5
ENDMDL
MODEL 3
REMARK VINA RESULT:      -6.1      3.912      6.176
REMARK  5 active torsions:
REMARK  status: ('A' for Active; 'I' for Inactive)
REMARK    1  A    between atoms: C2_2  and  O4_3 
REMARK    2  A    between atoms: C2_2  and  C5_4 
REMARK    3  A    between atoms: C5_4  and  O7_5 
REMARK    4  A    between atoms: C5_4  and  C8_6 
REMARK    5  A    between atoms: C18_15  and  N19_16 
ROOT
ATOM      1  C8  <0> d   1      18.717  -0.736  10.359  0.00  0.00     0.131 C 
ATOM      2  C10 <0> d   1      17.990  -1.990  10.867  0.00  0.00     0.149 C 
ATOM      3  N11 <0> d   1      18.655  -3.172  10.301  0.00  0.00    -0.370 N 
ATOM      4  C12 <0> d   1      18.979  -3.182   8.954  0.00  0.00     0.175 A 
ATOM      5  C13 <0> d   1      19.012  -1.991   8.241  0.00  0.00     0.146 A 
ATOM      6  N14 <0> d   1      18.711  -0.771   8.887  0.00  0.00    -0.373 N 
ATOM      7  C15 <0> d   1      19.345  -2.019   6.883  0.00  0.00     0.313 A 
ATOM      8  O16 <0> d   1      19.384  -0.989   6.228  0.00  0.00    -0.263 OA
ATOM      9  N17 <0> d   1      19.623  -3.212   6.312  0.00  0.00    -0.020 NA
ATOM     10  C18 <0> d   1      19.575  -4.352   7.053  0.00  0.00     0.725 A 
ATOM     11  N20 <0> d   1      19.263  -4.333   8.331  0.00  0.00    -0.043 NA
ATOM     12  H28 <0> d   1      18.864  -3.935  10.864  0.00  0.00     0.161 HD
ATOM     13  H29 <0> d   1      18.507   0.026   8.372  0.00  0.00     0.160 HD
ENDROOT
BRANCH   1  14
ATOM     14  C5  <0> d   1      20.159  -0.732  10.870  0.00  0.00     0.170 C 
BRANCH  14  15
ATOM     15  C2  <0> d   1      20.295   0.287  12.003  0.00  0.00     0.145 C 
ATOM     16  C1  <0> d   1      19.782  -0.328  13.307  0.00  0.00     0.042 C 
BRANCH  15  17
ATOM     17  O4  <0> d   1      21.670   0.648  12.156  0.00  0.00    -0.393 OA
ATOM     18  H24 <0> d   1      21.869   1.556  11.892  0.00  0.00     0.210 HD
ENDBRANCH  15  17
ENDBRANCH  14  15
BRANCH  14  19
ATOM     19  O7  <0> d   1      21.042  -0.379   9.804  0.00  0.00    -0.391 OA
ATOM     20  H25 <0> d   1      21.193   0.573   9.717  0.00  0.00     0.210 HD
ENDBRANCH  14  19
ENDBRANCH   1  14
BRANCH  10  21
ATOM     21  N19 <0> d   1      19.859  -5.553   6.453  0.00  0.00    -0.231 N 
ATOM     22  H30 <0> d   1      19.283  -5.892   5.749  0.00  0.00     0.174 HD
ATOM     23  H31 <0> d   1      20.634  -6.064   6.732  0.00  0.00     0.174 HD
ENDBRANCH  10  21
TORSDOF 5
ENDMDL
MODEL 4
REMARK VINA RESULT:      -6.1      3.699      5.676
REMARK  5 active torsions:
REMARK  status: ('A' for Active; 'I' for Inactive)
REMARK    1  A    between atoms: C2_2  and  O4_3 
REMARK    2  A    between atoms: C2_2  and  C5_4 
REMARK    3  A    between atoms: C5_4  and  O7_5 
REMARK    4  A    between atoms: C5_4  and  C8_6 
REMARK    5  A    between atoms: C18_15  and  N19_16 
ROOT
ATOM      1  C8  <0> d   1      18.013  -1.573   7.275  0.00  0.00     0.131 C 
ATOM      2  C10 <0> d   1      17.629  -0.115   7.568  0.00  0.00     0.149 C 
ATOM      3  N11 <0> d   1      18.732   0.516   8.307  0.00  0.00    -0.370 N 
ATOM      4  C12 <0> d   1      19.309  -0.167   9.365  0.00  0.00     0.175 A 
ATOM      5  C13 <0> d   1      19.111  -1.535   9.497  0.00  0.00     0.146 A 
ATOM      6  N14 <0> d   1      18.318  -2.230   8.557  0.00  0.00    -0.373 N 
ATOM      7  C15 <0> d   1      19.705  -2.208  10.570  0.00  0.00     0.313 A 
ATOM      8  O16 <0> d   1      19.551  -3.412  10.713  0.00  0.00    -0.263 OA
ATOM      9  N17 <0> d   1      20.453  -1.498  11.442  0.00  0.00    -0.020 NA
ATOM     10  C18 <0> d   1      20.616  -0.158  11.271  0.00  0.00     0.725 A 
ATOM     11  N20 <0> d   1      20.060   0.482  10.264  0.00  0.00    -0.043 NA
ATOM     12  H28 <0> d   1      19.050   1.397   8.057  0.00  0.00     0.161 HD
ATOM     13  H29 <0> d   1      17.983  -3.119   8.751  0.00  0.00     0.160 HD
ENDROOT
BRANCH   1  14
ATOM     14  C5  <0> d   1      19.245  -1.610   6.369  0.00  0.00     0.170 C 
BRANCH  14  15
ATOM     15  C2  <0> d   1      18.837  -1.256   4.938  0.00  0.00     0.145 C 
ATOM     16  C1  <0> d   1      19.255   0.184   4.630  0.00  0.00     0.042 C 
BRANCH  15  17
ATOM     17  O4  <0> d   1      19.482  -2.145   4.024  0.00  0.00    -0.393 OA
ATOM     18  H24 <0> d   1      20.445  -2.162   4.106  0.00  0.00     0.210 HD
ENDBRANCH  15  17
ENDBRANCH  14  15
BRANCH  14  19
ATOM     19  O7  <0> d   1      19.813  -2.921   6.390  0.00  0.00    -0.391 OA
ATOM     20  H25 <0> d   1      20.283  -3.133   7.210  0.00  0.00     0.210 HD
ENDBRANCH  14  19
ENDBRANCH   1  14
BRANCH  10  21
ATOM     21  N19 <0> d   1      21.378   0.544  12.170  0.00  0.00    -0.231 N 
ATOM     22  H30 <0> d   1      21.087   1.418  12.475  0.00  0.00     0.174 HD
ATOM     23  H31 <0> d   1      22.208   0.168  12.501  0.00  0.00     0.174 HD
ENDBRANCH  10  21
TORSDOF 5
ENDMDL
MODEL 5
REMARK VINA RESULT:      -6.0      3.269      4.590
REMARK  5 active torsions:
REMARK  status: ('A' for Active; 'I' for Inactive)
REMARK    1  A    between atoms: C2_2  and  O4_3 
REMARK    2  A    between atoms: C2_2  and  C5_4 
REMARK    3  A    between atoms: C5_4  and  O7_5 
REMARK    4  A    between atoms: C5_4  and  C8_6 
REMARK    5  A    between atoms: C18_15  and  N19_16 
ROOT
ATOM      1  C8  <0> d   1      17.998  -0.051   7.890  0.00  0.00     0.131 C 
ATOM      2  C10 <0> d   1      19.156   0.958   7.858  0.00  0.00     0.149 C 
ATOM      3  N11 <0> d   1      19.929   0.815   9.100  0.00  0.00    -0.370 N 
ATOM      4  C12 <0> d   1      19.254   0.728  10.307  0.00  0.00     0.175 A 
ATOM      5  C13 <0> d   1      17.900   0.418  10.322  0.00  0.00     0.146 A 
ATOM      6  N14 <0> d   1      17.211   0.197   9.109  0.00  0.00    -0.373 N 
ATOM      7  C15 <0> d   1      17.235   0.331  11.550  0.00  0.00     0.313 A 
ATOM      8  O16 <0> d   1      16.045   0.059  11.597  0.00  0.00    -0.263 OA
ATOM      9  N17 <0> d   1      17.940   0.553  12.681  0.00  0.00    -0.020 NA
ATOM     10  C18 <0> d   1      19.265   0.856  12.614  0.00  0.00     0.725 A 
ATOM     11  N20 <0> d   1      19.896   0.939  11.462  0.00  0.00    -0.043 NA
ATOM     12  H28 <0> d   1      20.898   0.782   9.075  0.00  0.00     0.161 HD
ATOM     13  H29 <0> d   1      16.241   0.207   9.080  0.00  0.00     0.160 HD
ENDROOT
BRANCH   1  14
ATOM     14  C5  <0> d   1      18.555  -1.475   7.915  0.00  0.00     0.170 C 
BRANCH  14  15
ATOM     15  C2  <0> d   1      18.964  -1.888   6.500  0.00  0.00     0.145 C 
ATOM     16  C1  <0> d   1      19.683  -3.238   6.550  0.00  0.00     0.042 C 
BRANCH  15  17
ATOM     17  O4  <0> d   1      17.799  -2.000   5.680  0.00  0.00    -0.393 OA
ATOM     18  H24 <0> d   1      17.543  -2.910   5.481  0.00  0.00     0.210 HD
ENDBRANCH  15  17
ENDBRANCH  14  15
BRANCH  14  19
ATOM     19  O7  <0> d   1      17.553  -2.371   8.401  0.00  0.00    -0.391 OA
ATOM     20  H25 <0> d   1      17.663  -3.284   8.099  0.00  0.00     0.210 HD
ENDBRANCH  14  19
ENDBRANCH   1  14
BRANCH  10  21
ATOM     21  N19 <0> d   1      19.960   1.080  13.775  0.00  0.00    -0.231 N 
ATOM     22  H30 <0> d   1      19.485   1.157  14.617  0.00  0.00     0.174 HD
ATOM     23  H31 <0> d   1      20.926   1.162  13.754  0.00  0.00     0.174 HD
ENDBRANCH  10  21
TORSDOF 5
ENDMDL
MODEL 6
REMARK VINA RESULT:      -6.0      3.496      5.983
REMARK  5 active torsions:
REMARK  status: ('A' for Active; 'I' for Inactive)
REMARK    1  A    between atoms: C2_2  and  O4_3 
REMARK    2  A    between atoms: C2_2  and  C5_4 
REMARK    3  A    between atoms: C5_4  and  O7_5 
REMARK    4  A    between atoms: C5_4  and  C8_6 
REMARK    5  A    between atoms: C18_15  and  N19_16 
ROOT
ATOM      1  C8  <0> d   1      19.176  -0.001   9.875  0.00  0.00     0.131 C 
ATOM      2  C10 <0> d   1      17.785  -0.293  10.460  0.00  0.00     0.149 C 
ATOM      3  N11 <0> d   1      17.612  -1.750  10.537  0.00  0.00    -0.370 N 
ATOM      4  C12 <0> d   1      17.971  -2.529   9.448  0.00  0.00     0.175 A 
ATOM      5  C13 <0> d   1      18.800  -2.005   8.465  0.00  0.00     0.146 A 
ATOM      6  N14 <0> d   1      19.274  -0.678   8.572  0.00  0.00    -0.373 N 
ATOM      7  C15 <0> d   1      19.155  -2.807   7.375  0.00  0.00     0.313 A 
ATOM      8  O16 <0> d   1      19.884  -2.376   6.495  0.00  0.00    -0.263 OA
ATOM      9  N17 <0> d   1      18.675  -4.069   7.320  0.00  0.00    -0.020 NA
ATOM     10  C18 <0> d   1      17.864  -4.536   8.308  0.00  0.00     0.725 A 
ATOM     11  N20 <0> d   1      17.526  -3.787   9.336  0.00  0.00    -0.043 NA
ATOM     12  H28 <0> d   1      17.251  -2.161  11.338  0.00  0.00     0.161 HD
ATOM     13  H29 <0> d   1      19.655  -0.224   7.804  0.00  0.00     0.160 HD
ENDROOT
BRANCH   1  14
ATOM     14  C5  <0> d   1      20.255  -0.536  10.818  0.00  0.00     0.170 C 
BRANCH  14  15
ATOM     15  C2  <0> d   1      20.390   0.399  12.022  0.00  0.00     0.145 C 
ATOM     16  C1  <0> d   1      19.855  -0.301  13.273  0.00  0.00     0.042 C 
BRANCH  15  17
ATOM     17  O4  <0> d   1      21.766   0.732  12.214  0.00  0.00    -0.393 OA
ATOM     18  H24 <0> d   1      21.908   1.580  12.655  0.00  0.00     0.210 HD
ENDBRANCH  15  17
ENDBRANCH  14  15
BRANCH  14  19
ATOM     19  O7  <0> d   1      21.503  -0.603  10.125  0.00  0.00    -0.391 OA
ATOM     20  H25 <0> d   1      21.815   0.251   9.793  0.00  0.00     0.210 HD
ENDBRANCH  14  19
ENDBRANCH   1  14
BRANCH  10  21
ATOM     21  N19 <0> d   1      17.385  -5.820   8.230  0.00  0.00    -0.231 N 
ATOM     22  H30 <0> d   1      16.964  -6.227   9.002  0.00  0.00     0.174 HD
ATOM     23  H31 <0> d   1      17.470  -6.319   7.403  0.00  0.00     0.174 HD
ENDBRANCH  10  21
TORSDOF 5
ENDMDL
MODEL 7
REMARK VINA RESULT:      -5.9      3.151      3.846
REMARK  5 active torsions:
REMARK  status: ('A' for Active; 'I' for Inactive)
REMARK    1  A    between atoms: C2_2  and  O4_3 
REMARK    2  A    between atoms: C2_2  and  C5_4 
REMARK    3  A    between atoms: C5_4  and  O7_5 
REMARK    4  A    between atoms: C5_4  and  C8_6 
REMARK    5  A    between atoms: C18_15  and  N19_16 
ROOT
ATOM      1  C8  <0> d   1      18.671   0.719  12.797  0.00  0.00     0.131 C 
ATOM      2  C10 <0> d   1      17.920   1.954  12.276  0.00  0.00     0.149 C 
ATOM      3  N11 <0> d   1      18.569   3.155  12.822  0.00  0.00    -0.370 N 
ATOM      4  C12 <0> d   1      18.901   3.188  14.167  0.00  0.00     0.175 A 
ATOM      5  C13 <0> d   1      18.957   2.008  14.895  0.00  0.00     0.146 A 
ATOM      6  N14 <0> d   1      18.673   0.774  14.268  0.00  0.00    -0.373 N 
ATOM      7  C15 <0> d   1      19.297   2.061  16.252  0.00  0.00     0.313 A 
ATOM      8  O16 <0> d   1      19.357   1.040  16.920  0.00  0.00    -0.263 OA
ATOM      9  N17 <0> d   1      19.558   3.266  16.804  0.00  0.00    -0.020 NA
ATOM     10  C18 <0> d   1      19.487   4.395  16.048  0.00  0.00     0.725 A 
ATOM     11  N20 <0> d   1      19.169   4.352  14.772  0.00  0.00    -0.043 NA
ATOM     12  H28 <0> d   1      18.762   3.913  12.248  0.00  0.00     0.161 HD
ATOM     13  H29 <0> d   1      18.485  -0.019  14.795  0.00  0.00     0.160 HD
ENDROOT
BRANCH   1  14
ATOM     14  C5  <0> d   1      20.110   0.732  12.277  0.00  0.00     0.170 C 
BRANCH  14  15
ATOM     15  C2  <0> d   1      20.248  -0.274  11.133  0.00  0.00     0.145 C 
ATOM     16  C1  <0> d   1      19.699   0.341   9.844  0.00  0.00     0.042 C 
BRANCH  15  17
ATOM     17  O4  <0> d   1      21.627  -0.605  10.954  0.00  0.00    -0.393 OA
ATOM     18  H24 <0> d   1      21.948  -1.291  11.554  0.00  0.00     0.210 HD
ENDBRANCH  15  17
ENDBRANCH  14  15
BRANCH  14  19
ATOM     19  O7  <0> d   1      21.003   0.376  13.335  0.00  0.00    -0.391 OA
ATOM     20  H25 <0> d   1      21.895   0.737  13.234  0.00  0.00     0.210 HD
ENDBRANCH  14  19
ENDBRANCH   1  14
BRANCH  10  21
ATOM     21  N19 <0> d   1      19.754   5.608  16.630  0.00  0.00    -0.231 N 
ATOM     22  H30 <0> d   1      19.992   6.369  16.078  0.00  0.00     0.174 HD
ATOM     23  H31 <0> d   1      19.706   5.705  17.594  0.00  0.00     0.174 HD
ENDBRANCH  10  21
TORSDOF 5
ENDMDL
MODEL 8
REMARK VINA RESULT:      -5.8      1.776      1.983
REMARK  5 active torsions:
REMARK  status: ('A' for Active; 'I' for Inactive)
REMARK    1  A    between atoms: C2_2  and  O4_3 
REMARK    2  A    between atoms: C2_2  and  C5_4 
REMARK    3  A    between atoms: C5_4  and  O7_5 
REMARK    4  A    between atoms: C5_4  and  C8_6 
REMARK    5  A    between atoms: C18_15  and  N19_16 
ROOT
ATOM      1  C8  <0> d   1      20.326  -0.395  11.428  0.00  0.00     0.131 C 
ATOM      2  C10 <0> d   1      20.389   0.249  12.821  0.00  0.00     0.149 C 
ATOM      3  N11 <0> d   1      19.183   1.067  13.008  0.00  0.00    -0.370 N 
ATOM      4  C12 <0> d   1      18.775   1.909  11.986  0.00  0.00     0.175 A 
ATOM      5  C13 <0> d   1      19.265   1.724  10.700  0.00  0.00     0.146 A 
ATOM      6  N14 <0> d   1      20.181   0.681  10.434  0.00  0.00    -0.373 N 
ATOM      7  C15 <0> d   1      18.840   2.581   9.679  0.00  0.00     0.313 A 
ATOM      8  O16 <0> d   1      19.251   2.443   8.537  0.00  0.00    -0.263 OA
ATOM      9  N17 <0> d   1      17.964   3.563   9.985  0.00  0.00    -0.020 NA
ATOM     10  C18 <0> d   1      17.515   3.705  11.262  0.00  0.00     0.725 A 
ATOM     11  N20 <0> d   1      17.910   2.902  12.226  0.00  0.00    -0.043 NA
ATOM     12  H28 <0> d   1      18.679   1.019  13.836  0.00  0.00     0.161 HD
ATOM     13  H29 <0> d   1      20.702   0.674   9.616  0.00  0.00     0.160 HD
ENDROOT
BRANCH   1  14
ATOM     14  C5  <0> d   1      19.123  -1.337  11.349  0.00  0.00     0.170 C 
BRANCH  14  15
ATOM     15  C2  <0> d   1      19.486  -2.682  11.981  0.00  0.00     0.145 C 
ATOM     16  C1  <0> d   1      18.413  -3.716  11.632  0.00  0.00     0.042 C 
BRANCH  15  17
ATOM     17  O4  <0> d   1      20.750  -3.119  11.479  0.00  0.00    -0.393 OA
ATOM     18  H24 <0> d   1      20.958  -4.040  11.684  0.00  0.00     0.210 HD
ENDBRANCH  15  17
ENDBRANCH  14  15
BRANCH  14  19
ATOM     19  O7  <0> d   1      18.762  -1.536   9.980  0.00  0.00    -0.391 OA
ATOM     20  H25 <0> d   1      19.498  -1.429   9.360  0.00  0.00     0.210 HD
ENDBRANCH  14  19
ENDBRANCH   1  14
BRANCH  10  21
ATOM     21  N19 <0> d   1      16.627   4.711  11.551  0.00  0.00    -0.231 N 
ATOM     22  H30 <0> d   1      16.914   5.476  12.073  0.00  0.00     0.174 HD
ATOM     23  H31 <0> d   1      15.712   4.656  11.234  0.00  0.00     0.174 HD
ENDBRANCH  10  21
TORSDOF 5
ENDMDL
MODEL 9
REMARK VINA RESULT:      -5.8      2.315      2.519
REMARK  5 active torsions:
REMARK  status: ('A' for Active; 'I' for Inactive)
REMARK    1  A    between atoms: C2_2  and  O4_3 
REMARK    2  A    between atoms: C2_2  and  C5_4 
REMARK    3  A    between atoms: C5_4  and  O7_5 
REMARK    4  A    between atoms: C5_4  and  C8_6 
REMARK    5  A    between atoms: C18_15  and  N19_16 
ROOT
ATOM      1  C8  <0> d   1      19.047   0.103  12.803  0.00  0.00     0.131 C 
ATOM      2  C10 <0> d   1      17.732   0.394  12.065  0.00  0.00     0.149 C 
ATOM      3  N11 <0> d   1      17.624   1.846  11.866  0.00  0.00    -0.370 N 
ATOM      4  C12 <0> d   1      17.907   2.693  12.926  0.00  0.00     0.175 A 
ATOM      5  C13 <0> d   1      18.616   2.219  14.021  0.00  0.00     0.146 A 
ATOM      6  N14 <0> d   1      19.046   0.873  14.058  0.00  0.00    -0.373 N 
ATOM      7  C15 <0> d   1      18.896   3.089  15.081  0.00  0.00     0.313 A 
ATOM      8  O16 <0> d   1      19.519   2.702  16.058  0.00  0.00    -0.263 OA
ATOM      9  N17 <0> d   1      18.461   4.365  14.997  0.00  0.00    -0.020 NA
ATOM     10  C18 <0> d   1      17.768   4.782  13.903  0.00  0.00     0.725 A 
ATOM     11  N20 <0> d   1      17.502   3.969  12.904  0.00  0.00    -0.043 NA
ATOM     12  H28 <0> d   1      17.358   2.207  11.006  0.00  0.00     0.161 HD
ATOM     13  H29 <0> d   1      19.334   0.467  14.890  0.00  0.00     0.160 HD
ENDROOT
BRANCH   1  14
ATOM     14  C5  <0> d   1      20.233   0.531  11.936  0.00  0.00     0.170 C 
BRANCH  14  15
ATOM     15  C2  <0> d   1      20.453  -0.501  10.829  0.00  0.00     0.145 C 
ATOM     16  C1  <0> d   1      19.983   0.077   9.492  0.00  0.00     0.042 C 
BRANCH  15  17
ATOM     17  O4  <0> d   1      21.844  -0.821  10.746  0.00  0.00    -0.393 OA
ATOM     18  H24 <0> d   1      22.091  -1.624  11.225  0.00  0.00     0.210 HD
ENDBRANCH  15  17
ENDBRANCH  14  15
BRANCH  14  19
ATOM     19  O7  <0> d   1      21.408   0.621  12.744  0.00  0.00    -0.391 OA
ATOM     20  H25 <0> d   1      21.555   1.497  13.128  0.00  0.00     0.210 HD
ENDBRANCH  14  19
ENDBRANCH   1  14
BRANCH  10  21
ATOM     21  N19 <0> d   1      17.335   6.083  13.841  0.00  0.00    -0.231 N 
ATOM     22  H30 <0> d   1      17.806   6.725  13.288  0.00  0.00     0.174 HD
ATOM     23  H31 <0> d   1      16.558   6.360  14.351  0.00  0.00     0.174 HD
ENDBRANCH  10  21
TORSDOF 5
ENDMDL
