MODEL 1
REMARK VINA RESULT:      -8.3      0.000      0.000
REMARK  0 active torsions:
REMARK  status: ('A' for Active; 'I' for Inactive)
ROOT
ATOM      1  C1  ZIN A   1      19.619  -0.490   9.073  0.00  0.00     0.269 C 
ATOM      2  N2  ZIN A   1      20.154   0.416  10.099  0.00  0.00    -0.074 N 
ATOM      3  H3  ZIN A   1      21.159   0.458  10.025  0.00  0.00     0.279 HD
ATOM      4  C4  ZIN A   1      19.581   1.776   9.915  0.00  0.00     0.244 C 
ATOM      5  C5  ZIN A   1      19.377   2.289  11.350  0.00  0.00     0.057 C 
ATOM      6  C7  ZIN A   1      18.426   3.409  11.501  0.00  0.00    -0.018 A 
ATOM      7  C8  ZIN A   1      17.716   3.931  10.439  0.00  0.00     0.010 A 
ATOM      8  C9  ZIN A   1      16.814   4.958  10.648  0.00  0.00     0.001 A 
ATOM      9  C10 ZIN A   1      16.618   5.464  11.920  0.00  0.00     0.003 A 
ATOM     10  C11 ZIN A   1      17.336   4.955  12.986  0.00  0.00     0.038 A 
ATOM     11  C12 ZIN A   1      18.252   3.938  12.774  0.00  0.00     0.082 A 
ATOM     12  O13 ZIN A   1      19.038   3.474  13.765  0.00  0.00    -0.310 OA
ATOM     13  C14 ZIN A   1      18.964   2.241  14.301  0.00  0.00     0.083 A 
ATOM     14  C15 ZIN A   1      18.955   2.169  15.695  0.00  0.00     0.039 A 
ATOM     15  C16 ZIN A   1      18.859   0.960  16.344  0.00  0.00     0.026 A 
ATOM     16  C17 ZIN A   1      18.767  -0.204  15.602  0.00  0.00     0.034 A 
ATOM     17 Cl18 ZIN A   1      18.631  -1.740  16.401  0.00  0.00    -0.084 Cl
ATOM     18  C19 ZIN A   1      18.783  -0.141  14.225  0.00  0.00     0.034 A 
ATOM     19  C20 ZIN A   1      18.892   1.076  13.554  0.00  0.00    -0.016 A 
ATOM     20  C21 ZIN A   1      18.937   1.035  12.077  0.00  0.00     0.057 C 
ATOM     21  C23 ZIN A   1      19.772  -0.075  11.448  0.00  0.00     0.244 C 
ENDROOT
TORSDOF 0
ENDMDL
MODEL 2
REMARK VINA RESULT:      -8.3      2.384      3.314
REMARK  0 active torsions:
REMARK  status: ('A' for Active; 'I' for Inactive)
ROOT
ATOM      1  C1  ZIN A   1      17.905   0.268   5.930  0.00  0.00     0.269 C 
ATOM      2  N2  ZIN A   1      18.904   0.289   7.007  0.00  0.00    -0.074 N 
ATOM      3  H3  ZIN A   1      19.815   0.074   6.631  0.00  0.00     0.279 HD
ATOM      4  C4  ZIN A   1      18.928   1.634   7.643  0.00  0.00     0.244 C 
ATOM      5  C5  ZIN A   1      19.155   1.334   9.134  0.00  0.00     0.057 C 
ATOM      6  C7  ZIN A   1      18.785   2.417  10.068  0.00  0.00    -0.018 A 
ATOM      7  C8  ZIN A   1      18.217   3.602   9.646  0.00  0.00     0.010 A 
ATOM      8  C9  ZIN A   1      17.861   4.566  10.572  0.00  0.00     0.001 A 
ATOM      9  C10 ZIN A   1      18.071   4.346  11.921  0.00  0.00     0.003 A 
ATOM     10  C11 ZIN A   1      18.651   3.167  12.349  0.00  0.00     0.038 A 
ATOM     11  C12 ZIN A   1      19.023   2.208  11.421  0.00  0.00     0.082 A 
ATOM     12  O13 ZIN A   1      19.675   1.086  11.783  0.00  0.00    -0.310 OA
ATOM     13  C14 ZIN A   1      19.170  -0.161  11.712  0.00  0.00     0.083 A 
ATOM     14  C15 ZIN A   1      19.324  -0.959  12.847  0.00  0.00     0.039 A 
ATOM     15  C16 ZIN A   1      18.825  -2.241  12.887  0.00  0.00     0.026 A 
ATOM     16  C17 ZIN A   1      18.157  -2.745  11.785  0.00  0.00     0.034 A 
ATOM     17 Cl18 ZIN A   1      17.507  -4.355  11.821  0.00  0.00    -0.084 Cl
ATOM     18  C19 ZIN A   1      18.008  -1.965  10.659  0.00  0.00     0.034 A 
ATOM     19  C20 ZIN A   1      18.519  -0.668  10.599  0.00  0.00    -0.016 A 
ATOM     20  C21 ZIN A   1      18.339   0.074   9.334  0.00  0.00     0.057 C 
ATOM     21  C23 ZIN A   1      18.542  -0.713   8.043  0.00  0.00     0.244 C 
ENDROOT
TORSDOF 0
ENDMDL
MODEL 3
REMARK VINA RESULT:      -8.3      3.451      4.694
REMARK  0 active torsions:
REMARK  status: ('A' for Active; 'I' for Inactive)
ROOT
ATOM      1  C1  ZIN A   1      16.594  -5.020   9.439  0.00  0.00     0.269 C 
ATOM      2  N2  ZIN A   1      17.907  -4.390   9.626  0.00  0.00    -0.074 N 
ATOM      3  H3  ZIN A   1      18.627  -5.097   9.625  0.00  0.00     0.279 HD
ATOM      4  C4  ZIN A   1      18.159  -3.418   8.527  0.00  0.00     0.244 C 
ATOM      5  C5  ZIN A   1      18.895  -2.260   9.219  0.00  0.00     0.057 C 
ATOM      6  C7  ZIN A   1      18.881  -0.971   8.498  0.00  0.00    -0.018 A 
ATOM      7  C8  ZIN A   1      18.205  -0.791   7.308  0.00  0.00     0.010 A 
ATOM      8  C9  ZIN A   1      18.201   0.449   6.696  0.00  0.00     0.001 A 
ATOM      9  C10 ZIN A   1      18.871   1.512   7.272  0.00  0.00     0.003 A 
ATOM     10  C11 ZIN A   1      19.561   1.336   8.457  0.00  0.00     0.038 A 
ATOM     11  C12 ZIN A   1      19.579   0.090   9.062  0.00  0.00     0.082 A 
ATOM     12  O13 ZIN A   1      20.313  -0.152  10.166  0.00  0.00    -0.310 OA
ATOM     13  C14 ZIN A   1      19.811  -0.429  11.385  0.00  0.00     0.083 A 
ATOM     14  C15 ZIN A   1      20.351   0.284  12.456  0.00  0.00     0.039 A 
ATOM     15  C16 ZIN A   1      19.894   0.094  13.740  0.00  0.00     0.026 A 
ATOM     16  C17 ZIN A   1      18.879  -0.818  13.971  0.00  0.00     0.034 A 
ATOM     17 Cl18 ZIN A   1      18.278  -1.063  15.582  0.00  0.00    -0.084 Cl
ATOM     18  C19 ZIN A   1      18.346  -1.530  12.919  0.00  0.00     0.034 A 
ATOM     19  C20 ZIN A   1      18.808  -1.357  11.615  0.00  0.00    -0.016 A 
ATOM     20  C21 ZIN A   1      18.196  -2.195  10.561  0.00  0.00     0.057 C 
ATOM     21  C23 ZIN A   1      17.930  -3.654  10.916  0.00  0.00     0.244 C 
ENDROOT
TORSDOF 0
ENDMDL
MODEL 4
REMARK VINA RESULT:      -8.2      2.788      5.682
REMARK  0 active torsions:
REMARK  status: ('A' for Active; 'I' for Inactive)
ROOT
ATOM      1  C1  ZIN A   1      16.732   5.209  13.088  0.00  0.00     0.269 C 
ATOM      2  N2  ZIN A   1      18.015   4.495  13.031  0.00  0.00    -0.074 N 
ATOM      3  H3  ZIN A   1      18.775   5.158  13.073  0.00  0.00     0.279 HD
ATOM      4  C4  ZIN A   1      18.113   3.547  14.174  0.00  0.00     0.244 C 
ATOM      5  C5  ZIN A   1      18.830   2.324  13.580  0.00  0.00     0.057 C 
ATOM      6  C7  ZIN A   1      18.676   1.063  14.333  0.00  0.00    -0.018 A 
ATOM      7  C8  ZIN A   1      17.894   0.963  15.466  0.00  0.00     0.010 A 
ATOM      8  C9  ZIN A   1      17.762  -0.253  16.110  0.00  0.00     0.001 A 
ATOM      9  C10 ZIN A   1      18.409  -1.373  15.622  0.00  0.00     0.003 A 
ATOM     10  C11 ZIN A   1      19.205  -1.277  14.495  0.00  0.00     0.038 A 
ATOM     11  C12 ZIN A   1      19.352  -0.055  13.860  0.00  0.00     0.082 A 
ATOM     12  O13 ZIN A   1      20.188   0.105  12.816  0.00  0.00    -0.310 OA
ATOM     13  C14 ZIN A   1      19.807   0.372  11.552  0.00  0.00     0.083 A 
ATOM     14  C15 ZIN A   1      20.389  -0.408  10.550  0.00  0.00     0.039 A 
ATOM     15  C16 ZIN A   1      20.053  -0.233   9.227  0.00  0.00     0.026 A 
ATOM     16  C17 ZIN A   1      19.120   0.730   8.885  0.00  0.00     0.034 A 
ATOM     17 Cl18 ZIN A   1      18.671   0.957   7.223  0.00  0.00    -0.084 Cl
ATOM     18  C19 ZIN A   1      18.547   1.507   9.868  0.00  0.00     0.034 A 
ATOM     19  C20 ZIN A   1      18.886   1.350  11.211  0.00  0.00    -0.016 A 
ATOM     20  C21 ZIN A   1      18.243   2.257  12.185  0.00  0.00     0.057 C 
ATOM     21  C23 ZIN A   1      18.099   3.717  11.769  0.00  0.00     0.244 C 
ENDROOT
TORSDOF 0
ENDMDL
MODEL 5
REMARK VINA RESULT:      -8.1      1.776      2.647
REMARK  0 active torsions:
REMARK  status: ('A' for Active; 'I' for Inactive)
ROOT
ATOM      1  C1  ZIN A   1      19.754  -3.925  10.805  0.00  0.00     0.269 C 
ATOM      2  N2  ZIN A   1      20.359  -2.753  11.453  0.00  0.00    -0.074 N 
ATOM      3  H3  ZIN A   1      21.310  -2.962  11.715  0.00  0.00     0.279 HD
ATOM      4  C4  ZIN A   1      20.338  -1.597  10.517  0.00  0.00     0.244 C 
ATOM      5  C5  ZIN A   1      20.049  -0.391  11.424  0.00  0.00     0.057 C 
ATOM      6  C7  ZIN A   1      19.534   0.814  10.743  0.00  0.00    -0.018 A 
ATOM      7  C8  ZIN A   1      19.269   0.848   9.389  0.00  0.00     0.010 A 
ATOM      8  C9  ZIN A   1      18.756   1.996   8.813  0.00  0.00     0.001 A 
ATOM      9  C10 ZIN A   1      18.503   3.111   9.590  0.00  0.00     0.003 A 
ATOM     10  C11 ZIN A   1      18.778   3.088  10.944  0.00  0.00     0.038 A 
ATOM     11  C12 ZIN A   1      19.308   1.945  11.519  0.00  0.00     0.082 A 
ATOM     12  O13 ZIN A   1      19.677   1.907  12.814  0.00  0.00    -0.310 OA
ATOM     13  C14 ZIN A   1      19.078   1.171  13.769  0.00  0.00     0.083 A 
ATOM     14  C15 ZIN A   1      18.773   1.830  14.961  0.00  0.00     0.039 A 
ATOM     15  C16 ZIN A   1      18.141   1.176  15.994  0.00  0.00     0.026 A 
ATOM     16  C17 ZIN A   1      17.798  -0.157  15.845  0.00  0.00     0.034 A 
ATOM     17 Cl18 ZIN A   1      16.987  -0.997  17.130  0.00  0.00    -0.084 Cl
ATOM     18  C19 ZIN A   1      18.103  -0.815  14.674  0.00  0.00     0.034 A 
ATOM     19  C20 ZIN A   1      18.755  -0.168  13.624  0.00  0.00    -0.016 A 
ATOM     20  C21 ZIN A   1      19.070  -0.971  12.423  0.00  0.00     0.057 C 
ATOM     21  C23 ZIN A   1      19.575  -2.390  12.662  0.00  0.00     0.244 C 
ENDROOT
TORSDOF 0
ENDMDL
MODEL 6
REMARK VINA RESULT:      -8.1      3.140      6.295
REMARK  0 active torsions:
REMARK  status: ('A' for Active; 'I' for Inactive)
ROOT
ATOM      1  C1  ZIN A   1      18.065   5.531  17.539  0.00  0.00     0.269 C 
ATOM      2  N2  ZIN A   1      19.054   4.787  16.746  0.00  0.00    -0.074 N 
ATOM      3  H3  ZIN A   1      19.964   5.206  16.858  0.00  0.00     0.279 HD
ATOM      4  C4  ZIN A   1      19.095   3.370  17.199  0.00  0.00     0.244 C 
ATOM      5  C5  ZIN A   1      19.303   2.573  15.900  0.00  0.00     0.057 C 
ATOM      6  C7  ZIN A   1      18.944   1.142  15.963  0.00  0.00    -0.018 A 
ATOM      7  C8  ZIN A   1      18.400   0.560  17.090  0.00  0.00     0.010 A 
ATOM      8  C9  ZIN A   1      18.052  -0.779  17.077  0.00  0.00     0.001 A 
ATOM      9  C10 ZIN A   1      18.245  -1.537  15.938  0.00  0.00     0.003 A 
ATOM     10  C11 ZIN A   1      18.801  -0.963  14.810  0.00  0.00     0.038 A 
ATOM     11  C12 ZIN A   1      19.165   0.373  14.827  0.00  0.00     0.082 A 
ATOM     12  O13 ZIN A   1      19.794   0.951  13.785  0.00  0.00    -0.310 OA
ATOM     13  C14 ZIN A   1      19.268   1.907  12.996  0.00  0.00     0.083 A 
ATOM     14  C15 ZIN A   1      19.398   1.717  11.619  0.00  0.00     0.039 A 
ATOM     15  C16 ZIN A   1      18.876   2.624  10.724  0.00  0.00     0.026 A 
ATOM     16  C17 ZIN A   1      18.210   3.740  11.199  0.00  0.00     0.034 A 
ATOM     17 Cl18 ZIN A   1      17.532   4.888  10.087  0.00  0.00    -0.084 Cl
ATOM     18  C19 ZIN A   1      18.085   3.937  12.557  0.00  0.00     0.034 A 
ATOM     19  C20 ZIN A   1      18.619   3.033  13.475  0.00  0.00    -0.016 A 
ATOM     20  C21 ZIN A   1      18.463   3.353  14.910  0.00  0.00     0.057 C 
ATOM     21  C23 ZIN A   1      18.665   4.810  15.313  0.00  0.00     0.244 C 
ENDROOT
TORSDOF 0
ENDMDL
MODEL 7
REMARK VINA RESULT:      -8.0      4.061      6.477
REMARK  0 active torsions:
REMARK  status: ('A' for Active; 'I' for Inactive)
ROOT
ATOM      1  C1  ZIN A   1      17.770  -5.760  10.132  0.00  0.00     0.269 C 
ATOM      2  N2  ZIN A   1      17.166  -4.421  10.145  0.00  0.00    -0.074 N 
ATOM      3  H3  ZIN A   1      16.168  -4.496  10.016  0.00  0.00     0.279 HD
ATOM      4  C4  ZIN A   1      17.455  -3.753  11.443  0.00  0.00     0.244 C 
ATOM      5  C5  ZIN A   1      17.684  -2.282  11.059  0.00  0.00     0.057 C 
ATOM      6  C7  ZIN A   1      18.417  -1.468  12.050  0.00  0.00    -0.018 A 
ATOM      7  C8  ZIN A   1      18.920  -1.998  13.222  0.00  0.00     0.010 A 
ATOM      8  C9  ZIN A   1      19.627  -1.193  14.096  0.00  0.00     0.001 A 
ATOM      9  C10 ZIN A   1      19.835   0.141  13.800  0.00  0.00     0.003 A 
ATOM     10  C11 ZIN A   1      19.323   0.681  12.635  0.00  0.00     0.038 A 
ATOM     11  C12 ZIN A   1      18.600  -0.120  11.767  0.00  0.00     0.082 A 
ATOM     12  O13 ZIN A   1      18.005   0.381  10.668  0.00  0.00    -0.310 OA
ATOM     13  C14 ZIN A   1      18.357   0.099   9.399  0.00  0.00     0.083 A 
ATOM     14  C15 ZIN A   1      18.502   1.189   8.538  0.00  0.00     0.039 A 
ATOM     15  C16 ZIN A   1      18.880   1.013   7.226  0.00  0.00     0.026 A 
ATOM     16  C17 ZIN A   1      19.124  -0.265   6.755  0.00  0.00     0.034 A 
ATOM     17 Cl18 ZIN A   1      19.616  -0.508   5.108  0.00  0.00    -0.084 Cl
ATOM     18  C19 ZIN A   1      18.975  -1.345   7.598  0.00  0.00     0.034 A 
ATOM     19  C20 ZIN A   1      18.581  -1.184   8.926  0.00  0.00    -0.016 A 
ATOM     20  C21 ZIN A   1      18.414  -2.407   9.738  0.00  0.00     0.057 C 
ATOM     21  C23 ZIN A   1      17.751  -3.598   9.055  0.00  0.00     0.244 C 
ENDROOT
TORSDOF 0
ENDMDL
MODEL 8
REMARK VINA RESULT:      -8.0      2.198      4.029
REMARK  0 active torsions:
REMARK  status: ('A' for Active; 'I' for Inactive)
ROOT
ATOM      1  C1  ZIN A   1      18.564   6.629  14.670  0.00  0.00     0.269 C 
ATOM      2  N2  ZIN A   1      17.658   5.492  14.464  0.00  0.00    -0.074 N 
ATOM      3  H3  ZIN A   1      16.725   5.744  14.753  0.00  0.00     0.279 HD
ATOM      4  C4  ZIN A   1      17.650   5.111  13.025  0.00  0.00     0.244 C 
ATOM      5  C5  ZIN A   1      17.554   3.577  13.050  0.00  0.00     0.057 C 
ATOM      6  C7  ZIN A   1      17.971   2.889  11.810  0.00  0.00    -0.018 A 
ATOM      7  C8  ZIN A   1      18.472   3.566  10.716  0.00  0.00     0.010 A 
ATOM      8  C9  ZIN A   1      18.876   2.864   9.596  0.00  0.00     0.001 A 
ATOM      9  C10 ZIN A   1      18.785   1.485   9.567  0.00  0.00     0.003 A 
ATOM     10  C11 ZIN A   1      18.273   0.802  10.655  0.00  0.00     0.038 A 
ATOM     11  C12 ZIN A   1      17.851   1.505  11.771  0.00  0.00     0.082 A 
ATOM     12  O13 ZIN A   1      17.261   0.892  12.815  0.00  0.00    -0.310 OA
ATOM     13  C14 ZIN A   1      17.791   0.779  14.048  0.00  0.00     0.083 A 
ATOM     14  C15 ZIN A   1      17.752  -0.491  14.627  0.00  0.00     0.039 A 
ATOM     15  C16 ZIN A   1      18.286  -0.720  15.874  0.00  0.00     0.026 A 
ATOM     16  C17 ZIN A   1      18.875   0.325  16.564  0.00  0.00     0.034 A 
ATOM     17 Cl18 ZIN A   1      19.567   0.054  18.133  0.00  0.00    -0.084 Cl
ATOM     18  C19 ZIN A   1      18.910   1.583  16.001  0.00  0.00     0.034 A 
ATOM     19  C20 ZIN A   1      18.362   1.833  14.743  0.00  0.00    -0.016 A 
ATOM     20  C21 ZIN A   1      18.418   3.222  14.243  0.00  0.00     0.057 C 
ATOM     21  C23 ZIN A   1      18.129   4.327  15.255  0.00  0.00     0.244 C 
ENDROOT
TORSDOF 0
ENDMDL
MODEL 9
REMARK VINA RESULT:      -7.8      4.101      6.565
REMARK  0 active torsions:
REMARK  status: ('A' for Active; 'I' for Inactive)
ROOT
ATOM      1  C1  ZIN A   1      19.834  -4.260  11.483  0.00  0.00     0.269 C 
ATOM      2  N2  ZIN A   1      18.706  -3.475  10.964  0.00  0.00    -0.074 N 
ATOM      3  H3  ZIN A   1      17.837  -3.935  11.193  0.00  0.00     0.279 HD
ATOM      4  C4  ZIN A   1      18.725  -2.113  11.565  0.00  0.00     0.244 C 
ATOM      5  C5  ZIN A   1      18.271  -1.197  10.417  0.00  0.00     0.057 C 
ATOM      6  C7  ZIN A   1      18.613   0.233  10.566  0.00  0.00    -0.018 A 
ATOM      7  C8  ZIN A   1      19.344   0.716  11.633  0.00  0.00     0.010 A 
ATOM      8  C9  ZIN A   1      19.662   2.060  11.700  0.00  0.00     0.001 A 
ATOM      9  C10 ZIN A   1      19.252   2.923  10.701  0.00  0.00     0.003 A 
ATOM     10  C11 ZIN A   1      18.509   2.448   9.636  0.00  0.00     0.038 A 
ATOM     11  C12 ZIN A   1      18.176   1.105   9.577  0.00  0.00     0.082 A 
ATOM     12  O13 ZIN A   1      17.377   0.615   8.609  0.00  0.00    -0.310 OA
ATOM     13  C14 ZIN A   1      17.766  -0.238   7.641  0.00  0.00     0.083 A 
ATOM     14  C15 ZIN A   1      17.384   0.086   6.338  0.00  0.00     0.039 A 
ATOM     15  C16 ZIN A   1      17.748  -0.705   5.273  0.00  0.00     0.026 A 
ATOM     16  C17 ZIN A   1      18.508  -1.840   5.499  0.00  0.00     0.034 A 
ATOM     17 Cl18 ZIN A   1      18.990  -2.845   4.167  0.00  0.00    -0.084 Cl
ATOM     18  C19 ZIN A   1      18.881  -2.169   6.783  0.00  0.00     0.034 A 
ATOM     19  C20 ZIN A   1      18.509  -1.383   7.874  0.00  0.00    -0.016 A 
ATOM     20  C21 ZIN A   1      18.929  -1.842   9.215  0.00  0.00     0.057 C 
ATOM     21  C23 ZIN A   1      18.827  -3.338   9.490  0.00  0.00     0.244 C 
ENDROOT
TORSDOF 0
ENDMDL
