MODEL 1
REMARK VINA RESULT:      -7.7      0.000      0.000
REMARK  3 active torsions:
REMARK  status: ('A' for Active; 'I' for Inactive)
REMARK    1  A    between atoms: C4_4  and  C5_5 
REMARK    2  A    between atoms: C5_5  and  N6_6 
REMARK    3  A    between atoms: C14_14  and  O15_15 
ROOT
ATOM      1  N6  ZIN A   1      20.022  -0.669  12.578  0.00  0.00    -0.063 N 
ATOM      2  H7  ZIN A   1      20.546  -1.529  12.631  0.00  0.00     0.280 HD
ATOM      3  C8  ZIN A   1      20.697   0.248  11.657  0.00  0.00     0.237 C 
ATOM      4  C9  ZIN A   1      19.909   1.559  11.565  0.00  0.00     0.042 C 
ATOM      5  C10 ZIN A   1      18.514   1.226  11.005  0.00  0.00    -0.009 C 
ATOM      6  C11 ZIN A   1      17.695   2.502  10.797  0.00  0.00     0.021 C 
ATOM      7  C12 ZIN A   1      18.718   0.490   9.701  0.00  0.00    -0.040 A 
ATOM      8  C13 ZIN A   1      18.836   1.243   8.544  0.00  0.00     0.045 A 
ATOM      9  C14 ZIN A   1      19.039   0.622   7.322  0.00  0.00     0.066 A 
ATOM     10  C16 ZIN A   1      19.126  -0.761   7.263  0.00  0.00     0.037 A 
ATOM     11  C17 ZIN A   1      19.002  -1.506   8.417  0.00  0.00     0.010 A 
ATOM     12  C18 ZIN A   1      18.789  -0.884   9.642  0.00  0.00    -0.049 A 
ATOM     13  C19 ZIN A   1      18.626  -1.764  10.852  0.00  0.00     0.072 C 
ATOM     14  C20 ZIN A   1      18.665  -0.969  12.145  0.00  0.00     0.197 C 
ATOM     15  C22 ZIN A   1      17.820   0.296  12.007  0.00  0.00     0.025 C 
ATOM     16  C24 ZIN A   1      16.424  -0.068  11.497  0.00  0.00     0.013 C 
ENDROOT
BRANCH   1  17
ATOM     17  C5  ZIN A   1      19.973  -0.056  13.912  0.00  0.00     0.263 C 
BRANCH  17  18
ATOM     18  C4  ZIN A   1      19.212  -0.958  14.850  0.00  0.00     0.003 C 
ATOM     19  C2  ZIN A   1      18.334  -0.449  15.680  0.00  0.00    -0.090 C 
ATOM     20  C1  ZIN A   1      17.996   1.019  15.612  0.00  0.00     0.042 C 
ATOM     21  C3  ZIN A   1      17.663  -1.330  16.701  0.00  0.00     0.042 C 
ENDBRANCH  17  18
ENDBRANCH   1  17
BRANCH   9  22
ATOM     22  O15 ZIN A   1      19.152   1.363   6.189  0.00  0.00    -0.361 OA
ATOM     23  H42 ZIN A   1      19.256   2.311   6.348  0.00  0.00     0.217 HD
ENDBRANCH   9  22
TORSDOF 3
ENDMDL
MODEL 2
REMARK VINA RESULT:      -7.6      2.730      6.177
REMARK  3 active torsions:
REMARK  status: ('A' for Active; 'I' for Inactive)
REMARK    1  A    between atoms: C4_4  and  C5_5 
REMARK    2  A    between atoms: C5_5  and  N6_6 
REMARK    3  A    between atoms: C14_14  and  O15_15 
ROOT
ATOM      1  N6  ZIN A   1      18.852   0.853  10.499  0.00  0.00    -0.063 N 
ATOM      2  H7  ZIN A   1      18.421   1.765  10.489  0.00  0.00     0.280 HD
ATOM      3  C8  ZIN A   1      19.904   0.833  11.518  0.00  0.00     0.237 C 
ATOM      4  C9  ZIN A   1      20.566  -0.549  11.547  0.00  0.00     0.042 C 
ATOM      5  C10 ZIN A   1      19.484  -1.576  11.926  0.00  0.00    -0.009 C 
ATOM      6  C11 ZIN A   1      20.091  -2.975  12.066  0.00  0.00     0.021 C 
ATOM      7  C12 ZIN A   1      18.867  -1.117  13.227  0.00  0.00    -0.040 A 
ATOM      8  C13 ZIN A   1      19.460  -1.532  14.408  0.00  0.00     0.045 A 
ATOM      9  C14 ZIN A   1      18.945  -1.129  15.629  0.00  0.00     0.066 A 
ATOM     10  C16 ZIN A   1      17.830  -0.305  15.664  0.00  0.00     0.037 A 
ATOM     11  C17 ZIN A   1      17.239   0.100  14.486  0.00  0.00     0.010 A 
ATOM     12  C18 ZIN A   1      17.751  -0.311  13.260  0.00  0.00    -0.049 A 
ATOM     13  C19 ZIN A   1      17.031   0.141  12.018  0.00  0.00     0.072 C 
ATOM     14  C20 ZIN A   1      17.829  -0.150  10.759  0.00  0.00     0.197 C 
ATOM     15  C22 ZIN A   1      18.417  -1.558  10.825  0.00  0.00     0.025 C 
ATOM     16  C24 ZIN A   1      17.313  -2.564  11.155  0.00  0.00     0.013 C 
ENDROOT
BRANCH   1  17
ATOM     17  C5  ZIN A   1      19.452   0.593   9.185  0.00  0.00     0.263 C 
BRANCH  17  18
ATOM     18  C4  ZIN A   1      18.401   0.739   8.115  0.00  0.00     0.003 C 
ATOM     19  C2  ZIN A   1      18.289  -0.171   7.178  0.00  0.00    -0.090 C 
ATOM     20  C1  ZIN A   1      19.126  -1.423   7.240  0.00  0.00     0.042 C 
ATOM     21  C3  ZIN A   1      17.323   0.034   6.040  0.00  0.00     0.042 C 
ENDBRANCH  17  18
ENDBRANCH   1  17
BRANCH   9  22
ATOM     22  O15 ZIN A   1      19.528  -1.539  16.786  0.00  0.00    -0.361 OA
ATOM     23  H42 ZIN A   1      18.977  -1.414  17.571  0.00  0.00     0.217 HD
ENDBRANCH   9  22
TORSDOF 3
ENDMDL
MODEL 3
REMARK VINA RESULT:      -7.4      1.433      1.877
REMARK  3 active torsions:
REMARK  status: ('A' for Active; 'I' for Inactive)
REMARK    1  A    between atoms: C4_4  and  C5_5 
REMARK    2  A    between atoms: C5_5  and  N6_6 
REMARK    3  A    between atoms: C14_14  and  O15_15 
ROOT
ATOM      1  N6  ZIN A   1      19.224  -1.959  12.598  0.00  0.00    -0.063 N 
ATOM      2  H7  ZIN A   1      19.165  -2.886  12.990  0.00  0.00     0.280 HD
ATOM      3  C8  ZIN A   1      20.310  -1.922  11.616  0.00  0.00     0.237 C 
ATOM      4  C9  ZIN A   1      20.408  -0.518  11.010  0.00  0.00     0.042 C 
ATOM      5  C10 ZIN A   1      19.077  -0.225  10.293  0.00  0.00    -0.009 C 
ATOM      6  C11 ZIN A   1      19.133   1.128   9.581  0.00  0.00     0.021 C 
ATOM      7  C12 ZIN A   1      18.841  -1.349   9.311  0.00  0.00    -0.040 A 
ATOM      8  C13 ZIN A   1      19.378  -1.223   8.041  0.00  0.00     0.045 A 
ATOM      9  C14 ZIN A   1      19.204  -2.230   7.105  0.00  0.00     0.066 A 
ATOM     10  C16 ZIN A   1      18.489  -3.367   7.447  0.00  0.00     0.037 A 
ATOM     11  C17 ZIN A   1      17.952  -3.485   8.712  0.00  0.00     0.010 A 
ATOM     12  C18 ZIN A   1      18.118  -2.472   9.649  0.00  0.00    -0.049 A 
ATOM     13  C19 ZIN A   1      17.471  -2.654  10.995  0.00  0.00     0.072 C 
ATOM     14  C20 ZIN A   1      17.942  -1.617  11.999  0.00  0.00     0.197 C 
ATOM     15  C22 ZIN A   1      17.968  -0.235  11.351  0.00  0.00     0.025 C 
ATOM     16  C24 ZIN A   1      16.618   0.051  10.689  0.00  0.00     0.013 C 
ENDROOT
BRANCH   1  17
ATOM     17  C5  ZIN A   1      19.518  -1.002  13.674  0.00  0.00     0.263 C 
BRANCH  17  18
ATOM     18  C4  ZIN A   1      18.754  -1.391  14.913  0.00  0.00     0.003 C 
ATOM     19  C2  ZIN A   1      17.938  -0.533  15.476  0.00  0.00    -0.090 C 
ATOM     20  C1  ZIN A   1      17.670   0.795  14.817  0.00  0.00     0.042 C 
ATOM     21  C3  ZIN A   1      17.268  -0.875  16.782  0.00  0.00     0.042 C 
ENDBRANCH  17  18
ENDBRANCH   1  17
BRANCH   9  22
ATOM     22  O15 ZIN A   1      19.731  -2.102   5.858  0.00  0.00    -0.361 OA
ATOM     23  H42 ZIN A   1      20.670  -1.874   5.850  0.00  0.00     0.217 HD
ENDBRANCH   9  22
TORSDOF 3
ENDMDL
MODEL 4
REMARK VINA RESULT:      -7.3      1.349      2.929
REMARK  3 active torsions:
REMARK  status: ('A' for Active; 'I' for Inactive)
REMARK    1  A    between atoms: C4_4  and  C5_5 
REMARK    2  A    between atoms: C5_5  and  N6_6 
REMARK    3  A    between atoms: C14_14  and  O15_15 
ROOT
ATOM      1  N6  ZIN A   1      17.463   0.924  13.153  0.00  0.00    -0.063 N 
ATOM      2  H7  ZIN A   1      16.946   1.778  13.297  0.00  0.00     0.280 HD
ATOM      3  C8  ZIN A   1      16.878   0.195  12.026  0.00  0.00     0.237 C 
ATOM      4  C9  ZIN A   1      17.656  -1.106  11.795  0.00  0.00     0.042 C 
ATOM      5  C10 ZIN A   1      19.106  -0.725  11.446  0.00  0.00    -0.009 C 
ATOM      6  C11 ZIN A   1      19.927  -1.973  11.110  0.00  0.00     0.021 C 
ATOM      7  C12 ZIN A   1      19.050   0.223  10.271  0.00  0.00    -0.040 A 
ATOM      8  C13 ZIN A   1      19.046  -0.322   8.997  0.00  0.00     0.045 A 
ATOM      9  C14 ZIN A   1      18.982   0.500   7.884  0.00  0.00     0.066 A 
ATOM     10  C16 ZIN A   1      18.919   1.875   8.051  0.00  0.00     0.037 A 
ATOM     11  C17 ZIN A   1      18.929   2.414   9.321  0.00  0.00     0.010 A 
ATOM     12  C18 ZIN A   1      19.003   1.589  10.438  0.00  0.00    -0.049 A 
ATOM     13  C19 ZIN A   1      19.047   2.250  11.790  0.00  0.00     0.072 C 
ATOM     14  C20 ZIN A   1      18.862   1.251  12.919  0.00  0.00     0.197 C 
ATOM     15  C22 ZIN A   1      19.701   0.003  12.657  0.00  0.00     0.025 C 
ATOM     16  C24 ZIN A   1      21.147   0.405  12.361  0.00  0.00     0.013 C 
ENDROOT
BRANCH   1  17
ATOM     17  C5  ZIN A   1      17.363   0.096  14.363  0.00  0.00     0.263 C 
BRANCH  17  18
ATOM     18  C4  ZIN A   1      18.003   0.819  15.520  0.00  0.00     0.003 C 
ATOM     19  C2  ZIN A   1      18.674   0.146  16.422  0.00  0.00    -0.090 C 
ATOM     20  C1  ZIN A   1      18.909  -1.331  16.239  0.00  0.00     0.042 C 
ATOM     21  C3  ZIN A   1      19.210   0.848  17.643  0.00  0.00     0.042 C 
ENDBRANCH  17  18
ENDBRANCH   1  17
BRANCH   9  22
ATOM     22  O15 ZIN A   1      18.980  -0.037   6.636  0.00  0.00    -0.361 OA
ATOM     23  H42 ZIN A   1      19.411   0.515   5.969  0.00  0.00     0.217 HD
ENDBRANCH   9  22
TORSDOF 3
ENDMDL
MODEL 5
REMARK VINA RESULT:      -7.2      2.709      6.155
REMARK  3 active torsions:
REMARK  status: ('A' for Active; 'I' for Inactive)
REMARK    1  A    between atoms: C4_4  and  C5_5 
REMARK    2  A    between atoms: C5_5  and  N6_6 
REMARK    3  A    between atoms: C14_14  and  O15_15 
ROOT
ATOM      1  N6  ZIN A   1      17.777  -0.937  10.782  0.00  0.00    -0.063 N 
ATOM      2  H7  ZIN A   1      17.501  -1.901  10.679  0.00  0.00     0.280 HD
ATOM      3  C8  ZIN A   1      16.801  -0.248  11.628  0.00  0.00     0.237 C 
ATOM      4  C9  ZIN A   1      17.210   1.220  11.796  0.00  0.00     0.042 C 
ATOM      5  C10 ZIN A   1      18.582   1.244  12.494  0.00  0.00    -0.009 C 
ATOM      6  C11 ZIN A   1      19.018   2.683  12.781  0.00  0.00     0.021 C 
ATOM      7  C12 ZIN A   1      18.448   0.450  13.773  0.00  0.00    -0.040 A 
ATOM      8  C13 ZIN A   1      18.027   1.119  14.910  0.00  0.00     0.045 A 
ATOM      9  C14 ZIN A   1      17.873   0.438  16.107  0.00  0.00     0.066 A 
ATOM     10  C16 ZIN A   1      18.141  -0.921  16.160  0.00  0.00     0.037 A 
ATOM     11  C17 ZIN A   1      18.566  -1.582  15.026  0.00  0.00     0.010 A 
ATOM     12  C18 ZIN A   1      18.730  -0.897  13.827  0.00  0.00    -0.049 A 
ATOM     13  C19 ZIN A   1      19.233  -1.677  12.642  0.00  0.00     0.072 C 
ATOM     14  C20 ZIN A   1      19.116  -0.887  11.350  0.00  0.00     0.197 C 
ATOM     15  C22 ZIN A   1      19.588   0.549  11.569  0.00  0.00     0.025 C 
ATOM     16  C24 ZIN A   1      20.973   0.544  12.218  0.00  0.00     0.013 C 
ENDROOT
BRANCH   1  17
ATOM     17  C5  ZIN A   1      17.797  -0.301   9.458  0.00  0.00     0.263 C 
BRANCH  17  18
ATOM     18  C4  ZIN A   1      18.397  -1.251   8.454  0.00  0.00     0.003 C 
ATOM     19  C2  ZIN A   1      18.787  -0.808   7.284  0.00  0.00    -0.090 C 
ATOM     20  C1  ZIN A   1      18.750   0.669   6.988  0.00  0.00     0.042 C 
ATOM     21  C3  ZIN A   1      19.273  -1.775   6.235  0.00  0.00     0.042 C 
ENDBRANCH  17  18
ENDBRANCH   1  17
BRANCH   9  22
ATOM     22  O15 ZIN A   1      17.461   1.097  17.221  0.00  0.00    -0.361 OA
ATOM     23  H42 ZIN A   1      16.533   1.369  17.197  0.00  0.00     0.217 HD
ENDBRANCH   9  22
TORSDOF 3
ENDMDL
MODEL 6
REMARK VINA RESULT:      -7.2      2.529      4.693
REMARK  3 active torsions:
REMARK  status: ('A' for Active; 'I' for Inactive)
REMARK    1  A    between atoms: C4_4  and  C5_5 
REMARK    2  A    between atoms: C5_5  and  N6_6 
REMARK    3  A    between atoms: C14_14  and  O15_15 
ROOT
ATOM      1  N6  ZIN A   1      18.731  -1.204   9.313  0.00  0.00    -0.063 N 
ATOM      2  H7  ZIN A   1      18.371  -1.050   8.383  0.00  0.00     0.280 HD
ATOM      3  C8  ZIN A   1      19.938  -0.397   9.498  0.00  0.00     0.237 C 
ATOM      4  C9  ZIN A   1      20.494  -0.618  10.909  0.00  0.00     0.042 C 
ATOM      5  C10 ZIN A   1      19.423  -0.151  11.911  0.00  0.00    -0.009 C 
ATOM      6  C11 ZIN A   1      19.942  -0.256  13.347  0.00  0.00     0.021 C 
ATOM      7  C12 ZIN A   1      19.074   1.277  11.560  0.00  0.00    -0.040 A 
ATOM      8  C13 ZIN A   1      19.831   2.288  12.130  0.00  0.00     0.045 A 
ATOM      9  C14 ZIN A   1      19.564   3.614  11.832  0.00  0.00     0.066 A 
ATOM     10  C16 ZIN A   1      18.534   3.926  10.958  0.00  0.00     0.037 A 
ATOM     11  C17 ZIN A   1      17.780   2.916  10.397  0.00  0.00     0.010 A 
ATOM     12  C18 ZIN A   1      18.041   1.585  10.703  0.00  0.00    -0.049 A 
ATOM     13  C19 ZIN A   1      17.152   0.540  10.083  0.00  0.00     0.072 C 
ATOM     14  C20 ZIN A   1      17.698  -0.862  10.281  0.00  0.00     0.197 C 
ATOM     15  C22 ZIN A   1      18.187  -1.037  11.717  0.00  0.00     0.025 C 
ATOM     16  C24 ZIN A   1      17.086  -0.613  12.692  0.00  0.00     0.013 C 
ENDROOT
BRANCH   1  17
ATOM     17  C5  ZIN A   1      19.076  -2.623   9.463  0.00  0.00     0.263 C 
BRANCH  17  18
ATOM     18  C4  ZIN A   1      17.841  -3.464   9.263  0.00  0.00     0.003 C 
ATOM     19  C2  ZIN A   1      17.586  -4.459  10.077  0.00  0.00    -0.090 C 
ATOM     20  C1  ZIN A   1      18.460  -4.687  11.284  0.00  0.00     0.042 C 
ATOM     21  C3  ZIN A   1      16.421  -5.375   9.806  0.00  0.00     0.042 C 
ENDBRANCH  17  18
ENDBRANCH   1  17
BRANCH   9  22
ATOM     22  O15 ZIN A   1      20.306   4.604  12.394  0.00  0.00    -0.361 OA
ATOM     23  H42 ZIN A   1      20.266   4.626  13.360  0.00  0.00     0.217 HD
ENDBRANCH   9  22
TORSDOF 3
ENDMDL
MODEL 7
REMARK VINA RESULT:      -7.1      1.532      2.822
REMARK  3 active torsions:
REMARK  status: ('A' for Active; 'I' for Inactive)
REMARK    1  A    between atoms: C4_4  and  C5_5 
REMARK    2  A    between atoms: C5_5  and  N6_6 
REMARK    3  A    between atoms: C14_14  and  O15_15 
ROOT
ATOM      1  N6  ZIN A   1      18.838  -0.263  13.293  0.00  0.00    -0.063 N 
ATOM      2  H7  ZIN A   1      19.277   0.616  13.521  0.00  0.00     0.280 HD
ATOM      3  C8  ZIN A   1      17.675  -0.011  12.442  0.00  0.00     0.237 C 
ATOM      4  C9  ZIN A   1      16.999  -1.340  12.086  0.00  0.00     0.042 C 
ATOM      5  C10 ZIN A   1      18.018  -2.185  11.300  0.00  0.00    -0.009 C 
ATOM      6  C11 ZIN A   1      17.384  -3.496  10.828  0.00  0.00     0.021 C 
ATOM      7  C12 ZIN A   1      18.484  -1.351  10.129  0.00  0.00    -0.040 A 
ATOM      8  C13 ZIN A   1      17.752  -1.417   8.955  0.00  0.00     0.045 A 
ATOM      9  C14 ZIN A   1      18.126  -0.663   7.854  0.00  0.00     0.066 A 
ATOM     10  C16 ZIN A   1      19.238   0.161   7.934  0.00  0.00     0.037 A 
ATOM     11  C17 ZIN A   1      19.966   0.219   9.104  0.00  0.00     0.010 A 
ATOM     12  C18 ZIN A   1      19.597  -0.544  10.206  0.00  0.00    -0.049 A 
ATOM     13  C19 ZIN A   1      20.462  -0.457  11.435  0.00  0.00     0.072 C 
ATOM     14  C20 ZIN A   1      19.813  -1.122  12.636  0.00  0.00     0.197 C 
ATOM     15  C22 ZIN A   1      19.206  -2.463  12.229  0.00  0.00     0.025 C 
ATOM     16  C24 ZIN A   1      20.253  -3.302  11.495  0.00  0.00     0.013 C 
ENDROOT
BRANCH   1  17
ATOM     17  C5  ZIN A   1      18.392  -0.910  14.534  0.00  0.00     0.263 C 
BRANCH  17  18
ATOM     18  C4  ZIN A   1      19.148  -0.330  15.702  0.00  0.00     0.003 C 
ATOM     19  C2  ZIN A   1      18.529  -0.097  16.833  0.00  0.00    -0.090 C 
ATOM     20  C1  ZIN A   1      17.093  -0.523  17.007  0.00  0.00     0.042 C 
ATOM     21  C3  ZIN A   1      19.251   0.595  17.960  0.00  0.00     0.042 C 
ENDBRANCH  17  18
ENDBRANCH   1  17
BRANCH   9  22
ATOM     22  O15 ZIN A   1      17.408  -0.732   6.703  0.00  0.00    -0.361 OA
ATOM     23  H42 ZIN A   1      16.459  -0.588   6.822  0.00  0.00     0.217 HD
ENDBRANCH   9  22
TORSDOF 3
ENDMDL
MODEL 8
REMARK VINA RESULT:      -6.7      3.099      6.175
REMARK  3 active torsions:
REMARK  status: ('A' for Active; 'I' for Inactive)
REMARK    1  A    between atoms: C4_4  and  C5_5 
REMARK    2  A    between atoms: C5_5  and  N6_6 
REMARK    3  A    between atoms: C14_14  and  O15_15 
ROOT
ATOM      1  N6  ZIN A   1      18.620  -2.545  11.463  0.00  0.00    -0.063 N 
ATOM      2  H7  ZIN A   1      18.866  -3.508  11.634  0.00  0.00     0.280 HD
ATOM      3  C8  ZIN A   1      17.344  -2.253  12.119  0.00  0.00     0.237 C 
ATOM      4  C9  ZIN A   1      16.960  -0.790  11.870  0.00  0.00     0.042 C 
ATOM      5  C10 ZIN A   1      18.056   0.092  12.494  0.00  0.00    -0.009 C 
ATOM      6  C11 ZIN A   1      17.695   1.574  12.366  0.00  0.00     0.021 C 
ATOM      7  C12 ZIN A   1      18.187  -0.314  13.944  0.00  0.00    -0.040 A 
ATOM      8  C13 ZIN A   1      17.367   0.312  14.869  0.00  0.00     0.045 A 
ATOM      9  C14 ZIN A   1      17.435  -0.031  16.209  0.00  0.00     0.066 A 
ATOM     10  C16 ZIN A   1      18.327  -1.009  16.622  0.00  0.00     0.037 A 
ATOM     11  C17 ZIN A   1      19.145  -1.625  15.698  0.00  0.00     0.010 A 
ATOM     12  C18 ZIN A   1      19.084  -1.275  14.353  0.00  0.00    -0.049 A 
ATOM     13  C19 ZIN A   1      20.033  -1.963  13.410  0.00  0.00     0.072 C 
ATOM     14  C20 ZIN A   1      19.690  -1.690  11.956  0.00  0.00     0.197 C 
ATOM     15  C22 ZIN A   1      19.369  -0.210  11.763  0.00  0.00     0.025 C 
ATOM     16  C24 ZIN A   1      20.496   0.644  12.348  0.00  0.00     0.013 C 
ENDROOT
BRANCH   1  17
ATOM     17  C5  ZIN A   1      18.473  -2.339  10.016  0.00  0.00     0.263 C 
BRANCH  17  18
ATOM     18  C4  ZIN A   1      19.202  -3.431   9.277  0.00  0.00     0.003 C 
ATOM     19  C2  ZIN A   1      18.555  -4.501   8.885  0.00  0.00    -0.090 C 
ATOM     20  C1  ZIN A   1      17.061  -4.586   9.063  0.00  0.00     0.042 C 
ATOM     21  C3  ZIN A   1      19.305  -5.647   8.256  0.00  0.00     0.042 C 
ENDBRANCH  17  18
ENDBRANCH   1  17
BRANCH   9  22
ATOM     22  O15 ZIN A   1      16.631   0.586  17.115  0.00  0.00    -0.361 OA
ATOM     23  H42 ZIN A   1      16.655   0.190  17.997  0.00  0.00     0.217 HD
ENDBRANCH   9  22
TORSDOF 3
ENDMDL
MODEL 9
REMARK VINA RESULT:      -6.6      2.806      5.592
REMARK  3 active torsions:
REMARK  status: ('A' for Active; 'I' for Inactive)
REMARK    1  A    between atoms: C4_4  and  C5_5 
REMARK    2  A    between atoms: C5_5  and  N6_6 
REMARK    3  A    between atoms: C14_14  and  O15_15 
ROOT
ATOM      1  N6  ZIN A   1      19.841   0.898  10.567  0.00  0.00    -0.063 N 
ATOM      2  H7  ZIN A   1      20.150   1.508   9.826  0.00  0.00     0.280 HD
ATOM      3  C8  ZIN A   1      20.437   1.340  11.830  0.00  0.00     0.237 C 
ATOM      4  C9  ZIN A   1      19.973   0.423  12.967  0.00  0.00     0.042 C 
ATOM      5  C10 ZIN A   1      18.442   0.544  13.068  0.00  0.00    -0.009 C 
ATOM      6  C11 ZIN A   1      17.911  -0.276  14.247  0.00  0.00     0.021 C 
ATOM      7  C12 ZIN A   1      18.118   2.010  13.235  0.00  0.00    -0.040 A 
ATOM      8  C13 ZIN A   1      18.092   2.526  14.520  0.00  0.00     0.045 A 
ATOM      9  C14 ZIN A   1      17.814   3.867  14.730  0.00  0.00     0.066 A 
ATOM     10  C16 ZIN A   1      17.564   4.693  13.645  0.00  0.00     0.037 A 
ATOM     11  C17 ZIN A   1      17.586   4.173  12.367  0.00  0.00     0.010 A 
ATOM     12  C18 ZIN A   1      17.855   2.826  12.157  0.00  0.00    -0.049 A 
ATOM     13  C19 ZIN A   1      17.824   2.323  10.738  0.00  0.00     0.072 C 
ATOM     14  C20 ZIN A   1      18.386   0.917  10.620  0.00  0.00     0.197 C 
ATOM     15  C22 ZIN A   1      17.847   0.040  11.748  0.00  0.00     0.025 C 
ATOM     16  C24 ZIN A   1      16.321   0.140  11.795  0.00  0.00     0.013 C 
ENDROOT
BRANCH   1  17
ATOM     17  C5  ZIN A   1      20.290  -0.470  10.279  0.00  0.00     0.263 C 
BRANCH  17  18
ATOM     18  C4  ZIN A   1      19.623  -0.963   9.021  0.00  0.00     0.003 C 
ATOM     19  C2  ZIN A   1      19.120  -2.172   8.976  0.00  0.00    -0.090 C 
ATOM     20  C1  ZIN A   1      19.097  -3.025  10.218  0.00  0.00     0.042 C 
ATOM     21  C3  ZIN A   1      18.564  -2.709   7.683  0.00  0.00     0.042 C 
ENDBRANCH  17  18
ENDBRANCH   1  17
BRANCH   9  22
ATOM     22  O15 ZIN A   1      17.787   4.371  15.992  0.00  0.00    -0.361 OA
ATOM     23  H42 ZIN A   1      17.513   5.297  16.041  0.00  0.00     0.217 HD
ENDBRANCH   9  22
TORSDOF 3
ENDMDL
