MODEL 1
REMARK VINA RESULT:      -9.1      0.000      0.000
REMARK  19 active torsions:
REMARK  status: ('A' for Active; 'I' for Inactive)
REMARK    1  A    between atoms: C2_2  and  C4_4 
REMARK    2  A    between atoms: C6_6  and  C7_7 
REMARK    3  A    between atoms: C7_7  and  N8_8 
REMARK       I    between atoms: N8_8  and  C10_10 
REMARK       I    between atoms: C10_10  and  N12_12 
REMARK    4  A    between atoms: N12_12  and  C13_13 
REMARK    5  A    between atoms: C13_13  and  C15_14 
REMARK    6  A    between atoms: C13_13  and  C50_46 
REMARK       I    between atoms: C15_14  and  N17_16 
REMARK    7  A    between atoms: N17_16  and  C18_17 
REMARK    8  A    between atoms: C18_17  and  C20_18 
REMARK    9  A    between atoms: C18_17  and  C27_25 
REMARK   10  A    between atoms: C20_18  and  C21_19 
REMARK   11  A    between atoms: C27_25  and  C28_26 
REMARK   12  A    between atoms: C28_26  and  O30_27 
REMARK   13  A    between atoms: C28_26  and  C31_28 
REMARK   14  A    between atoms: C31_28  and  C33_29 
REMARK   15  A    between atoms: C31_28  and  N40_36 
REMARK   16  A    between atoms: C33_29  and  C34_30 
REMARK       I    between atoms: N40_36  and  C41_37 
REMARK   17  A    between atoms: C41_37  and  O43_39 
REMARK   18  A    between atoms: O43_39  and  C44_40 
REMARK   19  A    between atoms: C44_40  and  C45_41 
ROOT
ATOM      1  C18 ZIN A   1      19.282   1.415  12.683  0.00  0.00     0.091 C 
ENDROOT
BRANCH   1   2
ATOM      2  N17 ZIN A   1      19.616   1.281  14.103  0.00  0.00    -0.354 N 
ATOM      3  C15 ZIN A   1      18.633   1.171  15.018  0.00  0.00     0.241 C 
ATOM      4  O16 ZIN A   1      17.478   1.080  14.660  0.00  0.00    -0.271 OA
ATOM      5  H68 ZIN A   1      20.544   1.271  14.384  0.00  0.00     0.162 HD
BRANCH   3   6
ATOM      6  C13 ZIN A   1      18.970   1.159  16.488  0.00  0.00     0.181 C 
BRANCH   6   7
ATOM      7  N12 ZIN A   1      18.372   2.330  17.134  0.00  0.00    -0.329 N 
ATOM      8  C10 ZIN A   1      18.847   3.563  16.867  0.00  0.00     0.319 C 
ATOM      9  N8  ZIN A   1      18.298   4.640  17.462  0.00  0.00    -0.333 N 
ATOM     10  O11 ZIN A   1      19.773   3.702  16.089  0.00  0.00    -0.247 OA
ATOM     11  C9  ZIN A   1      17.186   4.472  18.399  0.00  0.00     0.154 C 
ATOM     12  H67 ZIN A   1      17.635   2.218  17.755  0.00  0.00     0.165 HD
BRANCH   9  13
ATOM     13  C7  ZIN A   1      18.815   5.980  17.171  0.00  0.00     0.186 C 
BRANCH  13  14
ATOM     14  C6  ZIN A   1      17.799   6.747  16.365  0.00  0.00     0.060 A 
ATOM     15  N5  ZIN A   1      16.499   6.576  16.509  0.00  0.00    -0.248 NA
ATOM     16  C4  ZIN A   1      15.726   7.290  15.762  0.00  0.00     0.078 A 
ATOM     17  S54 ZIN A   1      16.658   8.299  14.744  0.00  0.00    -0.084 SA
ATOM     18  C53 ZIN A   1      18.140   7.655  15.446  0.00  0.00     0.080 A 
BRANCH  16  19
ATOM     19  C2  ZIN A   1      14.220   7.237  15.780  0.00  0.00     0.037 C 
ATOM     20  C1  ZIN A   1      13.657   8.607  15.398  0.00  0.00     0.016 C 
ATOM     21  C3  ZIN A   1      13.735   6.187  14.778  0.00  0.00     0.016 C 
ENDBRANCH  16  19
ENDBRANCH  13  14
ENDBRANCH   9  13
ENDBRANCH   6   7
BRANCH   6  22
ATOM     22  C50 ZIN A   1      18.416  -0.115  17.127  0.00  0.00     0.009 C 
ATOM     23  C51 ZIN A   1      19.062  -1.338  16.474  0.00  0.00     0.012 C 
ATOM     24  C52 ZIN A   1      18.729  -0.112  18.625  0.00  0.00     0.012 C 
ENDBRANCH   6  22
ENDBRANCH   3   6
ENDBRANCH   1   2
BRANCH   1  25
ATOM     25  C20 ZIN A   1      19.791   2.762  12.165  0.00  0.00     0.063 C 
BRANCH  25  26
ATOM     26  C21 ZIN A   1      18.626   3.695  11.962  0.00  0.00    -0.056 A 
ATOM     27  C26 ZIN A   1      18.168   3.960  10.685  0.00  0.00     0.007 A 
ATOM     28  C25 ZIN A   1      17.096   4.813  10.499  0.00  0.00     0.001 A 
ATOM     29  C24 ZIN A   1      16.488   5.407  11.589  0.00  0.00     0.000 A 
ATOM     30  C23 ZIN A   1      16.950   5.146  12.865  0.00  0.00     0.001 A 
ATOM     31  C22 ZIN A   1      18.019   4.290  13.052  0.00  0.00     0.007 A 
ENDBRANCH  25  26
ENDBRANCH   1  25
BRANCH   1  32
ATOM     32  C27 ZIN A   1      19.942   0.282  11.894  0.00  0.00     0.059 C 
BRANCH  32  33
ATOM     33  C28 ZIN A   1      19.110  -0.994  12.041  0.00  0.00     0.143 C 
BRANCH  33  34
ATOM     34  O30 ZIN A   1      19.967  -2.082  12.392  0.00  0.00    -0.393 OA
ATOM     35  H78 ZIN A   1      19.516  -2.808  12.846  0.00  0.00     0.210 HD
ENDBRANCH  33  34
BRANCH  33  36
ATOM     36  C31 ZIN A   1      18.412  -1.302  10.715  0.00  0.00     0.119 C 
BRANCH  36  37
ATOM     37  C33 ZIN A   1      17.567  -0.099  10.292  0.00  0.00     0.066 C 
BRANCH  37  38
ATOM     38  C34 ZIN A   1      17.868   0.247   8.856  0.00  0.00    -0.056 A 
ATOM     39  C39 ZIN A   1      18.851   1.171   8.558  0.00  0.00     0.007 A 
ATOM     40  C38 ZIN A   1      19.129   1.485   7.241  0.00  0.00     0.001 A 
ATOM     41  C37 ZIN A   1      18.418   0.881   6.222  0.00  0.00     0.000 A 
ATOM     42  C36 ZIN A   1      17.431  -0.040   6.519  0.00  0.00     0.001 A 
ATOM     43  C35 ZIN A   1      17.156  -0.358   7.836  0.00  0.00     0.007 A 
ENDBRANCH  37  38
ENDBRANCH  36  37
BRANCH  36  44
ATOM     44  N40 ZIN A   1      17.546  -2.472  10.879  0.00  0.00    -0.329 N 
ATOM     45  C41 ZIN A   1      17.615  -3.491   9.998  0.00  0.00     0.361 C 
ATOM     46  O42 ZIN A   1      18.395  -3.437   9.068  0.00  0.00    -0.238 OA
ATOM     47  H86 ZIN A   1      16.923  -2.515  11.622  0.00  0.00     0.165 HD
BRANCH  45  48
ATOM     48  O43 ZIN A   1      16.820  -4.567  10.149  0.00  0.00    -0.299 OA
BRANCH  48  49
ATOM     49  C44 ZIN A   1      17.171  -5.757   9.396  0.00  0.00     0.228 C 
BRANCH  49  50
ATOM     50  C45 ZIN A   1      16.188  -5.948   8.271  0.00  0.00     0.025 A 
ATOM     51  S49 ZIN A   1      16.588  -6.147   6.566  0.00  0.00    -0.084 SA
ATOM     52  C48 ZIN A   1      14.927  -6.279   6.183  0.00  0.00     0.166 A 
ATOM     53  N47 ZIN A   1      14.214  -6.168   7.252  0.00  0.00    -0.265 NA
ATOM     54  C46 ZIN A   1      14.857  -5.990   8.389  0.00  0.00     0.133 A 
ENDBRANCH  49  50
ENDBRANCH  48  49
ENDBRANCH  45  48
ENDBRANCH  36  44
ENDBRANCH  33  36
ENDBRANCH  32  33
ENDBRANCH   1  32
TORSDOF 19
ENDMDL
MODEL 2
REMARK VINA RESULT:      -9.0      2.767     11.350
REMARK  19 active torsions:
REMARK  status: ('A' for Active; 'I' for Inactive)
REMARK    1  A    between atoms: C2_2  and  C4_4 
REMARK    2  A    between atoms: C6_6  and  C7_7 
REMARK    3  A    between atoms: C7_7  and  N8_8 
REMARK       I    between atoms: N8_8  and  C10_10 
REMARK       I    between atoms: C10_10  and  N12_12 
REMARK    4  A    between atoms: N12_12  and  C13_13 
REMARK    5  A    between atoms: C13_13  and  C15_14 
REMARK    6  A    between atoms: C13_13  and  C50_46 
REMARK       I    between atoms: C15_14  and  N17_16 
REMARK    7  A    between atoms: N17_16  and  C18_17 
REMARK    8  A    between atoms: C18_17  and  C20_18 
REMARK    9  A    between atoms: C18_17  and  C27_25 
REMARK   10  A    between atoms: C20_18  and  C21_19 
REMARK   11  A    between atoms: C27_25  and  C28_26 
REMARK   12  A    between atoms: C28_26  and  O30_27 
REMARK   13  A    between atoms: C28_26  and  C31_28 
REMARK   14  A    between atoms: C31_28  and  C33_29 
REMARK   15  A    between atoms: C31_28  and  N40_36 
REMARK   16  A    between atoms: C33_29  and  C34_30 
REMARK       I    between atoms: N40_36  and  C41_37 
REMARK   17  A    between atoms: C41_37  and  O43_39 
REMARK   18  A    between atoms: O43_39  and  C44_40 
REMARK   19  A    between atoms: C44_40  and  C45_41 
ROOT
ATOM      1  C18 ZIN A   1      19.143  -2.518  10.478  0.00  0.00     0.091 C 
ENDROOT
BRANCH   1   2
ATOM      2  N17 ZIN A   1      19.523  -1.983   9.168  0.00  0.00    -0.354 N 
ATOM      3  C15 ZIN A   1      18.576  -1.527   8.326  0.00  0.00     0.241 C 
ATOM      4  O16 ZIN A   1      17.421  -1.464   8.688  0.00  0.00    -0.271 OA
ATOM      5  H68 ZIN A   1      20.458  -1.957   8.908  0.00  0.00     0.162 HD
BRANCH   3   6
ATOM      6  C13 ZIN A   1      18.953  -1.094   6.932  0.00  0.00     0.181 C 
BRANCH   6   7
ATOM      7  N12 ZIN A   1      18.179  -1.865   5.956  0.00  0.00    -0.329 N 
ATOM      8  C10 ZIN A   1      18.444  -3.173   5.766  0.00  0.00     0.319 C 
ATOM      9  N8  ZIN A   1      17.732  -3.882   4.869  0.00  0.00    -0.333 N 
ATOM     10  O11 ZIN A   1      19.328  -3.713   6.406  0.00  0.00    -0.247 OA
ATOM     11  C9  ZIN A   1      16.670  -3.232   4.098  0.00  0.00     0.154 C 
ATOM     12  H67 ZIN A   1      17.475  -1.434   5.445  0.00  0.00     0.165 HD
BRANCH   9  13
ATOM     13  C7  ZIN A   1      18.022  -5.303   4.663  0.00  0.00     0.186 C 
BRANCH  13  14
ATOM     14  C6  ZIN A   1      16.728  -6.068   4.544  0.00  0.00     0.060 A 
ATOM     15  N5  ZIN A   1      16.005  -6.412   5.591  0.00  0.00    -0.248 NA
ATOM     16  C4  ZIN A   1      14.915  -7.065   5.365  0.00  0.00     0.078 A 
ATOM     17  S54 ZIN A   1      14.717  -7.315   3.685  0.00  0.00    -0.084 SA
ATOM     18  C53 ZIN A   1      16.221  -6.453   3.369  0.00  0.00     0.080 A 
BRANCH  16  19
ATOM     19  C2  ZIN A   1      13.960  -7.544   6.427  0.00  0.00     0.037 C 
ATOM     20  C1  ZIN A   1      13.262  -6.341   7.065  0.00  0.00     0.016 C 
ATOM     21  C3  ZIN A   1      12.915  -8.465   5.794  0.00  0.00     0.016 C 
ENDBRANCH  16  19
ENDBRANCH  13  14
ENDBRANCH   9  13
ENDBRANCH   6   7
BRANCH   6  22
ATOM     22  C50 ZIN A   1      18.651   0.395   6.762  0.00  0.00     0.009 C 
ATOM     23  C51 ZIN A   1      19.416   1.196   7.816  0.00  0.00     0.012 C 
ATOM     24  C52 ZIN A   1      19.083   0.847   5.365  0.00  0.00     0.012 C 
ENDBRANCH   6  22
ENDBRANCH   3   6
ENDBRANCH   1   2
BRANCH   1  25
ATOM     25  C20 ZIN A   1      19.579  -3.981  10.578  0.00  0.00     0.063 C 
BRANCH  25  26
ATOM     26  C21 ZIN A   1      18.500  -4.867  10.012  0.00  0.00    -0.056 A 
ATOM     27  C26 ZIN A   1      18.834  -5.915   9.176  0.00  0.00     0.007 A 
ATOM     28  C25 ZIN A   1      17.844  -6.731   8.661  0.00  0.00     0.001 A 
ATOM     29  C24 ZIN A   1      16.519  -6.493   8.975  0.00  0.00     0.000 A 
ATOM     30  C23 ZIN A   1      16.184  -5.441   9.807  0.00  0.00     0.001 A 
ATOM     31  C22 ZIN A   1      17.174  -4.628  10.325  0.00  0.00     0.007 A 
ENDBRANCH  25  26
ENDBRANCH   1  25
BRANCH   1  32
ATOM     32  C27 ZIN A   1      19.826  -1.705  11.579  0.00  0.00     0.059 C 
BRANCH  32  33
ATOM     33  C28 ZIN A   1      20.252  -0.346  11.020  0.00  0.00     0.143 C 
BRANCH  33  34
ATOM     34  O30 ZIN A   1      21.605  -0.079  11.398  0.00  0.00    -0.393 OA
ATOM     35  H78 ZIN A   1      22.180  -0.856  11.377  0.00  0.00     0.210 HD
ENDBRANCH  33  34
BRANCH  33  36
ATOM     36  C31 ZIN A   1      19.341   0.746  11.585  0.00  0.00     0.119 C 
BRANCH  36  37
ATOM     37  C33 ZIN A   1      20.016   2.108  11.420  0.00  0.00     0.066 C 
BRANCH  37  38
ATOM     38  C34 ZIN A   1      18.981   3.199  11.531  0.00  0.00    -0.056 A 
ATOM     39  C39 ZIN A   1      18.920   3.982  12.668  0.00  0.00     0.007 A 
ATOM     40  C38 ZIN A   1      17.973   4.984  12.766  0.00  0.00     0.001 A 
ATOM     41  C37 ZIN A   1      17.082   5.197  11.732  0.00  0.00     0.000 A 
ATOM     42  C36 ZIN A   1      17.140   4.411  10.597  0.00  0.00     0.001 A 
ATOM     43  C35 ZIN A   1      18.090   3.412  10.496  0.00  0.00     0.007 A 
ENDBRANCH  37  38
ENDBRANCH  36  37
BRANCH  36  44
ATOM     44  N40 ZIN A   1      19.095   0.491  13.007  0.00  0.00    -0.329 N 
ATOM     45  C41 ZIN A   1      17.832   0.395  13.466  0.00  0.00     0.361 C 
ATOM     46  O42 ZIN A   1      16.897   0.521  12.701  0.00  0.00    -0.238 OA
ATOM     47  H86 ZIN A   1      19.843   0.391  13.617  0.00  0.00     0.165 HD
BRANCH  45  48
ATOM     48  O43 ZIN A   1      17.607   0.161  14.772  0.00  0.00    -0.299 OA
BRANCH  48  49
ATOM     49  C44 ZIN A   1      18.761  -0.154  15.595  0.00  0.00     0.228 C 
BRANCH  49  50
ATOM     50  C45 ZIN A   1      18.974   0.944  16.604  0.00  0.00     0.025 A 
ATOM     51  S49 ZIN A   1      18.819   0.790  18.352  0.00  0.00    -0.084 SA
ATOM     52  C48 ZIN A   1      19.230   2.439  18.542  0.00  0.00     0.166 A 
ATOM     53  N47 ZIN A   1      19.437   2.981  17.390  0.00  0.00    -0.265 NA
ATOM     54  C46 ZIN A   1      19.308   2.209  16.330  0.00  0.00     0.133 A 
ENDBRANCH  49  50
ENDBRANCH  48  49
ENDBRANCH  45  48
ENDBRANCH  36  44
ENDBRANCH  33  36
ENDBRANCH  32  33
ENDBRANCH   1  32
TORSDOF 19
ENDMDL
MODEL 3
REMARK VINA RESULT:      -9.0      2.850     11.558
REMARK  19 active torsions:
REMARK  status: ('A' for Active; 'I' for Inactive)
REMARK    1  A    between atoms: C2_2  and  C4_4 
REMARK    2  A    between atoms: C6_6  and  C7_7 
REMARK    3  A    between atoms: C7_7  and  N8_8 
REMARK       I    between atoms: N8_8  and  C10_10 
REMARK       I    between atoms: C10_10  and  N12_12 
REMARK    4  A    between atoms: N12_12  and  C13_13 
REMARK    5  A    between atoms: C13_13  and  C15_14 
REMARK    6  A    between atoms: C13_13  and  C50_46 
REMARK       I    between atoms: C15_14  and  N17_16 
REMARK    7  A    between atoms: N17_16  and  C18_17 
REMARK    8  A    between atoms: C18_17  and  C20_18 
REMARK    9  A    between atoms: C18_17  and  C27_25 
REMARK   10  A    between atoms: C20_18  and  C21_19 
REMARK   11  A    between atoms: C27_25  and  C28_26 
REMARK   12  A    between atoms: C28_26  and  O30_27 
REMARK   13  A    between atoms: C28_26  and  C31_28 
REMARK   14  A    between atoms: C31_28  and  C33_29 
REMARK   15  A    between atoms: C31_28  and  N40_36 
REMARK   16  A    between atoms: C33_29  and  C34_30 
REMARK       I    between atoms: N40_36  and  C41_37 
REMARK   17  A    between atoms: C41_37  and  O43_39 
REMARK   18  A    between atoms: O43_39  and  C44_40 
REMARK   19  A    between atoms: C44_40  and  C45_41 
ROOT
ATOM      1  C18 ZIN A   1      18.977  -2.981  10.582  0.00  0.00     0.091 C 
ENDROOT
BRANCH   1   2
ATOM      2  N17 ZIN A   1      19.440  -2.265   9.390  0.00  0.00    -0.354 N 
ATOM      3  C15 ZIN A   1      18.553  -1.625   8.603  0.00  0.00     0.241 C 
ATOM      4  O16 ZIN A   1      17.388  -1.555   8.932  0.00  0.00    -0.271 OA
ATOM      5  H68 ZIN A   1      20.384  -2.252   9.169  0.00  0.00     0.162 HD
BRANCH   3   6
ATOM      6  C13 ZIN A   1      19.010  -0.996   7.311  0.00  0.00     0.181 C 
BRANCH   6   7
ATOM      7  N12 ZIN A   1      18.320  -1.634   6.187  0.00  0.00    -0.329 N 
ATOM      8  C10 ZIN A   1      18.560  -2.928   5.896  0.00  0.00     0.319 C 
ATOM      9  N8  ZIN A   1      17.926  -3.515   4.862  0.00  0.00    -0.333 N 
ATOM     10  O11 ZIN A   1      19.349  -3.565   6.568  0.00  0.00    -0.247 OA
ATOM     11  C9  ZIN A   1      16.976  -2.746   4.054  0.00  0.00     0.154 C 
ATOM     12  H67 ZIN A   1      17.691  -1.124   5.652  0.00  0.00     0.165 HD
BRANCH   9  13
ATOM     13  C7  ZIN A   1      18.186  -4.921   4.546  0.00  0.00     0.186 C 
BRANCH  13  14
ATOM     14  C6  ZIN A   1      16.905  -5.585   4.113  0.00  0.00     0.060 A 
ATOM     15  N5  ZIN A   1      15.872  -5.734   4.919  0.00  0.00    -0.248 NA
ATOM     16  C4  ZIN A   1      14.828  -6.319   4.435  0.00  0.00     0.078 A 
ATOM     17  S54 ZIN A   1      15.102  -6.762   2.807  0.00  0.00    -0.084 SA
ATOM     18  C53 ZIN A   1      16.722  -6.072   2.882  0.00  0.00     0.080 A 
BRANCH  16  19
ATOM     19  C2  ZIN A   1      13.554  -6.580   5.198  0.00  0.00     0.037 C 
ATOM     20  C1  ZIN A   1      13.096  -8.017   4.947  0.00  0.00     0.016 C 
ATOM     21  C3  ZIN A   1      13.805  -6.377   6.693  0.00  0.00     0.016 C 
ENDBRANCH  16  19
ENDBRANCH  13  14
ENDBRANCH   9  13
ENDBRANCH   6   7
BRANCH   6  22
ATOM     22  C50 ZIN A   1      18.683   0.498   7.329  0.00  0.00     0.009 C 
ATOM     23  C51 ZIN A   1      19.549   1.198   8.378  0.00  0.00     0.012 C 
ATOM     24  C52 ZIN A   1      18.967   1.099   5.950  0.00  0.00     0.012 C 
ENDBRANCH   6  22
ENDBRANCH   3   6
ENDBRANCH   1   2
BRANCH   1  25
ATOM     25  C20 ZIN A   1      19.537  -4.405  10.570  0.00  0.00     0.063 C 
BRANCH  25  26
ATOM     26  C21 ZIN A   1      18.608  -5.303   9.795  0.00  0.00    -0.056 A 
ATOM     27  C26 ZIN A   1      17.257  -5.316  10.085  0.00  0.00     0.007 A 
ATOM     28  C25 ZIN A   1      16.405  -6.137   9.370  0.00  0.00     0.001 A 
ATOM     29  C24 ZIN A   1      16.905  -6.951   8.371  0.00  0.00     0.000 A 
ATOM     30  C23 ZIN A   1      18.257  -6.942   8.084  0.00  0.00     0.001 A 
ATOM     31  C22 ZIN A   1      19.109  -6.118   8.796  0.00  0.00     0.007 A 
ENDBRANCH  25  26
ENDBRANCH   1  25
BRANCH   1  32
ATOM     32  C27 ZIN A   1      19.463  -2.252  11.836  0.00  0.00     0.059 C 
BRANCH  32  33
ATOM     33  C28 ZIN A   1      18.258  -1.790  12.657  0.00  0.00     0.143 C 
BRANCH  33  34
ATOM     34  O30 ZIN A   1      17.152  -1.547  11.784  0.00  0.00    -0.393 OA
ATOM     35  H78 ZIN A   1      17.302  -0.834  11.148  0.00  0.00     0.210 HD
ENDBRANCH  33  34
BRANCH  33  36
ATOM     36  C31 ZIN A   1      18.612  -0.502  13.402  0.00  0.00     0.119 C 
BRANCH  36  37
ATOM     37  C33 ZIN A   1      17.548  -0.219  14.465  0.00  0.00     0.066 C 
BRANCH  37  38
ATOM     38  C34 ZIN A   1      18.220   0.086  15.779  0.00  0.00    -0.056 A 
ATOM     39  C39 ZIN A   1      18.460   1.397  16.146  0.00  0.00     0.007 A 
ATOM     40  C38 ZIN A   1      19.073   1.675  17.353  0.00  0.00     0.001 A 
ATOM     41  C37 ZIN A   1      19.452   0.643  18.190  0.00  0.00     0.000 A 
ATOM     42  C36 ZIN A   1      19.216  -0.668  17.822  0.00  0.00     0.001 A 
ATOM     43  C35 ZIN A   1      18.600  -0.947  16.617  0.00  0.00     0.007 A 
ENDBRANCH  37  38
ENDBRANCH  36  37
BRANCH  36  44
ATOM     44  N40 ZIN A   1      18.662   0.614  12.454  0.00  0.00    -0.329 N 
ATOM     45  C41 ZIN A   1      19.839   1.208  12.173  0.00  0.00     0.361 C 
ATOM     46  O42 ZIN A   1      20.858   0.819  12.708  0.00  0.00    -0.238 OA
ATOM     47  H86 ZIN A   1      17.848   0.924  12.027  0.00  0.00     0.165 HD
BRANCH  45  48
ATOM     48  O43 ZIN A   1      19.885   2.232  11.301  0.00  0.00    -0.299 OA
BRANCH  48  49
ATOM     49  C44 ZIN A   1      19.928   3.572  11.859  0.00  0.00     0.228 C 
BRANCH  49  50
ATOM     50  C45 ZIN A   1      18.541   4.159  11.865  0.00  0.00     0.025 A 
ATOM     51  S49 ZIN A   1      17.808   5.074  13.181  0.00  0.00    -0.084 SA
ATOM     52  C48 ZIN A   1      16.376   5.259  12.266  0.00  0.00     0.166 A 
ATOM     53  N47 ZIN A   1      16.498   4.671  11.124  0.00  0.00    -0.265 NA
ATOM     54  C46 ZIN A   1      17.646   4.072  10.876  0.00  0.00     0.133 A 
ENDBRANCH  49  50
ENDBRANCH  48  49
ENDBRANCH  45  48
ENDBRANCH  36  44
ENDBRANCH  33  36
ENDBRANCH  32  33
ENDBRANCH   1  32
TORSDOF 19
ENDMDL
MODEL 4
REMARK VINA RESULT:      -8.9      2.578      3.946
REMARK  19 active torsions:
REMARK  status: ('A' for Active; 'I' for Inactive)
REMARK    1  A    between atoms: C2_2  and  C4_4 
REMARK    2  A    between atoms: C6_6  and  C7_7 
REMARK    3  A    between atoms: C7_7  and  N8_8 
REMARK       I    between atoms: N8_8  and  C10_10 
REMARK       I    between atoms: C10_10  and  N12_12 
REMARK    4  A    between atoms: N12_12  and  C13_13 
REMARK    5  A    between atoms: C13_13  and  C15_14 
REMARK    6  A    between atoms: C13_13  and  C50_46 
REMARK       I    between atoms: C15_14  and  N17_16 
REMARK    7  A    between atoms: N17_16  and  C18_17 
REMARK    8  A    between atoms: C18_17  and  C20_18 
REMARK    9  A    between atoms: C18_17  and  C27_25 
REMARK   10  A    between atoms: C20_18  and  C21_19 
REMARK   11  A    between atoms: C27_25  and  C28_26 
REMARK   12  A    between atoms: C28_26  and  O30_27 
REMARK   13  A    between atoms: C28_26  and  C31_28 
REMARK   14  A    between atoms: C31_28  and  C33_29 
REMARK   15  A    between atoms: C31_28  and  N40_36 
REMARK   16  A    between atoms: C33_29  and  C34_30 
REMARK       I    between atoms: N40_36  and  C41_37 
REMARK   17  A    between atoms: C41_37  and  O43_39 
REMARK   18  A    between atoms: O43_39  and  C44_40 
REMARK   19  A    between atoms: C44_40  and  C45_41 
ROOT
ATOM      1  C18 ZIN A   1      19.213   2.933  12.230  0.00  0.00     0.091 C 
ENDROOT
BRANCH   1   2
ATOM      2  N17 ZIN A   1      19.592   2.012  13.305  0.00  0.00    -0.354 N 
ATOM      3  C15 ZIN A   1      18.640   1.434  14.064  0.00  0.00     0.241 C 
ATOM      4  O16 ZIN A   1      17.468   1.595  13.794  0.00  0.00    -0.271 OA
ATOM      5  H68 ZIN A   1      20.528   1.819  13.471  0.00  0.00     0.162 HD
BRANCH   3   6
ATOM      6  C13 ZIN A   1      19.031   0.588  15.248  0.00  0.00     0.181 C 
BRANCH   6   7
ATOM      7  N12 ZIN A   1      18.345   1.078  16.446  0.00  0.00    -0.329 N 
ATOM      8  C10 ZIN A   1      18.766   2.208  17.049  0.00  0.00     0.319 C 
ATOM      9  N8  ZIN A   1      18.136   2.660  18.151  0.00  0.00    -0.333 N 
ATOM     10  O11 ZIN A   1      19.716   2.820  16.597  0.00  0.00    -0.247 OA
ATOM     11  C9  ZIN A   1      16.993   1.922  18.694  0.00  0.00     0.154 C 
ATOM     12  H67 ZIN A   1      17.588   0.590  16.806  0.00  0.00     0.165 HD
BRANCH   9  13
ATOM     13  C7  ZIN A   1      18.594   3.887  18.805  0.00  0.00     0.186 C 
BRANCH  13  14
ATOM     14  C6  ZIN A   1      17.404   4.655  19.322  0.00  0.00     0.060 A 
ATOM     15  N5  ZIN A   1      16.558   5.278  18.526  0.00  0.00    -0.248 NA
ATOM     16  C4  ZIN A   1      15.577   5.903  19.085  0.00  0.00     0.078 A 
ATOM     17  S54 ZIN A   1      15.667   5.742  20.785  0.00  0.00    -0.084 SA
ATOM     18  C53 ZIN A   1      17.123   4.762  20.624  0.00  0.00     0.080 A 
BRANCH  16  19
ATOM     19  C2  ZIN A   1      14.510   6.670  18.347  0.00  0.00     0.037 C 
ATOM     20  C1  ZIN A   1      14.553   6.302  16.862  0.00  0.00     0.016 C 
ATOM     21  C3  ZIN A   1      13.138   6.317  18.922  0.00  0.00     0.016 C 
ENDBRANCH  16  19
ENDBRANCH  13  14
ENDBRANCH   9  13
ENDBRANCH   6   7
BRANCH   6  22
ATOM     22  C50 ZIN A   1      18.630  -0.866  14.990  0.00  0.00     0.009 C 
ATOM     23  C51 ZIN A   1      19.810  -1.619  14.373  0.00  0.00     0.012 C 
ATOM     24  C52 ZIN A   1      18.237  -1.529  16.312  0.00  0.00     0.012 C 
ENDBRANCH   6  22
ENDBRANCH   3   6
ENDBRANCH   1   2
BRANCH   1  25
ATOM     25  C20 ZIN A   1      19.931   4.269  12.427  0.00  0.00     0.063 C 
BRANCH  25  26
ATOM     26  C21 ZIN A   1      19.189   5.094  13.446  0.00  0.00    -0.056 A 
ATOM     27  C26 ZIN A   1      17.820   5.255  13.340  0.00  0.00     0.007 A 
ATOM     28  C25 ZIN A   1      17.139   6.008  14.277  0.00  0.00     0.001 A 
ATOM     29  C24 ZIN A   1      17.826   6.607  15.316  0.00  0.00     0.000 A 
ATOM     30  C23 ZIN A   1      19.196   6.449  15.420  0.00  0.00     0.001 A 
ATOM     31  C22 ZIN A   1      19.877   5.693  14.484  0.00  0.00     0.007 A 
ENDBRANCH  25  26
ENDBRANCH   1  25
BRANCH   1  32
ATOM     32  C27 ZIN A   1      19.612   2.332  10.881  0.00  0.00     0.059 C 
BRANCH  32  33
ATOM     33  C28 ZIN A   1      18.352   1.963  10.095  0.00  0.00     0.143 C 
BRANCH  33  34
ATOM     34  O30 ZIN A   1      17.225   1.966  10.974  0.00  0.00    -0.393 OA
ATOM     35  H78 ZIN A   1      16.753   2.810  11.006  0.00  0.00     0.210 HD
ENDBRANCH  33  34
BRANCH  33  36
ATOM     36  C31 ZIN A   1      18.521   0.569   9.488  0.00  0.00     0.119 C 
BRANCH  36  37
ATOM     37  C33 ZIN A   1      19.660  -0.163  10.201  0.00  0.00     0.066 C 
BRANCH  37  38
ATOM     38  C34 ZIN A   1      19.150  -1.470  10.752  0.00  0.00    -0.056 A 
ATOM     39  C39 ZIN A   1      17.823  -1.595  11.120  0.00  0.00     0.007 A 
ATOM     40  C38 ZIN A   1      17.356  -2.795  11.622  0.00  0.00     0.001 A 
ATOM     41  C37 ZIN A   1      18.217  -3.867  11.763  0.00  0.00     0.000 A 
ATOM     42  C36 ZIN A   1      19.544  -3.742  11.399  0.00  0.00     0.001 A 
ATOM     43  C35 ZIN A   1      20.011  -2.543  10.893  0.00  0.00     0.007 A 
ENDBRANCH  37  38
ENDBRANCH  36  37
BRANCH  36  44
ATOM     44  N40 ZIN A   1      18.836   0.691   8.062  0.00  0.00    -0.329 N 
ATOM     45  C41 ZIN A   1      17.970   0.230   7.138  0.00  0.00     0.361 C 
ATOM     46  O42 ZIN A   1      16.928  -0.288   7.487  0.00  0.00    -0.238 OA
ATOM     47  H86 ZIN A   1      19.669   1.104   7.784  0.00  0.00     0.165 HD
BRANCH  45  48
ATOM     48  O43 ZIN A   1      18.260   0.343   5.828  0.00  0.00    -0.299 OA
BRANCH  48  49
ATOM     49  C44 ZIN A   1      19.347  -0.476   5.320  0.00  0.00     0.228 C 
BRANCH  49  50
ATOM     50  C45 ZIN A   1      18.931  -1.923   5.326  0.00  0.00     0.025 A 
ATOM     51  S49 ZIN A   1      19.531  -3.170   6.418  0.00  0.00    -0.084 SA
ATOM     52  C48 ZIN A   1      18.524  -4.327   5.661  0.00  0.00     0.166 A 
ATOM     53  N47 ZIN A   1      17.854  -3.778   4.706  0.00  0.00    -0.265 NA
ATOM     54  C46 ZIN A   1      18.047  -2.490   4.499  0.00  0.00     0.133 A 
ENDBRANCH  49  50
ENDBRANCH  48  49
ENDBRANCH  45  48
ENDBRANCH  36  44
ENDBRANCH  33  36
ENDBRANCH  32  33
ENDBRANCH   1  32
TORSDOF 19
ENDMDL
MODEL 5
REMARK VINA RESULT:      -8.9      2.114      3.438
REMARK  19 active torsions:
REMARK  status: ('A' for Active; 'I' for Inactive)
REMARK    1  A    between atoms: C2_2  and  C4_4 
REMARK    2  A    between atoms: C6_6  and  C7_7 
REMARK    3  A    between atoms: C7_7  and  N8_8 
REMARK       I    between atoms: N8_8  and  C10_10 
REMARK       I    between atoms: C10_10  and  N12_12 
REMARK    4  A    between atoms: N12_12  and  C13_13 
REMARK    5  A    between atoms: C13_13  and  C15_14 
REMARK    6  A    between atoms: C13_13  and  C50_46 
REMARK       I    between atoms: C15_14  and  N17_16 
REMARK    7  A    between atoms: N17_16  and  C18_17 
REMARK    8  A    between atoms: C18_17  and  C20_18 
REMARK    9  A    between atoms: C18_17  and  C27_25 
REMARK   10  A    between atoms: C20_18  and  C21_19 
REMARK   11  A    between atoms: C27_25  and  C28_26 
REMARK   12  A    between atoms: C28_26  and  O30_27 
REMARK   13  A    between atoms: C28_26  and  C31_28 
REMARK   14  A    between atoms: C31_28  and  C33_29 
REMARK   15  A    between atoms: C31_28  and  N40_36 
REMARK   16  A    between atoms: C33_29  and  C34_30 
REMARK       I    between atoms: N40_36  and  C41_37 
REMARK   17  A    between atoms: C41_37  and  O43_39 
REMARK   18  A    between atoms: O43_39  and  C44_40 
REMARK   19  A    between atoms: C44_40  and  C45_41 
ROOT
ATOM      1  C18 ZIN A   1      19.139   1.886  12.049  0.00  0.00     0.091 C 
ENDROOT
BRANCH   1   2
ATOM      2  N17 ZIN A   1      19.594   1.308  13.315  0.00  0.00    -0.354 N 
ATOM      3  C15 ZIN A   1      18.698   0.992  14.271  0.00  0.00     0.241 C 
ATOM      4  O16 ZIN A   1      17.510   1.091  14.047  0.00  0.00    -0.271 OA
ATOM      5  H68 ZIN A   1      20.539   1.152  13.466  0.00  0.00     0.162 HD
BRANCH   3   6
ATOM      6  C13 ZIN A   1      19.173   0.515  15.621  0.00  0.00     0.181 C 
BRANCH   6   7
ATOM      7  N12 ZIN A   1      18.505   1.286  16.672  0.00  0.00    -0.329 N 
ATOM      8  C10 ZIN A   1      18.796   2.591  16.840  0.00  0.00     0.319 C 
ATOM      9  N8  ZIN A   1      18.182   3.300  17.808  0.00  0.00    -0.333 N 
ATOM     10  O11 ZIN A   1      19.614   3.129  16.117  0.00  0.00    -0.247 OA
ATOM     11  C9  ZIN A   1      17.198   2.652  18.678  0.00  0.00     0.154 C 
ATOM     12  H67 ZIN A   1      17.853   0.856  17.249  0.00  0.00     0.165 HD
BRANCH   9  13
ATOM     13  C7  ZIN A   1      18.499   4.718  17.990  0.00  0.00     0.186 C 
BRANCH  13  14
ATOM     14  C6  ZIN A   1      17.221   5.515  18.049  0.00  0.00     0.060 A 
ATOM     15  N5  ZIN A   1      16.428   5.668  17.007  0.00  0.00    -0.248 NA
ATOM     16  C4  ZIN A   1      15.361   6.373  17.179  0.00  0.00     0.078 A 
ATOM     17  S54 ZIN A   1      15.283   6.941  18.791  0.00  0.00    -0.084 SA
ATOM     18  C53 ZIN A   1      16.800   6.125  19.161  0.00  0.00     0.080 A 
BRANCH  16  19
ATOM     19  C2  ZIN A   1      14.336   6.661  16.113  0.00  0.00     0.037 C 
ATOM     20  C1  ZIN A   1      12.938   6.649  16.734  0.00  0.00     0.016 C 
ATOM     21  C3  ZIN A   1      14.611   8.034  15.499  0.00  0.00     0.016 C 
ENDBRANCH  16  19
ENDBRANCH  13  14
ENDBRANCH   9  13
ENDBRANCH   6   7
BRANCH   6  22
ATOM     22  C50 ZIN A   1      18.838  -0.968  15.783  0.00  0.00     0.009 C 
ATOM     23  C51 ZIN A   1      19.505  -1.768  14.663  0.00  0.00     0.012 C 
ATOM     24  C52 ZIN A   1      19.351  -1.461  17.138  0.00  0.00     0.012 C 
ENDBRANCH   6  22
ENDBRANCH   3   6
ENDBRANCH   1   2
BRANCH   1  25
ATOM     25  C20 ZIN A   1      19.670   3.315  11.921  0.00  0.00     0.063 C 
BRANCH  25  26
ATOM     26  C21 ZIN A   1      18.601   4.288  12.344  0.00  0.00    -0.056 A 
ATOM     27  C26 ZIN A   1      18.784   5.071  13.469  0.00  0.00     0.007 A 
ATOM     28  C25 ZIN A   1      17.804   5.966  13.854  0.00  0.00     0.001 A 
ATOM     29  C24 ZIN A   1      16.638   6.074  13.120  0.00  0.00     0.000 A 
ATOM     30  C23 ZIN A   1      16.453   5.288  11.998  0.00  0.00     0.001 A 
ATOM     31  C22 ZIN A   1      17.434   4.395  11.610  0.00  0.00     0.007 A 
ENDBRANCH  25  26
ENDBRANCH   1  25
BRANCH   1  32
ATOM     32  C27 ZIN A   1      19.663   1.042  10.885  0.00  0.00     0.059 C 
BRANCH  32  33
ATOM     33  C28 ZIN A   1      20.224  -0.276  11.424  0.00  0.00     0.143 C 
BRANCH  33  34
ATOM     34  O30 ZIN A   1      21.638  -0.312  11.213  0.00  0.00    -0.393 OA
ATOM     35  H78 ZIN A   1      22.147  -0.550  12.000  0.00  0.00     0.210 HD
ENDBRANCH  33  34
BRANCH  33  36
ATOM     36  C31 ZIN A   1      19.569  -1.448  10.689  0.00  0.00     0.119 C 
BRANCH  36  37
ATOM     37  C33 ZIN A   1      20.076  -2.766  11.277  0.00  0.00     0.066 C 
BRANCH  37  38
ATOM     38  C34 ZIN A   1      19.044  -3.842  11.062  0.00  0.00    -0.056 A 
ATOM     39  C39 ZIN A   1      17.881  -3.845  11.810  0.00  0.00     0.007 A 
ATOM     40  C38 ZIN A   1      16.933  -4.830  11.610  0.00  0.00     0.001 A 
ATOM     41  C37 ZIN A   1      17.151  -5.818  10.668  0.00  0.00     0.000 A 
ATOM     42  C36 ZIN A   1      18.315  -5.819   9.923  0.00  0.00     0.001 A 
ATOM     43  C35 ZIN A   1      19.262  -4.830  10.120  0.00  0.00     0.007 A 
ENDBRANCH  37  38
ENDBRANCH  36  37
BRANCH  36  44
ATOM     44  N40 ZIN A   1      19.912  -1.385   9.266  0.00  0.00    -0.329 N 
ATOM     45  C41 ZIN A   1      18.939  -1.443   8.335  0.00  0.00     0.361 C 
ATOM     46  O42 ZIN A   1      17.778  -1.549   8.676  0.00  0.00    -0.238 OA
ATOM     47  H86 ZIN A   1      20.840  -1.301   8.994  0.00  0.00     0.165 HD
BRANCH  45  48
ATOM     48  O43 ZIN A   1      19.254  -1.385   7.027  0.00  0.00    -0.299 OA
BRANCH  48  49
ATOM     49  C44 ZIN A   1      19.521  -2.645   6.356  0.00  0.00     0.228 C 
BRANCH  49  50
ATOM     50  C45 ZIN A   1      18.423  -2.929   5.365  0.00  0.00     0.025 A 
ATOM     51  S49 ZIN A   1      17.757  -4.515   4.981  0.00  0.00    -0.084 SA
ATOM     52  C48 ZIN A   1      16.681  -3.800   3.860  0.00  0.00     0.166 A 
ATOM     53  N47 ZIN A   1      16.862  -2.524   3.821  0.00  0.00    -0.265 NA
ATOM     54  C46 ZIN A   1      17.788  -2.023   4.615  0.00  0.00     0.133 A 
ENDBRANCH  49  50
ENDBRANCH  48  49
ENDBRANCH  45  48
ENDBRANCH  36  44
ENDBRANCH  33  36
ENDBRANCH  32  33
ENDBRANCH   1  32
TORSDOF 19
ENDMDL
MODEL 6
REMARK VINA RESULT:      -8.9      2.758     10.775
REMARK  19 active torsions:
REMARK  status: ('A' for Active; 'I' for Inactive)
REMARK    1  A    between atoms: C2_2  and  C4_4 
REMARK    2  A    between atoms: C6_6  and  C7_7 
REMARK    3  A    between atoms: C7_7  and  N8_8 
REMARK       I    between atoms: N8_8  and  C10_10 
REMARK       I    between atoms: C10_10  and  N12_12 
REMARK    4  A    between atoms: N12_12  and  C13_13 
REMARK    5  A    between atoms: C13_13  and  C15_14 
REMARK    6  A    between atoms: C13_13  and  C50_46 
REMARK       I    between atoms: C15_14  and  N17_16 
REMARK    7  A    between atoms: N17_16  and  C18_17 
REMARK    8  A    between atoms: C18_17  and  C20_18 
REMARK    9  A    between atoms: C18_17  and  C27_25 
REMARK   10  A    between atoms: C20_18  and  C21_19 
REMARK   11  A    between atoms: C27_25  and  C28_26 
REMARK   12  A    between atoms: C28_26  and  O30_27 
REMARK   13  A    between atoms: C28_26  and  C31_28 
REMARK   14  A    between atoms: C31_28  and  C33_29 
REMARK   15  A    between atoms: C31_28  and  N40_36 
REMARK   16  A    between atoms: C33_29  and  C34_30 
REMARK       I    between atoms: N40_36  and  C41_37 
REMARK   17  A    between atoms: C41_37  and  O43_39 
REMARK   18  A    between atoms: O43_39  and  C44_40 
REMARK   19  A    between atoms: C44_40  and  C45_41 
ROOT
ATOM      1  C18 ZIN A   1      18.632   1.604  10.002  0.00  0.00     0.091 C 
ENDROOT
BRANCH   1   2
ATOM      2  N17 ZIN A   1      18.457   0.811   8.783  0.00  0.00    -0.354 N 
ATOM      3  C15 ZIN A   1      19.385  -0.101   8.434  0.00  0.00     0.241 C 
ATOM      4  O16 ZIN A   1      20.312  -0.339   9.178  0.00  0.00    -0.271 OA
ATOM      5  H68 ZIN A   1      17.672   0.943   8.227  0.00  0.00     0.162 HD
BRANCH   3   6
ATOM      6  C13 ZIN A   1      19.270  -0.827   7.118  0.00  0.00     0.181 C 
BRANCH   6   7
ATOM      7  N12 ZIN A   1      18.576  -2.101   7.322  0.00  0.00    -0.329 N 
ATOM      8  C10 ZIN A   1      19.049  -3.225   6.749  0.00  0.00     0.319 C 
ATOM      9  N8  ZIN A   1      18.411  -4.397   6.936  0.00  0.00    -0.333 N 
ATOM     10  O11 ZIN A   1      20.052  -3.181   6.061  0.00  0.00    -0.247 OA
ATOM     11  C9  ZIN A   1      17.204  -4.449   7.763  0.00  0.00     0.154 C 
ATOM     12  H67 ZIN A   1      17.776  -2.135   7.870  0.00  0.00     0.165 HD
BRANCH   9  13
ATOM     13  C7  ZIN A   1      18.925  -5.619   6.313  0.00  0.00     0.186 C 
BRANCH  13  14
ATOM     14  C6  ZIN A   1      17.881  -6.189   5.388  0.00  0.00     0.060 A 
ATOM     15  N5  ZIN A   1      17.372  -5.507   4.381  0.00  0.00    -0.248 NA
ATOM     16  C4  ZIN A   1      16.484  -6.101   3.658  0.00  0.00     0.078 A 
ATOM     17  S54 ZIN A   1      16.203  -7.681   4.249  0.00  0.00    -0.084 SA
ATOM     18  C53 ZIN A   1      17.394  -7.426   5.522  0.00  0.00     0.080 A 
BRANCH  16  19
ATOM     19  C2  ZIN A   1      15.790  -5.489   2.468  0.00  0.00     0.037 C 
ATOM     20  C1  ZIN A   1      14.281  -5.457   2.719  0.00  0.00     0.016 C 
ATOM     21  C3  ZIN A   1      16.303  -4.063   2.257  0.00  0.00     0.016 C 
ENDBRANCH  16  19
ENDBRANCH  13  14
ENDBRANCH   9  13
ENDBRANCH   6   7
BRANCH   6  22
ATOM     22  C50 ZIN A   1      18.479   0.032   6.130  0.00  0.00     0.009 C 
ATOM     23  C51 ZIN A   1      19.191   0.042   4.776  0.00  0.00     0.012 C 
ATOM     24  C52 ZIN A   1      17.072  -0.547   5.963  0.00  0.00     0.012 C 
ENDBRANCH   6  22
ENDBRANCH   3   6
ENDBRANCH   1   2
BRANCH   1  25
ATOM     25  C20 ZIN A   1      18.857   3.071   9.629  0.00  0.00     0.063 C 
BRANCH  25  26
ATOM     26  C21 ZIN A   1      18.375   3.954  10.749  0.00  0.00    -0.056 A 
ATOM     27  C26 ZIN A   1      17.165   4.613  10.639  0.00  0.00     0.007 A 
ATOM     28  C25 ZIN A   1      16.721   5.420  11.669  0.00  0.00     0.001 A 
ATOM     29  C24 ZIN A   1      17.491   5.576  12.807  0.00  0.00     0.000 A 
ATOM     30  C23 ZIN A   1      18.704   4.922  12.915  0.00  0.00     0.001 A 
ATOM     31  C22 ZIN A   1      19.146   4.111  11.887  0.00  0.00     0.007 A 
ENDBRANCH  25  26
ENDBRANCH   1  25
BRANCH   1  32
ATOM     32  C27 ZIN A   1      17.379   1.486  10.872  0.00  0.00     0.059 C 
BRANCH  32  33
ATOM     33  C28 ZIN A   1      17.037   0.009  11.076  0.00  0.00     0.143 C 
BRANCH  33  34
ATOM     34  O30 ZIN A   1      15.714  -0.104  11.606  0.00  0.00    -0.393 OA
ATOM     35  H78 ZIN A   1      15.466   0.614  12.204  0.00  0.00     0.210 HD
ENDBRANCH  33  34
BRANCH  33  36
ATOM     36  C31 ZIN A   1      18.033  -0.615  12.056  0.00  0.00     0.119 C 
BRANCH  36  37
ATOM     37  C33 ZIN A   1      17.475  -1.941  12.575  0.00  0.00     0.066 C 
BRANCH  37  38
ATOM     38  C34 ZIN A   1      18.153  -3.084  11.865  0.00  0.00    -0.056 A 
ATOM     39  C39 ZIN A   1      19.431  -2.926  11.363  0.00  0.00     0.007 A 
ATOM     40  C38 ZIN A   1      20.053  -3.976  10.715  0.00  0.00     0.001 A 
ATOM     41  C37 ZIN A   1      19.395  -5.181  10.561  0.00  0.00     0.000 A 
ATOM     42  C36 ZIN A   1      18.115  -5.339  11.059  0.00  0.00     0.001 A 
ATOM     43  C35 ZIN A   1      17.494  -4.290  11.711  0.00  0.00     0.007 A 
ENDBRANCH  37  38
ENDBRANCH  36  37
BRANCH  36  44
ATOM     44  N40 ZIN A   1      18.248   0.298  13.182  0.00  0.00    -0.329 N 
ATOM     45  C41 ZIN A   1      19.497   0.693  13.500  0.00  0.00     0.361 C 
ATOM     46  O42 ZIN A   1      20.444   0.291  12.854  0.00  0.00    -0.238 OA
ATOM     47  H86 ZIN A   1      17.491   0.619  13.697  0.00  0.00     0.165 HD
BRANCH  45  48
ATOM     48  O43 ZIN A   1      19.694   1.533  14.534  0.00  0.00    -0.299 OA
BRANCH  48  49
ATOM     49  C44 ZIN A   1      18.513   2.111  15.149  0.00  0.00     0.228 C 
BRANCH  49  50
ATOM     50  C45 ZIN A   1      18.764   2.323  16.619  0.00  0.00     0.025 A 
ATOM     51  S49 ZIN A   1      18.452   3.804  17.521  0.00  0.00    -0.084 SA
ATOM     52  C48 ZIN A   1      19.021   3.061  18.953  0.00  0.00     0.166 A 
ATOM     53  N47 ZIN A   1      19.394   1.851  18.708  0.00  0.00    -0.265 NA
ATOM     54  C46 ZIN A   1      19.270   1.423  17.468  0.00  0.00     0.133 A 
ENDBRANCH  49  50
ENDBRANCH  48  49
ENDBRANCH  45  48
ENDBRANCH  36  44
ENDBRANCH  33  36
ENDBRANCH  32  33
ENDBRANCH   1  32
TORSDOF 19
ENDMDL
MODEL 7
REMARK VINA RESULT:      -8.8      1.595      2.222
REMARK  19 active torsions:
REMARK  status: ('A' for Active; 'I' for Inactive)
REMARK    1  A    between atoms: C2_2  and  C4_4 
REMARK    2  A    between atoms: C6_6  and  C7_7 
REMARK    3  A    between atoms: C7_7  and  N8_8 
REMARK       I    between atoms: N8_8  and  C10_10 
REMARK       I    between atoms: C10_10  and  N12_12 
REMARK    4  A    between atoms: N12_12  and  C13_13 
REMARK    5  A    between atoms: C13_13  and  C15_14 
REMARK    6  A    between atoms: C13_13  and  C50_46 
REMARK       I    between atoms: C15_14  and  N17_16 
REMARK    7  A    between atoms: N17_16  and  C18_17 
REMARK    8  A    between atoms: C18_17  and  C20_18 
REMARK    9  A    between atoms: C18_17  and  C27_25 
REMARK   10  A    between atoms: C20_18  and  C21_19 
REMARK   11  A    between atoms: C27_25  and  C28_26 
REMARK   12  A    between atoms: C28_26  and  O30_27 
REMARK   13  A    between atoms: C28_26  and  C31_28 
REMARK   14  A    between atoms: C31_28  and  C33_29 
REMARK   15  A    between atoms: C31_28  and  N40_36 
REMARK   16  A    between atoms: C33_29  and  C34_30 
REMARK       I    between atoms: N40_36  and  C41_37 
REMARK   17  A    between atoms: C41_37  and  O43_39 
REMARK   18  A    between atoms: O43_39  and  C44_40 
REMARK   19  A    between atoms: C44_40  and  C45_41 
ROOT
ATOM      1  C18 ZIN A   1      19.356   2.006  12.748  0.00  0.00     0.091 C 
ENDROOT
BRANCH   1   2
ATOM      2  N17 ZIN A   1      19.700   1.367  14.020  0.00  0.00    -0.354 N 
ATOM      3  C15 ZIN A   1      18.734   1.099  14.921  0.00  0.00     0.241 C 
ATOM      4  O16 ZIN A   1      17.570   1.292  14.640  0.00  0.00    -0.271 OA
ATOM      5  H68 ZIN A   1      20.622   1.137  14.214  0.00  0.00     0.162 HD
BRANCH   3   6
ATOM      6  C13 ZIN A   1      19.101   0.557  16.280  0.00  0.00     0.181 C 
BRANCH   6   7
ATOM      7  N12 ZIN A   1      18.267   1.197  17.301  0.00  0.00    -0.329 N 
ATOM      8  C10 ZIN A   1      18.669   2.348  17.875  0.00  0.00     0.319 C 
ATOM      9  N8  ZIN A   1      17.903   2.936  18.815  0.00  0.00    -0.333 N 
ATOM     10  O11 ZIN A   1      19.725   2.855  17.545  0.00  0.00    -0.247 OA
ATOM     11  C9  ZIN A   1      16.633   2.324  19.212  0.00  0.00     0.154 C 
ATOM     12  H67 ZIN A   1      17.426   0.791  17.564  0.00  0.00     0.165 HD
BRANCH   9  13
ATOM     13  C7  ZIN A   1      18.340   4.187  19.439  0.00  0.00     0.186 C 
BRANCH  13  14
ATOM     14  C6  ZIN A   1      17.573   5.340  18.845  0.00  0.00     0.060 A 
ATOM     15  N5  ZIN A   1      17.883   5.880  17.683  0.00  0.00    -0.248 NA
ATOM     16  C4  ZIN A   1      17.153   6.864  17.278  0.00  0.00     0.078 A 
ATOM     17  S54 ZIN A   1      15.934   7.206  18.427  0.00  0.00    -0.084 SA
ATOM     18  C53 ZIN A   1      16.523   5.900  19.454  0.00  0.00     0.080 A 
BRANCH  16  19
ATOM     19  C2  ZIN A   1      17.350   7.608  15.982  0.00  0.00     0.037 C 
ATOM     20  C1  ZIN A   1      18.559   7.032  15.243  0.00  0.00     0.016 C 
ATOM     21  C3  ZIN A   1      16.100   7.457  15.113  0.00  0.00     0.016 C 
ENDBRANCH  16  19
ENDBRANCH  13  14
ENDBRANCH   9  13
ENDBRANCH   6   7
BRANCH   6  22
ATOM     22  C50 ZIN A   1      18.870  -0.954  16.305  0.00  0.00     0.009 C 
ATOM     23  C51 ZIN A   1      17.428  -1.244  16.726  0.00  0.00     0.012 C 
ATOM     24  C52 ZIN A   1      19.119  -1.532  14.910  0.00  0.00     0.012 C 
ENDBRANCH   6  22
ENDBRANCH   3   6
ENDBRANCH   1   2
BRANCH   1  25
ATOM     25  C20 ZIN A   1      19.490   3.524  12.888  0.00  0.00     0.063 C 
BRANCH  25  26
ATOM     26  C21 ZIN A   1      18.364   4.197  12.147  0.00  0.00    -0.056 A 
ATOM     27  C26 ZIN A   1      17.266   4.672  12.840  0.00  0.00     0.007 A 
ATOM     28  C25 ZIN A   1      16.236   5.294  12.160  0.00  0.00     0.001 A 
ATOM     29  C24 ZIN A   1      16.299   5.434  10.786  0.00  0.00     0.000 A 
ATOM     30  C23 ZIN A   1      17.394   4.955  10.092  0.00  0.00     0.001 A 
ATOM     31  C22 ZIN A   1      18.426   4.337  10.772  0.00  0.00     0.007 A 
ENDBRANCH  25  26
ENDBRANCH   1  25
BRANCH   1  32
ATOM     32  C27 ZIN A   1      20.305   1.509  11.655  0.00  0.00     0.059 C 
BRANCH  32  33
ATOM     33  C28 ZIN A   1      20.330  -0.021  11.659  0.00  0.00     0.143 C 
BRANCH  33  34
ATOM     34  O30 ZIN A   1      21.646  -0.475  11.332  0.00  0.00    -0.393 OA
ATOM     35  H78 ZIN A   1      22.086   0.052  10.652  0.00  0.00     0.210 HD
ENDBRANCH  33  34
BRANCH  33  36
ATOM     36  C31 ZIN A   1      19.336  -0.550  10.624  0.00  0.00     0.119 C 
BRANCH  36  37
ATOM     37  C33 ZIN A   1      18.391   0.576  10.203  0.00  0.00     0.066 C 
BRANCH  37  38
ATOM     38  C34 ZIN A   1      18.258   0.586   8.702  0.00  0.00    -0.056 A 
ATOM     39  C39 ZIN A   1      19.116   1.355   7.937  0.00  0.00     0.007 A 
ATOM     40  C38 ZIN A   1      18.995   1.361   6.560  0.00  0.00     0.001 A 
ATOM     41  C37 ZIN A   1      18.014   0.606   5.948  0.00  0.00     0.000 A 
ATOM     42  C36 ZIN A   1      17.153  -0.160   6.713  0.00  0.00     0.001 A 
ATOM     43  C35 ZIN A   1      17.275  -0.170   8.090  0.00  0.00     0.007 A 
ENDBRANCH  37  38
ENDBRANCH  36  37
BRANCH  36  44
ATOM     44  N40 ZIN A   1      18.559  -1.647  11.208  0.00  0.00    -0.329 N 
ATOM     45  C41 ZIN A   1      19.092  -2.882  11.288  0.00  0.00     0.361 C 
ATOM     46  O42 ZIN A   1      20.216  -3.087  10.875  0.00  0.00    -0.238 OA
ATOM     47  H86 ZIN A   1      17.662  -1.483  11.538  0.00  0.00     0.165 HD
BRANCH  45  48
ATOM     48  O43 ZIN A   1      18.378  -3.890  11.826  0.00  0.00    -0.299 OA
BRANCH  48  49
ATOM     49  C44 ZIN A   1      17.023  -4.071  11.338  0.00  0.00     0.228 C 
BRANCH  49  50
ATOM     50  C45 ZIN A   1      17.032  -5.021  10.169  0.00  0.00     0.025 A 
ATOM     51  S49 ZIN A   1      18.435  -5.886   9.547  0.00  0.00    -0.084 SA
ATOM     52  C48 ZIN A   1      17.463  -6.616   8.345  0.00  0.00     0.166 A 
ATOM     53  N47 ZIN A   1      16.244  -6.207   8.450  0.00  0.00    -0.265 NA
ATOM     54  C46 ZIN A   1      15.978  -5.352   9.418  0.00  0.00     0.133 A 
ENDBRANCH  49  50
ENDBRANCH  48  49
ENDBRANCH  45  48
ENDBRANCH  36  44
ENDBRANCH  33  36
ENDBRANCH  32  33
ENDBRANCH   1  32
TORSDOF 19
ENDMDL
MODEL 8
REMARK VINA RESULT:      -8.6      2.201      5.155
REMARK  19 active torsions:
REMARK  status: ('A' for Active; 'I' for Inactive)
REMARK    1  A    between atoms: C2_2  and  C4_4 
REMARK    2  A    between atoms: C6_6  and  C7_7 
REMARK    3  A    between atoms: C7_7  and  N8_8 
REMARK       I    between atoms: N8_8  and  C10_10 
REMARK       I    between atoms: C10_10  and  N12_12 
REMARK    4  A    between atoms: N12_12  and  C13_13 
REMARK    5  A    between atoms: C13_13  and  C15_14 
REMARK    6  A    between atoms: C13_13  and  C50_46 
REMARK       I    between atoms: C15_14  and  N17_16 
REMARK    7  A    between atoms: N17_16  and  C18_17 
REMARK    8  A    between atoms: C18_17  and  C20_18 
REMARK    9  A    between atoms: C18_17  and  C27_25 
REMARK   10  A    between atoms: C20_18  and  C21_19 
REMARK   11  A    between atoms: C27_25  and  C28_26 
REMARK   12  A    between atoms: C28_26  and  O30_27 
REMARK   13  A    between atoms: C28_26  and  C31_28 
REMARK   14  A    between atoms: C31_28  and  C33_29 
REMARK   15  A    between atoms: C31_28  and  N40_36 
REMARK   16  A    between atoms: C33_29  and  C34_30 
REMARK       I    between atoms: N40_36  and  C41_37 
REMARK   17  A    between atoms: C41_37  and  O43_39 
REMARK   18  A    between atoms: O43_39  and  C44_40 
REMARK   19  A    between atoms: C44_40  and  C45_41 
ROOT
ATOM      1  C18 ZIN A   1      19.533   1.154  10.665  0.00  0.00     0.091 C 
ENDROOT
BRANCH   1   2
ATOM      2  N17 ZIN A   1      19.073   2.338  11.395  0.00  0.00    -0.354 N 
ATOM      3  C15 ZIN A   1      17.760   2.503  11.651  0.00  0.00     0.241 C 
ATOM      4  O16 ZIN A   1      16.971   1.627  11.368  0.00  0.00    -0.271 OA
ATOM      5  H68 ZIN A   1      19.713   3.002  11.695  0.00  0.00     0.162 HD
BRANCH   3   6
ATOM      6  C13 ZIN A   1      17.272   3.779  12.289  0.00  0.00     0.181 C 
BRANCH   6   7
ATOM      7  N12 ZIN A   1      18.374   4.414  13.015  0.00  0.00    -0.329 N 
ATOM      8  C10 ZIN A   1      18.479   4.260  14.351  0.00  0.00     0.319 C 
ATOM      9  N8  ZIN A   1      19.493   4.844  15.019  0.00  0.00    -0.333 N 
ATOM     10  O11 ZIN A   1      17.657   3.594  14.952  0.00  0.00    -0.247 OA
ATOM     11  C9  ZIN A   1      20.481   5.647  14.295  0.00  0.00     0.154 C 
ATOM     12  H67 ZIN A   1      19.029   4.945  12.535  0.00  0.00     0.165 HD
BRANCH   9  13
ATOM     13  C7  ZIN A   1      19.606   4.677  16.470  0.00  0.00     0.186 C 
BRANCH  13  14
ATOM     14  C6  ZIN A   1      18.503   5.445  17.152  0.00  0.00     0.060 A 
ATOM     15  N5  ZIN A   1      17.689   4.894  18.030  0.00  0.00    -0.248 NA
ATOM     16  C4  ZIN A   1      16.782   5.652  18.548  0.00  0.00     0.078 A 
ATOM     17  S54 ZIN A   1      16.898   7.233  17.907  0.00  0.00    -0.084 SA
ATOM     18  C53 ZIN A   1      18.269   6.739  16.915  0.00  0.00     0.080 A 
BRANCH  16  19
ATOM     19  C2  ZIN A   1      15.763   5.206  19.565  0.00  0.00     0.037 C 
ATOM     20  C1  ZIN A   1      16.198   3.871  20.171  0.00  0.00     0.016 C 
ATOM     21  C3  ZIN A   1      15.654   6.258  20.671  0.00  0.00     0.016 C 
ENDBRANCH  16  19
ENDBRANCH  13  14
ENDBRANCH   9  13
ENDBRANCH   6   7
BRANCH   6  22
ATOM     22  C50 ZIN A   1      16.761   4.728  11.205  0.00  0.00     0.009 C 
ATOM     23  C51 ZIN A   1      16.744   6.159  11.744  0.00  0.00     0.012 C 
ATOM     24  C52 ZIN A   1      17.683   4.653   9.985  0.00  0.00     0.012 C 
ENDBRANCH   6  22
ENDBRANCH   3   6
ENDBRANCH   1   2
BRANCH   1  25
ATOM     25  C20 ZIN A   1      19.935   1.556   9.244  0.00  0.00     0.063 C 
BRANCH  25  26
ATOM     26  C21 ZIN A   1      18.955   0.971   8.261  0.00  0.00    -0.056 A 
ATOM     27  C26 ZIN A   1      19.071   1.261   6.914  0.00  0.00     0.007 A 
ATOM     28  C25 ZIN A   1      18.174   0.720   6.012  0.00  0.00     0.001 A 
ATOM     29  C24 ZIN A   1      17.156  -0.102   6.457  0.00  0.00     0.000 A 
ATOM     30  C23 ZIN A   1      17.036  -0.387   7.804  0.00  0.00     0.001 A 
ATOM     31  C22 ZIN A   1      17.935   0.150   8.706  0.00  0.00     0.007 A 
ENDBRANCH  25  26
ENDBRANCH   1  25
BRANCH   1  32
ATOM     32  C27 ZIN A   1      20.740   0.549  11.384  0.00  0.00     0.059 C 
BRANCH  32  33
ATOM     33  C28 ZIN A   1      20.603  -0.975  11.416  0.00  0.00     0.143 C 
BRANCH  33  34
ATOM     34  O30 ZIN A   1      20.378  -1.460  10.090  0.00  0.00    -0.393 OA
ATOM     35  H78 ZIN A   1      21.018  -2.124   9.800  0.00  0.00     0.210 HD
ENDBRANCH  33  34
BRANCH  33  36
ATOM     36  C31 ZIN A   1      19.422  -1.363  12.308  0.00  0.00     0.119 C 
BRANCH  36  37
ATOM     37  C33 ZIN A   1      19.921  -1.624  13.730  0.00  0.00     0.066 C 
BRANCH  37  38
ATOM     38  C34 ZIN A   1      18.915  -1.094  14.720  0.00  0.00    -0.056 A 
ATOM     39  C39 ZIN A   1      18.723  -1.744  15.925  0.00  0.00     0.007 A 
ATOM     40  C38 ZIN A   1      17.804  -1.256  16.834  0.00  0.00     0.001 A 
ATOM     41  C37 ZIN A   1      17.070  -0.124  16.535  0.00  0.00     0.000 A 
ATOM     42  C36 ZIN A   1      17.259   0.524  15.329  0.00  0.00     0.001 A 
ATOM     43  C35 ZIN A   1      18.182   0.039  14.421  0.00  0.00     0.007 A 
ENDBRANCH  37  38
ENDBRANCH  36  37
BRANCH  36  44
ATOM     44  N40 ZIN A   1      18.790  -2.576  11.782  0.00  0.00    -0.329 N 
ATOM     45  C41 ZIN A   1      17.465  -2.593  11.535  0.00  0.00     0.361 C 
ATOM     46  O42 ZIN A   1      16.795  -1.602  11.748  0.00  0.00    -0.238 OA
ATOM     47  H86 ZIN A   1      19.326  -3.367  11.612  0.00  0.00     0.165 HD
BRANCH  45  48
ATOM     48  O43 ZIN A   1      16.885  -3.707  11.052  0.00  0.00    -0.299 OA
BRANCH  48  49
ATOM     49  C44 ZIN A   1      17.554  -4.968  11.318  0.00  0.00     0.228 C 
BRANCH  49  50
ATOM     50  C45 ZIN A   1      17.871  -5.654  10.014  0.00  0.00     0.025 A 
ATOM     51  S49 ZIN A   1      16.722  -6.502   8.982  0.00  0.00    -0.084 SA
ATOM     52  C48 ZIN A   1      17.974  -6.867   7.875  0.00  0.00     0.166 A 
ATOM     53  N47 ZIN A   1      19.094  -6.387   8.297  0.00  0.00    -0.265 NA
ATOM     54  C46 ZIN A   1      19.076  -5.731   9.440  0.00  0.00     0.133 A 
ENDBRANCH  49  50
ENDBRANCH  48  49
ENDBRANCH  45  48
ENDBRANCH  36  44
ENDBRANCH  33  36
ENDBRANCH  32  33
ENDBRANCH   1  32
TORSDOF 19
ENDMDL
MODEL 9
REMARK VINA RESULT:      -8.2      2.834     11.621
REMARK  19 active torsions:
REMARK  status: ('A' for Active; 'I' for Inactive)
REMARK    1  A    between atoms: C2_2  and  C4_4 
REMARK    2  A    between atoms: C6_6  and  C7_7 
REMARK    3  A    between atoms: C7_7  and  N8_8 
REMARK       I    between atoms: N8_8  and  C10_10 
REMARK       I    between atoms: C10_10  and  N12_12 
REMARK    4  A    between atoms: N12_12  and  C13_13 
REMARK    5  A    between atoms: C13_13  and  C15_14 
REMARK    6  A    between atoms: C13_13  and  C50_46 
REMARK       I    between atoms: C15_14  and  N17_16 
REMARK    7  A    between atoms: N17_16  and  C18_17 
REMARK    8  A    between atoms: C18_17  and  C20_18 
REMARK    9  A    between atoms: C18_17  and  C27_25 
REMARK   10  A    between atoms: C20_18  and  C21_19 
REMARK   11  A    between atoms: C27_25  and  C28_26 
REMARK   12  A    between atoms: C28_26  and  O30_27 
REMARK   13  A    between atoms: C28_26  and  C31_28 
REMARK   14  A    between atoms: C31_28  and  C33_29 
REMARK   15  A    between atoms: C31_28  and  N40_36 
REMARK   16  A    between atoms: C33_29  and  C34_30 
REMARK       I    between atoms: N40_36  and  C41_37 
REMARK   17  A    between atoms: C41_37  and  O43_39 
REMARK   18  A    between atoms: O43_39  and  C44_40 
REMARK   19  A    between atoms: C44_40  and  C45_41 
ROOT
ATOM      1  C18 ZIN A   1      19.182  -2.846  11.173  0.00  0.00     0.091 C 
ENDROOT
BRANCH   1   2
ATOM      2  N17 ZIN A   1      19.601  -1.823  10.211  0.00  0.00    -0.354 N 
ATOM      3  C15 ZIN A   1      18.761  -1.437   9.231  0.00  0.00     0.241 C 
ATOM      4  O16 ZIN A   1      17.625  -1.859   9.204  0.00  0.00    -0.271 OA
ATOM      5  H68 ZIN A   1      20.483  -1.424  10.281  0.00  0.00     0.162 HD
BRANCH   3   6
ATOM      6  C13 ZIN A   1      19.235  -0.479   8.167  0.00  0.00     0.181 C 
BRANCH   6   7
ATOM      7  N12 ZIN A   1      18.565  -0.786   6.901  0.00  0.00    -0.329 N 
ATOM      8  C10 ZIN A   1      18.951  -1.855   6.177  0.00  0.00     0.319 C 
ATOM      9  N8  ZIN A   1      18.336  -2.138   5.012  0.00  0.00    -0.333 N 
ATOM     10  O11 ZIN A   1      19.856  -2.565   6.576  0.00  0.00    -0.247 OA
ATOM     11  C9  ZIN A   1      17.248  -1.283   4.532  0.00  0.00     0.154 C 
ATOM     12  H67 ZIN A   1      17.844  -0.219   6.583  0.00  0.00     0.165 HD
BRANCH   9  13
ATOM     13  C7  ZIN A   1      18.756  -3.300   4.226  0.00  0.00     0.186 C 
BRANCH  13  14
ATOM     14  C6  ZIN A   1      17.630  -4.301   4.166  0.00  0.00     0.060 A 
ATOM     15  N5  ZIN A   1      16.854  -4.438   3.109  0.00  0.00    -0.248 NA
ATOM     16  C4  ZIN A   1      15.922  -5.328   3.175  0.00  0.00     0.078 A 
ATOM     17  S54 ZIN A   1      15.959  -6.108   4.696  0.00  0.00    -0.084 SA
ATOM     18  C53 ZIN A   1      17.335  -5.120   5.180  0.00  0.00     0.080 A 
BRANCH  16  19
ATOM     19  C2  ZIN A   1      14.938  -5.631   2.074  0.00  0.00     0.037 C 
ATOM     20  C1  ZIN A   1      13.520  -5.642   2.647  0.00  0.00     0.016 C 
ATOM     21  C3  ZIN A   1      15.043  -4.558   0.988  0.00  0.00     0.016 C 
ENDBRANCH  16  19
ENDBRANCH  13  14
ENDBRANCH   9  13
ENDBRANCH   6   7
BRANCH   6  22
ATOM     22  C50 ZIN A   1      18.901   0.954   8.587  0.00  0.00     0.009 C 
ATOM     23  C51 ZIN A   1      17.654   0.949   9.474  0.00  0.00     0.012 C 
ATOM     24  C52 ZIN A   1      20.079   1.545   9.365  0.00  0.00     0.012 C 
ENDBRANCH   6  22
ENDBRANCH   3   6
ENDBRANCH   1   2
BRANCH   1  25
ATOM     25  C20 ZIN A   1      19.973  -4.132  10.926  0.00  0.00     0.063 C 
BRANCH  25  26
ATOM     26  C21 ZIN A   1      19.132  -5.093  10.126  0.00  0.00    -0.056 A 
ATOM     27  C26 ZIN A   1      17.861  -5.424  10.558  0.00  0.00     0.007 A 
ATOM     28  C25 ZIN A   1      17.088  -6.302   9.821  0.00  0.00     0.001 A 
ATOM     29  C24 ZIN A   1      17.589  -6.855   8.658  0.00  0.00     0.000 A 
ATOM     30  C23 ZIN A   1      18.862  -6.529   8.229  0.00  0.00     0.001 A 
ATOM     31  C22 ZIN A   1      19.633  -5.648   8.963  0.00  0.00     0.007 A 
ENDBRANCH  25  26
ENDBRANCH   1  25
BRANCH   1  32
ATOM     32  C27 ZIN A   1      19.449  -2.348  12.595  0.00  0.00     0.059 C 
BRANCH  32  33
ATOM     33  C28 ZIN A   1      18.122  -1.982  13.265  0.00  0.00     0.143 C 
BRANCH  33  34
ATOM     34  O30 ZIN A   1      17.226  -1.453  12.285  0.00  0.00    -0.393 OA
ATOM     35  H78 ZIN A   1      16.369  -1.183  12.642  0.00  0.00     0.210 HD
ENDBRANCH  33  34
BRANCH  33  36
ATOM     36  C31 ZIN A   1      18.371  -0.932  14.348  0.00  0.00     0.119 C 
BRANCH  36  37
ATOM     37  C33 ZIN A   1      17.545  -1.274  15.589  0.00  0.00     0.066 C 
BRANCH  37  38
ATOM     38  C34 ZIN A   1      17.921  -0.345  16.715  0.00  0.00    -0.056 A 
ATOM     39  C39 ZIN A   1      16.947   0.399  17.353  0.00  0.00     0.007 A 
ATOM     40  C38 ZIN A   1      17.292   1.248  18.387  0.00  0.00     0.001 A 
ATOM     41  C37 ZIN A   1      18.612   1.358  18.780  0.00  0.00     0.000 A 
ATOM     42  C36 ZIN A   1      19.588   0.618  18.140  0.00  0.00     0.001 A 
ATOM     43  C35 ZIN A   1      19.243  -0.235  17.107  0.00  0.00     0.007 A 
ENDBRANCH  37  38
ENDBRANCH  36  37
BRANCH  36  44
ATOM     44  N40 ZIN A   1      17.977   0.388  13.849  0.00  0.00    -0.329 N 
ATOM     45  C41 ZIN A   1      18.909   1.229  13.357  0.00  0.00     0.361 C 
ATOM     46  O42 ZIN A   1      20.076   0.892  13.328  0.00  0.00    -0.238 OA
ATOM     47  H86 ZIN A   1      17.045   0.657  13.873  0.00  0.00     0.165 HD
BRANCH  45  48
ATOM     48  O43 ZIN A   1      18.546   2.441  12.897  0.00  0.00    -0.299 OA
BRANCH  48  49
ATOM     49  C44 ZIN A   1      17.838   3.311  13.820  0.00  0.00     0.228 C 
BRANCH  49  50
ATOM     50  C45 ZIN A   1      18.831   4.026  14.699  0.00  0.00     0.025 A 
ATOM     51  S49 ZIN A   1      19.664   5.530  14.312  0.00  0.00    -0.084 SA
ATOM     52  C48 ZIN A   1      20.471   5.480  15.819  0.00  0.00     0.166 A 
ATOM     53  N47 ZIN A   1      20.117   4.429  16.479  0.00  0.00    -0.265 NA
ATOM     54  C46 ZIN A   1      19.239   3.628  15.908  0.00  0.00     0.133 A 
ENDBRANCH  49  50
ENDBRANCH  48  49
ENDBRANCH  45  48
ENDBRANCH  36  44
ENDBRANCH  33  36
ENDBRANCH  32  33
ENDBRANCH   1  32
TORSDOF 19
ENDMDL
