MODEL 1
REMARK VINA RESULT:     -10.4      0.000      0.000
REMARK  6 active torsions:
REMARK  status: ('A' for Active; 'I' for Inactive)
REMARK    1  A    between atoms: C2_2  and  C3_3 
REMARK    2  A    between atoms: C6_6  and  O7_7 
REMARK    3  A    between atoms: O7_7  and  C8_8 
REMARK       I    between atoms: C8_8  and  N10_10 
REMARK    4  A    between atoms: C13_13  and  N14_14 
REMARK    5  A    between atoms: C39_39  and  O40_40 
REMARK    6  A    between atoms: C39_39  and  C41_41 
ROOT
ATOM      1  C3  ZIN A   1      19.156  -2.905  10.320  0.00  0.00    -0.035 A 
ATOM      2  C4  ZIN A   1      19.140  -2.498   8.970  0.00  0.00     0.002 A 
ATOM      3  C5  ZIN A   1      19.179  -3.435   7.927  0.00  0.00     0.051 A 
ATOM      4  C6  ZIN A   1      19.162  -3.003   6.631  0.00  0.00     0.082 A 
ATOM      5  C23 ZIN A   1      19.106  -1.638   6.332  0.00  0.00     0.040 A 
ATOM      6  C24 ZIN A   1      19.068  -0.706   7.321  0.00  0.00     0.035 A 
ATOM      7  C25 ZIN A   1      19.083  -1.113   8.669  0.00  0.00     0.068 A 
ATOM      8  N26 ZIN A   1      19.044  -0.215   9.653  0.00  0.00    -0.245 NA
ATOM      9  C27 ZIN A   1      19.058  -0.584  10.926  0.00  0.00     0.093 A 
ATOM     10  C28 ZIN A   1      19.108  -1.943  11.280  0.00  0.00    -0.002 A 
ATOM     11  C29 ZIN A   1      19.109  -1.999  12.787  0.00  0.00     0.174 A 
ATOM     12  N30 ZIN A   1      19.057  -0.609  13.256  0.00  0.00    -0.307 N 
ATOM     13  C31 ZIN A   1      19.021   0.218  12.170  0.00  0.00     0.068 A 
ATOM     14  C32 ZIN A   1      18.966   1.584  12.350  0.00  0.00     0.043 A 
ATOM     15  C33 ZIN A   1      18.953   2.125  13.643  0.00  0.00     0.002 A 
ATOM     16  C34 ZIN A   1      18.998   1.292  14.717  0.00  0.00     0.044 A 
ATOM     17  C35 ZIN A   1      19.011   1.801  16.133  0.00  0.00     0.224 C 
ATOM     18  O36 ZIN A   1      18.594   3.191  16.182  0.00  0.00    -0.314 OA
ATOM     19  C37 ZIN A   1      19.154   3.983  15.240  0.00  0.00     0.298 C 
ATOM     20  O38 ZIN A   1      19.840   4.933  15.537  0.00  0.00    -0.261 OA
ATOM     21  C39 ZIN A   1      18.879   3.623  13.799  0.00  0.00     0.173 C 
ATOM     22  C43 ZIN A   1      19.035  -0.102  14.504  0.00  0.00     0.257 A 
ATOM     23  O44 ZIN A   1      19.056  -0.857  15.462  0.00  0.00    -0.267 OA
ENDROOT
BRANCH   4  24
ATOM     24  O7  ZIN A   1      19.200  -3.912   5.621  0.00  0.00    -0.261 OA
BRANCH  24  25
ATOM     25  C8  ZIN A   1      18.051  -4.134   4.956  0.00  0.00     0.368 C 
ATOM     26  O9  ZIN A   1      17.620  -3.296   4.189  0.00  0.00    -0.238 OA
ATOM     27  N10 ZIN A   1      17.377  -5.287   5.141  0.00  0.00    -0.328 N 
ATOM     28  C22 ZIN A   1      16.122  -5.544   4.421  0.00  0.00     0.130 C 
ATOM     29  C11 ZIN A   1      17.881  -6.308   6.069  0.00  0.00     0.130 C 
ATOM     30  C21 ZIN A   1      15.035  -5.907   5.431  0.00  0.00     0.053 C 
ATOM     31  C13 ZIN A   1      15.515  -7.074   6.296  0.00  0.00     0.191 C 
ATOM     32  C12 ZIN A   1      16.772  -6.660   7.065  0.00  0.00     0.053 C 
BRANCH  31  33
ATOM     33  N14 ZIN A   1      14.458  -7.445   7.248  0.00  0.00    -0.067 N 
ATOM     34  H15 ZIN A   1      14.838  -7.451   8.183  0.00  0.00     0.280 HD
ATOM     35  C20 ZIN A   1      13.367  -6.466   7.170  0.00  0.00     0.235 C 
ATOM     36  C19 ZIN A   1      12.303  -6.801   8.218  0.00  0.00     0.028 C 
ATOM     37  C18 ZIN A   1      11.752  -8.203   7.947  0.00  0.00     0.003 C 
ATOM     38  C17 ZIN A   1      12.910  -9.207   7.954  0.00  0.00     0.028 C 
ATOM     39  C16 ZIN A   1      13.952  -8.782   6.918  0.00  0.00     0.235 C 
ENDBRANCH  31  33
ENDBRANCH  24  25
ENDBRANCH   4  24
BRANCH   1  40
ATOM     40  C2  ZIN A   1      19.217  -4.364  10.689  0.00  0.00     0.036 C 
ATOM     41  C1  ZIN A   1      17.806  -4.874  10.987  0.00  0.00     0.010 C 
ENDBRANCH   1  40
BRANCH  21  42
ATOM     42  O40 ZIN A   1      19.854   4.241  12.957  0.00  0.00    -0.375 OA
ATOM     43  H77 ZIN A   1      20.716   4.365  13.378  0.00  0.00     0.211 HD
ENDBRANCH  21  42
BRANCH  21  44
ATOM     44  C41 ZIN A   1      17.482   4.109  13.408  0.00  0.00     0.049 C 
ATOM     45  C42 ZIN A   1      17.592   5.089  12.237  0.00  0.00     0.009 C 
ENDBRANCH  21  44
TORSDOF 6
ENDMDL
MODEL 2
REMARK VINA RESULT:     -10.2      3.461     11.713
REMARK  6 active torsions:
REMARK  status: ('A' for Active; 'I' for Inactive)
REMARK    1  A    between atoms: C2_2  and  C3_3 
REMARK    2  A    between atoms: C6_6  and  O7_7 
REMARK    3  A    between atoms: O7_7  and  C8_8 
REMARK       I    between atoms: C8_8  and  N10_10 
REMARK    4  A    between atoms: C13_13  and  N14_14 
REMARK    5  A    between atoms: C39_39  and  O40_40 
REMARK    6  A    between atoms: C39_39  and  C41_41 
ROOT
ATOM      1  C3  ZIN A   1      19.079   1.696  13.539  0.00  0.00    -0.035 A 
ATOM      2  C4  ZIN A   1      19.060   0.840  14.658  0.00  0.00     0.002 A 
ATOM      3  C5  ZIN A   1      19.064   1.349  15.965  0.00  0.00     0.051 A 
ATOM      4  C6  ZIN A   1      19.046   0.488  17.025  0.00  0.00     0.082 A 
ATOM      5  C23 ZIN A   1      19.024  -0.896  16.824  0.00  0.00     0.040 A 
ATOM      6  C24 ZIN A   1      19.021  -1.421  15.570  0.00  0.00     0.035 A 
ATOM      7  C25 ZIN A   1      19.038  -0.564  14.451  0.00  0.00     0.068 A 
ATOM      8  N26 ZIN A   1      19.033  -1.058  13.214  0.00  0.00    -0.245 NA
ATOM      9  C27 ZIN A   1      19.049  -0.265  12.153  0.00  0.00     0.093 A 
ATOM     10  C28 ZIN A   1      19.066   1.133  12.301  0.00  0.00    -0.002 A 
ATOM     11  C29 ZIN A   1      19.081   1.717  10.911  0.00  0.00     0.174 A 
ATOM     12  N30 ZIN A   1      19.070   0.581   9.981  0.00  0.00    -0.307 N 
ATOM     13  C31 ZIN A   1      19.046  -0.577  10.706  0.00  0.00     0.068 A 
ATOM     14  C32 ZIN A   1      19.030  -1.793  10.055  0.00  0.00     0.043 A 
ATOM     15  C33 ZIN A   1      19.044  -1.844   8.655  0.00  0.00     0.002 A 
ATOM     16  C34 ZIN A   1      19.077  -0.685   7.944  0.00  0.00     0.044 A 
ATOM     17  C35 ZIN A   1      19.118  -0.662   6.439  0.00  0.00     0.224 C 
ATOM     18  O36 ZIN A   1      18.739  -1.954   5.896  0.00  0.00    -0.314 OA
ATOM     19  C37 ZIN A   1      19.310  -3.016   6.510  0.00  0.00     0.298 C 
ATOM     20  O38 ZIN A   1      20.025  -3.784   5.911  0.00  0.00    -0.261 OA
ATOM     21  C39 ZIN A   1      19.012  -3.192   7.980  0.00  0.00     0.173 C 
ATOM     22  C43 ZIN A   1      19.075   0.545   8.635  0.00  0.00     0.257 A 
ATOM     23  O44 ZIN A   1      19.085   1.589   8.004  0.00  0.00    -0.267 OA
ENDROOT
BRANCH   4  24
ATOM     24  O7  ZIN A   1      19.049   0.983  18.291  0.00  0.00    -0.261 OA
BRANCH  24  25
ATOM     25  C8  ZIN A   1      17.943   1.636  18.695  0.00  0.00     0.368 C 
ATOM     26  O9  ZIN A   1      16.952   1.011  19.015  0.00  0.00    -0.238 OA
ATOM     27  N10 ZIN A   1      17.936   2.983  18.744  0.00  0.00    -0.328 N 
ATOM     28  C22 ZIN A   1      16.737   3.709  19.184  0.00  0.00     0.130 C 
ATOM     29  C11 ZIN A   1      19.125   3.753  18.354  0.00  0.00     0.130 C 
ATOM     30  C21 ZIN A   1      16.361   4.738  18.120  0.00  0.00     0.053 C 
ATOM     31  C13 ZIN A   1      17.567   5.633  17.830  0.00  0.00     0.191 C 
ATOM     32  C12 ZIN A   1      18.720   4.781  17.294  0.00  0.00     0.053 C 
BRANCH  31  33
ATOM     33  N14 ZIN A   1      17.198   6.644  16.828  0.00  0.00    -0.067 N 
ATOM     34  H15 ZIN A   1      16.992   7.515  17.293  0.00  0.00     0.280 HD
ATOM     35  C20 ZIN A   1      18.316   6.839  15.898  0.00  0.00     0.235 C 
ATOM     36  C19 ZIN A   1      17.968   7.949  14.903  0.00  0.00     0.028 C 
ATOM     37  C18 ZIN A   1      16.715   7.549  14.120  0.00  0.00     0.003 C 
ATOM     38  C17 ZIN A   1      15.575   7.274  15.105  0.00  0.00     0.028 C 
ATOM     39  C16 ZIN A   1      16.011   6.190  16.092  0.00  0.00     0.235 C 
ENDBRANCH  31  33
ENDBRANCH  24  25
ENDBRANCH   4  24
BRANCH   1  40
ATOM     40  C2  ZIN A   1      19.104   3.193  13.708  0.00  0.00     0.036 C 
ATOM     41  C1  ZIN A   1      17.683   3.745  13.578  0.00  0.00     0.010 C 
ENDBRANCH   1  40
BRANCH  21  42
ATOM     42  O40 ZIN A   1      19.995  -4.045   8.569  0.00  0.00    -0.375 OA
ATOM     43  H77 ZIN A   1      19.658  -4.914   8.830  0.00  0.00     0.211 HD
ENDBRANCH  21  42
BRANCH  21  44
ATOM     44  C41 ZIN A   1      17.624  -3.815   8.149  0.00  0.00     0.049 C 
ATOM     45  C42 ZIN A   1      17.753  -5.157   8.875  0.00  0.00     0.009 C 
ENDBRANCH  21  44
TORSDOF 6
ENDMDL
MODEL 3
REMARK VINA RESULT:     -10.1      3.173     11.561
REMARK  6 active torsions:
REMARK  status: ('A' for Active; 'I' for Inactive)
REMARK    1  A    between atoms: C2_2  and  C3_3 
REMARK    2  A    between atoms: C6_6  and  O7_7 
REMARK    3  A    between atoms: O7_7  and  C8_8 
REMARK       I    between atoms: C8_8  and  N10_10 
REMARK    4  A    between atoms: C13_13  and  N14_14 
REMARK    5  A    between atoms: C39_39  and  O40_40 
REMARK    6  A    between atoms: C39_39  and  C41_41 
ROOT
ATOM      1  C3  ZIN A   1      17.645   0.025  12.413  0.00  0.00    -0.035 A 
ATOM      2  C4  ZIN A   1      17.803   1.220  11.681  0.00  0.00     0.002 A 
ATOM      3  C5  ZIN A   1      17.791   2.470  12.316  0.00  0.00     0.051 A 
ATOM      4  C6  ZIN A   1      17.947   3.606  11.573  0.00  0.00     0.082 A 
ATOM      5  C23 ZIN A   1      18.120   3.537  10.187  0.00  0.00     0.040 A 
ATOM      6  C24 ZIN A   1      18.136   2.340   9.543  0.00  0.00     0.035 A 
ATOM      7  C25 ZIN A   1      17.978   1.147  10.275  0.00  0.00     0.068 A 
ATOM      8  N26 ZIN A   1      17.993  -0.037   9.663  0.00  0.00    -0.245 NA
ATOM      9  C27 ZIN A   1      17.846  -1.166  10.339  0.00  0.00     0.093 A 
ATOM     10  C28 ZIN A   1      17.674  -1.152  11.733  0.00  0.00    -0.002 A 
ATOM     11  C29 ZIN A   1      17.540  -2.589  12.170  0.00  0.00     0.174 A 
ATOM     12  N30 ZIN A   1      17.646  -3.405  10.954  0.00  0.00    -0.307 N 
ATOM     13  C31 ZIN A   1      17.830  -2.575   9.885  0.00  0.00     0.068 A 
ATOM     14  C32 ZIN A   1      17.960  -3.107   8.619  0.00  0.00     0.043 A 
ATOM     15  C33 ZIN A   1      17.899  -4.493   8.426  0.00  0.00     0.002 A 
ATOM     16  C34 ZIN A   1      17.707  -5.310   9.497  0.00  0.00     0.044 A 
ATOM     17  C35 ZIN A   1      17.607  -6.805   9.364  0.00  0.00     0.224 C 
ATOM     18  O36 ZIN A   1      18.110  -7.240   8.074  0.00  0.00    -0.314 OA
ATOM     19  C37 ZIN A   1      17.688  -6.501   7.023  0.00  0.00     0.298 C 
ATOM     20  O38 ZIN A   1      17.043  -6.988   6.124  0.00  0.00    -0.261 OA
ATOM     21  C39 ZIN A   1      18.060  -5.037   7.029  0.00  0.00     0.173 C 
ATOM     22  C43 ZIN A   1      17.594  -4.740  10.783  0.00  0.00     0.257 A 
ATOM     23  O44 ZIN A   1      17.441  -5.467  11.751  0.00  0.00    -0.267 OA
ENDROOT
BRANCH   4  24
ATOM     24  O7  ZIN A   1      17.935   4.817  12.189  0.00  0.00    -0.261 OA
BRANCH  24  25
ATOM     25  C8  ZIN A   1      19.015   5.139  12.926  0.00  0.00     0.368 C 
ATOM     26  O9  ZIN A   1      20.122   4.791  12.567  0.00  0.00    -0.238 OA
ATOM     27  N10 ZIN A   1      18.868   5.848  14.064  0.00  0.00    -0.328 N 
ATOM     28  C22 ZIN A   1      20.038   6.207  14.878  0.00  0.00     0.130 C 
ATOM     29  C11 ZIN A   1      17.536   6.270  14.515  0.00  0.00     0.130 C 
ATOM     30  C21 ZIN A   1      19.806   5.741  16.314  0.00  0.00     0.053 C 
ATOM     31  C13 ZIN A   1      18.483   6.313  16.826  0.00  0.00     0.191 C 
ATOM     32  C12 ZIN A   1      17.332   5.799  15.959  0.00  0.00     0.053 C 
BRANCH  31  33
ATOM     33  N14 ZIN A   1      18.273   5.891  18.218  0.00  0.00    -0.067 N 
ATOM     34  H15 ZIN A   1      19.167   5.761  18.667  0.00  0.00     0.280 HD
ATOM     35  C20 ZIN A   1      17.513   6.924  18.931  0.00  0.00     0.235 C 
ATOM     36  C19 ZIN A   1      17.363   6.527  20.402  0.00  0.00     0.028 C 
ATOM     37  C18 ZIN A   1      16.619   5.193  20.491  0.00  0.00     0.003 C 
ATOM     38  C17 ZIN A   1      17.380   4.139  19.680  0.00  0.00     0.028 C 
ATOM     39  C16 ZIN A   1      17.531   4.625  18.237  0.00  0.00     0.235 C 
ENDBRANCH  31  33
ENDBRANCH  24  25
ENDBRANCH   4  24
BRANCH   1  40
ATOM     40  C2  ZIN A   1      17.454   0.052  13.908  0.00  0.00     0.036 C 
ATOM     41  C1  ZIN A   1      18.786  -0.254  14.597  0.00  0.00     0.010 C 
ENDBRANCH   1  40
BRANCH  21  42
ATOM     42  O40 ZIN A   1      17.204  -4.322   6.136  0.00  0.00    -0.375 OA
ATOM     43  H77 ZIN A   1      17.392  -3.374   6.084  0.00  0.00     0.211 HD
ENDBRANCH  21  42
BRANCH  21  44
ATOM     44  C41 ZIN A   1      19.515  -4.877   6.583  0.00  0.00     0.049 C 
ATOM     45  C42 ZIN A   1      19.675  -3.555   5.827  0.00  0.00     0.009 C 
ENDBRANCH  21  44
TORSDOF 6
ENDMDL
MODEL 4
REMARK VINA RESULT:     -10.0      2.276      3.232
REMARK  6 active torsions:
REMARK  status: ('A' for Active; 'I' for Inactive)
REMARK    1  A    between atoms: C2_2  and  C3_3 
REMARK    2  A    between atoms: C6_6  and  O7_7 
REMARK    3  A    between atoms: O7_7  and  C8_8 
REMARK       I    between atoms: C8_8  and  N10_10 
REMARK    4  A    between atoms: C13_13  and  N14_14 
REMARK    5  A    between atoms: C39_39  and  O40_40 
REMARK    6  A    between atoms: C39_39  and  C41_41 
ROOT
ATOM      1  C3  ZIN A   1      18.481  -1.294  10.474  0.00  0.00    -0.035 A 
ATOM      2  C4  ZIN A   1      18.781  -0.307   9.513  0.00  0.00     0.002 A 
ATOM      3  C5  ZIN A   1      18.811  -0.610   8.144  0.00  0.00     0.051 A 
ATOM      4  C6  ZIN A   1      19.106   0.373   7.242  0.00  0.00     0.082 A 
ATOM      5  C23 ZIN A   1      19.378   1.677   7.668  0.00  0.00     0.040 A 
ATOM      6  C24 ZIN A   1      19.358   2.002   8.988  0.00  0.00     0.035 A 
ATOM      7  C25 ZIN A   1      19.058   1.015   9.948  0.00  0.00     0.068 A 
ATOM      8  N26 ZIN A   1      19.031   1.312  11.246  0.00  0.00    -0.245 NA
ATOM      9  C27 ZIN A   1      18.750   0.395  12.159  0.00  0.00     0.093 A 
ATOM     10  C28 ZIN A   1      18.463  -0.929  11.784  0.00  0.00    -0.002 A 
ATOM     11  C29 ZIN A   1      18.192  -1.692  13.056  0.00  0.00     0.174 A 
ATOM     12  N30 ZIN A   1      18.340  -0.733  14.157  0.00  0.00    -0.307 N 
ATOM     13  C31 ZIN A   1      18.660   0.488  13.635  0.00  0.00     0.068 A 
ATOM     14  C32 ZIN A   1      18.851   1.564  14.474  0.00  0.00     0.043 A 
ATOM     15  C33 ZIN A   1      18.724   1.409  15.861  0.00  0.00     0.002 A 
ATOM     16  C34 ZIN A   1      18.414   0.186  16.371  0.00  0.00     0.044 A 
ATOM     17  C35 ZIN A   1      18.284  -0.061  17.850  0.00  0.00     0.224 C 
ATOM     18  O36 ZIN A   1      18.154   1.192  18.571  0.00  0.00    -0.314 OA
ATOM     19  C37 ZIN A   1      19.015   2.160  18.184  0.00  0.00     0.298 C 
ATOM     20  O38 ZIN A   1      19.817   2.638  18.951  0.00  0.00    -0.261 OA
ATOM     21  C39 ZIN A   1      18.927   2.613  16.745  0.00  0.00     0.173 C 
ATOM     22  C43 ZIN A   1      18.206  -0.893  15.488  0.00  0.00     0.257 A 
ATOM     23  O44 ZIN A   1      17.908  -1.988  15.936  0.00  0.00    -0.267 OA
ENDROOT
BRANCH   4  24
ATOM     24  O7  ZIN A   1      19.134   0.080   5.915  0.00  0.00    -0.261 OA
BRANCH  24  25
ATOM     25  C8  ZIN A   1      18.052  -0.536   5.402  0.00  0.00     0.368 C 
ATOM     26  O9  ZIN A   1      16.991   0.053   5.340  0.00  0.00    -0.238 OA
ATOM     27  N10 ZIN A   1      18.145  -1.805   4.958  0.00  0.00    -0.328 N 
ATOM     28  C22 ZIN A   1      16.973  -2.489   4.395  0.00  0.00     0.130 C 
ATOM     29  C11 ZIN A   1      19.419  -2.532   5.033  0.00  0.00     0.130 C 
ATOM     30  C21 ZIN A   1      16.771  -3.814   5.127  0.00  0.00     0.053 C 
ATOM     31  C13 ZIN A   1      18.063  -4.629   5.068  0.00  0.00     0.191 C 
ATOM     32  C12 ZIN A   1      19.188  -3.858   5.763  0.00  0.00     0.053 C 
BRANCH  31  33
ATOM     33  N14 ZIN A   1      17.861  -5.918   5.746  0.00  0.00    -0.067 N 
ATOM     34  H15 ZIN A   1      18.435  -6.621   5.305  0.00  0.00     0.280 HD
ATOM     35  C20 ZIN A   1      18.242  -5.790   7.158  0.00  0.00     0.235 C 
ATOM     36  C19 ZIN A   1      18.112  -7.150   7.848  0.00  0.00     0.028 C 
ATOM     37  C18 ZIN A   1      16.662  -7.628   7.752  0.00  0.00     0.003 C 
ATOM     38  C17 ZIN A   1      16.249  -7.684   6.277  0.00  0.00     0.028 C 
ATOM     39  C16 ZIN A   1      16.450  -6.306   5.645  0.00  0.00     0.235 C 
ENDBRANCH  31  33
ENDBRANCH  24  25
ENDBRANCH   4  24
BRANCH   1  40
ATOM     40  C2  ZIN A   1      18.183  -2.712  10.062  0.00  0.00     0.036 C 
ATOM     41  C1  ZIN A   1      19.415  -3.585  10.307  0.00  0.00     0.010 C 
ENDBRANCH   1  40
BRANCH  21  42
ATOM     42  O40 ZIN A   1      20.137   3.278  16.378  0.00  0.00    -0.375 OA
ATOM     43  H77 ZIN A   1      20.524   2.963  15.549  0.00  0.00     0.211 HD
ENDBRANCH  21  42
BRANCH  21  44
ATOM     44  C41 ZIN A   1      17.746   3.572  16.582  0.00  0.00     0.049 C 
ATOM     45  C42 ZIN A   1      18.197   4.998  16.908  0.00  0.00     0.009 C 
ENDBRANCH  21  44
TORSDOF 6
ENDMDL
MODEL 5
REMARK VINA RESULT:     -10.0      1.836      3.629
REMARK  6 active torsions:
REMARK  status: ('A' for Active; 'I' for Inactive)
REMARK    1  A    between atoms: C2_2  and  C3_3 
REMARK    2  A    between atoms: C6_6  and  O7_7 
REMARK    3  A    between atoms: O7_7  and  C8_8 
REMARK       I    between atoms: C8_8  and  N10_10 
REMARK    4  A    between atoms: C13_13  and  N14_14 
REMARK    5  A    between atoms: C39_39  and  O40_40 
REMARK    6  A    between atoms: C39_39  and  C41_41 
ROOT
ATOM      1  C3  ZIN A   1      18.162  -0.367   9.607  0.00  0.00    -0.035 A 
ATOM      2  C4  ZIN A   1      18.745  -1.494  10.220  0.00  0.00     0.002 A 
ATOM      3  C5  ZIN A   1      18.952  -2.685   9.509  0.00  0.00     0.051 A 
ATOM      4  C6  ZIN A   1      19.520  -3.756  10.138  0.00  0.00     0.082 A 
ATOM      5  C23 ZIN A   1      19.898  -3.681  11.482  0.00  0.00     0.040 A 
ATOM      6  C24 ZIN A   1      19.710  -2.541  12.199  0.00  0.00     0.035 A 
ATOM      7  C25 ZIN A   1      19.127  -1.414  11.585  0.00  0.00     0.068 A 
ATOM      8  N26 ZIN A   1      18.936  -0.287  12.269  0.00  0.00    -0.245 NA
ATOM      9  C27 ZIN A   1      18.390   0.779  11.704  0.00  0.00     0.093 A 
ATOM     10  C28 ZIN A   1      17.998   0.757  10.354  0.00  0.00    -0.002 A 
ATOM     11  C29 ZIN A   1      17.424   2.117  10.046  0.00  0.00     0.174 A 
ATOM     12  N30 ZIN A   1      17.516   2.899  11.285  0.00  0.00    -0.307 N 
ATOM     13  C31 ZIN A   1      18.084   2.121  12.252  0.00  0.00     0.068 A 
ATOM     14  C32 ZIN A   1      18.281   2.634  13.517  0.00  0.00     0.043 A 
ATOM     15  C33 ZIN A   1      17.895   3.947  13.813  0.00  0.00     0.002 A 
ATOM     16  C34 ZIN A   1      17.321   4.711  12.844  0.00  0.00     0.044 A 
ATOM     17  C35 ZIN A   1      16.860   6.121  13.096  0.00  0.00     0.224 C 
ATOM     18  O36 ZIN A   1      17.441   6.640  14.320  0.00  0.00    -0.314 OA
ATOM     19  C37 ZIN A   1      17.406   5.787  15.369  0.00  0.00     0.298 C 
ATOM     20  O38 ZIN A   1      16.817   6.060  16.388  0.00  0.00    -0.261 OA
ATOM     21  C39 ZIN A   1      18.140   4.477  15.204  0.00  0.00     0.173 C 
ATOM     22  C43 ZIN A   1      17.148   4.166  11.555  0.00  0.00     0.257 A 
ATOM     23  O44 ZIN A   1      16.652   4.851  10.675  0.00  0.00    -0.267 OA
ENDROOT
BRANCH   4  24
ATOM     24  O7  ZIN A   1      19.721  -4.910   9.448  0.00  0.00    -0.261 OA
BRANCH  24  25
ATOM     25  C8  ZIN A   1      19.315  -4.933   8.164  0.00  0.00     0.368 C 
ATOM     26  O9  ZIN A   1      19.739  -4.109   7.378  0.00  0.00    -0.238 OA
ATOM     27  N10 ZIN A   1      18.438  -5.870   7.751  0.00  0.00    -0.328 N 
ATOM     28  C22 ZIN A   1      17.987  -5.908   6.353  0.00  0.00     0.130 C 
ATOM     29  C11 ZIN A   1      17.911  -6.868   8.691  0.00  0.00     0.130 C 
ATOM     30  C21 ZIN A   1      16.460  -5.893   6.322  0.00  0.00     0.053 C 
ATOM     31  C13 ZIN A   1      15.923  -7.034   7.188  0.00  0.00     0.191 C 
ATOM     32  C12 ZIN A   1      16.381  -6.839   8.635  0.00  0.00     0.053 C 
BRANCH  31  33
ATOM     33  N14 ZIN A   1      14.455  -7.039   7.135  0.00  0.00    -0.067 N 
ATOM     34  H15 ZIN A   1      14.151  -6.750   6.217  0.00  0.00     0.280 HD
ATOM     35  C20 ZIN A   1      13.963  -8.395   7.408  0.00  0.00     0.235 C 
ATOM     36  C19 ZIN A   1      12.438  -8.424   7.273  0.00  0.00     0.028 C 
ATOM     37  C18 ZIN A   1      11.824  -7.446   8.277  0.00  0.00     0.003 C 
ATOM     38  C17 ZIN A   1      12.402  -6.048   8.034  0.00  0.00     0.028 C 
ATOM     39  C16 ZIN A   1      13.927  -6.107   8.139  0.00  0.00     0.235 C 
ENDBRANCH  31  33
ENDBRANCH  24  25
ENDBRANCH   4  24
BRANCH   1  40
ATOM     40  C2  ZIN A   1      17.739  -0.404   8.161  0.00  0.00     0.036 C 
ATOM     41  C1  ZIN A   1      18.905   0.044   7.277  0.00  0.00     0.010 C 
ENDBRANCH   1  40
BRANCH  21  42
ATOM     42  O40 ZIN A   1      17.660   3.535  16.165  0.00  0.00    -0.375 OA
ATOM     43  H77 ZIN A   1      18.304   2.854  16.406  0.00  0.00     0.211 HD
ENDBRANCH  21  42
BRANCH  21  44
ATOM     44  C41 ZIN A   1      19.640   4.701  15.409  0.00  0.00     0.049 C 
ATOM     45  C42 ZIN A   1      20.122   3.868  16.599  0.00  0.00     0.009 C 
ENDBRANCH  21  44
TORSDOF 6
ENDMDL
MODEL 6
REMARK VINA RESULT:      -9.4      1.715      2.502
REMARK  6 active torsions:
REMARK  status: ('A' for Active; 'I' for Inactive)
REMARK    1  A    between atoms: C2_2  and  C3_3 
REMARK    2  A    between atoms: C6_6  and  O7_7 
REMARK    3  A    between atoms: O7_7  and  C8_8 
REMARK       I    between atoms: C8_8  and  N10_10 
REMARK    4  A    between atoms: C13_13  and  N14_14 
REMARK    5  A    between atoms: C39_39  and  O40_40 
REMARK    6  A    between atoms: C39_39  and  C41_41 
ROOT
ATOM      1  C3  ZIN A   1      19.441  -0.669  10.790  0.00  0.00    -0.035 A 
ATOM      2  C4  ZIN A   1      19.302  -0.141   9.491  0.00  0.00     0.002 A 
ATOM      3  C5  ZIN A   1      19.444  -0.953   8.356  0.00  0.00     0.051 A 
ATOM      4  C6  ZIN A   1      19.302  -0.405   7.112  0.00  0.00     0.082 A 
ATOM      5  C23 ZIN A   1      19.018   0.956   6.957  0.00  0.00     0.040 A 
ATOM      6  C24 ZIN A   1      18.876   1.769   8.037  0.00  0.00     0.035 A 
ATOM      7  C25 ZIN A   1      19.014   1.240   9.336  0.00  0.00     0.068 A 
ATOM      8  N26 ZIN A   1      18.876   2.019  10.408  0.00  0.00    -0.245 NA
ATOM      9  C27 ZIN A   1      19.004   1.535  11.634  0.00  0.00     0.093 A 
ATOM     10  C28 ZIN A   1      19.284   0.174  11.845  0.00  0.00    -0.002 A 
ATOM     11  C29 ZIN A   1      19.359  -0.028  13.337  0.00  0.00     0.174 A 
ATOM     12  N30 ZIN A   1      19.108   1.282  13.949  0.00  0.00    -0.307 N 
ATOM     13  C31 ZIN A   1      18.894   2.195  12.956  0.00  0.00     0.068 A 
ATOM     14  C32 ZIN A   1      18.632   3.510  13.277  0.00  0.00     0.043 A 
ATOM     15  C33 ZIN A   1      18.590   3.913  14.619  0.00  0.00     0.002 A 
ATOM     16  C34 ZIN A   1      18.813   2.997  15.600  0.00  0.00     0.044 A 
ATOM     17  C35 ZIN A   1      18.807   3.362  17.060  0.00  0.00     0.224 C 
ATOM     18  O36 ZIN A   1      18.178   4.654  17.264  0.00  0.00    -0.314 OA
ATOM     19  C37 ZIN A   1      18.563   5.615  16.393  0.00  0.00     0.298 C 
ATOM     20  O38 ZIN A   1      19.104   6.629  16.768  0.00  0.00    -0.261 OA
ATOM     21  C39 ZIN A   1      18.286   5.357  14.931  0.00  0.00     0.173 C 
ATOM     22  C43 ZIN A   1      19.061   1.656  15.242  0.00  0.00     0.257 A 
ATOM     23  O44 ZIN A   1      19.242   0.824  16.117  0.00  0.00    -0.267 OA
ENDROOT
BRANCH   4  24
ATOM     24  O7  ZIN A   1      19.439  -1.192   6.013  0.00  0.00    -0.261 OA
BRANCH  24  25
ATOM     25  C8  ZIN A   1      18.329  -1.431   5.289  0.00  0.00     0.368 C 
ATOM     26  O9  ZIN A   1      17.535  -0.535   5.082  0.00  0.00    -0.238 OA
ATOM     27  N10 ZIN A   1      18.098  -2.663   4.795  0.00  0.00    -0.328 N 
ATOM     28  C22 ZIN A   1      16.891  -2.938   4.003  0.00  0.00     0.130 C 
ATOM     29  C11 ZIN A   1      19.045  -3.759   5.043  0.00  0.00     0.130 C 
ATOM     30  C21 ZIN A   1      16.156  -4.130   4.613  0.00  0.00     0.053 C 
ATOM     31  C13 ZIN A   1      17.117  -5.315   4.728  0.00  0.00     0.191 C 
ATOM     32  C12 ZIN A   1      18.283  -4.942   5.647  0.00  0.00     0.053 C 
BRANCH  31  33
ATOM     33  N14 ZIN A   1      16.403  -6.472   5.287  0.00  0.00    -0.067 N 
ATOM     34  H15 ZIN A   1      17.033  -7.258   5.342  0.00  0.00     0.280 HD
ATOM     35  C20 ZIN A   1      15.917  -6.141   6.632  0.00  0.00     0.235 C 
ATOM     36  C19 ZIN A   1      15.246  -7.369   7.250  0.00  0.00     0.028 C 
ATOM     37  C18 ZIN A   1      14.068  -7.796   6.372  0.00  0.00     0.003 C 
ATOM     38  C17 ZIN A   1      14.573  -8.065   4.951  0.00  0.00     0.028 C 
ATOM     39  C16 ZIN A   1      15.271  -6.813   4.418  0.00  0.00     0.235 C 
ENDBRANCH  31  33
ENDBRANCH  24  25
ENDBRANCH   4  24
BRANCH   1  40
ATOM     40  C2  ZIN A   1      19.748  -2.129  11.004  0.00  0.00     0.036 C 
ATOM     41  C1  ZIN A   1      18.456  -2.878  11.335  0.00  0.00     0.010 C 
ENDBRANCH   1  40
BRANCH  21  42
ATOM     42  O40 ZIN A   1      19.114   6.203  14.131  0.00  0.00    -0.375 OA
ATOM     43  H77 ZIN A   1      18.801   7.116  14.069  0.00  0.00     0.211 HD
ENDBRANCH  21  42
BRANCH  21  44
ATOM     44  C41 ZIN A   1      16.814   5.646  14.630  0.00  0.00     0.049 C 
ATOM     45  C42 ZIN A   1      16.624   7.150  14.416  0.00  0.00     0.009 C 
ENDBRANCH  21  44
TORSDOF 6
ENDMDL
MODEL 7
REMARK VINA RESULT:      -9.4      3.983     12.062
REMARK  6 active torsions:
REMARK  status: ('A' for Active; 'I' for Inactive)
REMARK    1  A    between atoms: C2_2  and  C3_3 
REMARK    2  A    between atoms: C6_6  and  O7_7 
REMARK    3  A    between atoms: O7_7  and  C8_8 
REMARK       I    between atoms: C8_8  and  N10_10 
REMARK    4  A    between atoms: C13_13  and  N14_14 
REMARK    5  A    between atoms: C39_39  and  O40_40 
REMARK    6  A    between atoms: C39_39  and  C41_41 
ROOT
ATOM      1  C3  ZIN A   1      18.030  -0.128  12.653  0.00  0.00    -0.035 A 
ATOM      2  C4  ZIN A   1      17.872   1.270  12.563  0.00  0.00     0.002 A 
ATOM      3  C5  ZIN A   1      17.800   2.070  13.712  0.00  0.00     0.051 A 
ATOM      4  C6  ZIN A   1      17.645   3.422  13.585  0.00  0.00     0.082 A 
ATOM      5  C23 ZIN A   1      17.557   4.017  12.322  0.00  0.00     0.040 A 
ATOM      6  C24 ZIN A   1      17.622   3.268  11.189  0.00  0.00     0.035 A 
ATOM      7  C25 ZIN A   1      17.782   1.871  11.280  0.00  0.00     0.068 A 
ATOM      8  N26 ZIN A   1      17.850   1.119  10.182  0.00  0.00    -0.245 NA
ATOM      9  C27 ZIN A   1      18.000  -0.195  10.253  0.00  0.00     0.093 A 
ATOM     10  C28 ZIN A   1      18.099  -0.841  11.497  0.00  0.00    -0.002 A 
ATOM     11  C29 ZIN A   1      18.261  -2.313  11.211  0.00  0.00     0.174 A 
ATOM     12  N30 ZIN A   1      18.248  -2.457   9.750  0.00  0.00    -0.307 N 
ATOM     13  C31 ZIN A   1      18.102  -1.220   9.189  0.00  0.00     0.068 A 
ATOM     14  C32 ZIN A   1      18.062  -1.090   7.818  0.00  0.00     0.043 A 
ATOM     15  C33 ZIN A   1      18.166  -2.221   6.998  0.00  0.00     0.002 A 
ATOM     16  C34 ZIN A   1      18.303  -3.449   7.567  0.00  0.00     0.044 A 
ATOM     17  C35 ZIN A   1      18.397  -4.711   6.752  0.00  0.00     0.224 C 
ATOM     18  O36 ZIN A   1      18.700  -4.404   5.366  0.00  0.00    -0.314 OA
ATOM     19  C37 ZIN A   1      17.982  -3.386   4.840  0.00  0.00     0.298 C 
ATOM     20  O38 ZIN A   1      17.255  -3.549   3.889  0.00  0.00    -0.261 OA
ATOM     21  C39 ZIN A   1      18.133  -2.036   5.502  0.00  0.00     0.173 C 
ATOM     22  C43 ZIN A   1      18.358  -3.551   8.973  0.00  0.00     0.257 A 
ATOM     23  O44 ZIN A   1      18.500  -4.647   9.491  0.00  0.00    -0.267 OA
ENDROOT
BRANCH   4  24
ATOM     24  O7  ZIN A   1      17.577   4.197  14.699  0.00  0.00    -0.261 OA
BRANCH  24  25
ATOM     25  C8  ZIN A   1      17.820   5.512  14.545  0.00  0.00     0.368 C 
ATOM     26  O9  ZIN A   1      18.962   5.909  14.427  0.00  0.00    -0.238 OA
ATOM     27  N10 ZIN A   1      16.797   6.389  14.522  0.00  0.00    -0.328 N 
ATOM     28  C22 ZIN A   1      17.047   7.827  14.353  0.00  0.00     0.130 C 
ATOM     29  C11 ZIN A   1      15.411   5.925  14.670  0.00  0.00     0.130 C 
ATOM     30  C21 ZIN A   1      16.365   8.587  15.490  0.00  0.00     0.053 C 
ATOM     31  C13 ZIN A   1      14.884   8.207  15.538  0.00  0.00     0.191 C 
ATOM     32  C12 ZIN A   1      14.748   6.707  15.809  0.00  0.00     0.053 C 
BRANCH  31  33
ATOM     33  N14 ZIN A   1      14.221   8.961  16.612  0.00  0.00    -0.067 N 
ATOM     34  H15 ZIN A   1      14.245   9.946  16.394  0.00  0.00     0.280 HD
ATOM     35  C20 ZIN A   1      12.825   8.520  16.724  0.00  0.00     0.235 C 
ATOM     36  C19 ZIN A   1      12.107   9.359  17.784  0.00  0.00     0.028 C 
ATOM     37  C18 ZIN A   1      12.810   9.178  19.132  0.00  0.00     0.003 C 
ATOM     38  C17 ZIN A   1      14.284   9.568  18.984  0.00  0.00     0.028 C 
ATOM     39  C16 ZIN A   1      14.921   8.723  17.879  0.00  0.00     0.235 C 
ENDBRANCH  31  33
ENDBRANCH  24  25
ENDBRANCH   4  24
BRANCH   1  40
ATOM     40  C2  ZIN A   1      18.129  -0.811  13.992  0.00  0.00     0.036 C 
ATOM     41  C1  ZIN A   1      19.599  -1.067  14.328  0.00  0.00     0.010 C 
ENDBRANCH   1  40
BRANCH  21  42
ATOM     42  O40 ZIN A   1      17.027  -1.203   5.147  0.00  0.00    -0.375 OA
ATOM     43  H77 ZIN A   1      16.204  -1.687   4.992  0.00  0.00     0.211 HD
ENDBRANCH  21  42
BRANCH  21  44
ATOM     44  C41 ZIN A   1      19.437  -1.382   5.039  0.00  0.00     0.049 C 
ATOM     45  C42 ZIN A   1      19.154   0.051   4.580  0.00  0.00     0.009 C 
ENDBRANCH  21  44
TORSDOF 6
ENDMDL
MODEL 8
REMARK VINA RESULT:      -9.4      3.141      5.149
REMARK  6 active torsions:
REMARK  status: ('A' for Active; 'I' for Inactive)
REMARK    1  A    between atoms: C2_2  and  C3_3 
REMARK    2  A    between atoms: C6_6  and  O7_7 
REMARK    3  A    between atoms: O7_7  and  C8_8 
REMARK       I    between atoms: C8_8  and  N10_10 
REMARK    4  A    between atoms: C13_13  and  N14_14 
REMARK    5  A    between atoms: C39_39  and  O40_40 
REMARK    6  A    between atoms: C39_39  and  C41_41 
ROOT
ATOM      1  C3  ZIN A   1      18.731  -0.643  14.981  0.00  0.00    -0.035 A 
ATOM      2  C4  ZIN A   1      18.388  -1.052  13.677  0.00  0.00     0.002 A 
ATOM      3  C5  ZIN A   1      18.507  -2.391  13.278  0.00  0.00     0.051 A 
ATOM      4  C6  ZIN A   1      18.164  -2.749  12.005  0.00  0.00     0.082 A 
ATOM      5  C23 ZIN A   1      17.696  -1.797  11.094  0.00  0.00     0.040 A 
ATOM      6  C24 ZIN A   1      17.571  -0.491  11.450  0.00  0.00     0.035 A 
ATOM      7  C25 ZIN A   1      17.913  -0.083  12.754  0.00  0.00     0.068 A 
ATOM      8  N26 ZIN A   1      17.796   1.191  13.124  0.00  0.00    -0.245 NA
ATOM      9  C27 ZIN A   1      18.114   1.588  14.347  0.00  0.00     0.093 A 
ATOM     10  C28 ZIN A   1      18.584   0.670  15.301  0.00  0.00    -0.002 A 
ATOM     11  C29 ZIN A   1      18.845   1.451  16.564  0.00  0.00     0.174 A 
ATOM     12  N30 ZIN A   1      18.499   2.847  16.271  0.00  0.00    -0.307 N 
ATOM     13  C31 ZIN A   1      18.066   2.928  14.977  0.00  0.00     0.068 A 
ATOM     14  C32 ZIN A   1      17.677   4.144  14.459  0.00  0.00     0.043 A 
ATOM     15  C33 ZIN A   1      17.730   5.298  15.252  0.00  0.00     0.002 A 
ATOM     16  C34 ZIN A   1      18.170   5.208  16.536  0.00  0.00     0.044 A 
ATOM     17  C35 ZIN A   1      18.276   6.408  17.439  0.00  0.00     0.224 C 
ATOM     18  O36 ZIN A   1      17.516   7.522  16.903  0.00  0.00    -0.314 OA
ATOM     19  C37 ZIN A   1      17.681   7.735  15.578  0.00  0.00     0.298 C 
ATOM     20  O38 ZIN A   1      18.127   8.775  15.154  0.00  0.00    -0.261 OA
ATOM     21  C39 ZIN A   1      17.283   6.608  14.653  0.00  0.00     0.173 C 
ATOM     22  C43 ZIN A   1      18.545   3.948  17.046  0.00  0.00     0.257 A 
ATOM     23  O44 ZIN A   1      18.923   3.855  18.202  0.00  0.00    -0.267 OA
ENDROOT
BRANCH   4  24
ATOM     24  O7  ZIN A   1      18.279  -4.048  11.620  0.00  0.00    -0.261 OA
BRANCH  24  25
ATOM     25  C8  ZIN A   1      19.333  -4.364  10.843  0.00  0.00     0.368 C 
ATOM     26  O9  ZIN A   1      20.450  -4.007  11.160  0.00  0.00    -0.238 OA
ATOM     27  N10 ZIN A   1      19.149  -5.077   9.714  0.00  0.00    -0.328 N 
ATOM     28  C22 ZIN A   1      20.289  -5.431   8.858  0.00  0.00     0.130 C 
ATOM     29  C11 ZIN A   1      17.803  -5.511   9.314  0.00  0.00     0.130 C 
ATOM     30  C21 ZIN A   1      20.000  -4.971   7.430  0.00  0.00     0.053 C 
ATOM     31  C13 ZIN A   1      18.663  -5.553   6.970  0.00  0.00     0.191 C 
ATOM     32  C12 ZIN A   1      17.542  -5.045   7.879  0.00  0.00     0.053 C 
BRANCH  31  33
ATOM     33  N14 ZIN A   1      18.398  -5.137   5.585  0.00  0.00    -0.067 N 
ATOM     34  H15 ZIN A   1      18.984  -5.668   4.958  0.00  0.00     0.280 HD
ATOM     35  C20 ZIN A   1      16.988  -5.385   5.264  0.00  0.00     0.235 C 
ATOM     36  C19 ZIN A   1      16.726  -5.030   3.798  0.00  0.00     0.028 C 
ATOM     37  C18 ZIN A   1      17.050  -3.551   3.572  0.00  0.00     0.003 C 
ATOM     38  C17 ZIN A   1      18.502  -3.287   3.983  0.00  0.00     0.028 C 
ATOM     39  C16 ZIN A   1      18.698  -3.708   5.440  0.00  0.00     0.235 C 
ENDBRANCH  31  33
ENDBRANCH  24  25
ENDBRANCH   4  24
BRANCH   1  40
ATOM     40  C2  ZIN A   1      19.241  -1.635  15.995  0.00  0.00     0.036 C 
ATOM     41  C1  ZIN A   1      18.100  -2.039  16.931  0.00  0.00     0.010 C 
ENDBRANCH   1  40
BRANCH  21  42
ATOM     42  O40 ZIN A   1      17.907   6.790  13.381  0.00  0.00    -0.375 OA
ATOM     43  H77 ZIN A   1      17.294   6.759  12.633  0.00  0.00     0.211 HD
ENDBRANCH  21  42
BRANCH  21  44
ATOM     44  C41 ZIN A   1      15.762   6.600  14.483  0.00  0.00     0.049 C 
ATOM     45  C42 ZIN A   1      15.158   7.785  15.240  0.00  0.00     0.009 C 
ENDBRANCH  21  44
TORSDOF 6
ENDMDL
MODEL 9
REMARK VINA RESULT:      -9.3      3.430     12.007
REMARK  6 active torsions:
REMARK  status: ('A' for Active; 'I' for Inactive)
REMARK    1  A    between atoms: C2_2  and  C3_3 
REMARK    2  A    between atoms: C6_6  and  O7_7 
REMARK    3  A    between atoms: O7_7  and  C8_8 
REMARK       I    between atoms: C8_8  and  N10_10 
REMARK    4  A    between atoms: C13_13  and  N14_14 
REMARK    5  A    between atoms: C39_39  and  O40_40 
REMARK    6  A    between atoms: C39_39  and  C41_41 
ROOT
ATOM      1  C3  ZIN A   1      19.015   0.753  11.899  0.00  0.00    -0.035 A 
ATOM      2  C4  ZIN A   1      18.734   2.110  11.646  0.00  0.00     0.002 A 
ATOM      3  C5  ZIN A   1      18.805   3.071  12.665  0.00  0.00     0.051 A 
ATOM      4  C6  ZIN A   1      18.524   4.378  12.381  0.00  0.00     0.082 A 
ATOM      5  C23 ZIN A   1      18.168   4.769  11.087  0.00  0.00     0.040 A 
ATOM      6  C24 ZIN A   1      18.090   3.862  10.078  0.00  0.00     0.035 A 
ATOM      7  C25 ZIN A   1      18.372   2.505  10.331  0.00  0.00     0.068 A 
ATOM      8  N26 ZIN A   1      18.303   1.600   9.356  0.00  0.00    -0.245 NA
ATOM      9  C27 ZIN A   1      18.566   0.321   9.581  0.00  0.00     0.093 A 
ATOM     10  C28 ZIN A   1      18.934  -0.123  10.862  0.00  0.00    -0.002 A 
ATOM     11  C29 ZIN A   1      19.157  -1.611  10.759  0.00  0.00     0.174 A 
ATOM     12  N30 ZIN A   1      18.897  -1.976   9.361  0.00  0.00    -0.307 N 
ATOM     13  C31 ZIN A   1      18.558  -0.847   8.670  0.00  0.00     0.068 A 
ATOM     14  C32 ZIN A   1      18.266  -0.928   7.325  0.00  0.00     0.043 A 
ATOM     15  C33 ZIN A   1      18.311  -2.164   6.667  0.00  0.00     0.002 A 
ATOM     16  C34 ZIN A   1      18.643  -3.283   7.366  0.00  0.00     0.044 A 
ATOM     17  C35 ZIN A   1      18.689  -4.647   6.732  0.00  0.00     0.224 C 
ATOM     18  O36 ZIN A   1      18.718  -4.539   5.285  0.00  0.00    -0.314 OA
ATOM     19  C37 ZIN A   1      17.840  -3.650   4.766  0.00  0.00     0.298 C 
ATOM     20  O38 ZIN A   1      16.971  -3.993   3.999  0.00  0.00    -0.261 OA
ATOM     21  C39 ZIN A   1      18.000  -2.210   5.192  0.00  0.00     0.173 C 
ATOM     22  C43 ZIN A   1      18.953  -3.168   8.737  0.00  0.00     0.257 A 
ATOM     23  O44 ZIN A   1      19.271  -4.164   9.368  0.00  0.00    -0.267 OA
ENDROOT
BRANCH   4  24
ATOM     24  O7  ZIN A   1      18.594   5.309  13.370  0.00  0.00    -0.261 OA
BRANCH  24  25
ATOM     25  C8  ZIN A   1      17.427   5.773  13.855  0.00  0.00     0.368 C 
ATOM     26  O9  ZIN A   1      16.755   6.539  13.193  0.00  0.00    -0.238 OA
ATOM     27  N10 ZIN A   1      17.005   5.389  15.076  0.00  0.00    -0.328 N 
ATOM     28  C22 ZIN A   1      15.733   5.887  15.619  0.00  0.00     0.130 C 
ATOM     29  C11 ZIN A   1      17.809   4.470  15.892  0.00  0.00     0.130 C 
ATOM     30  C21 ZIN A   1      15.986   6.501  16.994  0.00  0.00     0.053 C 
ATOM     31  C13 ZIN A   1      16.692   5.478  17.885  0.00  0.00     0.191 C 
ATOM     32  C12 ZIN A   1      18.041   5.104  17.267  0.00  0.00     0.053 C 
BRANCH  31  33
ATOM     33  N14 ZIN A   1      16.909   6.057  19.219  0.00  0.00    -0.067 N 
ATOM     34  H15 ZIN A   1      17.368   5.378  19.807  0.00  0.00     0.280 HD
ATOM     35  C20 ZIN A   1      17.752   7.252  19.100  0.00  0.00     0.235 C 
ATOM     36  C19 ZIN A   1      18.049   7.811  20.494  0.00  0.00     0.028 C 
ATOM     37  C18 ZIN A   1      16.732   8.181  21.180  0.00  0.00     0.003 C 
ATOM     38  C17 ZIN A   1      15.828   6.945  21.230  0.00  0.00     0.028 C 
ATOM     39  C16 ZIN A   1      15.615   6.418  19.810  0.00  0.00     0.235 C 
ENDBRANCH  31  33
ENDBRANCH  24  25
ENDBRANCH   4  24
BRANCH   1  40
ATOM     40  C2  ZIN A   1      19.402   0.286  13.278  0.00  0.00     0.036 C 
ATOM     41  C1  ZIN A   1      18.214  -0.424  13.929  0.00  0.00     0.010 C 
ENDBRANCH   1  40
BRANCH  21  42
ATOM     42  O40 ZIN A   1      16.787  -1.499   4.938  0.00  0.00    -0.375 OA
ATOM     43  H77 ZIN A   1      16.017  -1.853   5.404  0.00  0.00     0.211 HD
ENDBRANCH  21  42
BRANCH  21  44
ATOM     44  C41 ZIN A   1      19.145  -1.568   4.407  0.00  0.00     0.049 C 
ATOM     45  C42 ZIN A   1      18.913  -0.058   4.309  0.00  0.00     0.009 C 
ENDBRANCH  21  44
TORSDOF 6
ENDMDL
