MODEL 1
REMARK VINA RESULT:      -4.7      0.000      0.000
REMARK  8 active torsions:
REMARK  status: ('A' for Active; 'I' for Inactive)
REMARK    1  A    between atoms: N1_1  and  C5_5 
REMARK    2  A    between atoms: C5_5  and  C6_6 
REMARK    3  A    between atoms: C6_6  and  C7_7 
REMARK    4  A    between atoms: C7_7  and  O8_8 
REMARK    5  A    between atoms: C7_7  and  P9_9 
REMARK    6  A    between atoms: C7_7  and  P13_13 
REMARK    7  A    between atoms: P9_9  and  O12_12 
REMARK    8  A    between atoms: P13_13  and  O16_16 
ROOT
ATOM      1  C7  RES d   1      19.317   1.492  10.956  0.00  0.00     0.270 C 
ENDROOT
BRANCH   1   2
ATOM      2  C6  RES d   1      17.840   1.731  11.277  0.00  0.00     0.093 C 
BRANCH   2   3
ATOM      3  C5  RES d   1      17.601   3.226  11.495  0.00  0.00     0.234 C 
BRANCH   3   4
ATOM      4  N1  RES d   1      17.824   3.557  12.909  0.00  0.00    -0.079 N 
ATOM      5  H2  RES d   1      17.109   3.121  13.473  0.00  0.00     0.274 HD
ATOM      6  H3  RES d   1      17.784   4.558  13.031  0.00  0.00     0.274 HD
ATOM      7  H4  RES d   1      18.731   3.219  13.195  0.00  0.00     0.274 HD
ENDBRANCH   3   4
ENDBRANCH   2   3
ENDBRANCH   1   2
BRANCH   1   8
ATOM      8  O8  RES d   1      19.985   2.748  10.824  0.00  0.00    -0.366 OA
ATOM      9  H21 RES d   1      19.629   3.310  10.122  0.00  0.00     0.212 HD
ENDBRANCH   1   8
BRANCH   1  10
ATOM     10  P9  RES d   1      20.085   0.535  12.306  0.00  0.00     0.296 P 
ATOM     11  O10 RES d   1      19.641   1.116  13.666  0.00  0.00    -0.644 OA
ATOM     12  O11 RES d   1      19.643  -0.942  12.206  0.00  0.00    -0.644 OA
BRANCH  10  13
ATOM     13  O12 RES d   1      21.688   0.625  12.182  0.00  0.00    -0.320 OA
ATOM     14  H22 RES d   1      22.006   0.750  11.277  0.00  0.00     0.221 HD
ENDBRANCH  10  13
ENDBRANCH   1  10
BRANCH   1  15
ATOM     15  P13 RES d   1      19.457   0.561   9.396  0.00  0.00     0.296 P 
ATOM     16  O14 RES d   1      18.173  -0.269   9.174  0.00  0.00    -0.644 OA
ATOM     17  O15 RES d   1      19.642   1.549   8.222  0.00  0.00    -0.644 OA
BRANCH  15  18
ATOM     18  O16 RES d   1      20.728  -0.425   9.472  0.00  0.00    -0.320 OA
ATOM     19  H23 RES d   1      20.677  -1.080  10.182  0.00  0.00     0.221 HD
ENDBRANCH  15  18
ENDBRANCH   1  15
TORSDOF 8
ENDMDL
MODEL 2
REMARK VINA RESULT:      -4.7      2.587      4.319
REMARK  8 active torsions:
REMARK  status: ('A' for Active; 'I' for Inactive)
REMARK    1  A    between atoms: N1_1  and  C5_5 
REMARK    2  A    between atoms: C5_5  and  C6_6 
REMARK    3  A    between atoms: C6_6  and  C7_7 
REMARK    4  A    between atoms: C7_7  and  O8_8 
REMARK    5  A    between atoms: C7_7  and  P9_9 
REMARK    6  A    between atoms: C7_7  and  P13_13 
REMARK    7  A    between atoms: P9_9  and  O12_12 
REMARK    8  A    between atoms: P13_13  and  O16_16 
ROOT
ATOM      1  C7  RES d   1      19.417   2.301  11.523  0.00  0.00     0.270 C 
ENDROOT
BRANCH   1   2
ATOM      2  C6  RES d   1      19.403   0.932  12.207  0.00  0.00     0.093 C 
BRANCH   2   3
ATOM      3  C5  RES d   1      20.840   0.493  12.498  0.00  0.00     0.234 C 
BRANCH   3   4
ATOM      4  N1  RES d   1      21.400  -0.167  11.312  0.00  0.00    -0.079 N 
ATOM      5  H2  RES d   1      21.540   0.515  10.581  0.00  0.00     0.274 HD
ATOM      6  H3  RES d   1      20.761  -0.879  10.989  0.00  0.00     0.274 HD
ATOM      7  H4  RES d   1      22.284  -0.592  11.548  0.00  0.00     0.274 HD
ENDBRANCH   3   4
ENDBRANCH   2   3
ENDBRANCH   1   2
BRANCH   1   8
ATOM      8  O8  RES d   1      20.742   2.836  11.556  0.00  0.00    -0.366 OA
ATOM      9  H21 RES d   1      21.284   2.497  12.281  0.00  0.00     0.212 HD
ENDBRANCH   1   8
BRANCH   1  10
ATOM     10  P9  RES d   1      18.878   2.119   9.790  0.00  0.00     0.296 P 
ATOM     11  O10 RES d   1      17.635   1.204   9.730  0.00  0.00    -0.644 OA
ATOM     12  O11 RES d   1      18.524   3.508   9.213  0.00  0.00    -0.644 OA
BRANCH  10  13
ATOM     13  O12 RES d   1      20.068   1.466   8.924  0.00  0.00    -0.320 OA
ATOM     14  H22 RES d   1      20.648   2.114   8.501  0.00  0.00     0.221 HD
ENDBRANCH  10  13
ENDBRANCH   1  10
BRANCH   1  15
ATOM     15  P13 RES d   1      18.283   3.428  12.397  0.00  0.00     0.296 P 
ATOM     16  O14 RES d   1      17.957   2.852  13.793  0.00  0.00    -0.644 OA
ATOM     17  O15 RES d   1      18.953   4.812  12.553  0.00  0.00    -0.644 OA
BRANCH  15  18
ATOM     18  O16 RES d   1      16.923   3.584  11.549  0.00  0.00    -0.320 OA
ATOM     19  H23 RES d   1      16.155   3.157  11.955  0.00  0.00     0.221 HD
ENDBRANCH  15  18
ENDBRANCH   1  15
TORSDOF 8
ENDMDL
MODEL 3
REMARK VINA RESULT:      -4.7      3.177      4.785
REMARK  8 active torsions:
REMARK  status: ('A' for Active; 'I' for Inactive)
REMARK    1  A    between atoms: N1_1  and  C5_5 
REMARK    2  A    between atoms: C5_5  and  C6_6 
REMARK    3  A    between atoms: C6_6  and  C7_7 
REMARK    4  A    between atoms: C7_7  and  O8_8 
REMARK    5  A    between atoms: C7_7  and  P9_9 
REMARK    6  A    between atoms: C7_7  and  P13_13 
REMARK    7  A    between atoms: P9_9  and  O12_12 
REMARK    8  A    between atoms: P13_13  and  O16_16 
ROOT
ATOM      1  C7  RES d   1      19.289  -1.445  12.067  0.00  0.00     0.270 C 
ENDROOT
BRANCH   1   2
ATOM      2  C6  RES d   1      17.808  -1.644  11.738  0.00  0.00     0.093 C 
BRANCH   2   3
ATOM      3  C5  RES d   1      17.536  -3.129  11.489  0.00  0.00     0.234 C 
BRANCH   3   4
ATOM      4  N1  RES d   1      17.729  -3.431  10.065  0.00  0.00    -0.079 N 
ATOM      5  H2  RES d   1      18.690  -3.258   9.811  0.00  0.00     0.274 HD
ATOM      6  H3  RES d   1      17.124  -2.843   9.511  0.00  0.00     0.274 HD
ATOM      7  H4  RES d   1      17.505  -4.400   9.893  0.00  0.00     0.274 HD
ENDBRANCH   3   4
ENDBRANCH   2   3
ENDBRANCH   1   2
BRANCH   1   8
ATOM      8  O8  RES d   1      19.919  -2.719  12.215  0.00  0.00    -0.366 OA
ATOM      9  H21 RES d   1      20.885  -2.678  12.244  0.00  0.00     0.212 HD
ENDBRANCH   1   8
BRANCH   1  10
ATOM     10  P9  RES d   1      20.094  -0.524  10.714  0.00  0.00     0.296 P 
ATOM     11  O10 RES d   1      19.679  -1.134   9.357  0.00  0.00    -0.644 OA
ATOM     12  O11 RES d   1      19.656   0.957  10.768  0.00  0.00    -0.644 OA
BRANCH  10  13
ATOM     13  O12 RES d   1      21.693  -0.617  10.878  0.00  0.00    -0.320 OA
ATOM     14  H22 RES d   1      22.145   0.236  10.820  0.00  0.00     0.221 HD
ENDBRANCH  10  13
ENDBRANCH   1  10
BRANCH   1  15
ATOM     15  P13 RES d   1      19.446  -0.503  13.619  0.00  0.00     0.296 P 
ATOM     16  O14 RES d   1      18.178   0.353  13.833  0.00  0.00    -0.644 OA
ATOM     17  O15 RES d   1      19.610  -1.485  14.802  0.00  0.00    -0.644 OA
BRANCH  15  18
ATOM     18  O16 RES d   1      20.735   0.458  13.536  0.00  0.00    -0.320 OA
ATOM     19  H23 RES d   1      21.507   0.046  13.123  0.00  0.00     0.221 HD
ENDBRANCH  15  18
ENDBRANCH   1  15
TORSDOF 8
ENDMDL
MODEL 4
REMARK VINA RESULT:      -4.6      3.099      4.429
REMARK  8 active torsions:
REMARK  status: ('A' for Active; 'I' for Inactive)
REMARK    1  A    between atoms: N1_1  and  C5_5 
REMARK    2  A    between atoms: C5_5  and  C6_6 
REMARK    3  A    between atoms: C6_6  and  C7_7 
REMARK    4  A    between atoms: C7_7  and  O8_8 
REMARK    5  A    between atoms: C7_7  and  P9_9 
REMARK    6  A    between atoms: C7_7  and  P13_13 
REMARK    7  A    between atoms: P9_9  and  O12_12 
REMARK    8  A    between atoms: P13_13  and  O16_16 
ROOT
ATOM      1  C7  RES d   1      19.201  -0.453  11.389  0.00  0.00     0.270 C 
ENDROOT
BRANCH   1   2
ATOM      2  C6  RES d   1      19.286  -1.674  12.308  0.00  0.00     0.093 C 
BRANCH   2   3
ATOM      3  C5  RES d   1      19.482  -2.935  11.464  0.00  0.00     0.234 C 
BRANCH   3   4
ATOM      4  N1  RES d   1      20.903  -3.305  11.460  0.00  0.00    -0.079 N 
ATOM      5  H2  RES d   1      21.022  -4.183  10.976  0.00  0.00     0.274 HD
ATOM      6  H3  RES d   1      21.230  -3.399  12.410  0.00  0.00     0.274 HD
ATOM      7  H4  RES d   1      21.437  -2.588  10.990  0.00  0.00     0.274 HD
ENDBRANCH   3   4
ENDBRANCH   2   3
ENDBRANCH   1   2
BRANCH   1   8
ATOM      8  O8  RES d   1      19.791  -0.766  10.126  0.00  0.00    -0.366 OA
ATOM      9  H21 RES d   1      19.365  -0.332   9.375  0.00  0.00     0.212 HD
ENDBRANCH   1   8
BRANCH   1  10
ATOM     10  P9  RES d   1      17.453   0.005  11.146  0.00  0.00     0.296 P 
ATOM     11  O10 RES d   1      17.121  -0.013   9.638  0.00  0.00    -0.644 OA
ATOM     12  O11 RES d   1      16.548  -1.006  11.885  0.00  0.00    -0.644 OA
BRANCH  10  13
ATOM     13  O12 RES d   1      17.199   1.482  11.734  0.00  0.00    -0.320 OA
ATOM     14  H22 RES d   1      17.991   2.036  11.763  0.00  0.00     0.221 HD
ENDBRANCH  10  13
ENDBRANCH   1  10
BRANCH   1  15
ATOM     15  P13 RES d   1      20.094   0.942  12.149  0.00  0.00     0.296 P 
ATOM     16  O14 RES d   1      19.851   2.223  11.320  0.00  0.00    -0.644 OA
ATOM     17  O15 RES d   1      19.583   1.157  13.591  0.00  0.00    -0.644 OA
BRANCH  15  18
ATOM     18  O16 RES d   1      21.671   0.615  12.183  0.00  0.00    -0.320 OA
ATOM     19  H23 RES d   1      21.888  -0.300  11.959  0.00  0.00     0.221 HD
ENDBRANCH  15  18
ENDBRANCH   1  15
TORSDOF 8
ENDMDL
MODEL 5
REMARK VINA RESULT:      -4.6      1.220      3.414
REMARK  8 active torsions:
REMARK  status: ('A' for Active; 'I' for Inactive)
REMARK    1  A    between atoms: N1_1  and  C5_5 
REMARK    2  A    between atoms: C5_5  and  C6_6 
REMARK    3  A    between atoms: C6_6  and  C7_7 
REMARK    4  A    between atoms: C7_7  and  O8_8 
REMARK    5  A    between atoms: C7_7  and  P9_9 
REMARK    6  A    between atoms: C7_7  and  P13_13 
REMARK    7  A    between atoms: P9_9  and  O12_12 
REMARK    8  A    between atoms: P13_13  and  O16_16 
ROOT
ATOM      1  C7  RES d   1      19.175   1.400  11.191  0.00  0.00     0.270 C 
ENDROOT
BRANCH   1   2
ATOM      2  C6  RES d   1      19.707   2.834  11.176  0.00  0.00     0.093 C 
BRANCH   2   3
ATOM      3  C5  RES d   1      18.543   3.813  11.349  0.00  0.00     0.234 C 
BRANCH   3   4
ATOM      4  N1  RES d   1      17.938   4.090  10.041  0.00  0.00    -0.079 N 
ATOM      5  H2  RES d   1      17.160   3.464   9.890  0.00  0.00     0.274 HD
ATOM      6  H3  RES d   1      18.625   3.951   9.315  0.00  0.00     0.274 HD
ATOM      7  H4  RES d   1      17.611   5.044  10.016  0.00  0.00     0.274 HD
ENDBRANCH   3   4
ENDBRANCH   2   3
ENDBRANCH   1   2
BRANCH   1   8
ATOM      8  O8  RES d   1      17.790   1.410  11.542  0.00  0.00    -0.366 OA
ATOM      9  H21 RES d   1      17.200   1.159  10.818  0.00  0.00     0.212 HD
ENDBRANCH   1   8
BRANCH   1  10
ATOM     10  P9  RES d   1      19.377   0.659   9.537  0.00  0.00     0.296 P 
ATOM     11  O10 RES d   1      18.136  -0.198   9.202  0.00  0.00    -0.644 OA
ATOM     12  O11 RES d   1      19.528   1.781   8.485  0.00  0.00    -0.644 OA
BRANCH  10  13
ATOM     13  O12 RES d   1      20.691  -0.271   9.523  0.00  0.00    -0.320 OA
ATOM     14  H22 RES d   1      21.272  -0.143  10.285  0.00  0.00     0.221 HD
ENDBRANCH  10  13
ENDBRANCH   1  10
BRANCH   1  15
ATOM     15  P13 RES d   1      20.106   0.420  12.413  0.00  0.00     0.296 P 
ATOM     16  O14 RES d   1      19.737   0.888  13.839  0.00  0.00    -0.644 OA
ATOM     17  O15 RES d   1      19.748  -1.076  12.254  0.00  0.00    -0.644 OA
BRANCH  15  18
ATOM     18  O16 RES d   1      21.685   0.621  12.173  0.00  0.00    -0.320 OA
ATOM     19  H23 RES d   1      21.899   1.266  11.485  0.00  0.00     0.221 HD
ENDBRANCH  15  18
ENDBRANCH   1  15
TORSDOF 8
ENDMDL
MODEL 6
REMARK VINA RESULT:      -4.6      2.648      3.479
REMARK  8 active torsions:
REMARK  status: ('A' for Active; 'I' for Inactive)
REMARK    1  A    between atoms: N1_1  and  C5_5 
REMARK    2  A    between atoms: C5_5  and  C6_6 
REMARK    3  A    between atoms: C6_6  and  C7_7 
REMARK    4  A    between atoms: C7_7  and  O8_8 
REMARK    5  A    between atoms: C7_7  and  P9_9 
REMARK    6  A    between atoms: C7_7  and  P13_13 
REMARK    7  A    between atoms: P9_9  and  O12_12 
REMARK    8  A    between atoms: P13_13  and  O16_16 
ROOT
ATOM      1  C7  RES d   1      19.183   0.553  10.167  0.00  0.00     0.270 C 
ENDROOT
BRANCH   1   2
ATOM      2  C6  RES d   1      17.726   0.155   9.923  0.00  0.00     0.093 C 
BRANCH   2   3
ATOM      3  C5  RES d   1      17.487  -0.016   8.422  0.00  0.00     0.234 C 
BRANCH   3   4
ATOM      4  N1  RES d   1      17.669  -1.426   8.055  0.00  0.00    -0.079 N 
ATOM      5  H2  RES d   1      16.958  -1.985   8.503  0.00  0.00     0.274 HD
ATOM      6  H3  RES d   1      18.580  -1.738   8.356  0.00  0.00     0.274 HD
ATOM      7  H4  RES d   1      17.593  -1.526   7.053  0.00  0.00     0.274 HD
ENDBRANCH   3   4
ENDBRANCH   2   3
ENDBRANCH   1   2
BRANCH   1   8
ATOM      8  O8  RES d   1      19.825   0.797   8.913  0.00  0.00    -0.366 OA
ATOM      9  H21 RES d   1      20.071  -0.006   8.435  0.00  0.00     0.212 HD
ENDBRANCH   1   8
BRANCH   1  10
ATOM     10  P9  RES d   1      19.239   2.067  11.182  0.00  0.00     0.296 P 
ATOM     11  O10 RES d   1      19.061   3.303  10.274  0.00  0.00    -0.644 OA
ATOM     12  O11 RES d   1      18.102   2.028  12.228  0.00  0.00    -0.644 OA
BRANCH  10  13
ATOM     13  O12 RES d   1      20.659   2.155  11.936  0.00  0.00    -0.320 OA
ATOM     14  H22 RES d   1      21.320   2.684  11.470  0.00  0.00     0.221 HD
ENDBRANCH  10  13
ENDBRANCH   1  10
BRANCH   1  15
ATOM     15  P13 RES d   1      20.044  -0.795  11.039  0.00  0.00     0.296 P 
ATOM     16  O14 RES d   1      19.657  -0.771  12.535  0.00  0.00    -0.644 OA
ATOM     17  O15 RES d   1      19.632  -2.152  10.423  0.00  0.00    -0.644 OA
BRANCH  15  18
ATOM     18  O16 RES d   1      21.635  -0.600  10.892  0.00  0.00    -0.320 OA
ATOM     19  H23 RES d   1      21.993  -0.909  10.048  0.00  0.00     0.221 HD
ENDBRANCH  15  18
ENDBRANCH   1  15
TORSDOF 8
ENDMDL
MODEL 7
REMARK VINA RESULT:      -4.6      2.391      3.192
REMARK  8 active torsions:
REMARK  status: ('A' for Active; 'I' for Inactive)
REMARK    1  A    between atoms: N1_1  and  C5_5 
REMARK    2  A    between atoms: C5_5  and  C6_6 
REMARK    3  A    between atoms: C6_6  and  C7_7 
REMARK    4  A    between atoms: C7_7  and  O8_8 
REMARK    5  A    between atoms: C7_7  and  P9_9 
REMARK    6  A    between atoms: C7_7  and  P13_13 
REMARK    7  A    between atoms: P9_9  and  O12_12 
REMARK    8  A    between atoms: P13_13  and  O16_16 
ROOT
ATOM      1  C7  RES d   1      19.697  -0.410  10.666  0.00  0.00     0.270 C 
ENDROOT
BRANCH   1   2
ATOM      2  C6  RES d   1      18.537   0.224   9.896  0.00  0.00     0.093 C 
BRANCH   2   3
ATOM      3  C5  RES d   1      19.005   0.605   8.490  0.00  0.00     0.234 C 
BRANCH   3   4
ATOM      4  N1  RES d   1      19.744   1.873   8.547  0.00  0.00    -0.079 N 
ATOM      5  H2  RES d   1      20.665   1.744   8.155  0.00  0.00     0.274 HD
ATOM      6  H3  RES d   1      19.826   2.172   9.507  0.00  0.00     0.274 HD
ATOM      7  H4  RES d   1      19.248   2.575   8.017  0.00  0.00     0.274 HD
ENDBRANCH   3   4
ENDBRANCH   2   3
ENDBRANCH   1   2
BRANCH   1   8
ATOM      8  O8  RES d   1      20.811  -0.585   9.788  0.00  0.00    -0.366 OA
ATOM      9  H21 RES d   1      20.738  -0.093   8.959  0.00  0.00     0.212 HD
ENDBRANCH   1   8
BRANCH   1  10
ATOM     10  P9  RES d   1      20.177   0.679  12.048  0.00  0.00     0.296 P 
ATOM     11  O10 RES d   1      19.742   2.128  11.737  0.00  0.00    -0.644 OA
ATOM     12  O11 RES d   1      19.486   0.200  13.344  0.00  0.00    -0.644 OA
BRANCH  10  13
ATOM     13  O12 RES d   1      21.775   0.628  12.240  0.00  0.00    -0.320 OA
ATOM     14  H22 RES d   1      22.077  -0.076  12.830  0.00  0.00     0.221 HD
ENDBRANCH  10  13
ENDBRANCH   1  10
BRANCH   1  15
ATOM     15  P13 RES d   1      19.179  -2.029  11.321  0.00  0.00     0.296 P 
ATOM     16  O14 RES d   1      17.688  -1.970  11.722  0.00  0.00    -0.644 OA
ATOM     17  O15 RES d   1      19.377  -3.112  10.236  0.00  0.00    -0.644 OA
BRANCH  15  18
ATOM     18  O16 RES d   1      20.068  -2.396  12.612  0.00  0.00    -0.320 OA
ATOM     19  H23 RES d   1      20.037  -1.730  13.314  0.00  0.00     0.221 HD
ENDBRANCH  15  18
ENDBRANCH   1  15
TORSDOF 8
ENDMDL
MODEL 8
REMARK VINA RESULT:      -4.5      2.495      3.001
REMARK  8 active torsions:
REMARK  status: ('A' for Active; 'I' for Inactive)
REMARK    1  A    between atoms: N1_1  and  C5_5 
REMARK    2  A    between atoms: C5_5  and  C6_6 
REMARK    3  A    between atoms: C6_6  and  C7_7 
REMARK    4  A    between atoms: C7_7  and  O8_8 
REMARK    5  A    between atoms: C7_7  and  P9_9 
REMARK    6  A    between atoms: C7_7  and  P13_13 
REMARK    7  A    between atoms: P9_9  and  O12_12 
REMARK    8  A    between atoms: P13_13  and  O16_16 
ROOT
ATOM      1  C7  RES d   1      20.040  -0.917  10.858  0.00  0.00     0.270 C 
ENDROOT
BRANCH   1   2
ATOM      2  C6  RES d   1      19.449  -0.043  11.966  0.00  0.00     0.093 C 
BRANCH   2   3
ATOM      3  C5  RES d   1      20.547   0.842  12.560  0.00  0.00     0.234 C 
BRANCH   3   4
ATOM      4  N1  RES d   1      20.671   2.069  11.763  0.00  0.00    -0.079 N 
ATOM      5  H2  RES d   1      21.134   2.780  12.310  0.00  0.00     0.274 HD
ATOM      6  H3  RES d   1      19.753   2.393  11.498  0.00  0.00     0.274 HD
ATOM      7  H4  RES d   1      21.213   1.878  10.933  0.00  0.00     0.274 HD
ENDBRANCH   3   4
ENDBRANCH   2   3
ENDBRANCH   1   2
BRANCH   1   8
ATOM      8  O8  RES d   1      21.453  -0.709  10.791  0.00  0.00    -0.366 OA
ATOM      9  H21 RES d   1      21.750   0.108  11.215  0.00  0.00     0.212 HD
ENDBRANCH   1   8
BRANCH   1  10
ATOM     10  P9  RES d   1      19.701  -2.671  11.221  0.00  0.00     0.296 P 
ATOM     11  O10 RES d   1      18.703  -2.771  12.395  0.00  0.00    -0.644 OA
ATOM     12  O11 RES d   1      19.095  -3.348   9.971  0.00  0.00    -0.644 OA
BRANCH  10  13
ATOM     13  O12 RES d   1      21.074  -3.412  11.619  0.00  0.00    -0.320 OA
ATOM     14  H22 RES d   1      21.155  -3.610  12.562  0.00  0.00     0.221 HD
ENDBRANCH  10  13
ENDBRANCH   1  10
BRANCH   1  15
ATOM     15  P13 RES d   1      19.283  -0.469   9.262  0.00  0.00     0.296 P 
ATOM     16  O14 RES d   1      17.744  -0.542   9.383  0.00  0.00    -0.644 OA
ATOM     17  O15 RES d   1      19.703   0.968   8.878  0.00  0.00    -0.644 OA
BRANCH  15  18
ATOM     18  O16 RES d   1      19.782  -1.495   8.125  0.00  0.00    -0.320 OA
ATOM     19  H23 RES d   1      20.639  -1.268   7.739  0.00  0.00     0.221 HD
ENDBRANCH  15  18
ENDBRANCH   1  15
TORSDOF 8
ENDMDL
MODEL 9
REMARK VINA RESULT:      -4.5      2.621      3.427
REMARK  8 active torsions:
REMARK  status: ('A' for Active; 'I' for Inactive)
REMARK    1  A    between atoms: N1_1  and  C5_5 
REMARK    2  A    between atoms: C5_5  and  C6_6 
REMARK    3  A    between atoms: C6_6  and  C7_7 
REMARK    4  A    between atoms: C7_7  and  O8_8 
REMARK    5  A    between atoms: C7_7  and  P9_9 
REMARK    6  A    between atoms: C7_7  and  P13_13 
REMARK    7  A    between atoms: P9_9  and  O12_12 
REMARK    8  A    between atoms: P13_13  and  O16_16 
ROOT
ATOM      1  C7  RES d   1      19.091   0.339  10.379  0.00  0.00     0.270 C 
ENDROOT
BRANCH   1   2
ATOM      2  C6  RES d   1      19.937  -0.234   9.240  0.00  0.00     0.093 C 
BRANCH   2   3
ATOM      3  C5  RES d   1      19.210  -1.427   8.614  0.00  0.00     0.234 C 
BRANCH   3   4
ATOM      4  N1  RES d   1      19.461  -2.630   9.418  0.00  0.00    -0.079 N 
ATOM      5  H2  RES d   1      19.735  -2.360  10.351  0.00  0.00     0.274 HD
ATOM      6  H3  RES d   1      20.201  -3.170   8.994  0.00  0.00     0.274 HD
ATOM      7  H4  RES d   1      18.621  -3.187   9.462  0.00  0.00     0.274 HD
ENDBRANCH   3   4
ENDBRANCH   2   3
ENDBRANCH   1   2
BRANCH   1   8
ATOM      8  O8  RES d   1      17.812  -0.298  10.389  0.00  0.00    -0.366 OA
ATOM      9  H21 RES d   1      17.843  -1.245  10.193  0.00  0.00     0.212 HD
ENDBRANCH   1   8
BRANCH   1  10
ATOM     10  P9  RES d   1      19.930   0.039  11.970  0.00  0.00     0.296 P 
ATOM     11  O10 RES d   1      19.349   0.983  13.045  0.00  0.00    -0.644 OA
ATOM     12  O11 RES d   1      19.711  -1.429  12.399  0.00  0.00    -0.644 OA
BRANCH  10  13
ATOM     13  O12 RES d   1      21.507   0.320  11.806  0.00  0.00    -0.320 OA
ATOM     14  H22 RES d   1      22.064  -0.451  11.980  0.00  0.00     0.221 HD
ENDBRANCH  10  13
ENDBRANCH   1  10
BRANCH   1  15
ATOM     15  P13 RES d   1      18.876   2.131  10.134  0.00  0.00     0.296 P 
ATOM     16  O14 RES d   1      18.991   2.464   8.630  0.00  0.00    -0.644 OA
ATOM     17  O15 RES d   1      17.484   2.559  10.652  0.00  0.00    -0.644 OA
BRANCH  15  18
ATOM     18  O16 RES d   1      20.018   2.925  10.948  0.00  0.00    -0.320 OA
ATOM     19  H23 RES d   1      20.680   3.349  10.384  0.00  0.00     0.221 HD
ENDBRANCH  15  18
ENDBRANCH   1  15
TORSDOF 8
ENDMDL
