MODEL 1
REMARK VINA RESULT:      -8.3      0.000      0.000
REMARK  5 active torsions:
REMARK  status: ('A' for Active; 'I' for Inactive)
REMARK    1  A    between atoms: O2_2  and  C3_3 
REMARK    2  A    between atoms: C6_6  and  C7_7 
REMARK    3  A    between atoms: C7_7  and  C9_9 
REMARK    4  A    between atoms: C10_10  and  C12_12 
REMARK    5  A    between atoms: C15_15  and  C16_16 
ROOT
ATOM      1  C9  ZIN A   1      17.716   2.985  12.224  0.00  0.00     0.096 C 
ATOM      2  C10 ZIN A   1      18.761   2.874  11.358  0.00  0.00     0.121 C 
ATOM      3  O11 ZIN A   1      19.931   3.496  11.625  0.00  0.00    -0.191 OA
ENDROOT
BRANCH   2   4
ATOM      4  C12 ZIN A   1      18.615   2.076  10.125  0.00  0.00     0.001 A 
ATOM      5  C21 ZIN A   1      19.347   2.410   8.982  0.00  0.00     0.015 A 
ATOM      6  C20 ZIN A   1      19.209   1.657   7.836  0.00  0.00     0.009 A 
ATOM      7  C15 ZIN A   1      18.343   0.579   7.811  0.00  0.00    -0.051 A 
ATOM      8  C14 ZIN A   1      17.610   0.246   8.938  0.00  0.00     0.009 A 
ATOM      9  C13 ZIN A   1      17.741   0.987  10.093  0.00  0.00     0.015 A 
BRANCH   7  10
ATOM     10  C16 ZIN A   1      18.194  -0.236   6.552  0.00  0.00    -0.024 C 
ATOM     11  C17 ZIN A   1      18.580  -1.689   6.835  0.00  0.00     0.019 C 
ATOM     12  C18 ZIN A   1      16.741  -0.179   6.076  0.00  0.00     0.019 C 
ATOM     13  C19 ZIN A   1      19.108   0.332   5.466  0.00  0.00     0.019 C 
ENDBRANCH   7  10
ENDBRANCH   2   4
BRANCH   1  14
ATOM     14  C7  ZIN A   1      17.856   3.748  13.402  0.00  0.00     0.184 C 
ATOM     15  O8  ZIN A   1      17.574   4.934  13.398  0.00  0.00    -0.287 OA
BRANCH  14  16
ATOM     16  C6  ZIN A   1      18.344   3.108  14.643  0.00  0.00     0.014 A 
ATOM     17  C5  ZIN A   1      19.003   3.870  15.611  0.00  0.00     0.018 A 
ATOM     18  C4  ZIN A   1      19.456   3.271  16.765  0.00  0.00     0.037 A 
ATOM     19  C3  ZIN A   1      19.260   1.910  16.966  0.00  0.00     0.068 A 
ATOM     20  C23 ZIN A   1      18.610   1.147  16.002  0.00  0.00     0.037 A 
ATOM     21  C22 ZIN A   1      18.149   1.741  14.849  0.00  0.00     0.018 A 
BRANCH  19  22
ATOM     22  O2  ZIN A   1      19.709   1.323  18.105  0.00  0.00    -0.356 OA
ATOM     23  C1  ZIN A   1      19.339  -0.040  18.322  0.00  0.00     0.210 C 
ENDBRANCH  19  22
ENDBRANCH  14  16
ENDBRANCH   1  14
TORSDOF 5
ENDMDL
MODEL 2
REMARK VINA RESULT:      -8.2      0.067      1.365
REMARK  5 active torsions:
REMARK  status: ('A' for Active; 'I' for Inactive)
REMARK    1  A    between atoms: O2_2  and  C3_3 
REMARK    2  A    between atoms: C6_6  and  C7_7 
REMARK    3  A    between atoms: C7_7  and  C9_9 
REMARK    4  A    between atoms: C10_10  and  C12_12 
REMARK    5  A    between atoms: C15_15  and  C16_16 
ROOT
ATOM      1  C9  ZIN A   1      17.725   3.030  12.202  0.00  0.00     0.096 C 
ATOM      2  C10 ZIN A   1      18.784   2.860  11.363  0.00  0.00     0.121 C 
ATOM      3  O11 ZIN A   1      19.977   3.423  11.655  0.00  0.00    -0.191 OA
ENDROOT
BRANCH   2   4
ATOM      4  C12 ZIN A   1      18.627   2.060  10.132  0.00  0.00     0.001 A 
ATOM      5  C21 ZIN A   1      17.794   0.938  10.126  0.00  0.00     0.015 A 
ATOM      6  C20 ZIN A   1      17.649   0.199   8.971  0.00  0.00     0.009 A 
ATOM      7  C15 ZIN A   1      18.333   0.559   7.824  0.00  0.00    -0.051 A 
ATOM      8  C14 ZIN A   1      19.165   1.666   7.825  0.00  0.00     0.009 A 
ATOM      9  C13 ZIN A   1      19.316   2.418   8.971  0.00  0.00     0.015 A 
BRANCH   7  10
ATOM     10  C16 ZIN A   1      18.173  -0.258   6.567  0.00  0.00    -0.024 C 
ATOM     11  C17 ZIN A   1      16.748  -0.102   6.034  0.00  0.00     0.019 C 
ATOM     12  C18 ZIN A   1      19.168   0.231   5.512  0.00  0.00     0.019 C 
ATOM     13  C19 ZIN A   1      18.443  -1.730   6.879  0.00  0.00     0.019 C 
ENDBRANCH   7  10
ENDBRANCH   2   4
BRANCH   1  14
ATOM     14  C7  ZIN A   1      17.875   3.795  13.379  0.00  0.00     0.184 C 
ATOM     15  O8  ZIN A   1      17.603   4.983  13.373  0.00  0.00    -0.287 OA
BRANCH  14  16
ATOM     16  C6  ZIN A   1      18.363   3.154  14.619  0.00  0.00     0.014 A 
ATOM     17  C5  ZIN A   1      19.030   3.913  15.583  0.00  0.00     0.018 A 
ATOM     18  C4  ZIN A   1      19.483   3.312  16.737  0.00  0.00     0.037 A 
ATOM     19  C3  ZIN A   1      19.277   1.953  16.942  0.00  0.00     0.068 A 
ATOM     20  C23 ZIN A   1      18.619   1.194  15.982  0.00  0.00     0.037 A 
ATOM     21  C22 ZIN A   1      18.158   1.788  14.829  0.00  0.00     0.018 A 
BRANCH  19  22
ATOM     22  O2  ZIN A   1      19.726   1.365  18.080  0.00  0.00    -0.356 OA
ATOM     23  C1  ZIN A   1      19.338   0.008  18.306  0.00  0.00     0.210 C 
ENDBRANCH  19  22
ENDBRANCH  14  16
ENDBRANCH   1  14
TORSDOF 5
ENDMDL
MODEL 3
REMARK VINA RESULT:      -8.1      4.351      9.177
REMARK  5 active torsions:
REMARK  status: ('A' for Active; 'I' for Inactive)
REMARK    1  A    between atoms: O2_2  and  C3_3 
REMARK    2  A    between atoms: C6_6  and  C7_7 
REMARK    3  A    between atoms: C7_7  and  C9_9 
REMARK    4  A    between atoms: C10_10  and  C12_12 
REMARK    5  A    between atoms: C15_15  and  C16_16 
ROOT
ATOM      1  C9  ZIN A   1      19.349  -1.245   6.538  0.00  0.00     0.096 C 
ATOM      2  C10 ZIN A   1      18.273  -0.443   6.770  0.00  0.00     0.121 C 
ATOM      3  O11 ZIN A   1      17.209  -0.479   5.938  0.00  0.00    -0.191 OA
ENDROOT
BRANCH   2   4
ATOM      4  C12 ZIN A   1      18.269   0.467   7.932  0.00  0.00     0.001 A 
ATOM      5  C21 ZIN A   1      19.018   1.647   7.901  0.00  0.00     0.015 A 
ATOM      6  C20 ZIN A   1      19.005   2.494   8.989  0.00  0.00     0.009 A 
ATOM      7  C15 ZIN A   1      18.263   2.175  10.112  0.00  0.00    -0.051 A 
ATOM      8  C14 ZIN A   1      17.524   1.005  10.151  0.00  0.00     0.009 A 
ATOM      9  C13 ZIN A   1      17.522   0.150   9.070  0.00  0.00     0.015 A 
BRANCH   7  10
ATOM     10  C16 ZIN A   1      18.259   3.105  11.298  0.00  0.00    -0.024 C 
ATOM     11  C17 ZIN A   1      17.687   2.376  12.515  0.00  0.00     0.019 C 
ATOM     12  C18 ZIN A   1      19.691   3.553  11.599  0.00  0.00     0.019 C 
ATOM     13  C19 ZIN A   1      17.397   4.329  10.984  0.00  0.00     0.019 C 
ENDBRANCH   7  10
ENDBRANCH   2   4
BRANCH   1  14
ATOM     14  C7  ZIN A   1      19.352  -2.115   5.427  0.00  0.00     0.184 C 
ATOM     15  O8  ZIN A   1      19.619  -1.687   4.318  0.00  0.00    -0.287 OA
BRANCH  14  16
ATOM     16  C6  ZIN A   1      19.031  -3.547   5.609  0.00  0.00     0.014 A 
ATOM     17  C5  ZIN A   1      19.708  -4.299   6.573  0.00  0.00     0.018 A 
ATOM     18  C4  ZIN A   1      19.406  -5.633   6.739  0.00  0.00     0.037 A 
ATOM     19  C3  ZIN A   1      18.431  -6.230   5.949  0.00  0.00     0.068 A 
ATOM     20  C23 ZIN A   1      17.760  -5.486   4.986  0.00  0.00     0.037 A 
ATOM     21  C22 ZIN A   1      18.051  -4.151   4.818  0.00  0.00     0.018 A 
BRANCH  19  22
ATOM     22  O2  ZIN A   1      18.137  -7.544   6.116  0.00  0.00    -0.356 OA
ATOM     23  C1  ZIN A   1      17.434  -7.907   7.307  0.00  0.00     0.210 C 
ENDBRANCH  19  22
ENDBRANCH  14  16
ENDBRANCH   1  14
TORSDOF 5
ENDMDL
MODEL 4
REMARK VINA RESULT:      -8.0      2.627      8.543
REMARK  5 active torsions:
REMARK  status: ('A' for Active; 'I' for Inactive)
REMARK    1  A    between atoms: O2_2  and  C3_3 
REMARK    2  A    between atoms: C6_6  and  C7_7 
REMARK    3  A    between atoms: C7_7  and  C9_9 
REMARK    4  A    between atoms: C10_10  and  C12_12 
REMARK    5  A    between atoms: C15_15  and  C16_16 
ROOT
ATOM      1  C9  ZIN A   1      18.983   1.253  10.126  0.00  0.00     0.096 C 
ATOM      2  C10 ZIN A   1      18.001   1.576  11.012  0.00  0.00     0.121 C 
ATOM      3  O11 ZIN A   1      16.967   2.354  10.623  0.00  0.00    -0.191 OA
ENDROOT
BRANCH   2   4
ATOM      4  C12 ZIN A   1      18.067   1.076  12.400  0.00  0.00     0.001 A 
ATOM      5  C21 ZIN A   1      18.029  -0.298  12.652  0.00  0.00     0.015 A 
ATOM      6  C20 ZIN A   1      18.096  -0.758  13.950  0.00  0.00     0.009 A 
ATOM      7  C15 ZIN A   1      18.190   0.136  15.002  0.00  0.00    -0.051 A 
ATOM      8  C14 ZIN A   1      18.221   1.499  14.758  0.00  0.00     0.009 A 
ATOM      9  C13 ZIN A   1      18.160   1.974  13.466  0.00  0.00     0.015 A 
BRANCH   7  10
ATOM     10  C16 ZIN A   1      18.257  -0.374  16.418  0.00  0.00    -0.024 C 
ATOM     11  C17 ZIN A   1      18.899   0.687  17.313  0.00  0.00     0.019 C 
ATOM     12  C18 ZIN A   1      16.843  -0.676  16.919  0.00  0.00     0.019 C 
ATOM     13  C19 ZIN A   1      19.096  -1.652  16.460  0.00  0.00     0.019 C 
ENDBRANCH   7  10
ENDBRANCH   2   4
BRANCH   1  14
ATOM     14  C7  ZIN A   1      18.920   1.732   8.800  0.00  0.00     0.184 C 
ATOM     15  O8  ZIN A   1      18.770   2.922   8.587  0.00  0.00    -0.287 OA
BRANCH  14  16
ATOM     16  C6  ZIN A   1      19.037   0.788   7.668  0.00  0.00     0.014 A 
ATOM     17  C5  ZIN A   1      19.140  -0.585   7.908  0.00  0.00     0.018 A 
ATOM     18  C4  ZIN A   1      19.249  -1.461   6.851  0.00  0.00     0.037 A 
ATOM     19  C3  ZIN A   1      19.258  -0.980   5.547  0.00  0.00     0.068 A 
ATOM     20  C23 ZIN A   1      19.161   0.385   5.304  0.00  0.00     0.037 A 
ATOM     21  C22 ZIN A   1      19.046   1.266   6.355  0.00  0.00     0.018 A 
BRANCH  19  22
ATOM     22  O2  ZIN A   1      19.365  -1.847   4.508  0.00  0.00    -0.356 OA
ATOM     23  C1  ZIN A   1      18.886  -3.177   4.719  0.00  0.00     0.210 C 
ENDBRANCH  19  22
ENDBRANCH  14  16
ENDBRANCH   1  14
TORSDOF 5
ENDMDL
MODEL 5
REMARK VINA RESULT:      -8.0      1.297      2.058
REMARK  5 active torsions:
REMARK  status: ('A' for Active; 'I' for Inactive)
REMARK    1  A    between atoms: O2_2  and  C3_3 
REMARK    2  A    between atoms: C6_6  and  C7_7 
REMARK    3  A    between atoms: C7_7  and  C9_9 
REMARK    4  A    between atoms: C10_10  and  C12_12 
REMARK    5  A    between atoms: C15_15  and  C16_16 
ROOT
ATOM      1  C9  ZIN A   1      19.148   1.985  11.692  0.00  0.00     0.096 C 
ATOM      2  C10 ZIN A   1      18.160   2.116  10.765  0.00  0.00     0.121 C 
ATOM      3  O11 ZIN A   1      17.087   2.897  11.023  0.00  0.00    -0.191 OA
ENDROOT
BRANCH   2   4
ATOM      4  C12 ZIN A   1      18.259   1.403   9.476  0.00  0.00     0.001 A 
ATOM      5  C21 ZIN A   1      17.648   0.157   9.315  0.00  0.00     0.015 A 
ATOM      6  C20 ZIN A   1      17.741  -0.501   8.106  0.00  0.00     0.009 A 
ATOM      7  C15 ZIN A   1      18.445   0.065   7.058  0.00  0.00    -0.051 A 
ATOM      8  C14 ZIN A   1      19.058   1.297   7.213  0.00  0.00     0.009 A 
ATOM      9  C13 ZIN A   1      18.970   1.968   8.414  0.00  0.00     0.015 A 
BRANCH   7  10
ATOM     10  C16 ZIN A   1      18.547  -0.662   5.742  0.00  0.00    -0.024 C 
ATOM     11  C17 ZIN A   1      19.233  -2.013   5.957  0.00  0.00     0.019 C 
ATOM     12  C18 ZIN A   1      17.144  -0.888   5.175  0.00  0.00     0.019 C 
ATOM     13  C19 ZIN A   1      19.365   0.175   4.759  0.00  0.00     0.019 C 
ENDBRANCH   7  10
ENDBRANCH   2   4
BRANCH   1  14
ATOM     14  C7  ZIN A   1      19.053   2.667  12.924  0.00  0.00     0.184 C 
ATOM     15  O8  ZIN A   1      19.262   3.866  12.975  0.00  0.00    -0.287 OA
BRANCH  14  16
ATOM     16  C6  ZIN A   1      18.699   1.925  14.153  0.00  0.00     0.014 A 
ATOM     17  C5  ZIN A   1      18.019   0.707  14.064  0.00  0.00     0.018 A 
ATOM     18  C4  ZIN A   1      17.690   0.020  15.212  0.00  0.00     0.037 A 
ATOM     19  C3  ZIN A   1      18.033   0.536  16.455  0.00  0.00     0.068 A 
ATOM     20  C23 ZIN A   1      18.703   1.750  16.547  0.00  0.00     0.037 A 
ATOM     21  C22 ZIN A   1      19.041   2.440  15.405  0.00  0.00     0.018 A 
BRANCH  19  22
ATOM     22  O2  ZIN A   1      17.706  -0.145  17.583  0.00  0.00    -0.356 OA
ATOM     23  C1  ZIN A   1      18.552   0.039  18.721  0.00  0.00     0.210 C 
ENDBRANCH  19  22
ENDBRANCH  14  16
ENDBRANCH   1  14
TORSDOF 5
ENDMDL
MODEL 6
REMARK VINA RESULT:      -7.5      3.111      9.038
REMARK  5 active torsions:
REMARK  status: ('A' for Active; 'I' for Inactive)
REMARK    1  A    between atoms: O2_2  and  C3_3 
REMARK    2  A    between atoms: C6_6  and  C7_7 
REMARK    3  A    between atoms: C7_7  and  C9_9 
REMARK    4  A    between atoms: C10_10  and  C12_12 
REMARK    5  A    between atoms: C15_15  and  C16_16 
ROOT
ATOM      1  C9  ZIN A   1      19.311  -1.862  11.492  0.00  0.00     0.096 C 
ATOM      2  C10 ZIN A   1      18.178  -1.608  12.203  0.00  0.00     0.121 C 
ATOM      3  O11 ZIN A   1      16.971  -1.949  11.700  0.00  0.00    -0.191 OA
ENDROOT
BRANCH   2   4
ATOM      4  C12 ZIN A   1      18.269  -0.958  13.526  0.00  0.00     0.001 A 
ATOM      5  C21 ZIN A   1      18.812  -1.650  14.611  0.00  0.00     0.015 A 
ATOM      6  C20 ZIN A   1      18.898  -1.034  15.842  0.00  0.00     0.009 A 
ATOM      7  C15 ZIN A   1      18.440   0.261  16.006  0.00  0.00    -0.051 A 
ATOM      8  C14 ZIN A   1      17.895   0.950  14.936  0.00  0.00     0.009 A 
ATOM      9  C13 ZIN A   1      17.807   0.350  13.698  0.00  0.00     0.015 A 
BRANCH   7  10
ATOM     10  C16 ZIN A   1      18.532   0.925  17.356  0.00  0.00    -0.024 C 
ATOM     11  C17 ZIN A   1      19.027   2.362  17.186  0.00  0.00     0.019 C 
ATOM     12  C18 ZIN A   1      17.151   0.937  18.014  0.00  0.00     0.019 C 
ATOM     13  C19 ZIN A   1      19.510   0.149  18.240  0.00  0.00     0.019 C 
ENDBRANCH   7  10
ENDBRANCH   2   4
BRANCH   1  14
ATOM     14  C7  ZIN A   1      19.224  -2.484  10.228  0.00  0.00     0.184 C 
ATOM     15  O8  ZIN A   1      19.220  -3.700  10.145  0.00  0.00    -0.287 OA
BRANCH  14  16
ATOM     16  C6  ZIN A   1      19.136  -1.659   9.004  0.00  0.00     0.014 A 
ATOM     17  C5  ZIN A   1      19.093  -2.272   7.749  0.00  0.00     0.018 A 
ATOM     18  C4  ZIN A   1      19.012  -1.499   6.611  0.00  0.00     0.037 A 
ATOM     19  C3  ZIN A   1      18.974  -0.114   6.711  0.00  0.00     0.068 A 
ATOM     20  C23 ZIN A   1      19.023   0.499   7.957  0.00  0.00     0.037 A 
ATOM     21  C22 ZIN A   1      19.098  -0.266   9.099  0.00  0.00     0.018 A 
BRANCH  19  22
ATOM     22  O2  ZIN A   1      18.894   0.643   5.586  0.00  0.00    -0.356 OA
ATOM     23  C1  ZIN A   1      18.740  -0.050   4.346  0.00  0.00     0.210 C 
ENDBRANCH  19  22
ENDBRANCH  14  16
ENDBRANCH   1  14
TORSDOF 5
ENDMDL
MODEL 7
REMARK VINA RESULT:      -7.3      3.578      8.970
REMARK  5 active torsions:
REMARK  status: ('A' for Active; 'I' for Inactive)
REMARK    1  A    between atoms: O2_2  and  C3_3 
REMARK    2  A    between atoms: C6_6  and  C7_7 
REMARK    3  A    between atoms: C7_7  and  C9_9 
REMARK    4  A    between atoms: C10_10  and  C12_12 
REMARK    5  A    between atoms: C15_15  and  C16_16 
ROOT
ATOM      1  C9  ZIN A   1      18.803  -0.799  10.238  0.00  0.00     0.096 C 
ATOM      2  C10 ZIN A   1      19.800  -0.633  11.150  0.00  0.00     0.121 C 
ATOM      3  O11 ZIN A   1      21.091  -0.620  10.749  0.00  0.00    -0.191 OA
ENDROOT
BRANCH   2   4
ATOM      4  C12 ZIN A   1      19.471  -0.470  12.580  0.00  0.00     0.001 A 
ATOM      5  C21 ZIN A   1      19.703   0.752  13.218  0.00  0.00     0.015 A 
ATOM      6  C20 ZIN A   1      19.388   0.899  14.552  0.00  0.00     0.009 A 
ATOM      7  C15 ZIN A   1      18.853  -0.161  15.262  0.00  0.00    -0.051 A 
ATOM      8  C14 ZIN A   1      18.627  -1.376  14.637  0.00  0.00     0.009 A 
ATOM      9  C13 ZIN A   1      18.932  -1.537  13.303  0.00  0.00     0.015 A 
BRANCH   7  10
ATOM     10  C16 ZIN A   1      18.517   0.006  16.721  0.00  0.00    -0.024 C 
ATOM     11  C17 ZIN A   1      17.021  -0.233  16.931  0.00  0.00     0.019 C 
ATOM     12  C18 ZIN A   1      19.316  -1.005  17.547  0.00  0.00     0.019 C 
ATOM     13  C19 ZIN A   1      18.875   1.424  17.168  0.00  0.00     0.019 C 
ENDBRANCH   7  10
ENDBRANCH   2   4
BRANCH   1  14
ATOM     14  C7  ZIN A   1      19.119  -0.955   8.871  0.00  0.00     0.184 C 
ATOM     15  O8  ZIN A   1      19.341   0.024   8.180  0.00  0.00    -0.287 OA
BRANCH  14  16
ATOM     16  C6  ZIN A   1      19.180  -2.308   8.278  0.00  0.00     0.014 A 
ATOM     17  C5  ZIN A   1      18.923  -3.431   9.068  0.00  0.00     0.018 A 
ATOM     18  C4  ZIN A   1      18.982  -4.690   8.511  0.00  0.00     0.037 A 
ATOM     19  C3  ZIN A   1      19.297  -4.843   7.166  0.00  0.00     0.068 A 
ATOM     20  C23 ZIN A   1      19.558  -3.727   6.378  0.00  0.00     0.037 A 
ATOM     21  C22 ZIN A   1      19.496  -2.466   6.926  0.00  0.00     0.018 A 
BRANCH  19  22
ATOM     22  O2  ZIN A   1      19.354  -6.085   6.621  0.00  0.00    -0.356 OA
ATOM     23  C1  ZIN A   1      18.164  -6.577   6.000  0.00  0.00     0.210 C 
ENDBRANCH  19  22
ENDBRANCH  14  16
ENDBRANCH   1  14
TORSDOF 5
ENDMDL
MODEL 8
REMARK VINA RESULT:      -7.1      2.199      8.402
REMARK  5 active torsions:
REMARK  status: ('A' for Active; 'I' for Inactive)
REMARK    1  A    between atoms: O2_2  and  C3_3 
REMARK    2  A    between atoms: C6_6  and  C7_7 
REMARK    3  A    between atoms: C7_7  and  C9_9 
REMARK    4  A    between atoms: C10_10  and  C12_12 
REMARK    5  A    between atoms: C15_15  and  C16_16 
ROOT
ATOM      1  C9  ZIN A   1      18.193   1.697  10.893  0.00  0.00     0.096 C 
ATOM      2  C10 ZIN A   1      18.778   2.255  11.989  0.00  0.00     0.121 C 
ATOM      3  O11 ZIN A   1      19.546   3.360  11.857  0.00  0.00    -0.191 OA
ENDROOT
BRANCH   2   4
ATOM      4  C12 ZIN A   1      18.575   1.652  13.321  0.00  0.00     0.001 A 
ATOM      5  C21 ZIN A   1      19.009   2.323  14.467  0.00  0.00     0.015 A 
ATOM      6  C20 ZIN A   1      18.812   1.756  15.708  0.00  0.00     0.009 A 
ATOM      7  C15 ZIN A   1      18.194   0.523  15.820  0.00  0.00    -0.051 A 
ATOM      8  C14 ZIN A   1      17.767  -0.150  14.687  0.00  0.00     0.009 A 
ATOM      9  C13 ZIN A   1      17.953   0.407  13.440  0.00  0.00     0.015 A 
BRANCH   7  10
ATOM     10  C16 ZIN A   1      17.987  -0.093  17.180  0.00  0.00    -0.024 C 
ATOM     11  C17 ZIN A   1      16.852  -1.116  17.110  0.00  0.00     0.019 C 
ATOM     12  C18 ZIN A   1      19.274  -0.790  17.626  0.00  0.00     0.019 C 
ATOM     13  C19 ZIN A   1      17.626   1.002  18.185  0.00  0.00     0.019 C 
ENDBRANCH   7  10
ENDBRANCH   2   4
BRANCH   1  14
ATOM     14  C7  ZIN A   1      18.388   2.273   9.620  0.00  0.00     0.184 C 
ATOM     15  O8  ZIN A   1      18.513   3.480   9.510  0.00  0.00    -0.287 OA
BRANCH  14  16
ATOM     16  C6  ZIN A   1      18.440   1.412   8.419  0.00  0.00     0.014 A 
ATOM     17  C5  ZIN A   1      19.232   1.779   7.329  0.00  0.00     0.018 A 
ATOM     18  C4  ZIN A   1      19.277   0.973   6.212  0.00  0.00     0.037 A 
ATOM     19  C3  ZIN A   1      18.536  -0.201   6.169  0.00  0.00     0.068 A 
ATOM     20  C23 ZIN A   1      17.742  -0.566   7.250  0.00  0.00     0.037 A 
ATOM     21  C22 ZIN A   1      17.696   0.230   8.372  0.00  0.00     0.018 A 
BRANCH  19  22
ATOM     22  O2  ZIN A   1      18.584  -0.991   5.066  0.00  0.00    -0.356 OA
ATOM     23  C1  ZIN A   1      17.388  -1.692   4.718  0.00  0.00     0.210 C 
ENDBRANCH  19  22
ENDBRANCH  14  16
ENDBRANCH   1  14
TORSDOF 5
ENDMDL
MODEL 9
REMARK VINA RESULT:      -7.0      3.426      5.043
REMARK  5 active torsions:
REMARK  status: ('A' for Active; 'I' for Inactive)
REMARK    1  A    between atoms: O2_2  and  C3_3 
REMARK    2  A    between atoms: C6_6  and  C7_7 
REMARK    3  A    between atoms: C7_7  and  C9_9 
REMARK    4  A    between atoms: C10_10  and  C12_12 
REMARK    5  A    between atoms: C15_15  and  C16_16 
ROOT
ATOM      1  C9  ZIN A   1      17.750  -0.605  13.948  0.00  0.00     0.096 C 
ATOM      2  C10 ZIN A   1      18.831  -1.379  13.654  0.00  0.00     0.121 C 
ATOM      3  O11 ZIN A   1      19.963  -1.268  14.385  0.00  0.00    -0.191 OA
ENDROOT
BRANCH   2   4
ATOM      4  C12 ZIN A   1      18.768  -2.340  12.535  0.00  0.00     0.001 A 
ATOM      5  C21 ZIN A   1      17.596  -2.465  11.784  0.00  0.00     0.015 A 
ATOM      6  C20 ZIN A   1      17.546  -3.362  10.737  0.00  0.00     0.009 A 
ATOM      7  C15 ZIN A   1      18.648  -4.142  10.436  0.00  0.00    -0.051 A 
ATOM      8  C14 ZIN A   1      19.810  -4.027  11.181  0.00  0.00     0.009 A 
ATOM      9  C13 ZIN A   1      19.876  -3.132  12.227  0.00  0.00     0.015 A 
BRANCH   7  10
ATOM     10  C16 ZIN A   1      18.584  -5.124   9.294  0.00  0.00    -0.024 C 
ATOM     11  C17 ZIN A   1      18.140  -4.399   8.023  0.00  0.00     0.019 C 
ATOM     12  C18 ZIN A   1      19.966  -5.740   9.073  0.00  0.00     0.019 C 
ATOM     13  C19 ZIN A   1      17.580  -6.229   9.628  0.00  0.00     0.019 C 
ENDBRANCH   7  10
ENDBRANCH   2   4
BRANCH   1  14
ATOM     14  C7  ZIN A   1      17.811   0.313  15.017  0.00  0.00     0.184 C 
ATOM     15  O8  ZIN A   1      17.499  -0.039  16.142  0.00  0.00    -0.287 OA
BRANCH  14  16
ATOM     16  C6  ZIN A   1      18.254   1.702  14.774  0.00  0.00     0.014 A 
ATOM     17  C5  ZIN A   1      18.114   2.269  13.504  0.00  0.00     0.018 A 
ATOM     18  C4  ZIN A   1      18.528   3.564  13.281  0.00  0.00     0.037 A 
ATOM     19  C3  ZIN A   1      19.086   4.305  14.316  0.00  0.00     0.068 A 
ATOM     20  C23 ZIN A   1      19.232   3.742  15.579  0.00  0.00     0.037 A 
ATOM     21  C22 ZIN A   1      18.815   2.451  15.811  0.00  0.00     0.018 A 
BRANCH  19  22
ATOM     22  O2  ZIN A   1      19.493   5.580  14.092  0.00  0.00    -0.356 OA
ATOM     23  C1  ZIN A   1      18.881   6.605  14.878  0.00  0.00     0.210 C 
ENDBRANCH  19  22
ENDBRANCH  14  16
ENDBRANCH   1  14
TORSDOF 5
ENDMDL
