MODEL 1
REMARK VINA RESULT:      -7.5      0.000      0.000
REMARK  6 active torsions:
REMARK  status: ('A' for Active; 'I' for Inactive)
REMARK    1  A    between atoms: C2_2  and  O4_4 
REMARK    2  A    between atoms: O4_4  and  C5_5 
REMARK    3  A    between atoms: C7_6  and  N9_7 
REMARK    4  A    between atoms: C26_21  and  O28_22 
REMARK    5  A    between atoms: O28_22  and  C29_23 
REMARK    6  A    between atoms: C32_26  and  N34_27 
ROOT
ATOM      1  C5  ZIN A   1      19.493  -4.421   9.035  0.00  0.00     0.171 C 
ATOM      2  C7  ZIN A   1      18.133  -4.319   8.301  0.00  0.00     0.220 C 
ATOM      3  C16 ZIN A   1      17.287  -3.282   9.091  0.00  0.00     0.042 C 
ATOM      4  C17 ZIN A   1      18.352  -2.434   9.794  0.00  0.00     0.003 C 
ATOM      5  C19 ZIN A   1      17.891  -1.677  11.024  0.00  0.00    -0.005 C 
ATOM      6  C21 ZIN A   1      16.820  -0.652  10.647  0.00  0.00     0.006 C 
ATOM      7  C22 ZIN A   1      16.408   0.135  11.892  0.00  0.00     0.006 C 
ATOM      8  C23 ZIN A   1      17.627   0.862  12.464  0.00  0.00    -0.004 C 
ATOM      9  C25 ZIN A   1      17.214   1.649  13.710  0.00  0.00     0.040 C 
ATOM     10  C26 ZIN A   1      18.433   2.375  14.281  0.00  0.00     0.163 C 
ATOM     11  C32 ZIN A   1      19.508   1.352  14.656  0.00  0.00     0.220 C 
ATOM     12  C41 ZIN A   1      19.921   0.567  13.410  0.00  0.00     0.046 C 
ATOM     13  C42 ZIN A   1      18.702  -0.160  12.838  0.00  0.00    -0.034 C 
ATOM     14  C43 ZIN A   1      18.147  -1.128  13.886  0.00  0.00     0.016 C 
ATOM     15  C44 ZIN A   1      19.121  -0.962  11.606  0.00  0.00    -0.002 C 
ATOM     16  C46 ZIN A   1      20.227  -1.946  11.973  0.00  0.00     0.007 C 
ATOM     17  C47 ZIN A   1      20.609  -2.830  10.774  0.00  0.00     0.012 C 
ATOM     18  C48 ZIN A   1      19.363  -3.520  10.257  0.00  0.00    -0.011 C 
ATOM     19  C49 ZIN A   1      18.686  -4.285  11.397  0.00  0.00     0.018 C 
ENDROOT
BRANCH   2  20
ATOM     20  N9  ZIN A   1      17.459  -5.625   8.302  0.00  0.00    -0.064 N 
ATOM     21  C15 ZIN A   1      18.075  -6.492   7.290  0.00  0.00     0.237 C 
ATOM     22  C14 ZIN A   1      17.431  -7.879   7.342  0.00  0.00     0.028 C 
ATOM     23  C13 ZIN A   1      15.930  -7.750   7.060  0.00  0.00     0.003 C 
ATOM     24  C12 ZIN A   1      15.312  -6.785   8.075  0.00  0.00     0.028 C 
ATOM     25  C11 ZIN A   1      16.035  -5.438   7.996  0.00  0.00     0.237 C 
ATOM     26  C10 ZIN A   1      17.596  -6.245   9.626  0.00  0.00     0.273 C 
ENDBRANCH   2  20
BRANCH   1  27
ATOM     27  O4  ZIN A   1      19.741  -5.793   9.445  0.00  0.00    -0.313 OA
BRANCH  27  28
ATOM     28  C2  ZIN A   1      20.866  -6.369   8.992  0.00  0.00     0.255 C 
ATOM     29  C1  ZIN A   1      21.647  -5.723   7.878  0.00  0.00     0.126 C 
ATOM     30  O3  ZIN A   1      21.252  -7.405   9.479  0.00  0.00    -0.266 OA
ENDBRANCH  27  28
ENDBRANCH   1  27
BRANCH  11  31
ATOM     31  N34 ZIN A   1      18.972   0.427  15.663  0.00  0.00    -0.064 N 
ATOM     32  C40 ZIN A   1      17.506   0.507  15.668  0.00  0.00     0.237 C 
ATOM     33  C39 ZIN A   1      16.939  -0.514  16.658  0.00  0.00     0.028 C 
ATOM     34  C38 ZIN A   1      17.474  -0.207  18.060  0.00  0.00     0.003 C 
ATOM     35  C37 ZIN A   1      19.005  -0.220  18.026  0.00  0.00     0.028 C 
ATOM     36  C36 ZIN A   1      19.495   0.790  16.985  0.00  0.00     0.237 C 
ATOM     37  C35 ZIN A   1      19.384  -0.944  15.335  0.00  0.00     0.273 C 
ENDBRANCH  11  31
BRANCH  10  38
ATOM     38  O28 ZIN A   1      18.962   3.290  13.283  0.00  0.00    -0.314 OA
BRANCH  38  39
ATOM     39  C29 ZIN A   1      18.235   4.386  13.015  0.00  0.00     0.255 C 
ATOM     40  C30 ZIN A   1      17.750   4.642  11.611  0.00  0.00     0.126 C 
ATOM     41  O31 ZIN A   1      17.968   5.165  13.899  0.00  0.00    -0.266 OA
ENDBRANCH  38  39
ENDBRANCH  10  38
TORSDOF 6
ENDMDL
MODEL 2
REMARK VINA RESULT:      -7.4      4.061     10.941
REMARK  6 active torsions:
REMARK  status: ('A' for Active; 'I' for Inactive)
REMARK    1  A    between atoms: C2_2  and  O4_4 
REMARK    2  A    between atoms: O4_4  and  C5_5 
REMARK    3  A    between atoms: C7_6  and  N9_7 
REMARK    4  A    between atoms: C26_21  and  O28_22 
REMARK    5  A    between atoms: O28_22  and  C29_23 
REMARK    6  A    between atoms: C32_26  and  N34_27 
ROOT
ATOM      1  C5  ZIN A   1      19.556  -1.140   8.465  0.00  0.00     0.171 C 
ATOM      2  C7  ZIN A   1      19.571  -1.980   9.767  0.00  0.00     0.220 C 
ATOM      3  C16 ZIN A   1      18.948  -3.357   9.405  0.00  0.00     0.042 C 
ATOM      4  C17 ZIN A   1      19.187  -3.457   7.895  0.00  0.00     0.003 C 
ATOM      5  C19 ZIN A   1      18.276  -4.406   7.141  0.00  0.00    -0.005 C 
ATOM      6  C21 ZIN A   1      18.487  -5.842   7.624  0.00  0.00     0.006 C 
ATOM      7  C22 ZIN A   1      17.599  -6.788   6.815  0.00  0.00     0.006 C 
ATOM      8  C23 ZIN A   1      17.967  -6.692   5.333  0.00  0.00    -0.004 C 
ATOM      9  C25 ZIN A   1      17.076  -7.637   4.523  0.00  0.00     0.040 C 
ATOM     10  C26 ZIN A   1      17.446  -7.541   3.042  0.00  0.00     0.163 C 
ATOM     11  C32 ZIN A   1      17.238  -6.105   2.557  0.00  0.00     0.220 C 
ATOM     12  C41 ZIN A   1      18.129  -5.160   3.365  0.00  0.00     0.046 C 
ATOM     13  C42 ZIN A   1      17.761  -5.256   4.847  0.00  0.00    -0.034 C 
ATOM     14  C43 ZIN A   1      16.296  -4.856   5.036  0.00  0.00     0.016 C 
ATOM     15  C44 ZIN A   1      18.637  -4.295   5.651  0.00  0.00    -0.002 C 
ATOM     16  C46 ZIN A   1      18.466  -2.872   5.132  0.00  0.00     0.007 C 
ATOM     17  C47 ZIN A   1      19.267  -1.867   5.977  0.00  0.00     0.012 C 
ATOM     18  C48 ZIN A   1      18.856  -2.012   7.428  0.00  0.00    -0.011 C 
ATOM     19  C49 ZIN A   1      17.339  -1.852   7.554  0.00  0.00     0.018 C 
ENDROOT
BRANCH   2  20
ATOM     20  N9  ZIN A   1      18.767  -1.320  10.804  0.00  0.00    -0.064 N 
ATOM     21  C15 ZIN A   1      17.514  -0.833  10.214  0.00  0.00     0.237 C 
ATOM     22  C14 ZIN A   1      16.638  -0.216  11.306  0.00  0.00     0.028 C 
ATOM     23  C13 ZIN A   1      17.387   0.954  11.952  0.00  0.00     0.003 C 
ATOM     24  C12 ZIN A   1      18.725   0.451  12.499  0.00  0.00     0.028 C 
ATOM     25  C11 ZIN A   1      19.524  -0.192  11.363  0.00  0.00     0.237 C 
ATOM     26  C10 ZIN A   1      18.463  -2.280  11.873  0.00  0.00     0.273 C 
ENDBRANCH   2  20
BRANCH   1  27
ATOM     27  O4  ZIN A   1      18.814   0.092   8.671  0.00  0.00    -0.313 OA
BRANCH  27  28
ATOM     28  C2  ZIN A   1      19.273   1.190   8.050  0.00  0.00     0.255 C 
ATOM     29  C1  ZIN A   1      18.918   1.443   6.608  0.00  0.00     0.126 C 
ATOM     30  O3  ZIN A   1      19.972   1.973   8.647  0.00  0.00    -0.266 OA
ENDBRANCH  27  28
ENDBRANCH   1  27
BRANCH  11  31
ATOM     31  N34 ZIN A   1      15.831  -5.726   2.737  0.00  0.00    -0.064 N 
ATOM     32  C40 ZIN A   1      15.178  -6.686   3.635  0.00  0.00     0.237 C 
ATOM     33  C39 ZIN A   1      13.734  -6.251   3.892  0.00  0.00     0.028 C 
ATOM     34  C38 ZIN A   1      12.978  -6.199   2.560  0.00  0.00     0.003 C 
ATOM     35  C37 ZIN A   1      13.710  -5.251   1.606  0.00  0.00     0.028 C 
ATOM     36  C36 ZIN A   1      15.155  -5.724   1.435  0.00  0.00     0.237 C 
ATOM     37  C35 ZIN A   1      15.759  -4.382   3.325  0.00  0.00     0.273 C 
ENDBRANCH  11  31
BRANCH  10  38
ATOM     38  O28 ZIN A   1      18.838  -7.917   2.865  0.00  0.00    -0.314 OA
BRANCH  38  39
ATOM     39  C29 ZIN A   1      19.147  -8.602   1.753  0.00  0.00     0.255 C 
ATOM     40  C30 ZIN A   1      20.449  -8.334   1.042  0.00  0.00     0.126 C 
ATOM     41  O31 ZIN A   1      18.384  -9.433   1.324  0.00  0.00    -0.266 OA
ENDBRANCH  38  39
ENDBRANCH  10  38
TORSDOF 6
ENDMDL
MODEL 3
REMARK VINA RESULT:      -6.7      2.904      6.134
REMARK  6 active torsions:
REMARK  status: ('A' for Active; 'I' for Inactive)
REMARK    1  A    between atoms: C2_2  and  O4_4 
REMARK    2  A    between atoms: O4_4  and  C5_5 
REMARK    3  A    between atoms: C7_6  and  N9_7 
REMARK    4  A    between atoms: C26_21  and  O28_22 
REMARK    5  A    between atoms: O28_22  and  C29_23 
REMARK    6  A    between atoms: C32_26  and  N34_27 
ROOT
ATOM      1  C5  ZIN A   1      15.429  -8.000   7.749  0.00  0.00     0.171 C 
ATOM      2  C7  ZIN A   1      16.665  -8.904   7.508  0.00  0.00     0.220 C 
ATOM      3  C16 ZIN A   1      17.909  -8.049   7.879  0.00  0.00     0.042 C 
ATOM      4  C17 ZIN A   1      17.336  -7.011   8.849  0.00  0.00     0.003 C 
ATOM      5  C19 ZIN A   1      18.140  -5.734   9.002  0.00  0.00    -0.005 C 
ATOM      6  C21 ZIN A   1      19.518  -6.040   9.591  0.00  0.00     0.006 C 
ATOM      7  C22 ZIN A   1      20.290  -4.734   9.786  0.00  0.00     0.006 C 
ATOM      8  C23 ZIN A   1      19.520  -3.824  10.745  0.00  0.00    -0.004 C 
ATOM      9  C25 ZIN A   1      20.293  -2.517  10.939  0.00  0.00     0.040 C 
ATOM     10  C26 ZIN A   1      19.523  -1.608  11.898  0.00  0.00     0.163 C 
ATOM     11  C32 ZIN A   1      18.142  -1.302  11.313  0.00  0.00     0.220 C 
ATOM     12  C41 ZIN A   1      17.369  -2.608  11.121  0.00  0.00     0.046 C 
ATOM     13  C42 ZIN A   1      18.139  -3.519  10.161  0.00  0.00    -0.034 C 
ATOM     14  C43 ZIN A   1      18.297  -2.819   8.810  0.00  0.00     0.016 C 
ATOM     15  C44 ZIN A   1      17.356  -4.815   9.953  0.00  0.00    -0.002 C 
ATOM     16  C46 ZIN A   1      15.962  -4.503   9.417  0.00  0.00     0.007 C 
ATOM     17  C47 ZIN A   1      15.179  -5.790   9.112  0.00  0.00     0.012 C 
ATOM     18  C48 ZIN A   1      15.992  -6.645   8.160  0.00  0.00    -0.011 C 
ATOM     19  C49 ZIN A   1      16.350  -5.831   6.915  0.00  0.00     0.018 C 
ENDROOT
BRANCH   2  20
ATOM     20  N9  ZIN A   1      16.730  -9.305   6.097  0.00  0.00    -0.064 N 
ATOM     21  C15 ZIN A   1      17.013  -8.128   5.268  0.00  0.00     0.237 C 
ATOM     22  C14 ZIN A   1      17.162  -8.553   3.805  0.00  0.00     0.028 C 
ATOM     23  C13 ZIN A   1      15.860  -9.209   3.335  0.00  0.00     0.003 C 
ATOM     24  C12 ZIN A   1      15.534 -10.390   4.253  0.00  0.00     0.028 C 
ATOM     25  C11 ZIN A   1      15.446  -9.897   5.699  0.00  0.00     0.237 C 
ATOM     26  C10 ZIN A   1      17.799 -10.296   5.920  0.00  0.00     0.273 C 
ENDBRANCH   2  20
BRANCH   1  27
ATOM     27  O4  ZIN A   1      14.654  -7.873   6.526  0.00  0.00    -0.313 OA
BRANCH  27  28
ATOM     28  C2  ZIN A   1      13.373  -7.493   6.655  0.00  0.00     0.255 C 
ATOM     29  C1  ZIN A   1      12.408  -8.349   7.433  0.00  0.00     0.126 C 
ATOM     30  O3  ZIN A   1      12.994  -6.465   6.146  0.00  0.00    -0.266 OA
ENDBRANCH  27  28
ENDBRANCH   1  27
BRANCH  11  31
ATOM     31  N34 ZIN A   1      18.298  -0.629  10.018  0.00  0.00    -0.064 N 
ATOM     32  C40 ZIN A   1      19.697  -0.723   9.584  0.00  0.00     0.237 C 
ATOM     33  C39 ZIN A   1      19.849  -0.095   8.196  0.00  0.00     0.028 C 
ATOM     34  C38 ZIN A   1      19.431   1.378   8.261  0.00  0.00     0.003 C 
ATOM     35  C37 ZIN A   1      17.994   1.468   8.785  0.00  0.00     0.028 C 
ATOM     36  C36 ZIN A   1      17.912   0.781  10.151  0.00  0.00     0.237 C 
ATOM     37  C35 ZIN A   1      17.434  -1.278   9.023  0.00  0.00     0.273 C 
ENDBRANCH  11  31
BRANCH  10  38
ATOM     38  O28 ZIN A   1      19.369  -2.275  13.180  0.00  0.00    -0.314 OA
BRANCH  38  39
ATOM     39  C29 ZIN A   1      19.346  -1.497  14.273  0.00  0.00     0.255 C 
ATOM     40  C30 ZIN A   1      18.507  -1.892  15.461  0.00  0.00     0.126 C 
ATOM     41  O31 ZIN A   1      19.998  -0.481  14.305  0.00  0.00    -0.266 OA
ENDBRANCH  38  39
ENDBRANCH  10  38
TORSDOF 6
ENDMDL
MODEL 4
REMARK VINA RESULT:      -6.1      2.369      9.702
REMARK  6 active torsions:
REMARK  status: ('A' for Active; 'I' for Inactive)
REMARK    1  A    between atoms: C2_2  and  O4_4 
REMARK    2  A    between atoms: O4_4  and  C5_5 
REMARK    3  A    between atoms: C7_6  and  N9_7 
REMARK    4  A    between atoms: C26_21  and  O28_22 
REMARK    5  A    between atoms: O28_22  and  C29_23 
REMARK    6  A    between atoms: C32_26  and  N34_27 
ROOT
ATOM      1  C5  ZIN A   1      19.030  -0.395  10.435  0.00  0.00     0.171 C 
ATOM      2  C7  ZIN A   1      20.032  -1.047  11.421  0.00  0.00     0.220 C 
ATOM      3  C16 ZIN A   1      19.920  -2.582  11.206  0.00  0.00     0.042 C 
ATOM      4  C17 ZIN A   1      19.381  -2.690   9.776  0.00  0.00     0.003 C 
ATOM      5  C19 ZIN A   1      18.680  -3.990   9.428  0.00  0.00    -0.005 C 
ATOM      6  C21 ZIN A   1      19.656  -5.163   9.524  0.00  0.00     0.006 C 
ATOM      7  C22 ZIN A   1      18.942  -6.454   9.119  0.00  0.00     0.006 C 
ATOM      8  C23 ZIN A   1      18.439  -6.329   7.680  0.00  0.00    -0.004 C 
ATOM      9  C25 ZIN A   1      17.724  -7.621   7.275  0.00  0.00     0.040 C 
ATOM     10  C26 ZIN A   1      17.221  -7.495   5.836  0.00  0.00     0.163 C 
ATOM     11  C32 ZIN A   1      16.246  -6.320   5.737  0.00  0.00     0.220 C 
ATOM     12  C41 ZIN A   1      16.961  -5.029   6.139  0.00  0.00     0.046 C 
ATOM     13  C42 ZIN A   1      17.465  -5.154   7.579  0.00  0.00    -0.034 C 
ATOM     14  C43 ZIN A   1      16.278  -5.389   8.516  0.00  0.00     0.016 C 
ATOM     15  C44 ZIN A   1      18.160  -3.855   7.988  0.00  0.00    -0.002 C 
ATOM     16  C46 ZIN A   1      17.201  -2.679   7.840  0.00  0.00     0.007 C 
ATOM     17  C47 ZIN A   1      17.841  -1.369   8.328  0.00  0.00     0.012 C 
ATOM     18  C48 ZIN A   1      18.317  -1.557   9.754  0.00  0.00    -0.011 C 
ATOM     19  C49 ZIN A   1      17.154  -2.037  10.626  0.00  0.00     0.018 C 
ENDROOT
BRANCH   2  20
ATOM     20  N9  ZIN A   1      19.676  -0.704  12.804  0.00  0.00    -0.064 N 
ATOM     21  C15 ZIN A   1      20.058  -1.807  13.694  0.00  0.00     0.237 C 
ATOM     22  C14 ZIN A   1      19.763  -1.422  15.145  0.00  0.00     0.028 C 
ATOM     23  C13 ZIN A   1      18.265  -1.136  15.297  0.00  0.00     0.003 C 
ATOM     24  C12 ZIN A   1      17.863  -0.036  14.312  0.00  0.00     0.028 C 
ATOM     25  C11 ZIN A   1      18.229  -0.472  12.891  0.00  0.00     0.237 C 
ATOM     26  C10 ZIN A   1      20.390   0.516  13.204  0.00  0.00     0.273 C 
ENDBRANCH   2  20
BRANCH   1  27
ATOM     27  O4  ZIN A   1      18.075   0.426  11.160  0.00  0.00    -0.313 OA
BRANCH  27  28
ATOM     28  C2  ZIN A   1      17.885   1.677  10.713  0.00  0.00     0.255 C 
ATOM     29  C1  ZIN A   1      18.676   2.183   9.534  0.00  0.00     0.126 C 
ATOM     30  O3  ZIN A   1      17.082   2.397  11.256  0.00  0.00    -0.266 OA
ENDBRANCH  27  28
ENDBRANCH   1  27
BRANCH  11  31
ATOM     31  N34 ZIN A   1      15.108  -6.551   6.635  0.00  0.00    -0.064 N 
ATOM     32  C40 ZIN A   1      15.062  -7.970   7.010  0.00  0.00     0.237 C 
ATOM     33  C39 ZIN A   1      13.928  -8.201   8.011  0.00  0.00     0.028 C 
ATOM     34  C38 ZIN A   1      12.597  -7.798   7.367  0.00  0.00     0.003 C 
ATOM     35  C37 ZIN A   1      12.683  -6.338   6.914  0.00  0.00     0.028 C 
ATOM     36  C36 ZIN A   1      13.864  -6.176   5.954  0.00  0.00     0.237 C 
ATOM     37  C35 ZIN A   1      15.267  -5.733   7.845  0.00  0.00     0.273 C 
ENDBRANCH  11  31
BRANCH  10  38
ATOM     38  O28 ZIN A   1      18.348  -7.267   4.948  0.00  0.00    -0.314 OA
BRANCH  38  39
ATOM     39  C29 ZIN A   1      18.137  -7.455   3.636  0.00  0.00     0.255 C 
ATOM     40  C30 ZIN A   1      17.792  -6.282   2.754  0.00  0.00     0.126 C 
ATOM     41  O31 ZIN A   1      18.226  -8.562   3.162  0.00  0.00    -0.266 OA
ENDBRANCH  38  39
ENDBRANCH  10  38
TORSDOF 6
ENDMDL
MODEL 5
REMARK VINA RESULT:      -6.0      2.913      5.091
REMARK  6 active torsions:
REMARK  status: ('A' for Active; 'I' for Inactive)
REMARK    1  A    between atoms: C2_2  and  O4_4 
REMARK    2  A    between atoms: O4_4  and  C5_5 
REMARK    3  A    between atoms: C7_6  and  N9_7 
REMARK    4  A    between atoms: C26_21  and  O28_22 
REMARK    5  A    between atoms: O28_22  and  C29_23 
REMARK    6  A    between atoms: C32_26  and  N34_27 
ROOT
ATOM      1  C5  ZIN A   1      17.694  -0.731   9.416  0.00  0.00     0.171 C 
ATOM      2  C7  ZIN A   1      17.541  -1.953  10.356  0.00  0.00     0.220 C 
ATOM      3  C16 ZIN A   1      17.717  -1.415  11.803  0.00  0.00     0.042 C 
ATOM      4  C17 ZIN A   1      17.346   0.065  11.668  0.00  0.00     0.003 C 
ATOM      5  C19 ZIN A   1      17.889   0.986  12.744  0.00  0.00    -0.005 C 
ATOM      6  C21 ZIN A   1      17.317   0.604  14.110  0.00  0.00     0.006 C 
ATOM      7  C22 ZIN A   1      17.837   1.577  15.170  0.00  0.00     0.006 C 
ATOM      8  C23 ZIN A   1      17.399   3.000  14.815  0.00  0.00    -0.004 C 
ATOM      9  C25 ZIN A   1      17.920   3.973  15.875  0.00  0.00     0.040 C 
ATOM     10  C26 ZIN A   1      17.481   5.395  15.521  0.00  0.00     0.163 C 
ATOM     11  C32 ZIN A   1      18.050   5.778  14.153  0.00  0.00     0.220 C 
ATOM     12  C41 ZIN A   1      17.528   4.806  13.093  0.00  0.00     0.046 C 
ATOM     13  C42 ZIN A   1      17.966   3.383  13.447  0.00  0.00    -0.034 C 
ATOM     14  C43 ZIN A   1      19.495   3.315  13.489  0.00  0.00     0.016 C 
ATOM     15  C44 ZIN A   1      17.462   2.416  12.376  0.00  0.00    -0.002 C 
ATOM     16  C46 ZIN A   1      17.991   2.830  11.007  0.00  0.00     0.007 C 
ATOM     17  C47 ZIN A   1      17.575   1.826   9.919  0.00  0.00     0.012 C 
ATOM     18  C48 ZIN A   1      18.036   0.442  10.328  0.00  0.00    -0.011 C 
ATOM     19  C49 ZIN A   1      19.541   0.462  10.606  0.00  0.00     0.018 C 
ENDROOT
BRANCH   2  20
ATOM     20  N9  ZIN A   1      18.575  -2.952  10.059  0.00  0.00    -0.064 N 
ATOM     21  C15 ZIN A   1      18.345  -3.510   8.721  0.00  0.00     0.237 C 
ATOM     22  C14 ZIN A   1      19.466  -4.493   8.374  0.00  0.00     0.028 C 
ATOM     23  C13 ZIN A   1      19.481  -5.625   9.406  0.00  0.00     0.003 C 
ATOM     24  C12 ZIN A   1      19.648  -5.026  10.805  0.00  0.00     0.028 C 
ATOM     25  C11 ZIN A   1      18.520  -4.023  11.062  0.00  0.00     0.237 C 
ATOM     26  C10 ZIN A   1      19.898  -2.313  10.101  0.00  0.00     0.273 C 
ENDBRANCH   2  20
BRANCH   1  27
ATOM     27  O4  ZIN A   1      18.769  -0.960   8.466  0.00  0.00    -0.313 OA
BRANCH  27  28
ATOM     28  C2  ZIN A   1      18.530  -0.631   7.186  0.00  0.00     0.255 C 
ATOM     29  C1  ZIN A   1      17.167  -0.136   6.778  0.00  0.00     0.126 C 
ATOM     30  O3  ZIN A   1      19.407  -0.734   6.363  0.00  0.00    -0.266 OA
ENDBRANCH  27  28
ENDBRANCH   1  27
BRANCH  11  31
ATOM     31  N34 ZIN A   1      19.517   5.714  14.198  0.00  0.00    -0.064 N 
ATOM     32  C40 ZIN A   1      19.938   5.038  15.431  0.00  0.00     0.237 C 
ATOM     33  C39 ZIN A   1      21.462   4.896  15.444  0.00  0.00     0.028 C 
ATOM     34  C38 ZIN A   1      22.100   6.287  15.378  0.00  0.00     0.003 C 
ATOM     35  C37 ZIN A   1      21.595   7.010  14.126  0.00  0.00     0.028 C 
ATOM     36  C36 ZIN A   1      20.066   7.074  14.163  0.00  0.00     0.237 C 
ATOM     37  C35 ZIN A   1      20.008   4.960  13.036  0.00  0.00     0.273 C 
ENDBRANCH  11  31
BRANCH  10  38
ATOM     38  O28 ZIN A   1      16.031   5.457  15.477  0.00  0.00    -0.314 OA
BRANCH  38  39
ATOM     39  C29 ZIN A   1      15.428   6.258  16.370  0.00  0.00     0.255 C 
ATOM     40  C30 ZIN A   1      14.906   7.605  15.940  0.00  0.00     0.126 C 
ATOM     41  O31 ZIN A   1      15.304   5.900  17.517  0.00  0.00    -0.266 OA
ENDBRANCH  38  39
ENDBRANCH  10  38
TORSDOF 6
ENDMDL
MODEL 6
REMARK VINA RESULT:      -5.6      1.950      9.284
REMARK  6 active torsions:
REMARK  status: ('A' for Active; 'I' for Inactive)
REMARK    1  A    between atoms: C2_2  and  O4_4 
REMARK    2  A    between atoms: O4_4  and  C5_5 
REMARK    3  A    between atoms: C7_6  and  N9_7 
REMARK    4  A    between atoms: C26_21  and  O28_22 
REMARK    5  A    between atoms: O28_22  and  C29_23 
REMARK    6  A    between atoms: C32_26  and  N34_27 
ROOT
ATOM      1  C5  ZIN A   1      18.005   0.804  14.601  0.00  0.00     0.171 C 
ATOM      2  C7  ZIN A   1      17.655   2.056  13.757  0.00  0.00     0.220 C 
ATOM      3  C16 ZIN A   1      17.634   1.590  12.274  0.00  0.00     0.042 C 
ATOM      4  C17 ZIN A   1      17.355   0.089  12.389  0.00  0.00     0.003 C 
ATOM      5  C19 ZIN A   1      17.770  -0.756  11.200  0.00  0.00    -0.005 C 
ATOM      6  C21 ZIN A   1      16.980  -0.347   9.955  0.00  0.00     0.006 C 
ATOM      7  C22 ZIN A   1      17.376  -1.246   8.783  0.00  0.00     0.006 C 
ATOM      8  C23 ZIN A   1      17.062  -2.703   9.127  0.00  0.00    -0.004 C 
ATOM      9  C25 ZIN A   1      17.459  -3.601   7.953  0.00  0.00     0.040 C 
ATOM     10  C26 ZIN A   1      17.145  -5.058   8.298  0.00  0.00     0.163 C 
ATOM     11  C32 ZIN A   1      17.932  -5.469   9.545  0.00  0.00     0.220 C 
ATOM     12  C41 ZIN A   1      17.533  -4.572  10.717  0.00  0.00     0.046 C 
ATOM     13  C42 ZIN A   1      17.847  -3.114  10.374  0.00  0.00    -0.034 C 
ATOM     14  C43 ZIN A   1      19.347  -2.964  10.107  0.00  0.00     0.016 C 
ATOM     15  C44 ZIN A   1      17.469  -2.221  11.555  0.00  0.00    -0.002 C 
ATOM     16  C46 ZIN A   1      18.217  -2.665  12.807  0.00  0.00     0.007 C 
ATOM     17  C47 ZIN A   1      17.927  -1.731  13.994  0.00  0.00     0.012 C 
ATOM     18  C48 ZIN A   1      18.258  -0.309  13.591  0.00  0.00    -0.011 C 
ATOM     19  C49 ZIN A   1      19.702  -0.238  13.089  0.00  0.00     0.018 C 
ENDROOT
BRANCH   2  20
ATOM     20  N9  ZIN A   1      18.677   3.094  13.946  0.00  0.00    -0.064 N 
ATOM     21  C15 ZIN A   1      18.467   3.756  15.238  0.00  0.00     0.237 C 
ATOM     22  C14 ZIN A   1      19.577   4.784  15.476  0.00  0.00     0.028 C 
ATOM     23  C13 ZIN A   1      19.545   5.827  14.355  0.00  0.00     0.003 C 
ATOM     24  C12 ZIN A   1      19.690   5.118  13.006  0.00  0.00     0.028 C 
ATOM     25  C11 ZIN A   1      18.577   4.078  12.860  0.00  0.00     0.237 C 
ATOM     26  C10 ZIN A   1      20.010   2.478  13.923  0.00  0.00     0.273 C 
ENDBRANCH   2  20
BRANCH   1  27
ATOM     27  O4  ZIN A   1      19.200   1.049  15.390  0.00  0.00    -0.313 OA
BRANCH  27  28
ATOM     28  C2  ZIN A   1      19.128   0.778  16.703  0.00  0.00     0.255 C 
ATOM     29  C1  ZIN A   1      18.425  -0.467  17.178  0.00  0.00     0.126 C 
ATOM     30  O3  ZIN A   1      19.627   1.533  17.503  0.00  0.00    -0.266 OA
ENDBRANCH  27  28
ENDBRANCH   1  27
BRANCH  11  31
ATOM     31  N34 ZIN A   1      19.370  -5.326   9.284  0.00  0.00    -0.064 N 
ATOM     32  C40 ZIN A   1      19.568  -4.629   8.007  0.00  0.00     0.237 C 
ATOM     33  C39 ZIN A   1      21.063  -4.405   7.770  0.00  0.00     0.028 C 
ATOM     34  C38 ZIN A   1      21.776  -5.760   7.730  0.00  0.00     0.003 C 
ATOM     35  C37 ZIN A   1      21.502  -6.509   9.038  0.00  0.00     0.028 C 
ATOM     36  C36 ZIN A   1      19.990  -6.655   9.227  0.00  0.00     0.237 C 
ATOM     37  C35 ZIN A   1      19.987  -4.547  10.366  0.00  0.00     0.273 C 
ENDBRANCH  11  31
BRANCH  10  38
ATOM     38  O28 ZIN A   1      15.721  -5.198   8.555  0.00  0.00    -0.314 OA
BRANCH  38  39
ATOM     39  C29 ZIN A   1      15.067  -6.142   7.861  0.00  0.00     0.255 C 
ATOM     40  C30 ZIN A   1      13.571  -6.269   7.989  0.00  0.00     0.126 C 
ATOM     41  O31 ZIN A   1      15.677  -6.888   7.132  0.00  0.00    -0.266 OA
ENDBRANCH  38  39
ENDBRANCH  10  38
TORSDOF 6
ENDMDL
MODEL 7
REMARK VINA RESULT:      -5.6      3.083      5.310
REMARK  6 active torsions:
REMARK  status: ('A' for Active; 'I' for Inactive)
REMARK    1  A    between atoms: C2_2  and  O4_4 
REMARK    2  A    between atoms: O4_4  and  C5_5 
REMARK    3  A    between atoms: C7_6  and  N9_7 
REMARK    4  A    between atoms: C26_21  and  O28_22 
REMARK    5  A    between atoms: O28_22  and  C29_23 
REMARK    6  A    between atoms: C32_26  and  N34_27 
ROOT
ATOM      1  C5  ZIN A   1      18.854  -1.392  11.213  0.00  0.00     0.171 C 
ATOM      2  C7  ZIN A   1      19.612  -0.964   9.932  0.00  0.00     0.220 C 
ATOM      3  C16 ZIN A   1      19.803   0.575  10.031  0.00  0.00     0.042 C 
ATOM      4  C17 ZIN A   1      19.726   0.835  11.539  0.00  0.00     0.003 C 
ATOM      5  C19 ZIN A   1      19.363   2.249  11.950  0.00  0.00    -0.005 C 
ATOM      6  C21 ZIN A   1      20.436   3.232  11.479  0.00  0.00     0.006 C 
ATOM      7  C22 ZIN A   1      20.077   4.642  11.950  0.00  0.00     0.006 C 
ATOM      8  C23 ZIN A   1      20.001   4.667  13.478  0.00  0.00    -0.004 C 
ATOM      9  C25 ZIN A   1      19.640   6.078  13.948  0.00  0.00     0.040 C 
ATOM     10  C26 ZIN A   1      19.566   6.102  15.476  0.00  0.00     0.163 C 
ATOM     11  C32 ZIN A   1      18.495   5.117  15.950  0.00  0.00     0.220 C 
ATOM     12  C41 ZIN A   1      18.857   3.707  15.481  0.00  0.00     0.046 C 
ATOM     13  C42 ZIN A   1      18.932   3.682  13.952  0.00  0.00    -0.034 C 
ATOM     14  C43 ZIN A   1      17.574   4.078  13.368  0.00  0.00     0.016 C 
ATOM     15  C44 ZIN A   1      19.272   2.267  13.484  0.00  0.00    -0.002 C 
ATOM     16  C46 ZIN A   1      18.230   1.280  14.001  0.00  0.00     0.007 C 
ATOM     17  C47 ZIN A   1      18.493  -0.140  13.473  0.00  0.00     0.012 C 
ATOM     18  C48 ZIN A   1      18.556  -0.097  11.960  0.00  0.00    -0.011 C 
ATOM     19  C49 ZIN A   1      17.277   0.538  11.409  0.00  0.00     0.018 C 
ENDROOT
BRANCH   2  20
ATOM     20  N9  ZIN A   1      18.821  -1.299   8.741  0.00  0.00    -0.064 N 
ATOM     21  C15 ZIN A   1      19.027  -2.712   8.400  0.00  0.00     0.237 C 
ATOM     22  C14 ZIN A   1      18.143  -3.087   7.208  0.00  0.00     0.028 C 
ATOM     23  C13 ZIN A   1      18.517  -2.212   6.008  0.00  0.00     0.003 C 
ATOM     24  C12 ZIN A   1      18.371  -0.739   6.397  0.00  0.00     0.028 C 
ATOM     25  C11 ZIN A   1      19.246  -0.450   7.620  0.00  0.00     0.237 C 
ATOM     26  C10 ZIN A   1      17.398  -1.065   9.017  0.00  0.00     0.273 C 
ENDBRANCH   2  20
BRANCH   1  27
ATOM     27  O4  ZIN A   1      17.616  -2.066  10.862  0.00  0.00    -0.313 OA
BRANCH  27  28
ATOM     28  C2  ZIN A   1      17.435  -3.302  11.355  0.00  0.00     0.255 C 
ATOM     29  C1  ZIN A   1      18.494  -3.928  12.225  0.00  0.00     0.126 C 
ATOM     30  O3  ZIN A   1      16.425  -3.913  11.099  0.00  0.00    -0.266 OA
ENDBRANCH  27  28
ENDBRANCH   1  27
BRANCH  11  31
ATOM     31  N34 ZIN A   1      17.193   5.502  15.389  0.00  0.00    -0.064 N 
ATOM     32  C40 ZIN A   1      17.364   6.669  14.515  0.00  0.00     0.237 C 
ATOM     33  C39 ZIN A   1      16.026   7.024  13.864  0.00  0.00     0.028 C 
ATOM     34  C38 ZIN A   1      15.004   7.349  14.957  0.00  0.00     0.003 C 
ATOM     35  C37 ZIN A   1      14.888   6.152  15.905  0.00  0.00     0.028 C 
ATOM     36  C36 ZIN A   1      16.269   5.829  16.481  0.00  0.00     0.237 C 
ATOM     37  C35 ZIN A   1      16.648   4.384  14.608  0.00  0.00     0.273 C 
ENDBRANCH  11  31
BRANCH  10  38
ATOM     38  O28 ZIN A   1      20.854   5.721  16.029  0.00  0.00    -0.314 OA
BRANCH  38  39
ATOM     39  C29 ZIN A   1      21.947   6.172  15.394  0.00  0.00     0.255 C 
ATOM     40  C30 ZIN A   1      23.275   5.493  15.608  0.00  0.00     0.126 C 
ATOM     41  O31 ZIN A   1      21.866   7.121  14.651  0.00  0.00    -0.266 OA
ENDBRANCH  38  39
ENDBRANCH  10  38
TORSDOF 6
ENDMDL
MODEL 8
REMARK VINA RESULT:      -5.5      2.099      4.333
REMARK  6 active torsions:
REMARK  status: ('A' for Active; 'I' for Inactive)
REMARK    1  A    between atoms: C2_2  and  O4_4 
REMARK    2  A    between atoms: O4_4  and  C5_5 
REMARK    3  A    between atoms: C7_6  and  N9_7 
REMARK    4  A    between atoms: C26_21  and  O28_22 
REMARK    5  A    between atoms: O28_22  and  C29_23 
REMARK    6  A    between atoms: C32_26  and  N34_27 
ROOT
ATOM      1  C5  ZIN A   1      17.872  -4.448   9.949  0.00  0.00     0.171 C 
ATOM      2  C7  ZIN A   1      19.333  -4.722   9.512  0.00  0.00     0.220 C 
ATOM      3  C16 ZIN A   1      20.130  -3.424   9.815  0.00  0.00     0.042 C 
ATOM      4  C17 ZIN A   1      19.299  -2.759  10.917  0.00  0.00     0.003 C 
ATOM      5  C19 ZIN A   1      19.494  -1.264  11.084  0.00  0.00    -0.005 C 
ATOM      6  C21 ZIN A   1      20.934  -0.958  11.500  0.00  0.00     0.006 C 
ATOM      7  C22 ZIN A   1      21.093   0.547  11.713  0.00  0.00     0.006 C 
ATOM      8  C23 ZIN A   1      20.138   1.011  12.815  0.00  0.00    -0.004 C 
ATOM      9  C25 ZIN A   1      20.297   2.519  13.027  0.00  0.00     0.040 C 
ATOM     10  C26 ZIN A   1      19.342   2.982  14.129  0.00  0.00     0.163 C 
ATOM     11  C32 ZIN A   1      17.901   2.675  13.716  0.00  0.00     0.220 C 
ATOM     12  C41 ZIN A   1      17.741   1.168  13.505  0.00  0.00     0.046 C 
ATOM     13  C42 ZIN A   1      18.697   0.704  12.403  0.00  0.00    -0.034 C 
ATOM     14  C43 ZIN A   1      18.368   1.436  11.101  0.00  0.00     0.016 C 
ATOM     15  C44 ZIN A   1      18.521  -0.798  12.178  0.00  0.00    -0.002 C 
ATOM     16  C46 ZIN A   1      17.072  -1.106  11.817  0.00  0.00     0.007 C 
ATOM     17  C47 ZIN A   1      16.880  -2.598  11.497  0.00  0.00     0.012 C 
ATOM     18  C48 ZIN A   1      17.851  -2.993  10.403  0.00  0.00    -0.011 C 
ATOM     19  C49 ZIN A   1      17.666  -2.074   9.193  0.00  0.00     0.018 C 
ENDROOT
BRANCH   2  20
ATOM     20  N9  ZIN A   1      19.383  -5.021   8.075  0.00  0.00    -0.064 N 
ATOM     21  C15 ZIN A   1      18.966  -3.837   7.315  0.00  0.00     0.237 C 
ATOM     22  C14 ZIN A   1      19.093  -4.117   5.816  0.00  0.00     0.028 C 
ATOM     23  C13 ZIN A   1      18.197  -5.303   5.446  0.00  0.00     0.003 C 
ATOM     24  C12 ZIN A   1      18.592  -6.513   6.298  0.00  0.00     0.028 C 
ATOM     25  C11 ZIN A   1      18.484  -6.144   7.779  0.00  0.00     0.237 C 
ATOM     26  C10 ZIN A   1      20.755  -5.385   7.698  0.00  0.00     0.273 C 
ENDBRANCH   2  20
BRANCH   1  27
ATOM     27  O4  ZIN A   1      16.968  -4.639   8.827  0.00  0.00    -0.313 OA
BRANCH  27  28
ATOM     28  C2  ZIN A   1      15.876  -5.387   9.047  0.00  0.00     0.255 C 
ATOM     29  C1  ZIN A   1      15.046  -5.867   7.885  0.00  0.00     0.126 C 
ATOM     30  O3  ZIN A   1      15.557  -5.675  10.176  0.00  0.00    -0.266 OA
ENDBRANCH  27  28
ENDBRANCH   1  27
BRANCH  11  31
ATOM     31  N34 ZIN A   1      17.588   3.381  12.467  0.00  0.00    -0.064 N 
ATOM     32  C40 ZIN A   1      18.820   3.949  11.906  0.00  0.00     0.237 C 
ATOM     33  C39 ZIN A   1      18.514   4.616  10.563  0.00  0.00     0.028 C 
ATOM     34  C38 ZIN A   1      17.486   5.731  10.777  0.00  0.00     0.003 C 
ATOM     35  C37 ZIN A   1      16.234   5.140  11.430  0.00  0.00     0.028 C 
ATOM     36  C36 ZIN A   1      16.625   4.453  12.741  0.00  0.00     0.237 C 
ATOM     37  C35 ZIN A   1      17.006   2.436  11.505  0.00  0.00     0.273 C 
ENDBRANCH  11  31
BRANCH  10  38
ATOM     38  O28 ZIN A   1      19.653   2.282  15.364  0.00  0.00    -0.314 OA
BRANCH  38  39
ATOM     39  C29 ZIN A   1      19.628   3.005  16.495  0.00  0.00     0.255 C 
ATOM     40  C30 ZIN A   1      18.730   2.590  17.632  0.00  0.00     0.126 C 
ATOM     41  O31 ZIN A   1      20.326   3.984  16.602  0.00  0.00    -0.266 OA
ENDBRANCH  38  39
ENDBRANCH  10  38
TORSDOF 6
ENDMDL
MODEL 9
REMARK VINA RESULT:      -4.9      3.064     10.485
REMARK  6 active torsions:
REMARK  status: ('A' for Active; 'I' for Inactive)
REMARK    1  A    between atoms: C2_2  and  O4_4 
REMARK    2  A    between atoms: O4_4  and  C5_5 
REMARK    3  A    between atoms: C7_6  and  N9_7 
REMARK    4  A    between atoms: C26_21  and  O28_22 
REMARK    5  A    between atoms: O28_22  and  C29_23 
REMARK    6  A    between atoms: C32_26  and  N34_27 
ROOT
ATOM      1  C5  ZIN A   1      19.387  -1.741   8.776  0.00  0.00     0.171 C 
ATOM      2  C7  ZIN A   1      20.002  -2.305  10.081  0.00  0.00     0.220 C 
ATOM      3  C16 ZIN A   1      19.524  -3.780  10.187  0.00  0.00     0.042 C 
ATOM      4  C17 ZIN A   1      19.221  -4.149   8.731  0.00  0.00     0.003 C 
ATOM      5  C19 ZIN A   1      18.269  -5.311   8.526  0.00  0.00    -0.005 C 
ATOM      6  C21 ZIN A   1      18.869  -6.597   9.096  0.00  0.00     0.006 C 
ATOM      7  C22 ZIN A   1      17.916  -7.764   8.831  0.00  0.00     0.006 C 
ATOM      8  C23 ZIN A   1      17.711  -7.924   7.324  0.00  0.00    -0.004 C 
ATOM      9  C25 ZIN A   1      16.756  -9.092   7.060  0.00  0.00     0.040 C 
ATOM     10  C26 ZIN A   1      16.552  -9.252   5.552  0.00  0.00     0.163 C 
ATOM     11  C32 ZIN A   1      15.954  -7.965   4.979  0.00  0.00     0.220 C 
ATOM     12  C41 ZIN A   1      16.909  -6.798   5.242  0.00  0.00     0.046 C 
ATOM     13  C42 ZIN A   1      17.114  -6.638   6.750  0.00  0.00    -0.034 C 
ATOM     14  C43 ZIN A   1      15.769  -6.353   7.421  0.00  0.00     0.016 C 
ATOM     15  C44 ZIN A   1      18.051  -5.459   7.012  0.00  0.00    -0.002 C 
ATOM     16  C46 ZIN A   1      17.476  -4.187   6.396  0.00  0.00     0.007 C 
ATOM     17  C47 ZIN A   1      18.351  -2.964   6.718  0.00  0.00     0.012 C 
ATOM     18  C48 ZIN A   1      18.515  -2.861   8.221  0.00  0.00    -0.011 C 
ATOM     19  C49 ZIN A   1      17.138  -2.828   8.889  0.00  0.00     0.018 C 
ENDROOT
BRANCH   2  20
ATOM     20  N9  ZIN A   1      19.524  -1.535  11.238  0.00  0.00    -0.064 N 
ATOM     21  C15 ZIN A   1      20.252  -0.263  11.311  0.00  0.00     0.237 C 
ATOM     22  C14 ZIN A   1      19.703   0.577  12.467  0.00  0.00     0.028 C 
ATOM     23  C13 ZIN A   1      19.883  -0.192  13.779  0.00  0.00     0.003 C 
ATOM     24  C12 ZIN A   1      19.183  -1.549  13.665  0.00  0.00     0.028 C 
ATOM     25  C11 ZIN A   1      19.751  -2.310  12.465  0.00  0.00     0.237 C 
ATOM     26  C10 ZIN A   1      18.088  -1.269  11.089  0.00  0.00     0.273 C 
ENDBRANCH   2  20
BRANCH   1  27
ATOM     27  O4  ZIN A   1      18.577  -0.570   9.067  0.00  0.00    -0.313 OA
BRANCH  27  28
ATOM     28  C2  ZIN A   1      18.444   0.337   8.086  0.00  0.00     0.255 C 
ATOM     29  C1  ZIN A   1      19.607   1.219   7.714  0.00  0.00     0.126 C 
ATOM     30  O3  ZIN A   1      17.392   0.446   7.503  0.00  0.00    -0.266 OA
ENDBRANCH  27  28
ENDBRANCH   1  27
BRANCH  11  31
ATOM     31  N34 ZIN A   1      14.662  -7.696   5.624  0.00  0.00    -0.064 N 
ATOM     32  C40 ZIN A   1      14.637  -8.327   6.949  0.00  0.00     0.237 C 
ATOM     33  C39 ZIN A   1      13.326  -7.982   7.658  0.00  0.00     0.028 C 
ATOM     34  C38 ZIN A   1      12.150  -8.497   6.822  0.00  0.00     0.003 C 
ATOM     35  C37 ZIN A   1      12.228  -7.889   5.419  0.00  0.00     0.028 C 
ATOM     36  C36 ZIN A   1      13.581  -8.238   4.793  0.00  0.00     0.237 C 
ATOM     37  C35 ZIN A   1      14.483  -6.246   5.772  0.00  0.00     0.273 C 
ENDBRANCH  11  31
BRANCH  10  38
ATOM     38  O28 ZIN A   1      17.831  -9.518   4.916  0.00  0.00    -0.314 OA
BRANCH  38  39
ATOM     39  C29 ZIN A   1      17.805 -10.198   3.759  0.00  0.00     0.255 C 
ATOM     40  C30 ZIN A   1      16.488 -10.635   3.172  0.00  0.00     0.126 C 
ATOM     41  O31 ZIN A   1      18.838 -10.459   3.189  0.00  0.00    -0.266 OA
ENDBRANCH  38  39
ENDBRANCH  10  38
TORSDOF 6
ENDMDL
