MODEL 1
REMARK VINA RESULT:      -8.2      0.000      0.000
REMARK  6 active torsions:
REMARK  status: ('A' for Active; 'I' for Inactive)
REMARK    1  A    between atoms: O1_1  and  C2_2 
REMARK    2  A    between atoms: C2_2  and  C3_3 
REMARK    3  A    between atoms: C2_2  and  C12_12 
REMARK    4  A    between atoms: C2_2  and  C18_18 
REMARK    5  A    between atoms: C3_3  and  C4_4 
REMARK    6  A    between atoms: C4_4  and  N5_5 
ROOT
ATOM      1  C2  ZIN A   1      19.717  -0.859  10.708  0.00  0.00     0.090 C 
ENDROOT
BRANCH   1   2
ATOM      2  O1  ZIN A   1      21.127  -0.936  10.927  0.00  0.00    -0.385 OA
ATOM      3  H24 ZIN A   1      21.541  -1.723  10.546  0.00  0.00     0.211 HD
ENDBRANCH   1   2
BRANCH   1   4
ATOM      4  C3  ZIN A   1      19.061  -0.103  11.865  0.00  0.00     0.071 C 
BRANCH   4   5
ATOM      5  C4  ZIN A   1      20.133   0.309  12.876  0.00  0.00     0.238 C 
BRANCH   5   6
ATOM      6  N5  ZIN A   1      19.616   0.126  14.240  0.00  0.00    -0.071 N 
ATOM      7  H6  ZIN A   1      20.261   0.533  14.900  0.00  0.00     0.279 HD
ATOM      8  C11 ZIN A   1      18.311   0.787  14.360  0.00  0.00     0.235 C 
ATOM      9  C10 ZIN A   1      17.807   0.671  15.799  0.00  0.00     0.028 C 
ATOM     10  C9  ZIN A   1      17.664  -0.809  16.165  0.00  0.00     0.003 C 
ATOM     11  C8  ZIN A   1      19.012  -1.507  15.964  0.00  0.00     0.028 C 
ATOM     12  C7  ZIN A   1      19.474  -1.308  14.519  0.00  0.00     0.235 C 
ENDBRANCH   5   6
ENDBRANCH   4   5
ENDBRANCH   1   4
BRANCH   1  13
ATOM     13  C12 ZIN A   1      19.447  -0.133   9.415  0.00  0.00    -0.024 A 
ATOM     14  C17 ZIN A   1      19.298  -0.845   8.241  0.00  0.00     0.010 A 
ATOM     15  C16 ZIN A   1      19.046  -0.180   7.055  0.00  0.00     0.001 A 
ATOM     16  C15 ZIN A   1      18.954   1.199   7.044  0.00  0.00     0.000 A 
ATOM     17  C14 ZIN A   1      19.108   1.912   8.218  0.00  0.00     0.001 A 
ATOM     18  C13 ZIN A   1      19.355   1.246   9.404  0.00  0.00     0.010 A 
ENDBRANCH   1  13
BRANCH   1  19
ATOM     19  C18 ZIN A   1      19.136  -2.273  10.629  0.00  0.00     0.025 C 
ATOM     20  C23 ZIN A   1      17.756  -2.296  11.288  0.00  0.00     0.008 C 
ATOM     21  C22 ZIN A   1      17.177  -3.709  11.208  0.00  0.00     0.000 C 
ATOM     22  C21 ZIN A   1      18.105  -4.684  11.936  0.00  0.00     0.000 C 
ATOM     23  C20 ZIN A   1      19.486  -4.661  11.276  0.00  0.00     0.000 C 
ATOM     24  C19 ZIN A   1      20.066  -3.247  11.357  0.00  0.00     0.008 C 
ENDBRANCH   1  19
TORSDOF 6
ENDMDL
MODEL 2
REMARK VINA RESULT:      -8.0      1.579      5.554
REMARK  6 active torsions:
REMARK  status: ('A' for Active; 'I' for Inactive)
REMARK    1  A    between atoms: O1_1  and  C2_2 
REMARK    2  A    between atoms: C2_2  and  C3_3 
REMARK    3  A    between atoms: C2_2  and  C12_12 
REMARK    4  A    between atoms: C2_2  and  C18_18 
REMARK    5  A    between atoms: C3_3  and  C4_4 
REMARK    6  A    between atoms: C4_4  and  N5_5 
ROOT
ATOM      1  C2  ZIN A   1      18.441  -0.835  12.973  0.00  0.00     0.090 C 
ENDROOT
BRANCH   1   2
ATOM      2  O1  ZIN A   1      19.652  -0.087  12.842  0.00  0.00    -0.385 OA
ATOM      3  H24 ZIN A   1      19.834   0.212  11.940  0.00  0.00     0.211 HD
ENDBRANCH   1   2
BRANCH   1   4
ATOM      4  C3  ZIN A   1      17.286  -0.047  12.350  0.00  0.00     0.071 C 
BRANCH   4   5
ATOM      5  C4  ZIN A   1      17.840   1.180  11.622  0.00  0.00     0.238 C 
BRANCH   5   6
ATOM      6  N5  ZIN A   1      18.370   0.774  10.313  0.00  0.00    -0.071 N 
ATOM      7  H6  ZIN A   1      19.149   0.147  10.446  0.00  0.00     0.279 HD
ATOM      8  C11 ZIN A   1      17.317   0.091   9.551  0.00  0.00     0.235 C 
ATOM      9  C10 ZIN A   1      17.886  -0.407   8.221  0.00  0.00     0.028 C 
ATOM     10  C9  ZIN A   1      18.405   0.789   7.416  0.00  0.00     0.003 C 
ATOM     11  C8  ZIN A   1      19.447   1.539   8.249  0.00  0.00     0.028 C 
ATOM     12  C7  ZIN A   1      18.821   1.963   9.580  0.00  0.00     0.235 C 
ENDBRANCH   5   6
ENDBRANCH   4   5
ENDBRANCH   1   4
BRANCH   1  13
ATOM     13  C12 ZIN A   1      18.587  -2.157  12.264  0.00  0.00    -0.024 A 
ATOM     14  C17 ZIN A   1      19.844  -2.679  12.029  0.00  0.00     0.010 A 
ATOM     15  C16 ZIN A   1      19.980  -3.894  11.383  0.00  0.00     0.001 A 
ATOM     16  C15 ZIN A   1      18.856  -4.580  10.962  0.00  0.00     0.000 A 
ATOM     17  C14 ZIN A   1      17.598  -4.055  11.192  0.00  0.00     0.001 A 
ATOM     18  C13 ZIN A   1      17.464  -2.843  11.843  0.00  0.00     0.010 A 
ENDBRANCH   1  13
BRANCH   1  19
ATOM     19  C18 ZIN A   1      18.151  -1.081  14.455  0.00  0.00     0.025 C 
ATOM     20  C23 ZIN A   1      17.468   0.151  15.052  0.00  0.00     0.008 C 
ATOM     21  C22 ZIN A   1      17.178  -0.096  16.534  0.00  0.00     0.000 C 
ATOM     22  C21 ZIN A   1      18.491  -0.360  17.274  0.00  0.00     0.000 C 
ATOM     23  C20 ZIN A   1      19.174  -1.591  16.676  0.00  0.00     0.000 C 
ATOM     24  C19 ZIN A   1      19.464  -1.344  15.194  0.00  0.00     0.008 C 
ENDBRANCH   1  19
TORSDOF 6
ENDMDL
MODEL 3
REMARK VINA RESULT:      -8.0      2.085      4.140
REMARK  6 active torsions:
REMARK  status: ('A' for Active; 'I' for Inactive)
REMARK    1  A    between atoms: O1_1  and  C2_2 
REMARK    2  A    between atoms: C2_2  and  C3_3 
REMARK    3  A    between atoms: C2_2  and  C12_12 
REMARK    4  A    between atoms: C2_2  and  C18_18 
REMARK    5  A    between atoms: C3_3  and  C4_4 
REMARK    6  A    between atoms: C4_4  and  N5_5 
ROOT
ATOM      1  C2  ZIN A   1      18.747   0.952  10.097  0.00  0.00     0.090 C 
ENDROOT
BRANCH   1   2
ATOM      2  O1  ZIN A   1      20.094   0.478  10.121  0.00  0.00    -0.385 OA
ATOM      3  H24 ZIN A   1      20.601   0.695   9.326  0.00  0.00     0.211 HD
ENDBRANCH   1   2
BRANCH   1   4
ATOM      4  C3  ZIN A   1      17.849  -0.025  10.860  0.00  0.00     0.071 C 
BRANCH   4   5
ATOM      5  C4  ZIN A   1      18.718  -0.980  11.681  0.00  0.00     0.238 C 
BRANCH   5   6
ATOM      6  N5  ZIN A   1      18.766  -0.522  13.076  0.00  0.00    -0.071 N 
ATOM      7  H6  ZIN A   1      19.539   0.116  13.193  0.00  0.00     0.279 HD
ATOM      8  C11 ZIN A   1      17.512   0.166  13.407  0.00  0.00     0.235 C 
ATOM      9  C10 ZIN A   1      17.590   0.718  14.832  0.00  0.00     0.028 C 
ATOM     10  C9  ZIN A   1      17.811  -0.440  15.810  0.00  0.00     0.003 C 
ATOM     11  C8  ZIN A   1      19.080  -1.197  15.410  0.00  0.00     0.028 C 
ATOM     12  C7  ZIN A   1      18.949  -1.676  13.963  0.00  0.00     0.235 C 
ENDBRANCH   5   6
ENDBRANCH   4   5
ENDBRANCH   1   4
BRANCH   1  13
ATOM     13  C12 ZIN A   1      18.679   2.309  10.749  0.00  0.00    -0.024 A 
ATOM     14  C17 ZIN A   1      19.712   2.738  11.561  0.00  0.00     0.010 A 
ATOM     15  C16 ZIN A   1      19.653   3.985  12.155  0.00  0.00     0.001 A 
ATOM     16  C15 ZIN A   1      18.554   4.798  11.946  0.00  0.00     0.000 A 
ATOM     17  C14 ZIN A   1      17.519   4.366  11.139  0.00  0.00     0.001 A 
ATOM     18  C13 ZIN A   1      17.581   3.122  10.540  0.00  0.00     0.010 A 
ENDBRANCH   1  13
BRANCH   1  19
ATOM     19  C18 ZIN A   1      18.270   1.058   8.647  0.00  0.00     0.025 C 
ATOM     20  C23 ZIN A   1      17.534  -0.225   8.256  0.00  0.00     0.008 C 
ATOM     21  C22 ZIN A   1      17.057  -0.117   6.807  0.00  0.00     0.000 C 
ATOM     22  C21 ZIN A   1      18.263   0.079   5.886  0.00  0.00     0.000 C 
ATOM     23  C20 ZIN A   1      18.999   1.362   6.277  0.00  0.00     0.000 C 
ATOM     24  C19 ZIN A   1      19.476   1.254   7.727  0.00  0.00     0.008 C 
ENDBRANCH   1  19
TORSDOF 6
ENDMDL
MODEL 4
REMARK VINA RESULT:      -7.8      1.961      5.044
REMARK  6 active torsions:
REMARK  status: ('A' for Active; 'I' for Inactive)
REMARK    1  A    between atoms: O1_1  and  C2_2 
REMARK    2  A    between atoms: C2_2  and  C3_3 
REMARK    3  A    between atoms: C2_2  and  C12_12 
REMARK    4  A    between atoms: C2_2  and  C18_18 
REMARK    5  A    between atoms: C3_3  and  C4_4 
REMARK    6  A    between atoms: C4_4  and  N5_5 
ROOT
ATOM      1  C2  ZIN A   1      18.985  -1.141  12.543  0.00  0.00     0.090 C 
ENDROOT
BRANCH   1   2
ATOM      2  O1  ZIN A   1      20.383  -0.850  12.598  0.00  0.00    -0.385 OA
ATOM      3  H24 ZIN A   1      20.949  -1.633  12.556  0.00  0.00     0.211 HD
ENDBRANCH   1   2
BRANCH   1   4
ATOM      4  C3  ZIN A   1      18.279  -0.085  11.690  0.00  0.00     0.071 C 
BRANCH   4   5
ATOM      5  C4  ZIN A   1      19.265   0.492  10.673  0.00  0.00     0.238 C 
BRANCH   5   6
ATOM      6  N5  ZIN A   1      19.179   1.959  10.686  0.00  0.00    -0.071 N 
ATOM      7  H6  ZIN A   1      19.734   2.334   9.931  0.00  0.00     0.279 HD
ATOM      8  C11 ZIN A   1      17.780   2.368  10.514  0.00  0.00     0.235 C 
ATOM      9  C10 ZIN A   1      17.696   3.894  10.444  0.00  0.00     0.028 C 
ATOM     10  C9  ZIN A   1      18.245   4.490  11.743  0.00  0.00     0.003 C 
ATOM     11  C8  ZIN A   1      19.680   3.996  11.953  0.00  0.00     0.028 C 
ATOM     12  C7  ZIN A   1      19.691   2.466  11.965  0.00  0.00     0.235 C 
ENDBRANCH   5   6
ENDBRANCH   4   5
ENDBRANCH   1   4
BRANCH   1  13
ATOM     13  C12 ZIN A   1      18.779  -2.502  11.930  0.00  0.00    -0.024 A 
ATOM     14  C17 ZIN A   1      17.501  -2.947  11.650  0.00  0.00     0.010 A 
ATOM     15  C16 ZIN A   1      17.310  -4.194  11.084  0.00  0.00     0.001 A 
ATOM     16  C15 ZIN A   1      18.399  -5.000  10.809  0.00  0.00     0.000 A 
ATOM     17  C14 ZIN A   1      19.677  -4.558  11.094  0.00  0.00     0.001 A 
ATOM     18  C13 ZIN A   1      19.867  -3.308  11.655  0.00  0.00     0.010 A 
ENDBRANCH   1  13
BRANCH   1  19
ATOM     19  C18 ZIN A   1      18.405  -1.126  13.958  0.00  0.00     0.025 C 
ATOM     20  C23 ZIN A   1      17.876   0.273  14.279  0.00  0.00     0.008 C 
ATOM     21  C22 ZIN A   1      17.296   0.287  15.694  0.00  0.00     0.000 C 
ATOM     22  C21 ZIN A   1      18.389  -0.086  16.697  0.00  0.00     0.000 C 
ATOM     23  C20 ZIN A   1      18.918  -1.486  16.377  0.00  0.00     0.000 C 
ATOM     24  C19 ZIN A   1      19.499  -1.500  14.961  0.00  0.00     0.008 C 
ENDBRANCH   1  19
TORSDOF 6
ENDMDL
MODEL 5
REMARK VINA RESULT:      -7.8      2.142      5.203
REMARK  6 active torsions:
REMARK  status: ('A' for Active; 'I' for Inactive)
REMARK    1  A    between atoms: O1_1  and  C2_2 
REMARK    2  A    between atoms: C2_2  and  C3_3 
REMARK    3  A    between atoms: C2_2  and  C12_12 
REMARK    4  A    between atoms: C2_2  and  C18_18 
REMARK    5  A    between atoms: C3_3  and  C4_4 
REMARK    6  A    between atoms: C4_4  and  N5_5 
ROOT
ATOM      1  C2  ZIN A   1      18.170  -1.200  12.570  0.00  0.00     0.090 C 
ENDROOT
BRANCH   1   2
ATOM      2  O1  ZIN A   1      16.865  -0.905  12.067  0.00  0.00    -0.385 OA
ATOM      3  H24 ZIN A   1      16.283  -0.480  12.712  0.00  0.00     0.211 HD
ENDBRANCH   1   2
BRANCH   1   4
ATOM      4  C3  ZIN A   1      19.204  -0.344  11.837  0.00  0.00     0.071 C 
BRANCH   4   5
ATOM      5  C4  ZIN A   1      18.497   0.539  10.807  0.00  0.00     0.238 C 
BRANCH   5   6
ATOM      6  N5  ZIN A   1      18.169   1.835  11.415  0.00  0.00    -0.071 N 
ATOM      7  H6  ZIN A   1      17.397   1.720  12.054  0.00  0.00     0.279 HD
ATOM      8  C11 ZIN A   1      19.337   2.341  12.146  0.00  0.00     0.235 C 
ATOM      9  C10 ZIN A   1      18.975   3.650  12.851  0.00  0.00     0.028 C 
ATOM     10  C9  ZIN A   1      18.542   4.682  11.805  0.00  0.00     0.003 C 
ATOM     11  C8  ZIN A   1      17.372   4.114  10.997  0.00  0.00     0.028 C 
ATOM     12  C7  ZIN A   1      17.792   2.786  10.363  0.00  0.00     0.235 C 
ENDBRANCH   5   6
ENDBRANCH   4   5
ENDBRANCH   1   4
BRANCH   1  13
ATOM     13  C12 ZIN A   1      18.221  -0.898  14.046  0.00  0.00    -0.024 A 
ATOM     14  C17 ZIN A   1      18.976  -1.692  14.888  0.00  0.00     0.010 A 
ATOM     15  C16 ZIN A   1      19.027  -1.413  16.241  0.00  0.00     0.001 A 
ATOM     16  C15 ZIN A   1      18.312  -0.345  16.752  0.00  0.00     0.000 A 
ATOM     17  C14 ZIN A   1      17.552   0.445  15.911  0.00  0.00     0.001 A 
ATOM     18  C13 ZIN A   1      17.506   0.169  14.557  0.00  0.00     0.010 A 
ENDBRANCH   1  13
BRANCH   1  19
ATOM     19  C18 ZIN A   1      18.480  -2.681  12.342  0.00  0.00     0.025 C 
ATOM     20  C23 ZIN A   1      19.798  -2.815  11.576  0.00  0.00     0.008 C 
ATOM     21  C22 ZIN A   1      20.107  -4.296  11.350  0.00  0.00     0.000 C 
ATOM     22  C21 ZIN A   1      18.978  -4.935  10.538  0.00  0.00     0.000 C 
ATOM     23  C20 ZIN A   1      17.661  -4.801  11.304  0.00  0.00     0.000 C 
ATOM     24  C19 ZIN A   1      17.351  -3.320  11.530  0.00  0.00     0.008 C 
ENDBRANCH   1  19
TORSDOF 6
ENDMDL
MODEL 6
REMARK VINA RESULT:      -7.8      1.505      5.675
REMARK  6 active torsions:
REMARK  status: ('A' for Active; 'I' for Inactive)
REMARK    1  A    between atoms: O1_1  and  C2_2 
REMARK    2  A    between atoms: C2_2  and  C3_3 
REMARK    3  A    between atoms: C2_2  and  C12_12 
REMARK    4  A    between atoms: C2_2  and  C18_18 
REMARK    5  A    between atoms: C3_3  and  C4_4 
REMARK    6  A    between atoms: C4_4  and  N5_5 
ROOT
ATOM      1  C2  ZIN A   1      18.933  -1.085  12.568  0.00  0.00     0.090 C 
ENDROOT
BRANCH   1   2
ATOM      2  O1  ZIN A   1      20.316  -0.729  12.604  0.00  0.00    -0.385 OA
ATOM      3  H24 ZIN A   1      20.543   0.025  12.041  0.00  0.00     0.211 HD
ENDBRANCH   1   2
BRANCH   1   4
ATOM      4  C3  ZIN A   1      18.168  -0.072  11.713  0.00  0.00     0.071 C 
BRANCH   4   5
ATOM      5  C4  ZIN A   1      19.147   0.658  10.791  0.00  0.00     0.238 C 
BRANCH   5   6
ATOM      6  N5  ZIN A   1      18.527   0.848   9.472  0.00  0.00    -0.071 N 
ATOM      7  H6  ZIN A   1      17.797   1.540   9.541  0.00  0.00     0.279 HD
ATOM      8  C11 ZIN A   1      19.544   1.304   8.516  0.00  0.00     0.235 C 
ATOM      9  C10 ZIN A   1      18.888   1.582   7.163  0.00  0.00     0.028 C 
ATOM     10  C9  ZIN A   1      18.240   0.296   6.643  0.00  0.00     0.003 C 
ATOM     11  C8  ZIN A   1      17.236  -0.213   7.680  0.00  0.00     0.028 C 
ATOM     12  C7  ZIN A   1      17.952  -0.423   9.016  0.00  0.00     0.235 C 
ENDBRANCH   5   6
ENDBRANCH   4   5
ENDBRANCH   1   4
BRANCH   1  13
ATOM     13  C12 ZIN A   1      18.783  -2.461  11.971  0.00  0.00    -0.024 A 
ATOM     14  C17 ZIN A   1      19.905  -3.216  11.684  0.00  0.00     0.010 A 
ATOM     15  C16 ZIN A   1      19.769  -4.479  11.141  0.00  0.00     0.001 A 
ATOM     16  C15 ZIN A   1      18.509  -4.983  10.874  0.00  0.00     0.000 A 
ATOM     17  C14 ZIN A   1      17.387  -4.226  11.155  0.00  0.00     0.001 A 
ATOM     18  C13 ZIN A   1      17.524  -2.964  11.703  0.00  0.00     0.010 A 
ENDBRANCH   1  13
BRANCH   1  19
ATOM     19  C18 ZIN A   1      18.369  -1.083  13.990  0.00  0.00     0.025 C 
ATOM     20  C23 ZIN A   1      17.853   0.317  14.333  0.00  0.00     0.008 C 
ATOM     21  C22 ZIN A   1      17.290   0.318  15.754  0.00  0.00     0.000 C 
ATOM     22  C21 ZIN A   1      18.391  -0.075  16.741  0.00  0.00     0.000 C 
ATOM     23  C20 ZIN A   1      18.906  -1.474  16.398  0.00  0.00     0.000 C 
ATOM     24  C19 ZIN A   1      19.471  -1.476  14.976  0.00  0.00     0.008 C 
ENDBRANCH   1  19
TORSDOF 6
ENDMDL
MODEL 7
REMARK VINA RESULT:      -7.6      1.702      2.668
REMARK  6 active torsions:
REMARK  status: ('A' for Active; 'I' for Inactive)
REMARK    1  A    between atoms: O1_1  and  C2_2 
REMARK    2  A    between atoms: C2_2  and  C3_3 
REMARK    3  A    between atoms: C2_2  and  C12_12 
REMARK    4  A    between atoms: C2_2  and  C18_18 
REMARK    5  A    between atoms: C3_3  and  C4_4 
REMARK    6  A    between atoms: C4_4  and  N5_5 
ROOT
ATOM      1  C2  ZIN A   1      19.785  -0.709  10.414  0.00  0.00     0.090 C 
ENDROOT
BRANCH   1   2
ATOM      2  O1  ZIN A   1      21.200  -0.734  10.612  0.00  0.00    -0.385 OA
ATOM      3  H24 ZIN A   1      21.471  -0.594  11.531  0.00  0.00     0.211 HD
ENDBRANCH   1   2
BRANCH   1   4
ATOM      4  C3  ZIN A   1      19.132   0.137  11.509  0.00  0.00     0.071 C 
BRANCH   4   5
ATOM      5  C4  ZIN A   1      20.216   0.714  12.422  0.00  0.00     0.238 C 
BRANCH   5   6
ATOM      6  N5  ZIN A   1      19.801   2.041  12.896  0.00  0.00    -0.071 N 
ATOM      7  H6  ZIN A   1      20.357   2.300  13.698  0.00  0.00     0.279 HD
ATOM      8  C11 ZIN A   1      19.999   3.026  11.826  0.00  0.00     0.235 C 
ATOM      9  C10 ZIN A   1      19.648   4.423  12.342  0.00  0.00     0.028 C 
ATOM     10  C9  ZIN A   1      18.182   4.441  12.787  0.00  0.00     0.003 C 
ATOM     11  C8  ZIN A   1      17.968   3.359  13.849  0.00  0.00     0.028 C 
ATOM     12  C7  ZIN A   1      18.385   2.002  13.279  0.00  0.00     0.235 C 
ENDBRANCH   5   6
ENDBRANCH   4   5
ENDBRANCH   1   4
BRANCH   1  13
ATOM     13  C12 ZIN A   1      19.477  -0.110   9.066  0.00  0.00    -0.024 A 
ATOM     14  C17 ZIN A   1      19.365   1.260   8.927  0.00  0.00     0.010 A 
ATOM     15  C16 ZIN A   1      19.086   1.811   7.690  0.00  0.00     0.001 A 
ATOM     16  C15 ZIN A   1      18.909   0.988   6.593  0.00  0.00     0.000 A 
ATOM     17  C14 ZIN A   1      19.016  -0.383   6.733  0.00  0.00     0.001 A 
ATOM     18  C13 ZIN A   1      19.300  -0.932   7.969  0.00  0.00     0.010 A 
ENDBRANCH   1  13
BRANCH   1  19
ATOM     19  C18 ZIN A   1      19.237  -2.136  10.475  0.00  0.00     0.025 C 
ATOM     20  C23 ZIN A   1      17.827  -2.116  11.068  0.00  0.00     0.008 C 
ATOM     21  C22 ZIN A   1      17.279  -3.542  11.129  0.00  0.00     0.000 C 
ATOM     22  C21 ZIN A   1      18.190  -4.402  12.009  0.00  0.00     0.000 C 
ATOM     23  C20 ZIN A   1      19.600  -4.422  11.416  0.00  0.00     0.000 C 
ATOM     24  C19 ZIN A   1      20.148  -2.994  11.356  0.00  0.00     0.008 C 
ENDBRANCH   1  19
TORSDOF 6
ENDMDL
MODEL 8
REMARK VINA RESULT:      -7.6      2.126      6.148
REMARK  6 active torsions:
REMARK  status: ('A' for Active; 'I' for Inactive)
REMARK    1  A    between atoms: O1_1  and  C2_2 
REMARK    2  A    between atoms: C2_2  and  C3_3 
REMARK    3  A    between atoms: C2_2  and  C12_12 
REMARK    4  A    between atoms: C2_2  and  C18_18 
REMARK    5  A    between atoms: C3_3  and  C4_4 
REMARK    6  A    between atoms: C4_4  and  N5_5 
ROOT
ATOM      1  C2  ZIN A   1      19.194  -0.347  12.768  0.00  0.00     0.090 C 
ENDROOT
BRANCH   1   2
ATOM      2  O1  ZIN A   1      20.619  -0.449  12.729  0.00  0.00    -0.385 OA
ATOM      3  H24 ZIN A   1      20.944  -1.229  12.257  0.00  0.00     0.211 HD
ENDBRANCH   1   2
BRANCH   1   4
ATOM      4  C3  ZIN A   1      18.580  -1.446  11.899  0.00  0.00     0.071 C 
BRANCH   4   5
ATOM      5  C4  ZIN A   1      19.694  -2.330  11.334  0.00  0.00     0.238 C 
BRANCH   5   6
ATOM      6  N5  ZIN A   1      19.224  -3.721  11.257  0.00  0.00    -0.071 N 
ATOM      7  H6  ZIN A   1      19.899  -4.327  11.698  0.00  0.00     0.279 HD
ATOM      8  C11 ZIN A   1      17.935  -3.839  11.950  0.00  0.00     0.235 C 
ATOM      9  C10 ZIN A   1      17.482  -5.300  11.946  0.00  0.00     0.028 C 
ATOM     10  C9  ZIN A   1      17.329  -5.776  10.498  0.00  0.00     0.003 C 
ATOM     11  C8  ZIN A   1      18.657  -5.578   9.763  0.00  0.00     0.028 C 
ATOM     12  C7  ZIN A   1      19.069  -4.107   9.850  0.00  0.00     0.235 C 
ENDBRANCH   5   6
ENDBRANCH   4   5
ENDBRANCH   1   4
BRANCH   1  13
ATOM     13  C12 ZIN A   1      18.718  -0.504  14.189  0.00  0.00    -0.024 A 
ATOM     14  C17 ZIN A   1      19.290  -1.459  15.008  0.00  0.00     0.010 A 
ATOM     15  C16 ZIN A   1      18.857  -1.601  16.313  0.00  0.00     0.001 A 
ATOM     16  C15 ZIN A   1      17.842  -0.795  16.795  0.00  0.00     0.000 A 
ATOM     17  C14 ZIN A   1      17.265   0.156  15.974  0.00  0.00     0.001 A 
ATOM     18  C13 ZIN A   1      17.703   0.301  14.671  0.00  0.00     0.010 A 
ENDBRANCH   1  13
BRANCH   1  19
ATOM     19  C18 ZIN A   1      18.767   1.023  12.236  0.00  0.00     0.025 C 
ATOM     20  C23 ZIN A   1      17.972   0.842  10.941  0.00  0.00     0.008 C 
ATOM     21  C22 ZIN A   1      17.545   2.212  10.411  0.00  0.00     0.000 C 
ATOM     22  C21 ZIN A   1      18.787   3.061  10.132  0.00  0.00     0.000 C 
ATOM     23  C20 ZIN A   1      19.582   3.241  11.427  0.00  0.00     0.000 C 
ATOM     24  C19 ZIN A   1      20.010   1.871  11.958  0.00  0.00     0.008 C 
ENDBRANCH   1  19
TORSDOF 6
ENDMDL
MODEL 9
REMARK VINA RESULT:      -7.4      1.646      5.658
REMARK  6 active torsions:
REMARK  status: ('A' for Active; 'I' for Inactive)
REMARK    1  A    between atoms: O1_1  and  C2_2 
REMARK    2  A    between atoms: C2_2  and  C3_3 
REMARK    3  A    between atoms: C2_2  and  C12_12 
REMARK    4  A    between atoms: C2_2  and  C18_18 
REMARK    5  A    between atoms: C3_3  and  C4_4 
REMARK    6  A    between atoms: C4_4  and  N5_5 
ROOT
ATOM      1  C2  ZIN A   1      18.065  -1.169  12.659  0.00  0.00     0.090 C 
ENDROOT
BRANCH   1   2
ATOM      2  O1  ZIN A   1      16.738  -0.923  12.190  0.00  0.00    -0.385 OA
ATOM      3  H24 ZIN A   1      16.425  -0.021  12.352  0.00  0.00     0.211 HD
ENDBRANCH   1   2
BRANCH   1   4
ATOM      4  C3  ZIN A   1      19.046  -0.262  11.913  0.00  0.00     0.071 C 
BRANCH   4   5
ATOM      5  C4  ZIN A   1      18.363   1.068  11.587  0.00  0.00     0.238 C 
BRANCH   5   6
ATOM      6  N5  ZIN A   1      18.224   1.203  10.130  0.00  0.00    -0.071 N 
ATOM      7  H6  ZIN A   1      17.263   1.411   9.903  0.00  0.00     0.279 HD
ATOM      8  C11 ZIN A   1      19.084   2.293   9.657  0.00  0.00     0.235 C 
ATOM      9  C10 ZIN A   1      18.880   2.493   8.154  0.00  0.00     0.028 C 
ATOM     10  C9  ZIN A   1      19.246   1.199   7.420  0.00  0.00     0.003 C 
ATOM     11  C8  ZIN A   1      18.396   0.053   7.974  0.00  0.00     0.028 C 
ATOM     12  C7  ZIN A   1      18.615  -0.055   9.484  0.00  0.00     0.235 C 
ENDBRANCH   5   6
ENDBRANCH   4   5
ENDBRANCH   1   4
BRANCH   1  13
ATOM     13  C12 ZIN A   1      18.138  -0.881  14.137  0.00  0.00    -0.024 A 
ATOM     14  C17 ZIN A   1      18.960  -1.639  14.948  0.00  0.00     0.010 A 
ATOM     15  C16 ZIN A   1      19.031  -1.373  16.303  0.00  0.00     0.001 A 
ATOM     16  C15 ZIN A   1      18.271  -0.354  16.847  0.00  0.00     0.000 A 
ATOM     17  C14 ZIN A   1      17.445   0.400  16.036  0.00  0.00     0.001 A 
ATOM     18  C13 ZIN A   1      17.378   0.137  14.680  0.00  0.00     0.010 A 
ENDBRANCH   1  13
BRANCH   1  19
ATOM     19  C18 ZIN A   1      18.431  -2.633  12.407  0.00  0.00     0.025 C 
ATOM     20  C23 ZIN A   1      19.801  -2.708  11.730  0.00  0.00     0.008 C 
ATOM     21  C22 ZIN A   1      20.166  -4.172  11.479  0.00  0.00     0.000 C 
ATOM     22  C21 ZIN A   1      19.113  -4.812  10.571  0.00  0.00     0.000 C 
ATOM     23  C20 ZIN A   1      17.743  -4.737  11.248  0.00  0.00     0.000 C 
ATOM     24  C19 ZIN A   1      17.378  -3.272  11.499  0.00  0.00     0.008 C 
ENDBRANCH   1  19
TORSDOF 6
ENDMDL
