MODEL 1
REMARK VINA RESULT:      -8.0      0.000      0.000
REMARK  1 active torsions:
REMARK  status: ('A' for Active; 'I' for Inactive)
REMARK    1  A    between atoms: C14_14  and  N15_15 
ROOT
ATOM      1 Cl1  ZIN A   1      19.340   0.302  15.917  0.00  0.00    -0.084 Cl
ATOM      2  C2  ZIN A   1      18.542   0.455  14.383  0.00  0.00     0.035 A 
ATOM      3  C3  ZIN A   1      17.747  -0.576  13.912  0.00  0.00     0.026 A 
ATOM      4  C4  ZIN A   1      17.117  -0.466  12.686  0.00  0.00     0.040 A 
ATOM      5  C5  ZIN A   1      17.280   0.677  11.921  0.00  0.00     0.090 A 
ATOM      6  O6  ZIN A   1      16.710   0.754  10.693  0.00  0.00    -0.307 OA
ATOM      7  C7  ZIN A   1      17.531   0.873   9.618  0.00  0.00     0.104 A 
ATOM      8  C8  ZIN A   1      17.537  -0.130   8.664  0.00  0.00     0.040 A 
ATOM      9  C9  ZIN A   1      18.387  -0.051   7.575  0.00  0.00     0.003 A 
ATOM     10  C10 ZIN A   1      19.238   1.028   7.434  0.00  0.00     0.002 A 
ATOM     11  C11 ZIN A   1      19.234   2.041   8.371  0.00  0.00     0.034 A 
ATOM     12  C12 ZIN A   1      18.369   1.980   9.468  0.00  0.00     0.093 A 
ATOM     13  N13 ZIN A   1      18.334   3.029  10.338  0.00  0.00    -0.228 NA
ATOM     14  C14 ZIN A   1      18.214   2.969  11.618  0.00  0.00     0.139 C 
ATOM     15  C21 ZIN A   1      18.063   1.731  12.402  0.00  0.00     0.045 A 
ATOM     16  C22 ZIN A   1      18.698   1.609  13.639  0.00  0.00     0.042 A 
ENDROOT
BRANCH  14  17
ATOM     17  N15 ZIN A   1      18.227   4.158  12.311  0.00  0.00    -0.362 N 
ATOM     18  C20 ZIN A   1      16.975   4.781  12.766  0.00  0.00     0.154 C 
ATOM     19  C19 ZIN A   1      17.113   5.101  14.263  0.00  0.00     0.289 C 
ATOM     20  N18 ZIN A   1      18.321   5.910  14.477  0.00  0.00     0.086 N 
ATOM     21  C17 ZIN A   1      19.533   5.165  14.107  0.00  0.00     0.289 C 
ATOM     22  H33 ZIN A   1      18.374   6.237  15.429  0.00  0.00     0.316 HD
ATOM     23  C16 ZIN A   1      19.494   4.845  12.610  0.00  0.00     0.154 C 
ENDBRANCH  14  17
TORSDOF 1
ENDMDL
MODEL 2
REMARK VINA RESULT:      -7.8      4.401      7.592
REMARK  1 active torsions:
REMARK  status: ('A' for Active; 'I' for Inactive)
REMARK    1  A    between atoms: C14_14  and  N15_15 
ROOT
ATOM      1 Cl1  ZIN A   1      19.260  -0.895   6.361  0.00  0.00    -0.084 Cl
ATOM      2  C2  ZIN A   1      18.493  -0.846   7.917  0.00  0.00     0.035 A 
ATOM      3  C3  ZIN A   1      17.681   0.224   8.253  0.00  0.00     0.026 A 
ATOM      4  C4  ZIN A   1      17.075   0.276   9.495  0.00  0.00     0.040 A 
ATOM      5  C5  ZIN A   1      17.279  -0.742  10.411  0.00  0.00     0.090 A 
ATOM      6  O6  ZIN A   1      16.732  -0.656  11.648  0.00  0.00    -0.307 OA
ATOM      7  C7  ZIN A   1      17.575  -0.602  12.712  0.00  0.00     0.104 A 
ATOM      8  C8  ZIN A   1      17.571   0.526  13.514  0.00  0.00     0.040 A 
ATOM      9  C9  ZIN A   1      18.442   0.623  14.586  0.00  0.00     0.003 A 
ATOM     10  C10 ZIN A   1      19.322  -0.406  14.861  0.00  0.00     0.002 A 
ATOM     11  C11 ZIN A   1      19.327  -1.542  14.078  0.00  0.00     0.034 A 
ATOM     12  C12 ZIN A   1      18.442  -1.658  13.001  0.00  0.00     0.093 A 
ATOM     13  N13 ZIN A   1      18.418  -2.820  12.291  0.00  0.00    -0.228 NA
ATOM     14  C14 ZIN A   1      18.275  -2.946  11.017  0.00  0.00     0.139 C 
ATOM     15  C21 ZIN A   1      18.080  -1.836  10.069  0.00  0.00     0.045 A 
ATOM     16  C22 ZIN A   1      18.690  -1.877   8.814  0.00  0.00     0.042 A 
ENDROOT
BRANCH  14  17
ATOM     17  N15 ZIN A   1      18.306  -4.221  10.500  0.00  0.00    -0.362 N 
ATOM     18  C20 ZIN A   1      17.071  -4.887  10.059  0.00  0.00     0.154 C 
ATOM     19  C19 ZIN A   1      17.292  -5.417   8.634  0.00  0.00     0.289 C 
ATOM     20  N18 ZIN A   1      18.495  -6.262   8.612  0.00  0.00     0.086 N 
ATOM     21  C17 ZIN A   1      19.697  -5.487   8.949  0.00  0.00     0.289 C 
ATOM     22  H33 ZIN A   1      18.598  -6.721   7.720  0.00  0.00     0.316 HD
ATOM     23  C16 ZIN A   1      19.574  -4.958  10.381  0.00  0.00     0.154 C 
ENDBRANCH  14  17
TORSDOF 1
ENDMDL
MODEL 3
REMARK VINA RESULT:      -7.8      4.189      7.213
REMARK  1 active torsions:
REMARK  status: ('A' for Active; 'I' for Inactive)
REMARK    1  A    between atoms: C14_14  and  N15_15 
ROOT
ATOM      1 Cl1  ZIN A   1      16.213  -5.352  10.126  0.00  0.00    -0.084 Cl
ATOM      2  C2  ZIN A   1      17.399  -4.092  10.254  0.00  0.00     0.035 A 
ATOM      3  C3  ZIN A   1      17.951  -3.786  11.486  0.00  0.00     0.026 A 
ATOM      4  C4  ZIN A   1      18.889  -2.775  11.597  0.00  0.00     0.040 A 
ATOM      5  C5  ZIN A   1      19.280  -2.063  10.476  0.00  0.00     0.090 A 
ATOM      6  O6  ZIN A   1      20.153  -1.033  10.601  0.00  0.00    -0.307 OA
ATOM      7  C7  ZIN A   1      19.720   0.211  10.267  0.00  0.00     0.104 A 
ATOM      8  C8  ZIN A   1      19.675   1.190  11.244  0.00  0.00     0.040 A 
ATOM      9  C9  ZIN A   1      19.208   2.457  10.941  0.00  0.00     0.003 A 
ATOM     10  C10 ZIN A   1      18.782   2.752   9.659  0.00  0.00     0.002 A 
ATOM     11  C11 ZIN A   1      18.833   1.789   8.673  0.00  0.00     0.034 A 
ATOM     12  C12 ZIN A   1      19.317   0.509   8.964  0.00  0.00     0.093 A 
ATOM     13  N13 ZIN A   1      19.425  -0.399   7.953  0.00  0.00    -0.228 NA
ATOM     14  C14 ZIN A   1      19.176  -1.661   8.017  0.00  0.00     0.139 C 
ATOM     15  C21 ZIN A   1      18.742  -2.383   9.225  0.00  0.00     0.045 A 
ATOM     16  C22 ZIN A   1      17.793  -3.402   9.124  0.00  0.00     0.042 A 
ENDROOT
BRANCH  14  17
ATOM     17  N15 ZIN A   1      19.328  -2.394   6.863  0.00  0.00    -0.362 N 
ATOM     18  C20 ZIN A   1      20.010  -3.697   6.881  0.00  0.00     0.154 C 
ATOM     19  C19 ZIN A   1      19.103  -4.724   6.184  0.00  0.00     0.289 C 
ATOM     20  N18 ZIN A   1      18.747  -4.228   4.846  0.00  0.00     0.086 N 
ATOM     21  C17 ZIN A   1      17.966  -2.987   4.930  0.00  0.00     0.289 C 
ATOM     22  H33 ZIN A   1      18.254  -4.932   4.319  0.00  0.00     0.316 HD
ATOM     23  C16 ZIN A   1      18.820  -1.892   5.576  0.00  0.00     0.154 C 
ENDBRANCH  14  17
TORSDOF 1
ENDMDL
MODEL 4
REMARK VINA RESULT:      -7.8      3.251      5.613
REMARK  1 active torsions:
REMARK  status: ('A' for Active; 'I' for Inactive)
REMARK    1  A    between atoms: C14_14  and  N15_15 
ROOT
ATOM      1 Cl1  ZIN A   1      17.075  -1.612  16.862  0.00  0.00    -0.084 Cl
ATOM      2  C2  ZIN A   1      18.025  -0.843  15.630  0.00  0.00     0.035 A 
ATOM      3  C3  ZIN A   1      18.841   0.228  15.955  0.00  0.00     0.026 A 
ATOM      4  C4  ZIN A   1      19.593   0.853  14.977  0.00  0.00     0.040 A 
ATOM      5  C5  ZIN A   1      19.532   0.412  13.665  0.00  0.00     0.090 A 
ATOM      6  O6  ZIN A   1      20.223   1.068  12.701  0.00  0.00    -0.307 OA
ATOM      7  C7  ZIN A   1      19.516   1.658  11.703  0.00  0.00     0.104 A 
ATOM      8  C8  ZIN A   1      19.584   3.033  11.554  0.00  0.00     0.040 A 
ATOM      9  C9  ZIN A   1      18.849   3.666  10.567  0.00  0.00     0.003 A 
ATOM     10  C10 ZIN A   1      18.039   2.928   9.724  0.00  0.00     0.002 A 
ATOM     11  C11 ZIN A   1      17.972   1.556   9.852  0.00  0.00     0.034 A 
ATOM     12  C12 ZIN A   1      18.721   0.904  10.837  0.00  0.00     0.093 A 
ATOM     13  N13 ZIN A   1      18.691  -0.457  10.892  0.00  0.00    -0.228 NA
ATOM     14  C14 ZIN A   1      18.681  -1.188  11.953  0.00  0.00     0.139 C 
ATOM     15  C21 ZIN A   1      18.727  -0.682  13.336  0.00  0.00     0.045 A 
ATOM     16  C22 ZIN A   1      17.969  -1.305  14.329  0.00  0.00     0.042 A 
ENDROOT
BRANCH  14  17
ATOM     17  N15 ZIN A   1      18.625  -2.552  11.780  0.00  0.00    -0.362 N 
ATOM     18  C20 ZIN A   1      17.353  -3.221  11.466  0.00  0.00     0.154 C 
ATOM     19  C19 ZIN A   1      17.569  -4.114  10.235  0.00  0.00     0.289 C 
ATOM     20  N18 ZIN A   1      18.701  -5.018  10.484  0.00  0.00     0.086 N 
ATOM     21  C17 ZIN A   1      19.951  -4.268  10.666  0.00  0.00     0.289 C 
ATOM     22  H33 ZIN A   1      18.791  -5.697   9.744  0.00  0.00     0.316 HD
ATOM     23  C16 ZIN A   1      19.833  -3.381  11.910  0.00  0.00     0.154 C 
ENDBRANCH  14  17
TORSDOF 1
ENDMDL
MODEL 5
REMARK VINA RESULT:      -7.7      3.180      5.333
REMARK  1 active torsions:
REMARK  status: ('A' for Active; 'I' for Inactive)
REMARK    1  A    between atoms: C14_14  and  N15_15 
ROOT
ATOM      1 Cl1  ZIN A   1      16.720   4.743  10.746  0.00  0.00    -0.084 Cl
ATOM      2  C2  ZIN A   1      17.643   3.669  11.751  0.00  0.00     0.035 A 
ATOM      3  C3  ZIN A   1      18.311   2.597  11.185  0.00  0.00     0.026 A 
ATOM      4  C4  ZIN A   1      19.039   1.731  11.980  0.00  0.00     0.040 A 
ATOM      5  C5  ZIN A   1      19.102   1.931  13.349  0.00  0.00     0.090 A 
ATOM      6  O6  ZIN A   1      19.766   1.044  14.131  0.00  0.00    -0.307 OA
ATOM      7  C7  ZIN A   1      19.052   0.359  15.061  0.00  0.00     0.104 A 
ATOM      8  C8  ZIN A   1      18.971  -1.020  14.963  0.00  0.00     0.040 A 
ATOM      9  C9  ZIN A   1      18.223  -1.741  15.877  0.00  0.00     0.003 A 
ATOM     10  C10 ZIN A   1      17.551  -1.089  16.894  0.00  0.00     0.002 A 
ATOM     11  C11 ZIN A   1      17.634   0.283  17.011  0.00  0.00     0.034 A 
ATOM     12  C12 ZIN A   1      18.398   1.022  16.102  0.00  0.00     0.093 A 
ATOM     13  N13 ZIN A   1      18.521   2.366  16.286  0.00  0.00    -0.228 NA
ATOM     14  C14 ZIN A   1      18.537   3.274  15.372  0.00  0.00     0.139 C 
ATOM     15  C21 ZIN A   1      18.447   3.025  13.923  0.00  0.00     0.045 A 
ATOM     16  C22 ZIN A   1      17.712   3.892  13.113  0.00  0.00     0.042 A 
ENDROOT
BRANCH  14  17
ATOM     17  N15 ZIN A   1      18.646   4.583  15.784  0.00  0.00    -0.362 N 
ATOM     18  C20 ZIN A   1      19.865   5.360  15.513  0.00  0.00     0.154 C 
ATOM     19  C19 ZIN A   1      19.454   6.686  14.854  0.00  0.00     0.289 C 
ATOM     20  N18 ZIN A   1      18.463   7.363  15.702  0.00  0.00     0.086 N 
ATOM     21  C17 ZIN A   1      17.232   6.568  15.819  0.00  0.00     0.289 C 
ATOM     22  H33 ZIN A   1      18.264   8.289  15.357  0.00  0.00     0.316 HD
ATOM     23  C16 ZIN A   1      17.550   5.240  16.513  0.00  0.00     0.154 C 
ENDBRANCH  14  17
TORSDOF 1
ENDMDL
MODEL 6
REMARK VINA RESULT:      -7.7      3.826      6.653
REMARK  1 active torsions:
REMARK  status: ('A' for Active; 'I' for Inactive)
REMARK    1  A    between atoms: C14_14  and  N15_15 
ROOT
ATOM      1 Cl1  ZIN A   1      16.136  -5.446   8.903  0.00  0.00    -0.084 Cl
ATOM      2  C2  ZIN A   1      17.146  -4.567  10.008  0.00  0.00     0.035 A 
ATOM      3  C3  ZIN A   1      17.762  -5.230  11.056  0.00  0.00     0.026 A 
ATOM      4  C4  ZIN A   1      18.559  -4.535  11.947  0.00  0.00     0.040 A 
ATOM      5  C5  ZIN A   1      18.745  -3.171  11.796  0.00  0.00     0.090 A 
ATOM      6  O6  ZIN A   1      19.477  -2.485  12.708  0.00  0.00    -0.307 OA
ATOM      7  C7  ZIN A   1      18.850  -1.520  13.429  0.00  0.00     0.104 A 
ATOM      8  C8  ZIN A   1      18.762  -1.661  14.804  0.00  0.00     0.040 A 
ATOM      9  C9  ZIN A   1      18.101  -0.710  15.561  0.00  0.00     0.003 A 
ATOM     10  C10 ZIN A   1      17.522   0.387  14.949  0.00  0.00     0.002 A 
ATOM     11  C11 ZIN A   1      17.614   0.546  13.582  0.00  0.00     0.034 A 
ATOM     12  C12 ZIN A   1      18.292  -0.401  12.808  0.00  0.00     0.093 A 
ATOM     13  N13 ZIN A   1      18.430  -0.180  11.470  0.00  0.00    -0.228 NA
ATOM     14  C14 ZIN A   1      18.363  -1.058  10.530  0.00  0.00     0.139 C 
ATOM     15  C21 ZIN A   1      18.143  -2.501  10.727  0.00  0.00     0.045 A 
ATOM     16  C22 ZIN A   1      17.337  -3.210   9.834  0.00  0.00     0.042 A 
ENDROOT
BRANCH  14  17
ATOM     17  N15 ZIN A   1      18.508  -0.611   9.237  0.00  0.00    -0.362 N 
ATOM     18  C20 ZIN A   1      19.671  -1.005   8.427  0.00  0.00     0.154 C 
ATOM     19  C19 ZIN A   1      19.161  -1.550   7.084  0.00  0.00     0.289 C 
ATOM     20  N18 ZIN A   1      18.279  -0.554   6.459  0.00  0.00     0.086 N 
ATOM     21  C17 ZIN A   1      17.084  -0.312   7.280  0.00  0.00     0.289 C 
ATOM     22  H33 ZIN A   1      18.025  -0.831   5.524  0.00  0.00     0.316 HD
ATOM     23  C16 ZIN A   1      17.506   0.280   8.628  0.00  0.00     0.154 C 
ENDBRANCH  14  17
TORSDOF 1
ENDMDL
MODEL 7
REMARK VINA RESULT:      -7.7      4.466      7.510
REMARK  1 active torsions:
REMARK  status: ('A' for Active; 'I' for Inactive)
REMARK    1  A    between atoms: C14_14  and  N15_15 
ROOT
ATOM      1 Cl1  ZIN A   1      19.221  -2.725   4.546  0.00  0.00    -0.084 Cl
ATOM      2  C2  ZIN A   1      18.552  -1.878   5.905  0.00  0.00     0.035 A 
ATOM      3  C3  ZIN A   1      17.792  -0.739   5.702  0.00  0.00     0.026 A 
ATOM      4  C4  ZIN A   1      17.264  -0.052   6.781  0.00  0.00     0.040 A 
ATOM      5  C5  ZIN A   1      17.496  -0.500   8.071  0.00  0.00     0.090 A 
ATOM      6  O6  ZIN A   1      17.029   0.211   9.126  0.00  0.00    -0.307 OA
ATOM      7  C7  ZIN A   1      17.936   0.735   9.991  0.00  0.00     0.104 A 
ATOM      8  C8  ZIN A   1      18.012   2.110  10.132  0.00  0.00     0.040 A 
ATOM      9  C9  ZIN A   1      18.949   2.673  10.981  0.00  0.00     0.003 A 
ATOM     10  C10 ZIN A   1      19.816   1.865  11.693  0.00  0.00     0.002 A 
ATOM     11  C11 ZIN A   1      19.742   0.493  11.571  0.00  0.00     0.034 A 
ATOM     12  C12 ZIN A   1      18.790  -0.088  10.727  0.00  0.00     0.093 A 
ATOM     13  N13 ZIN A   1      18.692  -1.447  10.683  0.00  0.00    -0.228 NA
ATOM     14  C14 ZIN A   1      18.467  -2.173   9.644  0.00  0.00     0.139 C 
ATOM     15  C21 ZIN A   1      18.245  -1.662   8.280  0.00  0.00     0.045 A 
ATOM     16  C22 ZIN A   1      18.776  -2.346   7.185  0.00  0.00     0.042 A 
ENDROOT
BRANCH  14  17
ATOM     17  N15 ZIN A   1      18.432  -3.537   9.822  0.00  0.00    -0.362 N 
ATOM     18  C20 ZIN A   1      17.177  -4.287   9.661  0.00  0.00     0.154 C 
ATOM     19  C19 ZIN A   1      17.437  -5.459   8.701  0.00  0.00     0.289 C 
ATOM     20  N18 ZIN A   1      18.573  -6.250   9.197  0.00  0.00     0.086 N 
ATOM     21  C17 ZIN A   1      19.808  -5.454   9.210  0.00  0.00     0.289 C 
ATOM     22  H33 ZIN A   1      18.690  -7.092   8.656  0.00  0.00     0.316 HD
ATOM     23  C16 ZIN A   1      19.647  -4.284  10.185  0.00  0.00     0.154 C 
ENDBRANCH  14  17
TORSDOF 1
ENDMDL
MODEL 8
REMARK VINA RESULT:      -7.6      3.004      4.464
REMARK  1 active torsions:
REMARK  status: ('A' for Active; 'I' for Inactive)
REMARK    1  A    between atoms: C14_14  and  N15_15 
ROOT
ATOM      1 Cl1  ZIN A   1      16.865   4.410  11.376  0.00  0.00    -0.084 Cl
ATOM      2  C2  ZIN A   1      17.817   3.078  10.800  0.00  0.00     0.035 A 
ATOM      3  C3  ZIN A   1      18.473   3.173   9.584  0.00  0.00     0.026 A 
ATOM      4  C4  ZIN A   1      19.225   2.111   9.113  0.00  0.00     0.040 A 
ATOM      5  C5  ZIN A   1      19.323   0.946   9.855  0.00  0.00     0.090 A 
ATOM      6  O6  ZIN A   1      20.010  -0.113   9.360  0.00  0.00    -0.307 OA
ATOM      7  C7  ZIN A   1      19.324  -1.260   9.121  0.00  0.00     0.104 A 
ATOM      8  C8  ZIN A   1      19.244  -1.736   7.824  0.00  0.00     0.040 A 
ATOM      9  C9  ZIN A   1      18.523  -2.884   7.545  0.00  0.00     0.003 A 
ATOM     10  C10 ZIN A   1      17.877  -3.563   8.561  0.00  0.00     0.002 A 
ATOM     11  C11 ZIN A   1      17.959  -3.106   9.861  0.00  0.00     0.034 A 
ATOM     12  C12 ZIN A   1      18.696  -1.955  10.157  0.00  0.00     0.093 A 
ATOM     13  N13 ZIN A   1      18.820  -1.570  11.458  0.00  0.00    -0.228 NA
ATOM     14  C14 ZIN A   1      18.808  -0.365  11.913  0.00  0.00     0.139 C 
ATOM     15  C21 ZIN A   1      18.681   0.853  11.094  0.00  0.00     0.045 A 
ATOM     16  C22 ZIN A   1      17.922   1.928  11.559  0.00  0.00     0.042 A 
ENDROOT
BRANCH  14  17
ATOM     17  N15 ZIN A   1      18.925  -0.202  13.274  0.00  0.00    -0.362 N 
ATOM     18  C20 ZIN A   1      19.947   0.690  13.843  0.00  0.00     0.154 C 
ATOM     19  C19 ZIN A   1      19.256   1.644  14.830  0.00  0.00     0.289 C 
ATOM     20  N18 ZIN A   1      18.500   0.859  15.816  0.00  0.00     0.086 N 
ATOM     21  C17 ZIN A   1      17.424   0.092  15.173  0.00  0.00     0.289 C 
ATOM     22  H33 ZIN A   1      18.136   1.450  16.547  0.00  0.00     0.316 HD
ATOM     23  C16 ZIN A   1      18.036  -0.921  14.200  0.00  0.00     0.154 C 
ENDBRANCH  14  17
TORSDOF 1
ENDMDL
MODEL 9
REMARK VINA RESULT:      -7.6      2.429      5.246
REMARK  1 active torsions:
REMARK  status: ('A' for Active; 'I' for Inactive)
REMARK    1  A    between atoms: C14_14  and  N15_15 
ROOT
ATOM      1 Cl1  ZIN A   1      17.035  -1.593  16.739  0.00  0.00    -0.084 Cl
ATOM      2  C2  ZIN A   1      17.714  -0.144  16.067  0.00  0.00     0.035 A 
ATOM      3  C3  ZIN A   1      18.152   0.866  16.907  0.00  0.00     0.026 A 
ATOM      4  C4  ZIN A   1      18.684   2.029  16.379  0.00  0.00     0.040 A 
ATOM      5  C5  ZIN A   1      18.779   2.190  15.007  0.00  0.00     0.090 A 
ATOM      6  O6  ZIN A   1      19.244   3.356  14.495  0.00  0.00    -0.307 OA
ATOM      7  C7  ZIN A   1      18.401   4.093  13.727  0.00  0.00     0.104 A 
ATOM      8  C8  ZIN A   1      18.040   5.361  14.153  0.00  0.00     0.040 A 
ATOM      9  C9  ZIN A   1      17.157   6.122  13.409  0.00  0.00     0.003 A 
ATOM     10  C10 ZIN A   1      16.627   5.621  12.234  0.00  0.00     0.002 A 
ATOM     11  C11 ZIN A   1      16.988   4.365  11.791  0.00  0.00     0.034 A 
ATOM     12  C12 ZIN A   1      17.891   3.592  12.528  0.00  0.00     0.093 A 
ATOM     13  N13 ZIN A   1      18.285   2.387  12.029  0.00  0.00    -0.228 NA
ATOM     14  C14 ZIN A   1      18.490   1.303  12.695  0.00  0.00     0.139 C 
ATOM     15  C21 ZIN A   1      18.359   1.164  14.155  0.00  0.00     0.045 A 
ATOM     16  C22 ZIN A   1      17.820  -0.005  14.697  0.00  0.00     0.042 A 
ENDROOT
BRANCH  14  17
ATOM     17  N15 ZIN A   1      18.862   0.186  11.983  0.00  0.00    -0.362 N 
ATOM     18  C20 ZIN A   1      17.889  -0.538  11.150  0.00  0.00     0.154 C 
ATOM     19  C19 ZIN A   1      18.494  -0.714   9.748  0.00  0.00     0.289 C 
ATOM     20  N18 ZIN A   1      19.811  -1.357   9.865  0.00  0.00     0.086 N 
ATOM     21  C17 ZIN A   1      20.752  -0.510  10.610  0.00  0.00     0.289 C 
ATOM     22  H33 ZIN A   1      20.178  -1.595   8.957  0.00  0.00     0.316 HD
ATOM     23  C16 ZIN A   1      20.242  -0.322  12.042  0.00  0.00     0.154 C 
ENDBRANCH  14  17
TORSDOF 1
ENDMDL
