MODEL 1
REMARK VINA RESULT:      -9.7      0.000      0.000
REMARK  7 active torsions:
REMARK  status: ('A' for Active; 'I' for Inactive)
REMARK       I    between atoms: N1_1  and  C2_2 
REMARK    1  A    between atoms: C2_2  and  C4_4 
REMARK    2  A    between atoms: C4_4  and  C5_5 
REMARK    3  A    between atoms: C4_4  and  C11_11 
REMARK    4  A    between atoms: C4_4  and  C17_17 
REMARK    5  A    between atoms: N21_20  and  C23_22 
REMARK    6  A    between atoms: C23_22  and  C24_23 
REMARK    7  A    between atoms: C24_23  and  C25_24 
ROOT
ATOM      1  C4  ZIN A   1      18.764  -0.903  12.668  0.00  0.00     0.100 C 
ENDROOT
BRANCH   1   2
ATOM      2  C2  ZIN A   1      20.086  -0.256  12.342  0.00  0.00     0.233 C 
ATOM      3  N1  ZIN A   1      20.820   0.308  13.321  0.00  0.00    -0.369 N 
ATOM      4  H35 ZIN A   1      21.699   0.666  13.123  0.00  0.00     0.159 HD
ATOM      5  H36 ZIN A   1      20.467   0.359  14.224  0.00  0.00     0.159 HD
ATOM      6  O3  ZIN A   1      20.490  -0.244  11.199  0.00  0.00    -0.272 OA
ENDBRANCH   1   2
BRANCH   1   7
ATOM      7  C5  ZIN A   1      18.777  -2.336  12.200  0.00  0.00    -0.035 A 
ATOM      8  C10 ZIN A   1      19.963  -2.921  11.800  0.00  0.00     0.009 A 
ATOM      9  C9  ZIN A   1      19.975  -4.236  11.375  0.00  0.00     0.001 A 
ATOM     10  C8  ZIN A   1      18.800  -4.963  11.341  0.00  0.00     0.000 A 
ATOM     11  C7  ZIN A   1      17.613  -4.375  11.736  0.00  0.00     0.001 A 
ATOM     12  C6  ZIN A   1      17.601  -3.062  12.166  0.00  0.00     0.009 A 
ENDBRANCH   1   7
BRANCH   1  13
ATOM     13  C11 ZIN A   1      18.539  -0.863  14.157  0.00  0.00    -0.035 A 
ATOM     14  C16 ZIN A   1      17.553  -0.051  14.687  0.00  0.00     0.009 A 
ATOM     15  C15 ZIN A   1      17.344  -0.017  16.052  0.00  0.00     0.001 A 
ATOM     16  C14 ZIN A   1      18.128  -0.788  16.890  0.00  0.00     0.000 A 
ATOM     17  C13 ZIN A   1      19.117  -1.595  16.363  0.00  0.00     0.001 A 
ATOM     18  C12 ZIN A   1      19.324  -1.632  14.996  0.00  0.00     0.009 A 
ENDBRANCH   1  13
BRANCH   1  19
ATOM     19  C17 ZIN A   1      17.638  -0.146  11.962  0.00  0.00     0.040 C 
ATOM     20  C34 ZIN A   1      17.904   1.371  12.007  0.00  0.00     0.241 C 
ATOM     21  N21 ZIN A   1      18.048   1.825  10.604  0.00  0.00    -0.070 N 
ATOM     22  C20 ZIN A   1      17.290   0.848   9.782  0.00  0.00     0.235 C 
ATOM     23  H22 ZIN A   1      19.021   1.825  10.336  0.00  0.00     0.279 HD
ATOM     24  C19 ZIN A   1      17.608  -0.508  10.460  0.00  0.00     0.036 C 
BRANCH  21  25
ATOM     25  C23 ZIN A   1      17.479   3.171  10.446  0.00  0.00     0.239 C 
BRANCH  25  26
ATOM     26  C24 ZIN A   1      18.571   4.217  10.676  0.00  0.00     0.066 C 
BRANCH  26  27
ATOM     27  C25 ZIN A   1      18.388   4.843  12.036  0.00  0.00    -0.056 A 
ATOM     28  C33 ZIN A   1      19.465   4.961  12.896  0.00  0.00     0.017 A 
ATOM     29  C32 ZIN A   1      19.297   5.539  14.134  0.00  0.00    -0.022 A 
ATOM     30  C28 ZIN A   1      18.051   6.004  14.538  0.00  0.00     0.075 A 
ATOM     31  C31 ZIN A   1      20.261   5.802  15.276  0.00  0.00     0.068 C 
ATOM     32  C27 ZIN A   1      16.970   5.873  13.670  0.00  0.00     0.038 A 
ATOM     33  O29 ZIN A   1      18.110   6.551  15.784  0.00  0.00    -0.350 OA
ATOM     34  C26 ZIN A   1      17.142   5.296  12.428  0.00  0.00     0.010 A 
ATOM     35  C30 ZIN A   1      19.296   6.085  16.451  0.00  0.00     0.180 C 
ENDBRANCH  26  27
ENDBRANCH  25  26
ENDBRANCH  21  25
ENDBRANCH   1  19
TORSDOF 7
ENDMDL
MODEL 2
REMARK VINA RESULT:      -9.7      2.957      9.210
REMARK  7 active torsions:
REMARK  status: ('A' for Active; 'I' for Inactive)
REMARK       I    between atoms: N1_1  and  C2_2 
REMARK    1  A    between atoms: C2_2  and  C4_4 
REMARK    2  A    between atoms: C4_4  and  C5_5 
REMARK    3  A    between atoms: C4_4  and  C11_11 
REMARK    4  A    between atoms: C4_4  and  C17_17 
REMARK    5  A    between atoms: N21_20  and  C23_22 
REMARK    6  A    between atoms: C23_22  and  C24_23 
REMARK    7  A    between atoms: C24_23  and  C25_24 
ROOT
ATOM      1  C4  ZIN A   1      18.695   0.686  10.245  0.00  0.00     0.100 C 
ENDROOT
BRANCH   1   2
ATOM      2  C2  ZIN A   1      20.048   0.095  10.549  0.00  0.00     0.233 C 
ATOM      3  N1  ZIN A   1      20.824  -0.362   9.546  0.00  0.00    -0.369 N 
ATOM      4  H35 ZIN A   1      21.720  -0.682   9.734  0.00  0.00     0.159 HD
ATOM      5  H36 ZIN A   1      20.485  -0.373   8.637  0.00  0.00     0.159 HD
ATOM      6  O3  ZIN A   1      20.439   0.031  11.695  0.00  0.00    -0.272 OA
ENDBRANCH   1   2
BRANCH   1   7
ATOM      7  C5  ZIN A   1      18.633   2.096  10.774  0.00  0.00    -0.035 A 
ATOM      8  C10 ZIN A   1      19.729   2.643  11.413  0.00  0.00     0.009 A 
ATOM      9  C9  ZIN A   1      19.673   3.937  11.895  0.00  0.00     0.001 A 
ATOM     10  C8  ZIN A   1      18.518   4.681  11.747  0.00  0.00     0.000 A 
ATOM     11  C7  ZIN A   1      17.420   4.131  11.112  0.00  0.00     0.001 A 
ATOM     12  C6  ZIN A   1      17.477   2.839  10.626  0.00  0.00     0.009 A 
ENDBRANCH   1   7
BRANCH   1  13
ATOM     13  C11 ZIN A   1      18.476   0.699   8.754  0.00  0.00    -0.035 A 
ATOM     14  C16 ZIN A   1      19.280   1.479   7.944  0.00  0.00     0.009 A 
ATOM     15  C15 ZIN A   1      19.081   1.488   6.576  0.00  0.00     0.001 A 
ATOM     16  C14 ZIN A   1      18.074   0.724   6.019  0.00  0.00     0.000 A 
ATOM     17  C13 ZIN A   1      17.267  -0.052   6.829  0.00  0.00     0.001 A 
ATOM     18  C12 ZIN A   1      17.468  -0.065   8.197  0.00  0.00     0.009 A 
ENDBRANCH   1  13
BRANCH   1  19
ATOM     19  C17 ZIN A   1      17.608  -0.158  10.913  0.00  0.00     0.040 C 
ATOM     20  C34 ZIN A   1      17.805  -1.648  10.574  0.00  0.00     0.241 C 
ATOM     21  N21 ZIN A   1      18.059  -2.352  11.852  0.00  0.00    -0.070 N 
ATOM     22  C20 ZIN A   1      17.421  -1.521  12.906  0.00  0.00     0.235 C 
ATOM     23  H22 ZIN A   1      19.051  -2.424  12.020  0.00  0.00     0.279 HD
ATOM     24  C19 ZIN A   1      17.732  -0.073  12.451  0.00  0.00     0.036 C 
BRANCH  21  25
ATOM     25  C23 ZIN A   1      17.451  -3.689  11.824  0.00  0.00     0.239 C 
BRANCH  25  26
ATOM     26  C24 ZIN A   1      18.551  -4.748  11.744  0.00  0.00     0.066 C 
BRANCH  26  27
ATOM     27  C25 ZIN A   1      18.560  -5.359  10.365  0.00  0.00    -0.056 A 
ATOM     28  C33 ZIN A   1      17.498  -6.140   9.945  0.00  0.00     0.017 A 
ATOM     29  C32 ZIN A   1      17.507  -6.691   8.684  0.00  0.00    -0.022 A 
ATOM     30  C28 ZIN A   1      18.576  -6.479   7.822  0.00  0.00     0.075 A 
ATOM     31  C31 ZIN A   1      16.515  -7.575   7.952  0.00  0.00     0.068 C 
ATOM     32  C27 ZIN A   1      19.645  -5.700   8.256  0.00  0.00     0.038 A 
ATOM     33  O29 ZIN A   1      18.375  -7.098   6.626  0.00  0.00    -0.350 OA
ATOM     34  C26 ZIN A   1      19.633  -5.145   9.520  0.00  0.00     0.010 A 
ATOM     35  C30 ZIN A   1      17.370  -8.115   6.781  0.00  0.00     0.180 C 
ENDBRANCH  26  27
ENDBRANCH  25  26
ENDBRANCH  21  25
ENDBRANCH   1  19
TORSDOF 7
ENDMDL
MODEL 3
REMARK VINA RESULT:      -9.4      2.764      8.618
REMARK  7 active torsions:
REMARK  status: ('A' for Active; 'I' for Inactive)
REMARK       I    between atoms: N1_1  and  C2_2 
REMARK    1  A    between atoms: C2_2  and  C4_4 
REMARK    2  A    between atoms: C4_4  and  C5_5 
REMARK    3  A    between atoms: C4_4  and  C11_11 
REMARK    4  A    between atoms: C4_4  and  C17_17 
REMARK    5  A    between atoms: N21_20  and  C23_22 
REMARK    6  A    between atoms: C23_22  and  C24_23 
REMARK    7  A    between atoms: C24_23  and  C25_24 
ROOT
ATOM      1  C4  ZIN A   1      18.540   1.222  10.788  0.00  0.00     0.100 C 
ENDROOT
BRANCH   1   2
ATOM      2  C2  ZIN A   1      19.984   1.131  11.208  0.00  0.00     0.233 C 
ATOM      3  N1  ZIN A   1      20.623   2.225  11.667  0.00  0.00    -0.369 N 
ATOM      4  H35 ZIN A   1      21.531   2.153  11.998  0.00  0.00     0.159 HD
ATOM      5  H36 ZIN A   1      20.174   3.086  11.663  0.00  0.00     0.159 HD
ATOM      6  O3  ZIN A   1      20.571   0.073  11.134  0.00  0.00    -0.272 OA
ENDBRANCH   1   2
BRANCH   1   7
ATOM      7  C5  ZIN A   1      18.032   2.620  11.036  0.00  0.00    -0.035 A 
ATOM      8  C10 ZIN A   1      18.005   3.539  10.003  0.00  0.00     0.009 A 
ATOM      9  C9  ZIN A   1      17.536   4.819  10.229  0.00  0.00     0.001 A 
ATOM     10  C8  ZIN A   1      17.103   5.184  11.490  0.00  0.00     0.000 A 
ATOM     11  C7  ZIN A   1      17.135   4.266  12.524  0.00  0.00     0.001 A 
ATOM     12  C6  ZIN A   1      17.600   2.985  12.297  0.00  0.00     0.009 A 
ENDBRANCH   1   7
BRANCH   1  13
ATOM     13  C11 ZIN A   1      18.422   0.899   9.321  0.00  0.00    -0.035 A 
ATOM     14  C16 ZIN A   1      17.332   0.186   8.855  0.00  0.00     0.009 A 
ATOM     15  C15 ZIN A   1      17.222  -0.108   7.509  0.00  0.00     0.001 A 
ATOM     16  C14 ZIN A   1      18.206   0.303   6.630  0.00  0.00     0.000 A 
ATOM     17  C13 ZIN A   1      19.298   1.010   7.096  0.00  0.00     0.001 A 
ATOM     18  C12 ZIN A   1      19.407   1.308   8.441  0.00  0.00     0.009 A 
ENDBRANCH   1  13
BRANCH   1  19
ATOM     19  C17 ZIN A   1      17.708   0.227  11.598  0.00  0.00     0.040 C 
ATOM     20  C34 ZIN A   1      17.823  -1.184  10.991  0.00  0.00     0.241 C 
ATOM     21  N21 ZIN A   1      18.449  -2.047  12.020  0.00  0.00    -0.070 N 
ATOM     22  C20 ZIN A   1      18.131  -1.416  13.327  0.00  0.00     0.235 C 
ATOM     23  H22 ZIN A   1      19.449  -2.082  11.885  0.00  0.00     0.279 HD
ATOM     24  C19 ZIN A   1      18.271   0.099  13.032  0.00  0.00     0.036 C 
BRANCH  21  25
ATOM     25  C23 ZIN A   1      17.882  -3.401  11.960  0.00  0.00     0.239 C 
BRANCH  25  26
ATOM     26  C24 ZIN A   1      18.964  -4.387  11.518  0.00  0.00     0.066 C 
BRANCH  26  27
ATOM     27  C25 ZIN A   1      18.811  -4.675  10.046  0.00  0.00    -0.056 A 
ATOM     28  C33 ZIN A   1      19.253  -3.756   9.110  0.00  0.00     0.017 A 
ATOM     29  C32 ZIN A   1      19.118  -4.025   7.767  0.00  0.00    -0.022 A 
ATOM     30  C28 ZIN A   1      18.535  -5.209   7.333  0.00  0.00     0.075 A 
ATOM     31  C31 ZIN A   1      19.493  -3.234   6.527  0.00  0.00     0.068 C 
ATOM     32  C27 ZIN A   1      18.085  -6.124   8.281  0.00  0.00     0.038 A 
ATOM     33  O29 ZIN A   1      18.515  -5.279   5.973  0.00  0.00    -0.350 OA
ATOM     34  C26 ZIN A   1      18.224  -5.854   9.627  0.00  0.00     0.010 A 
ATOM     35  C30 ZIN A   1      18.682  -3.959   5.428  0.00  0.00     0.180 C 
ENDBRANCH  26  27
ENDBRANCH  25  26
ENDBRANCH  21  25
ENDBRANCH   1  19
TORSDOF 7
ENDMDL
MODEL 4
REMARK VINA RESULT:      -9.3      3.006      7.369
REMARK  7 active torsions:
REMARK  status: ('A' for Active; 'I' for Inactive)
REMARK       I    between atoms: N1_1  and  C2_2 
REMARK    1  A    between atoms: C2_2  and  C4_4 
REMARK    2  A    between atoms: C4_4  and  C5_5 
REMARK    3  A    between atoms: C4_4  and  C11_11 
REMARK    4  A    between atoms: C4_4  and  C17_17 
REMARK    5  A    between atoms: N21_20  and  C23_22 
REMARK    6  A    between atoms: C23_22  and  C24_23 
REMARK    7  A    between atoms: C24_23  and  C25_24 
ROOT
ATOM      1  C4  ZIN A   1      19.208   0.278  11.968  0.00  0.00     0.100 C 
ENDROOT
BRANCH   1   2
ATOM      2  C2  ZIN A   1      20.684   0.092  11.727  0.00  0.00     0.233 C 
ATOM      3  N1  ZIN A   1      21.579   0.759  12.482  0.00  0.00    -0.369 N 
ATOM      4  H35 ZIN A   1      22.528   0.591  12.371  0.00  0.00     0.159 HD
ATOM      5  H36 ZIN A   1      21.274   1.409  13.135  0.00  0.00     0.159 HD
ATOM      6  O3  ZIN A   1      21.067  -0.658  10.854  0.00  0.00    -0.272 OA
ENDBRANCH   1   2
BRANCH   1   7
ATOM      7  C5  ZIN A   1      18.890  -0.047  13.406  0.00  0.00    -0.035 A 
ATOM      8  C10 ZIN A   1      19.581  -1.052  14.057  0.00  0.00     0.009 A 
ATOM      9  C9  ZIN A   1      19.291  -1.346  15.376  0.00  0.00     0.001 A 
ATOM     10  C8  ZIN A   1      18.306  -0.643  16.041  0.00  0.00     0.000 A 
ATOM     11  C7  ZIN A   1      17.612   0.359  15.388  0.00  0.00     0.001 A 
ATOM     12  C6  ZIN A   1      17.903   0.657  14.071  0.00  0.00     0.009 A 
ENDBRANCH   1   7
BRANCH   1  13
ATOM     13  C11 ZIN A   1      18.828   1.706  11.680  0.00  0.00    -0.035 A 
ATOM     14  C16 ZIN A   1      18.018   2.001  10.598  0.00  0.00     0.009 A 
ATOM     15  C15 ZIN A   1      17.666   3.312  10.335  0.00  0.00     0.001 A 
ATOM     16  C14 ZIN A   1      18.130   4.328  11.149  0.00  0.00     0.000 A 
ATOM     17  C13 ZIN A   1      18.944   4.034  12.226  0.00  0.00     0.001 A 
ATOM     18  C12 ZIN A   1      19.293   2.723  12.492  0.00  0.00     0.009 A 
ENDBRANCH   1  13
BRANCH   1  19
ATOM     19  C17 ZIN A   1      18.419  -0.657  11.049  0.00  0.00     0.040 C 
ATOM     20  C34 ZIN A   1      19.341  -1.755  10.486  0.00  0.00     0.241 C 
ATOM     21  N21 ZIN A   1      18.817  -3.051  10.977  0.00  0.00    -0.070 N 
ATOM     22  C20 ZIN A   1      17.371  -2.831  11.238  0.00  0.00     0.235 C 
ATOM     23  H22 ZIN A   1      19.287  -3.317  11.829  0.00  0.00     0.279 HD
ATOM     24  C19 ZIN A   1      17.334  -1.409  11.852  0.00  0.00     0.036 C 
BRANCH  21  25
ATOM     25  C23 ZIN A   1      18.995  -4.090   9.954  0.00  0.00     0.239 C 
BRANCH  25  26
ATOM     26  C24 ZIN A   1      17.852  -4.010   8.941  0.00  0.00     0.066 C 
BRANCH  26  27
ATOM     27  C25 ZIN A   1      18.341  -3.339   7.683  0.00  0.00    -0.056 A 
ATOM     28  C33 ZIN A   1      18.323  -1.960   7.580  0.00  0.00     0.017 A 
ATOM     29  C32 ZIN A   1      18.777  -1.350   6.432  0.00  0.00    -0.022 A 
ATOM     30  C28 ZIN A   1      19.250  -2.104   5.365  0.00  0.00     0.075 A 
ATOM     31  C31 ZIN A   1      18.879   0.108   6.025  0.00  0.00     0.068 C 
ATOM     32  C27 ZIN A   1      19.256  -3.492   5.473  0.00  0.00     0.038 A 
ATOM     33  O29 ZIN A   1      19.662  -1.306   4.341  0.00  0.00    -0.350 OA
ATOM     34  C26 ZIN A   1      18.804  -4.102   6.626  0.00  0.00     0.010 A 
ATOM     35  C30 ZIN A   1      19.080  -0.000   4.495  0.00  0.00     0.180 C 
ENDBRANCH  26  27
ENDBRANCH  25  26
ENDBRANCH  21  25
ENDBRANCH   1  19
TORSDOF 7
ENDMDL
MODEL 5
REMARK VINA RESULT:      -8.9      2.408      4.829
REMARK  7 active torsions:
REMARK  status: ('A' for Active; 'I' for Inactive)
REMARK       I    between atoms: N1_1  and  C2_2 
REMARK    1  A    between atoms: C2_2  and  C4_4 
REMARK    2  A    between atoms: C4_4  and  C5_5 
REMARK    3  A    between atoms: C4_4  and  C11_11 
REMARK    4  A    between atoms: C4_4  and  C17_17 
REMARK    5  A    between atoms: N21_20  and  C23_22 
REMARK    6  A    between atoms: C23_22  and  C24_23 
REMARK    7  A    between atoms: C24_23  and  C25_24 
ROOT
ATOM      1  C4  ZIN A   1      18.831  -0.872  10.112  0.00  0.00     0.100 C 
ENDROOT
BRANCH   1   2
ATOM      2  C2  ZIN A   1      20.325  -0.924  10.301  0.00  0.00     0.233 C 
ATOM      3  N1  ZIN A   1      20.863  -1.792  11.182  0.00  0.00    -0.369 N 
ATOM      4  H35 ZIN A   1      21.826  -1.871  11.257  0.00  0.00     0.159 HD
ATOM      5  H36 ZIN A   1      20.285  -2.334  11.742  0.00  0.00     0.159 HD
ATOM      6  O3  ZIN A   1      21.043  -0.186   9.662  0.00  0.00    -0.272 OA
ENDBRANCH   1   2
BRANCH   1   7
ATOM      7  C5  ZIN A   1      18.516  -0.298   8.754  0.00  0.00    -0.035 A 
ATOM      8  C10 ZIN A   1      19.312   0.702   8.226  0.00  0.00     0.009 A 
ATOM      9  C9  ZIN A   1      19.026   1.226   6.979  0.00  0.00     0.001 A 
ATOM     10  C8  ZIN A   1      17.940   0.757   6.265  0.00  0.00     0.000 A 
ATOM     11  C7  ZIN A   1      17.142  -0.239   6.796  0.00  0.00     0.001 A 
ATOM     12  C6  ZIN A   1      17.429  -0.767   8.040  0.00  0.00     0.009 A 
ENDBRANCH   1   7
BRANCH   1  13
ATOM     13  C11 ZIN A   1      18.263  -2.264  10.212  0.00  0.00    -0.035 A 
ATOM     14  C16 ZIN A   1      17.560  -2.645  11.341  0.00  0.00     0.009 A 
ATOM     15  C15 ZIN A   1      17.035  -3.920  11.431  0.00  0.00     0.001 A 
ATOM     16  C14 ZIN A   1      17.222  -4.818  10.397  0.00  0.00     0.000 A 
ATOM     17  C13 ZIN A   1      17.929  -4.441   9.273  0.00  0.00     0.001 A 
ATOM     18  C12 ZIN A   1      18.450  -3.163   9.180  0.00  0.00     0.009 A 
ENDBRANCH   1  13
BRANCH   1  19
ATOM     19  C17 ZIN A   1      18.209   0.011  11.195  0.00  0.00     0.040 C 
ATOM     20  C34 ZIN A   1      19.270   0.962  11.782  0.00  0.00     0.241 C 
ATOM     21  N21 ZIN A   1      18.825   2.343  11.482  0.00  0.00    -0.070 N 
ATOM     22  C20 ZIN A   1      17.348   2.270  11.337  0.00  0.00     0.235 C 
ATOM     23  H22 ZIN A   1      19.243   2.666  10.622  0.00  0.00     0.279 HD
ATOM     24  C19 ZIN A   1      17.132   0.935  10.582  0.00  0.00     0.036 C 
BRANCH  21  25
ATOM     25  C23 ZIN A   1      19.181   3.242  12.588  0.00  0.00     0.239 C 
BRANCH  25  26
ATOM     26  C24 ZIN A   1      18.018   3.319  13.578  0.00  0.00     0.066 C 
BRANCH  26  27
ATOM     27  C25 ZIN A   1      18.470   2.811  14.924  0.00  0.00    -0.056 A 
ATOM     28  C33 ZIN A   1      18.389   1.461  15.219  0.00  0.00     0.017 A 
ATOM     29  C32 ZIN A   1      18.809   0.999  16.446  0.00  0.00    -0.022 A 
ATOM     30  C28 ZIN A   1      19.308   1.874  17.402  0.00  0.00     0.075 A 
ATOM     31  C31 ZIN A   1      18.843  -0.390  17.054  0.00  0.00     0.068 C 
ATOM     32  C27 ZIN A   1      19.377   3.232  17.101  0.00  0.00     0.038 A 
ATOM     33  O29 ZIN A   1      19.678   1.210  18.533  0.00  0.00    -0.350 OA
ATOM     34  C26 ZIN A   1      18.960   3.693  15.869  0.00  0.00     0.010 A 
ATOM     35  C30 ZIN A   1      19.039  -0.077  18.556  0.00  0.00     0.180 C 
ENDBRANCH  26  27
ENDBRANCH  25  26
ENDBRANCH  21  25
ENDBRANCH   1  19
TORSDOF 7
ENDMDL
MODEL 6
REMARK VINA RESULT:      -8.7      2.352      4.582
REMARK  7 active torsions:
REMARK  status: ('A' for Active; 'I' for Inactive)
REMARK       I    between atoms: N1_1  and  C2_2 
REMARK    1  A    between atoms: C2_2  and  C4_4 
REMARK    2  A    between atoms: C4_4  and  C5_5 
REMARK    3  A    between atoms: C4_4  and  C11_11 
REMARK    4  A    between atoms: C4_4  and  C17_17 
REMARK    5  A    between atoms: N21_20  and  C23_22 
REMARK    6  A    between atoms: C23_22  and  C24_23 
REMARK    7  A    between atoms: C24_23  and  C25_24 
ROOT
ATOM      1  C4  ZIN A   1      18.704   1.278  11.019  0.00  0.00     0.100 C 
ENDROOT
BRANCH   1   2
ATOM      2  C2  ZIN A   1      19.994   2.011  11.283  0.00  0.00     0.233 C 
ATOM      3  N1  ZIN A   1      21.022   1.372  11.875  0.00  0.00    -0.369 N 
ATOM      4  H35 ZIN A   1      21.873   1.823  11.988  0.00  0.00     0.159 HD
ATOM      5  H36 ZIN A   1      20.910   0.462  12.192  0.00  0.00     0.159 HD
ATOM      6  O3  ZIN A   1      20.107   3.175  10.964  0.00  0.00    -0.272 OA
ENDBRANCH   1   2
BRANCH   1   7
ATOM      7  C5  ZIN A   1      18.540   1.070   9.534  0.00  0.00    -0.035 A 
ATOM      8  C10 ZIN A   1      19.397   1.699   8.650  0.00  0.00     0.009 A 
ATOM      9  C9  ZIN A   1      19.250   1.505   7.290  0.00  0.00     0.001 A 
ATOM     10  C8  ZIN A   1      18.241   0.690   6.813  0.00  0.00     0.000 A 
ATOM     11  C7  ZIN A   1      17.381   0.065   7.697  0.00  0.00     0.001 A 
ATOM     12  C6  ZIN A   1      17.530   0.255   9.057  0.00  0.00     0.009 A 
ENDBRANCH   1   7
BRANCH   1  13
ATOM     13  C11 ZIN A   1      18.733  -0.058  11.713  0.00  0.00    -0.035 A 
ATOM     14  C16 ZIN A   1      18.010  -0.250  12.876  0.00  0.00     0.009 A 
ATOM     15  C15 ZIN A   1      18.034  -1.477  13.511  0.00  0.00     0.001 A 
ATOM     16  C14 ZIN A   1      18.789  -2.510  12.988  0.00  0.00     0.000 A 
ATOM     17  C13 ZIN A   1      19.516  -2.318  11.830  0.00  0.00     0.001 A 
ATOM     18  C12 ZIN A   1      19.489  -1.092  11.192  0.00  0.00     0.009 A 
ENDBRANCH   1  13
BRANCH   1  19
ATOM     19  C17 ZIN A   1      17.530   2.103  11.550  0.00  0.00     0.040 C 
ATOM     20  C34 ZIN A   1      17.811   2.563  12.993  0.00  0.00     0.241 C 
ATOM     21  N21 ZIN A   1      17.844   4.044  12.974  0.00  0.00    -0.070 N 
ATOM     22  C20 ZIN A   1      17.014   4.454  11.813  0.00  0.00     0.235 C 
ATOM     23  H22 ZIN A   1      18.792   4.370  12.857  0.00  0.00     0.279 HD
ATOM     24  C19 ZIN A   1      17.376   3.406  10.731  0.00  0.00     0.036 C 
BRANCH  21  25
ATOM     25  C23 ZIN A   1      17.274   4.579  14.219  0.00  0.00     0.239 C 
BRANCH  25  26
ATOM     26  C24 ZIN A   1      18.406   4.992  15.161  0.00  0.00     0.066 C 
BRANCH  26  27
ATOM     27  C25 ZIN A   1      18.611   3.919  16.201  0.00  0.00    -0.056 A 
ATOM     28  C33 ZIN A   1      18.786   2.602  15.813  0.00  0.00     0.017 A 
ATOM     29  C32 ZIN A   1      18.979   1.626  16.764  0.00  0.00    -0.022 A 
ATOM     30  C28 ZIN A   1      18.995   1.944  18.117  0.00  0.00     0.075 A 
ATOM     31  C31 ZIN A   1      19.192   0.128  16.657  0.00  0.00     0.068 C 
ATOM     32  C27 ZIN A   1      18.808   3.269  18.498  0.00  0.00     0.038 A 
ATOM     33  O29 ZIN A   1      19.215   0.837  18.880  0.00  0.00    -0.350 OA
ATOM     34  C26 ZIN A   1      18.618   4.247  17.543  0.00  0.00     0.010 A 
ATOM     35  C30 ZIN A   1      18.920  -0.338  18.107  0.00  0.00     0.180 C 
ENDBRANCH  26  27
ENDBRANCH  25  26
ENDBRANCH  21  25
ENDBRANCH   1  19
TORSDOF 7
ENDMDL
MODEL 7
REMARK VINA RESULT:      -8.5      4.018      8.296
REMARK  7 active torsions:
REMARK  status: ('A' for Active; 'I' for Inactive)
REMARK       I    between atoms: N1_1  and  C2_2 
REMARK    1  A    between atoms: C2_2  and  C4_4 
REMARK    2  A    between atoms: C4_4  and  C5_5 
REMARK    3  A    between atoms: C4_4  and  C11_11 
REMARK    4  A    between atoms: C4_4  and  C17_17 
REMARK    5  A    between atoms: N21_20  and  C23_22 
REMARK    6  A    between atoms: C23_22  and  C24_23 
REMARK    7  A    between atoms: C24_23  and  C25_24 
ROOT
ATOM      1  C4  ZIN A   1      19.060   0.166  11.962  0.00  0.00     0.100 C 
ENDROOT
BRANCH   1   2
ATOM      2  C2  ZIN A   1      20.492  -0.206  11.676  0.00  0.00     0.233 C 
ATOM      3  N1  ZIN A   1      21.490   0.615  12.055  0.00  0.00    -0.369 N 
ATOM      4  H35 ZIN A   1      22.413   0.347  11.929  0.00  0.00     0.159 HD
ATOM      5  H36 ZIN A   1      21.285   1.477  12.451  0.00  0.00     0.159 HD
ATOM      6  O3  ZIN A   1      20.746  -1.245  11.105  0.00  0.00    -0.272 OA
ENDBRANCH   1   2
BRANCH   1   7
ATOM      7  C5  ZIN A   1      18.745  -0.121  13.408  0.00  0.00    -0.035 A 
ATOM      8  C10 ZIN A   1      19.532  -1.004  14.123  0.00  0.00     0.009 A 
ATOM      9  C9  ZIN A   1      19.246  -1.264  15.451  0.00  0.00     0.001 A 
ATOM     10  C8  ZIN A   1      18.169  -0.649  16.059  0.00  0.00     0.000 A 
ATOM     11  C7  ZIN A   1      17.380   0.231  15.342  0.00  0.00     0.001 A 
ATOM     12  C6  ZIN A   1      17.667   0.495  14.017  0.00  0.00     0.009 A 
ENDBRANCH   1   7
BRANCH   1  13
ATOM     13  C11 ZIN A   1      18.858   1.633  11.685  0.00  0.00    -0.035 A 
ATOM     14  C16 ZIN A   1      19.251   2.574  12.620  0.00  0.00     0.009 A 
ATOM     15  C15 ZIN A   1      19.070   3.920  12.365  0.00  0.00     0.001 A 
ATOM     16  C14 ZIN A   1      18.486   4.326  11.180  0.00  0.00     0.000 A 
ATOM     17  C13 ZIN A   1      18.087   3.386  10.248  0.00  0.00     0.001 A 
ATOM     18  C12 ZIN A   1      18.273   2.040  10.501  0.00  0.00     0.009 A 
ENDBRANCH   1  13
BRANCH   1  19
ATOM     19  C17 ZIN A   1      18.130  -0.654  11.066  0.00  0.00     0.040 C 
ATOM     20  C34 ZIN A   1      18.915  -1.239   9.876  0.00  0.00     0.241 C 
ATOM     21  N21 ZIN A   1      18.841  -2.714   9.994  0.00  0.00    -0.070 N 
ATOM     22  C20 ZIN A   1      17.603  -2.998  10.763  0.00  0.00     0.235 C 
ATOM     23  H22 ZIN A   1      19.647  -3.065  10.491  0.00  0.00     0.279 HD
ATOM     24  C19 ZIN A   1      17.587  -1.880  11.835  0.00  0.00     0.036 C 
BRANCH  21  25
ATOM     25  C23 ZIN A   1      18.762  -3.326   8.661  0.00  0.00     0.239 C 
BRANCH  25  26
ATOM     26  C24 ZIN A   1      19.253  -2.328   7.611  0.00  0.00     0.066 C 
BRANCH  26  27
ATOM     27  C25 ZIN A   1      18.546  -2.586   6.304  0.00  0.00    -0.056 A 
ATOM     28  C33 ZIN A   1      18.396  -3.880   5.840  0.00  0.00     0.017 A 
ATOM     29  C32 ZIN A   1      17.745  -4.113   4.650  0.00  0.00    -0.022 A 
ATOM     30  C28 ZIN A   1      17.239  -3.059   3.898  0.00  0.00     0.075 A 
ATOM     31  C31 ZIN A   1      17.432  -5.389   3.892  0.00  0.00     0.068 C 
ATOM     32  C27 ZIN A   1      17.402  -1.759   4.368  0.00  0.00     0.038 A 
ATOM     33  O29 ZIN A   1      16.622  -3.510   2.771  0.00  0.00    -0.350 OA
ATOM     34  C26 ZIN A   1      18.052  -1.528   5.563  0.00  0.00     0.010 A 
ATOM     35  C30 ZIN A   1      17.067  -4.848   2.490  0.00  0.00     0.180 C 
ENDBRANCH  26  27
ENDBRANCH  25  26
ENDBRANCH  21  25
ENDBRANCH   1  19
TORSDOF 7
ENDMDL
MODEL 8
REMARK VINA RESULT:      -8.5      3.011      8.721
REMARK  7 active torsions:
REMARK  status: ('A' for Active; 'I' for Inactive)
REMARK       I    between atoms: N1_1  and  C2_2 
REMARK    1  A    between atoms: C2_2  and  C4_4 
REMARK    2  A    between atoms: C4_4  and  C5_5 
REMARK    3  A    between atoms: C4_4  and  C11_11 
REMARK    4  A    between atoms: C4_4  and  C17_17 
REMARK    5  A    between atoms: N21_20  and  C23_22 
REMARK    6  A    between atoms: C23_22  and  C24_23 
REMARK    7  A    between atoms: C24_23  and  C25_24 
ROOT
ATOM      1  C4  ZIN A   1      19.346   0.038  11.917  0.00  0.00     0.100 C 
ENDROOT
BRANCH   1   2
ATOM      2  C2  ZIN A   1      20.851   0.083  11.859  0.00  0.00     0.233 C 
ATOM      3  N1  ZIN A   1      21.504  -0.510  10.840  0.00  0.00    -0.369 N 
ATOM      4  H35 ZIN A   1      22.467  -0.427  10.767  0.00  0.00     0.159 HD
ATOM      5  H36 ZIN A   1      21.010  -1.025  10.182  0.00  0.00     0.159 HD
ATOM      6  O3  ZIN A   1      21.475   0.654  12.727  0.00  0.00    -0.272 OA
ENDBRANCH   1   2
BRANCH   1   7
ATOM      7  C5  ZIN A   1      18.905  -0.189  13.341  0.00  0.00    -0.035 A 
ATOM      8  C10 ZIN A   1      17.781   0.453  13.827  0.00  0.00     0.009 A 
ATOM      9  C9  ZIN A   1      17.375   0.242  15.131  0.00  0.00     0.001 A 
ATOM     10  C8  ZIN A   1      18.097  -0.604  15.952  0.00  0.00     0.000 A 
ATOM     11  C7  ZIN A   1      19.224  -1.242  15.467  0.00  0.00     0.001 A 
ATOM     12  C6  ZIN A   1      19.628  -1.035  14.162  0.00  0.00     0.009 A 
ENDBRANCH   1   7
BRANCH   1  13
ATOM     13  C11 ZIN A   1      18.784   1.344  11.420  0.00  0.00    -0.035 A 
ATOM     14  C16 ZIN A   1      18.402   2.320  12.321  0.00  0.00     0.009 A 
ATOM     15  C15 ZIN A   1      17.890   3.520  11.865  0.00  0.00     0.001 A 
ATOM     16  C14 ZIN A   1      17.751   3.741  10.508  0.00  0.00     0.000 A 
ATOM     17  C13 ZIN A   1      18.127   2.763   9.607  0.00  0.00     0.001 A 
ATOM     18  C12 ZIN A   1      18.643   1.564  10.063  0.00  0.00     0.009 A 
ENDBRANCH   1  13
BRANCH   1  19
ATOM     19  C17 ZIN A   1      18.835  -1.105  11.038  0.00  0.00     0.040 C 
ATOM     20  C34 ZIN A   1      19.607  -2.402  11.347  0.00  0.00     0.241 C 
ATOM     21  N21 ZIN A   1      18.619  -3.380  11.858  0.00  0.00    -0.070 N 
ATOM     22  C20 ZIN A   1      17.309  -2.968  11.292  0.00  0.00     0.235 C 
ATOM     23  H22 ZIN A   1      18.587  -3.350  12.867  0.00  0.00     0.279 HD
ATOM     24  C19 ZIN A   1      17.360  -1.422  11.372  0.00  0.00     0.036 C 
BRANCH  21  25
ATOM     25  C23 ZIN A   1      18.964  -4.735  11.404  0.00  0.00     0.239 C 
BRANCH  25  26
ATOM     26  C24 ZIN A   1      20.002  -4.647  10.284  0.00  0.00     0.066 C 
BRANCH  26  27
ATOM     27  C25 ZIN A   1      19.455  -5.304   9.041  0.00  0.00    -0.056 A 
ATOM     28  C33 ZIN A   1      18.410  -6.206   9.135  0.00  0.00     0.017 A 
ATOM     29  C32 ZIN A   1      17.910  -6.799   7.998  0.00  0.00    -0.022 A 
ATOM     30  C28 ZIN A   1      18.445  -6.509   6.750  0.00  0.00     0.075 A 
ATOM     31  C31 ZIN A   1      16.797  -7.807   7.781  0.00  0.00     0.068 C 
ATOM     32  C27 ZIN A   1      19.503  -5.608   6.665  0.00  0.00     0.038 A 
ATOM     33  O29 ZIN A   1      17.796  -7.189   5.764  0.00  0.00    -0.350 OA
ATOM     34  C26 ZIN A   1      20.002  -5.011   7.805  0.00  0.00     0.010 A 
ATOM     35  C30 ZIN A   1      17.086  -8.298   6.343  0.00  0.00     0.180 C 
ENDBRANCH  26  27
ENDBRANCH  25  26
ENDBRANCH  21  25
ENDBRANCH   1  19
TORSDOF 7
ENDMDL
MODEL 9
REMARK VINA RESULT:      -8.5      3.568      7.816
REMARK  7 active torsions:
REMARK  status: ('A' for Active; 'I' for Inactive)
REMARK       I    between atoms: N1_1  and  C2_2 
REMARK    1  A    between atoms: C2_2  and  C4_4 
REMARK    2  A    between atoms: C4_4  and  C5_5 
REMARK    3  A    between atoms: C4_4  and  C11_11 
REMARK    4  A    between atoms: C4_4  and  C17_17 
REMARK    5  A    between atoms: N21_20  and  C23_22 
REMARK    6  A    between atoms: C23_22  and  C24_23 
REMARK    7  A    between atoms: C24_23  and  C25_24 
ROOT
ATOM      1  C4  ZIN A   1      18.592   1.621  12.507  0.00  0.00     0.100 C 
ENDROOT
BRANCH   1   2
ATOM      2  C2  ZIN A   1      19.960   1.565  11.877  0.00  0.00     0.233 C 
ATOM      3  N1  ZIN A   1      20.690   2.691  11.751  0.00  0.00    -0.369 N 
ATOM      4  H35 ZIN A   1      21.594   2.646  11.404  0.00  0.00     0.159 HD
ATOM      5  H36 ZIN A   1      20.308   3.547  12.003  0.00  0.00     0.159 HD
ATOM      6  O3  ZIN A   1      20.404   0.508  11.484  0.00  0.00    -0.272 OA
ENDBRANCH   1   2
BRANCH   1   7
ATOM      7  C5  ZIN A   1      18.544   0.681  13.685  0.00  0.00    -0.035 A 
ATOM      8  C10 ZIN A   1      17.479   0.732  14.566  0.00  0.00     0.009 A 
ATOM      9  C9  ZIN A   1      17.432  -0.132  15.644  0.00  0.00     0.001 A 
ATOM     10  C8  ZIN A   1      18.454  -1.040  15.846  0.00  0.00     0.000 A 
ATOM     11  C7  ZIN A   1      19.521  -1.086  14.969  0.00  0.00     0.001 A 
ATOM     12  C6  ZIN A   1      19.567  -0.226  13.889  0.00  0.00     0.009 A 
ENDBRANCH   1   7
BRANCH   1  13
ATOM     13  C11 ZIN A   1      18.310   3.025  12.973  0.00  0.00    -0.035 A 
ATOM     14  C16 ZIN A   1      18.924   3.513  14.113  0.00  0.00     0.009 A 
ATOM     15  C15 ZIN A   1      18.669   4.803  14.538  0.00  0.00     0.001 A 
ATOM     16  C14 ZIN A   1      17.793   5.603  13.829  0.00  0.00     0.000 A 
ATOM     17  C13 ZIN A   1      17.175   5.115  12.694  0.00  0.00     0.001 A 
ATOM     18  C12 ZIN A   1      17.433   3.826  12.266  0.00  0.00     0.009 A 
ENDBRANCH   1  13
BRANCH   1  19
ATOM     19  C17 ZIN A   1      17.539   1.203  11.479  0.00  0.00     0.040 C 
ATOM     20  C34 ZIN A   1      18.005   1.571  10.058  0.00  0.00     0.241 C 
ATOM     21  N21 ZIN A   1      18.132   0.303   9.303  0.00  0.00    -0.070 N 
ATOM     22  C20 ZIN A   1      17.207  -0.655   9.962  0.00  0.00     0.235 C 
ATOM     23  H22 ZIN A   1      19.080  -0.040   9.352  0.00  0.00     0.279 HD
ATOM     24  C19 ZIN A   1      17.379  -0.334  11.468  0.00  0.00     0.036 C 
BRANCH  21  25
ATOM     25  C23 ZIN A   1      17.738   0.505   7.902  0.00  0.00     0.239 C 
BRANCH  25  26
ATOM     26  C24 ZIN A   1      18.932   0.221   6.991  0.00  0.00     0.066 C 
BRANCH  26  27
ATOM     27  C25 ZIN A   1      18.752  -1.122   6.330  0.00  0.00    -0.056 A 
ATOM     28  C33 ZIN A   1      17.852  -1.269   5.289  0.00  0.00     0.017 A 
ATOM     29  C32 ZIN A   1      17.694  -2.495   4.684  0.00  0.00    -0.022 A 
ATOM     30  C28 ZIN A   1      18.426  -3.597   5.109  0.00  0.00     0.075 A 
ATOM     31  C31 ZIN A   1      16.805  -2.963   3.548  0.00  0.00     0.068 C 
ATOM     32  C27 ZIN A   1      19.323  -3.444   6.163  0.00  0.00     0.038 A 
ATOM     33  O29 ZIN A   1      18.129  -4.701   4.368  0.00  0.00    -0.350 OA
ATOM     34  C26 ZIN A   1      19.481  -2.213   6.766  0.00  0.00     0.010 A 
ATOM     35  C30 ZIN A   1      16.870  -4.501   3.703  0.00  0.00     0.180 C 
ENDBRANCH  26  27
ENDBRANCH  25  26
ENDBRANCH  21  25
ENDBRANCH   1  19
TORSDOF 7
ENDMDL
