MODEL 1
REMARK VINA RESULT:      -8.1      0.000      0.000
REMARK  1 active torsions:
REMARK  status: ('A' for Active; 'I' for Inactive)
REMARK    1  A    between atoms: C14_14  and  N15_15 
ROOT
ATOM      1  C1  ZIN A   1      18.815   1.861   8.880  0.00  0.00     0.056 C 
ATOM      2  C2  ZIN A   1      19.056   1.715  10.360  0.00  0.00    -0.018 A 
ATOM      3  C3  ZIN A   1      18.510   2.483  11.292  0.00  0.00     0.032 A 
ATOM      4  C4  ZIN A   1      18.913   2.135  12.638  0.00  0.00     0.044 A 
ATOM      5  C5  ZIN A   1      19.754   1.041  12.664  0.00  0.00     0.089 A 
ATOM      6  N6  ZIN A   1      20.226   0.464  13.850  0.00  0.00    -0.348 N 
ATOM      7  C7  ZIN A   1      19.262   0.060  14.795  0.00  0.00     0.062 A 
ATOM      8  C8  ZIN A   1      19.242  -1.262  15.202  0.00  0.00     0.032 A 
ATOM      9  C9  ZIN A   1      18.290  -1.700  16.110  0.00  0.00     0.002 A 
ATOM     10  C10 ZIN A   1      17.355  -0.814  16.609  0.00  0.00     0.002 A 
ATOM     11  C11 ZIN A   1      17.372   0.510  16.219  0.00  0.00     0.034 A 
ATOM     12  C12 ZIN A   1      18.335   0.972  15.313  0.00  0.00     0.086 A 
ATOM     13  N13 ZIN A   1      18.343   2.299  15.011  0.00  0.00    -0.228 NA
ATOM     14  C14 ZIN A   1      18.532   2.865  13.866  0.00  0.00     0.139 C 
ATOM     15  S22 ZIN A   1      20.093   0.501  11.085  0.00  0.00    -0.076 SA
ATOM     16  H27 ZIN A   1      21.175   0.347  14.013  0.00  0.00     0.166 HD
ENDROOT
BRANCH  14  17
ATOM     17  N15 ZIN A   1      18.368   4.230  13.783  0.00  0.00    -0.362 N 
ATOM     18  C21 ZIN A   1      19.531   5.130  13.762  0.00  0.00     0.154 C 
ATOM     19  C20 ZIN A   1      19.334   6.212  14.823  0.00  0.00     0.291 C 
ATOM     20  N18 ZIN A   1      18.036   6.868  14.616  0.00  0.00     0.087 N 
ATOM     21  C17 ZIN A   1      16.927   5.920  14.787  0.00  0.00     0.291 C 
ATOM     22  C19 ZIN A   1      17.883   8.024  15.509  0.00  0.00     0.310 C 
ATOM     23  C16 ZIN A   1      17.025   4.826  13.719  0.00  0.00     0.154 C 
ENDBRANCH  14  17
TORSDOF 1
ENDMDL
MODEL 2
REMARK VINA RESULT:      -8.1      3.309      7.366
REMARK  1 active torsions:
REMARK  status: ('A' for Active; 'I' for Inactive)
REMARK    1  A    between atoms: C14_14  and  N15_15 
ROOT
ATOM      1  C1  ZIN A   1      17.158  -0.783  17.077  0.00  0.00     0.056 C 
ATOM      2  C2  ZIN A   1      17.855  -0.309  15.827  0.00  0.00    -0.018 A 
ATOM      3  C3  ZIN A   1      17.737  -0.879  14.638  0.00  0.00     0.032 A 
ATOM      4  C4  ZIN A   1      18.517  -0.230  13.605  0.00  0.00     0.044 A 
ATOM      5  C5  ZIN A   1      19.190   0.878  14.079  0.00  0.00     0.089 A 
ATOM      6  N6  ZIN A   1      19.957   1.718  13.262  0.00  0.00    -0.348 N 
ATOM      7  C7  ZIN A   1      19.318   2.276  12.136  0.00  0.00     0.062 A 
ATOM      8  C8  ZIN A   1      19.283   3.653  12.005  0.00  0.00     0.032 A 
ATOM      9  C9  ZIN A   1      18.639   4.237  10.925  0.00  0.00     0.002 A 
ATOM     10  C10 ZIN A   1      18.027   3.441   9.976  0.00  0.00     0.002 A 
ATOM     11  C11 ZIN A   1      18.065   2.066  10.090  0.00  0.00     0.034 A 
ATOM     12  C12 ZIN A   1      18.722   1.460  11.167  0.00  0.00     0.086 A 
ATOM     13  N13 ZIN A   1      18.782   0.100  11.196  0.00  0.00    -0.228 NA
ATOM     14  C14 ZIN A   1      18.647  -0.692  12.206  0.00  0.00     0.139 C 
ATOM     15  S22 ZIN A   1      18.927   1.076  15.749  0.00  0.00    -0.076 SA
ATOM     16  H27 ZIN A   1      20.886   1.907  13.461  0.00  0.00     0.166 HD
ENDROOT
BRANCH  14  17
ATOM     17  N15 ZIN A   1      18.622  -2.048  11.968  0.00  0.00    -0.362 N 
ATOM     18  C21 ZIN A   1      19.799  -2.886  12.243  0.00  0.00     0.154 C 
ATOM     19  C20 ZIN A   1      20.109  -3.720  11.001  0.00  0.00     0.291 C 
ATOM     20  N18 ZIN A   1      18.904  -4.456  10.594  0.00  0.00     0.087 N 
ATOM     21  C17 ZIN A   1      17.824  -3.537  10.210  0.00  0.00     0.291 C 
ATOM     22  C19 ZIN A   1      19.205  -5.398   9.507  0.00  0.00     0.310 C 
ATOM     23  C16 ZIN A   1      17.418  -2.696  11.425  0.00  0.00     0.154 C 
ENDBRANCH  14  17
TORSDOF 1
ENDMDL
MODEL 3
REMARK VINA RESULT:      -8.0      2.843      6.873
REMARK  1 active torsions:
REMARK  status: ('A' for Active; 'I' for Inactive)
REMARK    1  A    between atoms: C14_14  and  N15_15 
ROOT
ATOM      1  C1  ZIN A   1      17.512  -1.228  16.692  0.00  0.00     0.056 C 
ATOM      2  C2  ZIN A   1      17.966  -0.241  15.648  0.00  0.00    -0.018 A 
ATOM      3  C3  ZIN A   1      17.842  -0.418  14.341  0.00  0.00     0.032 A 
ATOM      4  C4  ZIN A   1      18.365   0.680  13.556  0.00  0.00     0.044 A 
ATOM      5  C5  ZIN A   1      18.845   1.704  14.347  0.00  0.00     0.089 A 
ATOM      6  N6  ZIN A   1      19.338   2.908  13.829  0.00  0.00    -0.348 N 
ATOM      7  C7  ZIN A   1      18.487   3.634  12.972  0.00  0.00     0.062 A 
ATOM      8  C8  ZIN A   1      18.162   4.937  13.304  0.00  0.00     0.032 A 
ATOM      9  C9  ZIN A   1      17.305   5.671  12.499  0.00  0.00     0.002 A 
ATOM     10  C10 ZIN A   1      16.772   5.099  11.360  0.00  0.00     0.002 A 
ATOM     11  C11 ZIN A   1      17.097   3.804  11.012  0.00  0.00     0.034 A 
ATOM     12  C12 ZIN A   1      17.971   3.053  11.808  0.00  0.00     0.086 A 
ATOM     13  N13 ZIN A   1      18.307   1.803  11.384  0.00  0.00    -0.228 NA
ATOM     14  C14 ZIN A   1      18.439   0.724  12.080  0.00  0.00     0.139 C 
ATOM     15  S22 ZIN A   1      18.723   1.302  15.997  0.00  0.00    -0.076 SA
ATOM     16  H27 ZIN A   1      20.226   3.228  14.051  0.00  0.00     0.166 HD
ENDROOT
BRANCH  14  17
ATOM     17  N15 ZIN A   1      18.664  -0.457  11.408  0.00  0.00    -0.362 N 
ATOM     18  C21 ZIN A   1      17.570  -1.147  10.707  0.00  0.00     0.154 C 
ATOM     19  C20 ZIN A   1      17.546  -2.608  11.154  0.00  0.00     0.291 C 
ATOM     20  N18 ZIN A   1      18.877  -3.199  10.963  0.00  0.00     0.087 N 
ATOM     21  C17 ZIN A   1      19.881  -2.532  11.802  0.00  0.00     0.291 C 
ATOM     22  C19 ZIN A   1      18.852  -4.646  11.221  0.00  0.00     0.310 C 
ATOM     23  C16 ZIN A   1      20.003  -1.065  11.377  0.00  0.00     0.154 C 
ENDBRANCH  14  17
TORSDOF 1
ENDMDL
MODEL 4
REMARK VINA RESULT:      -7.8      3.864      7.067
REMARK  1 active torsions:
REMARK  status: ('A' for Active; 'I' for Inactive)
REMARK    1  A    between atoms: C14_14  and  N15_15 
ROOT
ATOM      1  C1  ZIN A   1      20.411  -4.050  11.845  0.00  0.00     0.056 C 
ATOM      2  C2  ZIN A   1      19.637  -3.269  10.813  0.00  0.00    -0.018 A 
ATOM      3  C3  ZIN A   1      19.433  -1.961  10.857  0.00  0.00     0.032 A 
ATOM      4  C4  ZIN A   1      18.652  -1.460   9.746  0.00  0.00     0.044 A 
ATOM      5  C5  ZIN A   1      18.322  -2.456   8.850  0.00  0.00     0.089 A 
ATOM      6  N6  ZIN A   1      17.631  -2.216   7.655  0.00  0.00    -0.348 N 
ATOM      7  C7  ZIN A   1      18.181  -1.262   6.776  0.00  0.00     0.062 A 
ATOM      8  C8  ZIN A   1      18.491  -1.648   5.484  0.00  0.00     0.032 A 
ATOM      9  C9  ZIN A   1      19.060  -0.743   4.601  0.00  0.00     0.002 A 
ATOM     10  C10 ZIN A   1      19.320   0.549   5.012  0.00  0.00     0.002 A 
ATOM     11  C11 ZIN A   1      19.006   0.949   6.295  0.00  0.00     0.034 A 
ATOM     12  C12 ZIN A   1      18.419   0.052   7.196  0.00  0.00     0.086 A 
ATOM     13  N13 ZIN A   1      18.073   0.517   8.427  0.00  0.00    -0.228 NA
ATOM     14  C14 ZIN A   1      18.198  -0.063   9.574  0.00  0.00     0.139 C 
ATOM     15  S22 ZIN A   1      18.891  -3.968   9.388  0.00  0.00    -0.076 SA
ATOM     16  H27 ZIN A   1      16.810  -2.686   7.442  0.00  0.00     0.166 HD
ENDROOT
BRANCH  14  17
ATOM     17  N15 ZIN A   1      17.890   0.661  10.704  0.00  0.00    -0.362 N 
ATOM     18  C21 ZIN A   1      18.642   1.877  11.050  0.00  0.00     0.154 C 
ATOM     19  C20 ZIN A   1      19.107   1.770  12.501  0.00  0.00     0.291 C 
ATOM     20  N18 ZIN A   1      17.953   1.486  13.365  0.00  0.00     0.087 N 
ATOM     21  C17 ZIN A   1      17.347   0.190  13.033  0.00  0.00     0.291 C 
ATOM     22  C19 ZIN A   1      18.331   1.544  14.783  0.00  0.00     0.310 C 
ATOM     23  C16 ZIN A   1      16.805   0.235  11.600  0.00  0.00     0.154 C 
ENDBRANCH  14  17
TORSDOF 1
ENDMDL
MODEL 5
REMARK VINA RESULT:      -7.8      2.900      6.338
REMARK  1 active torsions:
REMARK  status: ('A' for Active; 'I' for Inactive)
REMARK    1  A    between atoms: C14_14  and  N15_15 
ROOT
ATOM      1  C1  ZIN A   1      16.637   4.816  12.268  0.00  0.00     0.056 C 
ATOM      2  C2  ZIN A   1      17.451   3.828  11.473  0.00  0.00    -0.018 A 
ATOM      3  C3  ZIN A   1      17.618   2.556  11.798  0.00  0.00     0.032 A 
ATOM      4  C4  ZIN A   1      18.452   1.824  10.868  0.00  0.00     0.044 A 
ATOM      5  C5  ZIN A   1      18.862   2.608   9.809  0.00  0.00     0.089 A 
ATOM      6  N6  ZIN A   1      19.618   2.116   8.737  0.00  0.00    -0.348 N 
ATOM      7  C7  ZIN A   1      19.097   1.008   8.040  0.00  0.00     0.062 A 
ATOM      8  C8  ZIN A   1      18.877   1.122   6.679  0.00  0.00     0.032 A 
ATOM      9  C9  ZIN A   1      18.339   0.061   5.966  0.00  0.00     0.002 A 
ATOM     10  C10 ZIN A   1      18.020  -1.115   6.617  0.00  0.00     0.002 A 
ATOM     11  C11 ZIN A   1      18.246  -1.244   7.973  0.00  0.00     0.034 A 
ATOM     12  C12 ZIN A   1      18.800  -0.187   8.705  0.00  0.00     0.086 A 
ATOM     13  N13 ZIN A   1      19.058  -0.391  10.026  0.00  0.00    -0.228 NA
ATOM     14  C14 ZIN A   1      18.879   0.416  11.018  0.00  0.00     0.139 C 
ATOM     15  S22 ZIN A   1      18.301   4.206   9.985  0.00  0.00    -0.076 SA
ATOM     16  H27 ZIN A   1      20.462   2.521   8.485  0.00  0.00     0.166 HD
ENDROOT
BRANCH  14  17
ATOM     17  N15 ZIN A   1      19.098  -0.061  12.290  0.00  0.00    -0.362 N 
ATOM     18  C21 ZIN A   1      18.238  -1.108  12.863  0.00  0.00     0.154 C 
ATOM     19  C20 ZIN A   1      17.751  -0.647  14.235  0.00  0.00     0.291 C 
ATOM     20  N18 ZIN A   1      18.905  -0.269  15.062  0.00  0.00     0.087 N 
ATOM     21  C17 ZIN A   1      19.627   0.870  14.480  0.00  0.00     0.291 C 
ATOM     22  C19 ZIN A   1      18.492   0.018  16.442  0.00  0.00     0.310 C 
ATOM     23  C16 ZIN A   1      20.195   0.467  13.116  0.00  0.00     0.154 C 
ENDBRANCH  14  17
TORSDOF 1
ENDMDL
MODEL 6
REMARK VINA RESULT:      -7.7      3.066      6.179
REMARK  1 active torsions:
REMARK  status: ('A' for Active; 'I' for Inactive)
REMARK    1  A    between atoms: C14_14  and  N15_15 
ROOT
ATOM      1  C1  ZIN A   1      19.884   3.617  11.277  0.00  0.00     0.056 C 
ATOM      2  C2  ZIN A   1      19.237   2.634  12.218  0.00  0.00    -0.018 A 
ATOM      3  C3  ZIN A   1      19.424   1.323  12.182  0.00  0.00     0.032 A 
ATOM      4  C4  ZIN A   1      18.679   0.604  13.194  0.00  0.00     0.044 A 
ATOM      5  C5  ZIN A   1      17.961   1.452  14.013  0.00  0.00     0.089 A 
ATOM      6  N6  ZIN A   1      17.215   1.008  15.112  0.00  0.00    -0.348 N 
ATOM      7  C7  ZIN A   1      17.894   0.241  16.081  0.00  0.00     0.062 A 
ATOM      8  C8  ZIN A   1      17.906   0.683  17.391  0.00  0.00     0.032 A 
ATOM      9  C9  ZIN A   1      18.587  -0.031  18.365  0.00  0.00     0.002 A 
ATOM     10  C10 ZIN A   1      19.260  -1.189  18.025  0.00  0.00     0.002 A 
ATOM     11  C11 ZIN A   1      19.247  -1.645  16.723  0.00  0.00     0.034 A 
ATOM     12  C12 ZIN A   1      18.553  -0.943  15.730  0.00  0.00     0.086 A 
ATOM     13  N13 ZIN A   1      18.521  -1.472  14.476  0.00  0.00    -0.228 NA
ATOM     14  C14 ZIN A   1      18.626  -0.866  13.341  0.00  0.00     0.139 C 
ATOM     15  S22 ZIN A   1      18.139   3.070  13.515  0.00  0.00    -0.076 SA
ATOM     16  H27 ZIN A   1      16.273   1.219  15.204  0.00  0.00     0.166 HD
ENDROOT
BRANCH  14  17
ATOM     17  N15 ZIN A   1      18.692  -1.633  12.200  0.00  0.00    -0.362 N 
ATOM     18  C21 ZIN A   1      17.487  -1.902  11.399  0.00  0.00     0.154 C 
ATOM     19  C20 ZIN A   1      17.382  -3.408  11.161  0.00  0.00     0.291 C 
ATOM     20  N18 ZIN A   1      18.638  -3.900  10.579  0.00  0.00     0.087 N 
ATOM     21  C17 ZIN A   1      19.764  -3.709  11.504  0.00  0.00     0.291 C 
ATOM     22  C19 ZIN A   1      18.516  -5.308  10.180  0.00  0.00     0.310 C 
ATOM     23  C16 ZIN A   1      19.968  -2.211  11.752  0.00  0.00     0.154 C 
ENDBRANCH  14  17
TORSDOF 1
ENDMDL
MODEL 7
REMARK VINA RESULT:      -7.7      1.537      2.028
REMARK  1 active torsions:
REMARK  status: ('A' for Active; 'I' for Inactive)
REMARK    1  A    between atoms: C14_14  and  N15_15 
ROOT
ATOM      1  C1  ZIN A   1      17.366   4.626  10.500  0.00  0.00     0.056 C 
ATOM      2  C2  ZIN A   1      17.967   3.902  11.676  0.00  0.00    -0.018 A 
ATOM      3  C3  ZIN A   1      17.763   4.226  12.944  0.00  0.00     0.032 A 
ATOM      4  C4  ZIN A   1      18.464   3.372  13.879  0.00  0.00     0.044 A 
ATOM      5  C5  ZIN A   1      19.167   2.369  13.244  0.00  0.00     0.089 A 
ATOM      6  N6  ZIN A   1      19.870   1.371  13.930  0.00  0.00    -0.348 N 
ATOM      7  C7  ZIN A   1      19.150   0.611  14.872  0.00  0.00     0.062 A 
ATOM      8  C8  ZIN A   1      19.102  -0.764  14.723  0.00  0.00     0.032 A 
ATOM      9  C9  ZIN A   1      18.379  -1.540  15.616  0.00  0.00     0.002 A 
ATOM     10  C10 ZIN A   1      17.701  -0.939  16.659  0.00  0.00     0.002 A 
ATOM     11  C11 ZIN A   1      17.750   0.430  16.824  0.00  0.00     0.034 A 
ATOM     12  C12 ZIN A   1      18.486   1.227  15.939  0.00  0.00     0.086 A 
ATOM     13  N13 ZIN A   1      18.551   2.565  16.186  0.00  0.00    -0.228 NA
ATOM     14  C14 ZIN A   1      18.492   3.544  15.348  0.00  0.00     0.139 C 
ATOM     15  S22 ZIN A   1      19.028   2.511  11.552  0.00  0.00    -0.076 SA
ATOM     16  H27 ZIN A   1      20.812   1.209  13.763  0.00  0.00     0.166 HD
ENDROOT
BRANCH  14  17
ATOM     17  N15 ZIN A   1      18.452   4.826  15.850  0.00  0.00    -0.362 N 
ATOM     18  C21 ZIN A   1      17.288   5.303  16.612  0.00  0.00     0.154 C 
ATOM     19  C20 ZIN A   1      16.821   6.630  16.016  0.00  0.00     0.291 C 
ATOM     20  N18 ZIN A   1      17.952   7.565  15.959  0.00  0.00     0.087 N 
ATOM     21  C17 ZIN A   1      19.010   7.067  15.069  0.00  0.00     0.291 C 
ATOM     22  C19 ZIN A   1      17.507   8.904  15.550  0.00  0.00     0.310 C 
ATOM     23  C16 ZIN A   1      19.570   5.756  15.632  0.00  0.00     0.154 C 
ENDBRANCH  14  17
TORSDOF 1
ENDMDL
MODEL 8
REMARK VINA RESULT:      -7.6      4.479      5.954
REMARK  1 active torsions:
REMARK  status: ('A' for Active; 'I' for Inactive)
REMARK    1  A    between atoms: C14_14  and  N15_15 
ROOT
ATOM      1  C1  ZIN A   1      17.760   0.625   5.856  0.00  0.00     0.056 C 
ATOM      2  C2  ZIN A   1      18.181  -0.368   6.908  0.00  0.00    -0.018 A 
ATOM      3  C3  ZIN A   1      17.913  -0.255   8.200  0.00  0.00     0.032 A 
ATOM      4  C4  ZIN A   1      18.437  -1.343   8.998  0.00  0.00     0.044 A 
ATOM      5  C5  ZIN A   1      19.074  -2.294   8.227  0.00  0.00     0.089 A 
ATOM      6  N6  ZIN A   1      19.605  -3.479   8.753  0.00  0.00    -0.348 N 
ATOM      7  C7  ZIN A   1      18.730  -4.301   9.492  0.00  0.00     0.062 A 
ATOM      8  C8  ZIN A   1      18.544  -5.610   9.084  0.00  0.00     0.032 A 
ATOM      9  C9  ZIN A   1      17.669  -6.438   9.771  0.00  0.00     0.002 A 
ATOM     10  C10 ZIN A   1      16.980  -5.956  10.866  0.00  0.00     0.002 A 
ATOM     11  C11 ZIN A   1      17.167  -4.655  11.289  0.00  0.00     0.034 A 
ATOM     12  C12 ZIN A   1      18.055  -3.809  10.615  0.00  0.00     0.086 A 
ATOM     13  N13 ZIN A   1      18.247  -2.556  11.113  0.00  0.00    -0.228 NA
ATOM     14  C14 ZIN A   1      18.365  -1.442  10.472  0.00  0.00     0.139 C 
ATOM     15  S22 ZIN A   1      19.089  -1.834   6.588  0.00  0.00    -0.076 SA
ATOM     16  H27 ZIN A   1      20.533  -3.723   8.615  0.00  0.00     0.166 HD
ENDROOT
BRANCH  14  17
ATOM     17  N15 ZIN A   1      18.426  -0.277  11.202  0.00  0.00    -0.362 N 
ATOM     18  C21 ZIN A   1      19.699   0.439  11.377  0.00  0.00     0.154 C 
ATOM     19  C20 ZIN A   1      19.909   0.713  12.865  0.00  0.00     0.291 C 
ATOM     20  N18 ZIN A   1      18.729   1.401  13.406  0.00  0.00     0.087 N 
ATOM     21  C17 ZIN A   1      17.530   0.558  13.310  0.00  0.00     0.291 C 
ATOM     22  C19 ZIN A   1      18.961   1.832  14.791  0.00  0.00     0.310 C 
ATOM     23  C16 ZIN A   1      17.221   0.281  11.835  0.00  0.00     0.154 C 
ENDBRANCH  14  17
TORSDOF 1
ENDMDL
MODEL 9
REMARK VINA RESULT:      -7.6      5.221      8.971
REMARK  1 active torsions:
REMARK  status: ('A' for Active; 'I' for Inactive)
REMARK    1  A    between atoms: C14_14  and  N15_15 
ROOT
ATOM      1  C1  ZIN A   1      16.645  -5.147  10.480  0.00  0.00     0.056 C 
ATOM      2  C2  ZIN A   1      17.579  -3.988  10.244  0.00  0.00    -0.018 A 
ATOM      3  C3  ZIN A   1      17.745  -3.380   9.079  0.00  0.00     0.032 A 
ATOM      4  C4  ZIN A   1      18.707  -2.299   9.122  0.00  0.00     0.044 A 
ATOM      5  C5  ZIN A   1      19.217  -2.105  10.389  0.00  0.00     0.089 A 
ATOM      6  N6  ZIN A   1      20.111  -1.075  10.708  0.00  0.00    -0.348 N 
ATOM      7  C7  ZIN A   1      19.712   0.240  10.396  0.00  0.00     0.062 A 
ATOM      8  C8  ZIN A   1      19.654   1.177  11.412  0.00  0.00     0.032 A 
ATOM      9  C9  ZIN A   1      19.238   2.473  11.146  0.00  0.00     0.002 A 
ATOM     10  C10 ZIN A   1      18.880   2.831   9.861  0.00  0.00     0.002 A 
ATOM     11  C11 ZIN A   1      18.945   1.908   8.837  0.00  0.00     0.034 A 
ATOM     12  C12 ZIN A   1      19.374   0.599   9.086  0.00  0.00     0.086 A 
ATOM     13  N13 ZIN A   1      19.478  -0.252   8.028  0.00  0.00    -0.228 NA
ATOM     14  C14 ZIN A   1      19.156  -1.500   7.961  0.00  0.00     0.139 C 
ATOM     15  S22 ZIN A   1      18.589  -3.255  11.477  0.00  0.00    -0.076 SA
ATOM     16  H27 ZIN A   1      20.966  -1.259  11.125  0.00  0.00     0.166 HD
ENDROOT
BRANCH  14  17
ATOM     17  N15 ZIN A   1      19.235  -2.126   6.737  0.00  0.00    -0.362 N 
ATOM     18  C21 ZIN A   1      18.710  -1.481   5.523  0.00  0.00     0.154 C 
ATOM     19  C20 ZIN A   1      17.787  -2.464   4.806  0.00  0.00     0.291 C 
ATOM     20  N18 ZIN A   1      18.500  -3.728   4.579  0.00  0.00     0.087 N 
ATOM     21  C17 ZIN A   1      18.868  -4.366   5.850  0.00  0.00     0.291 C 
ATOM     22  C19 ZIN A   1      17.704  -4.638   3.744  0.00  0.00     0.310 C 
ATOM     23  C16 ZIN A   1      19.842  -3.460   6.610  0.00  0.00     0.154 C 
ENDBRANCH  14  17
TORSDOF 1
ENDMDL
