MODEL 1
REMARK VINA RESULT:      -9.0      0.000      0.000
REMARK  7 active torsions:
REMARK  status: ('A' for Active; 'I' for Inactive)
REMARK    1  A    between atoms: C7_7  and  O8_8 
REMARK    2  A    between atoms: O8_8  and  C9_9 
REMARK    3  A    between atoms: C9_9  and  C10_10 
REMARK    4  A    between atoms: C10_10  and  C11_11 
REMARK    5  A    between atoms: C11_11  and  C12_12 
REMARK    6  A    between atoms: C12_12  and  C13_13 
REMARK    7  A    between atoms: N17_17  and  C18_18 
ROOT
ATOM      1  C9  <0> d   1      17.892   2.897  10.850  0.00  0.00     0.175 C 
ENDROOT
BRANCH   1   2
ATOM      2  O8  <0> d   1      19.171   2.351  10.518  0.00  0.00    -0.351 OA
BRANCH   2   3
ATOM      3  C7  <0> d   1      19.195   1.350   9.599  0.00  0.00     0.069 A 
ATOM      4  C6  <0> d   1      18.894   1.621   8.272  0.00  0.00     0.046 A 
ATOM      5  C5  <0> d   1      18.918   0.605   7.338  0.00  0.00    -0.028 A 
ATOM      6  C4  <0> d   1      18.591   0.894   5.895  0.00  0.00     0.050 C 
ATOM      7  C26 <0> d   1      19.242  -0.688   7.727  0.00  0.00     0.041 A 
ATOM      8  C3  <0> d   1      19.431  -0.008   4.990  0.00  0.00     0.108 C 
ATOM      9  C2  <0> d   1      19.343  -1.434   5.466  0.00  0.00     0.222 C 
ATOM     10  O1  <0> d   1      19.345  -2.337   4.655  0.00  0.00    -0.273 OA
ATOM     11  N27 <0> d   1      19.258  -1.718   6.778  0.00  0.00    -0.327 N 
ATOM     12  H54 <0> d   1      19.210  -2.643   7.068  0.00  0.00     0.169 HD
ATOM     13  C25 <0> d   1      19.542  -0.959   9.055  0.00  0.00     0.033 A 
ATOM     14  C24 <0> d   1      19.519   0.059   9.988  0.00  0.00     0.039 A 
ENDBRANCH   2   3
ENDBRANCH   1   2
BRANCH   1  15
ATOM     15  C10 <0> d   1      18.065   4.332  11.352  0.00  0.00     0.027 C 
BRANCH  15  16
ATOM     16  C11 <0> d   1      18.857   4.322  12.661  0.00  0.00     0.010 C 
BRANCH  16  17
ATOM     17  C12 <0> d   1      18.041   3.616  13.746  0.00  0.00     0.082 C 
BRANCH  17  18
ATOM     18  C13 <0> d   1      18.849   3.544  15.016  0.00  0.00     0.148 A 
ATOM     19  N17 <0> d   1      18.942   2.491  15.851  0.00  0.00    -0.230 N 
ATOM     20  N16 <0> d   1      19.731   2.836  16.811  0.00  0.00    -0.044 NA
ATOM     21  N15 <0> d   1      20.122   4.047  16.612  0.00  0.00    -0.023 NA
ATOM     22  N14 <0> d   1      19.594   4.494  15.525  0.00  0.00    -0.114 NA
BRANCH  19  23
ATOM     23  C18 <0> d   1      18.277   1.195  15.693  0.00  0.00     0.113 C 
ATOM     24  C23 <0> d   1      17.952   0.619  17.073  0.00  0.00     0.027 C 
ATOM     25  C22 <0> d   1      17.258  -0.736  16.909  0.00  0.00     0.002 C 
ATOM     26  C21 <0> d   1      18.185  -1.696  16.160  0.00  0.00     0.000 C 
ATOM     27  C20 <0> d   1      18.511  -1.119  14.781  0.00  0.00     0.002 C 
ATOM     28  C19 <0> d   1      19.204   0.235  14.945  0.00  0.00     0.027 C 
ENDBRANCH  19  23
ENDBRANCH  17  18
ENDBRANCH  16  17
ENDBRANCH  15  16
ENDBRANCH   1  15
TORSDOF 7
ENDMDL
MODEL 2
REMARK VINA RESULT:      -8.9      2.609      8.334
REMARK  7 active torsions:
REMARK  status: ('A' for Active; 'I' for Inactive)
REMARK    1  A    between atoms: C7_7  and  O8_8 
REMARK    2  A    between atoms: O8_8  and  C9_9 
REMARK    3  A    between atoms: C9_9  and  C10_10 
REMARK    4  A    between atoms: C10_10  and  C11_11 
REMARK    5  A    between atoms: C11_11  and  C12_12 
REMARK    6  A    between atoms: C12_12  and  C13_13 
REMARK    7  A    between atoms: N17_17  and  C18_18 
ROOT
ATOM      1  C9  <0> d   1      19.265  -3.597  10.127  0.00  0.00     0.175 C 
ENDROOT
BRANCH   1   2
ATOM      2  O8  <0> d   1      19.042  -3.499  11.535  0.00  0.00    -0.351 OA
BRANCH   2   3
ATOM      3  C7  <0> d   1      19.189  -2.272  12.099  0.00  0.00     0.069 A 
ATOM      4  C6  <0> d   1      18.450  -1.932  13.224  0.00  0.00     0.046 A 
ATOM      5  C5  <0> d   1      18.600  -0.685  13.796  0.00  0.00    -0.028 A 
ATOM      6  C4  <0> d   1      17.798  -0.312  15.017  0.00  0.00     0.050 C 
ATOM      7  C26 <0> d   1      19.489   0.229  13.248  0.00  0.00     0.041 A 
ATOM      8  C3  <0> d   1      18.630   0.605  15.914  0.00  0.00     0.108 C 
ATOM      9  C2  <0> d   1      19.232   1.715  15.094  0.00  0.00     0.222 C 
ATOM     10  O1  <0> d   1      19.353   2.820  15.578  0.00  0.00    -0.273 OA
ATOM     11  N27 <0> d   1      19.632   1.496  13.828  0.00  0.00    -0.327 N 
ATOM     12  H54 <0> d   1      20.026   2.220  13.315  0.00  0.00     0.169 HD
ATOM     13  C25 <0> d   1      20.228  -0.111  12.123  0.00  0.00     0.033 A 
ATOM     14  C24 <0> d   1      20.078  -1.359  11.551  0.00  0.00     0.039 A 
ENDBRANCH   2   3
ENDBRANCH   1   2
BRANCH   1  15
ATOM     15  C10 <0> d   1      17.931  -3.830   9.414  0.00  0.00     0.027 C 
BRANCH  15  16
ATOM     16  C11 <0> d   1      18.036  -3.350   7.965  0.00  0.00     0.010 C 
BRANCH  16  17
ATOM     17  C12 <0> d   1      19.424  -2.751   7.726  0.00  0.00     0.082 C 
BRANCH  17  18
ATOM     18  C13 <0> d   1      19.314  -1.604   6.754  0.00  0.00     0.148 A 
ATOM     19  N17 <0> d   1      19.102  -0.310   7.059  0.00  0.00    -0.230 N 
ATOM     20  N16 <0> d   1      19.078   0.344   5.947  0.00  0.00    -0.044 NA
ATOM     21  N15 <0> d   1      19.256  -0.483   4.976  0.00  0.00    -0.023 NA
ATOM     22  N14 <0> d   1      19.401  -1.673   5.448  0.00  0.00    -0.114 NA
BRANCH  19  23
ATOM     23  C18 <0> d   1      18.938   0.251   8.402  0.00  0.00     0.113 C 
ATOM     24  C23 <0> d   1      17.477   0.116   8.836  0.00  0.00     0.027 C 
ATOM     25  C22 <0> d   1      17.305   0.703  10.239  0.00  0.00     0.002 C 
ATOM     26  C21 <0> d   1      17.699   2.182  10.225  0.00  0.00     0.000 C 
ATOM     27  C20 <0> d   1      19.159   2.317   9.791  0.00  0.00     0.002 C 
ATOM     28  C19 <0> d   1      19.331   1.730   8.389  0.00  0.00     0.027 C 
ENDBRANCH  19  23
ENDBRANCH  17  18
ENDBRANCH  16  17
ENDBRANCH  15  16
ENDBRANCH   1  15
TORSDOF 7
ENDMDL
MODEL 3
REMARK VINA RESULT:      -8.9      3.855      8.423
REMARK  7 active torsions:
REMARK  status: ('A' for Active; 'I' for Inactive)
REMARK    1  A    between atoms: C7_7  and  O8_8 
REMARK    2  A    between atoms: O8_8  and  C9_9 
REMARK    3  A    between atoms: C9_9  and  C10_10 
REMARK    4  A    between atoms: C10_10  and  C11_11 
REMARK    5  A    between atoms: C11_11  and  C12_12 
REMARK    6  A    between atoms: C12_12  and  C13_13 
REMARK    7  A    between atoms: N17_17  and  C18_18 
ROOT
ATOM      1  C9  <0> d   1      18.102  -5.864   7.709  0.00  0.00     0.175 C 
ENDROOT
BRANCH   1   2
ATOM      2  O8  <0> d   1      17.467  -5.642   8.970  0.00  0.00    -0.351 OA
BRANCH   2   3
ATOM      3  C7  <0> d   1      18.101  -4.814   9.842  0.00  0.00     0.069 A 
ATOM      4  C6  <0> d   1      17.438  -3.707  10.352  0.00  0.00     0.046 A 
ATOM      5  C5  <0> d   1      18.081  -2.865  11.237  0.00  0.00    -0.028 A 
ATOM      6  C4  <0> d   1      17.366  -1.660  11.793  0.00  0.00     0.050 C 
ATOM      7  C26 <0> d   1      19.391  -3.127  11.618  0.00  0.00     0.041 A 
ATOM      8  C3  <0> d   1      17.829  -1.407  13.227  0.00  0.00     0.108 C 
ATOM      9  C2  <0> d   1      19.334  -1.431  13.291  0.00  0.00     0.222 C 
ATOM     10  O1  <0> d   1      19.913  -0.684  14.052  0.00  0.00    -0.273 OA
ATOM     11  N27 <0> d   1      20.042  -2.267  12.511  0.00  0.00    -0.327 N 
ATOM     12  H54 <0> d   1      21.011  -2.276  12.569  0.00  0.00     0.169 HD
ATOM     13  C25 <0> d   1      20.053  -4.235  11.108  0.00  0.00     0.033 A 
ATOM     14  C24 <0> d   1      19.408  -5.077  10.222  0.00  0.00     0.039 A 
ENDBRANCH   2   3
ENDBRANCH   1   2
BRANCH   1  15
ATOM     15  C10 <0> d   1      17.850  -4.664   6.794  0.00  0.00     0.027 C 
BRANCH  15  16
ATOM     16  C11 <0> d   1      19.188  -4.123   6.282  0.00  0.00     0.010 C 
BRANCH  16  17
ATOM     17  C12 <0> d   1      19.561  -2.863   7.064  0.00  0.00     0.082 C 
BRANCH  17  18
ATOM     18  C13 <0> d   1      19.438  -1.659   6.165  0.00  0.00     0.148 A 
ATOM     19  N17 <0> d   1      19.193  -0.392   6.548  0.00  0.00    -0.230 N 
ATOM     20  N16 <0> d   1      19.168   0.330   5.479  0.00  0.00    -0.044 NA
ATOM     21  N15 <0> d   1      19.377  -0.430   4.460  0.00  0.00    -0.023 NA
ATOM     22  N14 <0> d   1      19.543  -1.644   4.859  0.00  0.00    -0.114 NA
BRANCH  19  23
ATOM     23  C18 <0> d   1      19.000   0.080   7.921  0.00  0.00     0.113 C 
ATOM     24  C23 <0> d   1      17.509   0.042   8.268  0.00  0.00     0.027 C 
ATOM     25  C22 <0> d   1      17.307   0.535   9.703  0.00  0.00     0.002 C 
ATOM     26  C21 <0> d   1      17.823   1.971   9.826  0.00  0.00     0.000 C 
ATOM     27  C20 <0> d   1      19.313   2.008   9.479  0.00  0.00     0.002 C 
ATOM     28  C19 <0> d   1      19.515   1.515   8.045  0.00  0.00     0.027 C 
ENDBRANCH  19  23
ENDBRANCH  17  18
ENDBRANCH  16  17
ENDBRANCH  15  16
ENDBRANCH   1  15
TORSDOF 7
ENDMDL
MODEL 4
REMARK VINA RESULT:      -8.9      2.840      9.459
REMARK  7 active torsions:
REMARK  status: ('A' for Active; 'I' for Inactive)
REMARK    1  A    between atoms: C7_7  and  O8_8 
REMARK    2  A    between atoms: O8_8  and  C9_9 
REMARK    3  A    between atoms: C9_9  and  C10_10 
REMARK    4  A    between atoms: C10_10  and  C11_11 
REMARK    5  A    between atoms: C11_11  and  C12_12 
REMARK    6  A    between atoms: C12_12  and  C13_13 
REMARK    7  A    between atoms: N17_17  and  C18_18 
ROOT
ATOM      1  C9  <0> d   1      18.778  -2.847  11.839  0.00  0.00     0.175 C 
ENDROOT
BRANCH   1   2
ATOM      2  O8  <0> d   1      19.441  -1.662  12.286  0.00  0.00    -0.351 OA
BRANCH   2   3
ATOM      3  C7  <0> d   1      18.924  -1.043  13.381  0.00  0.00     0.069 A 
ATOM      4  C6  <0> d   1      19.311  -1.445  14.651  0.00  0.00     0.046 A 
ATOM      5  C5  <0> d   1      18.786  -0.817  15.763  0.00  0.00    -0.028 A 
ATOM      6  C4  <0> d   1      19.203  -1.251  17.145  0.00  0.00     0.050 C 
ATOM      7  C26 <0> d   1      17.872   0.217  15.610  0.00  0.00     0.041 A 
ATOM      8  C3  <0> d   1      19.230  -0.038  18.075  0.00  0.00     0.108 C 
ATOM      9  C2  <0> d   1      17.952   0.745  17.932  0.00  0.00     0.222 C 
ATOM     10  O1  <0> d   1      17.470   1.288  18.904  0.00  0.00    -0.273 OA
ATOM     11  N27 <0> d   1      17.337   0.847  16.740  0.00  0.00    -0.327 N 
ATOM     12  H54 <0> d   1      16.517   1.362  16.663  0.00  0.00     0.169 HD
ATOM     13  C25 <0> d   1      17.485   0.618  14.339  0.00  0.00     0.033 A 
ATOM     14  C24 <0> d   1      18.011  -0.011  13.227  0.00  0.00     0.039 A 
ENDBRANCH   2   3
ENDBRANCH   1   2
BRANCH   1  15
ATOM     15  C10 <0> d   1      19.818  -3.925  11.527  0.00  0.00     0.027 C 
BRANCH  15  16
ATOM     16  C11 <0> d   1      19.415  -4.669  10.251  0.00  0.00     0.010 C 
BRANCH  16  17
ATOM     17  C12 <0> d   1      18.520  -3.768   9.398  0.00  0.00     0.082 C 
BRANCH  17  18
ATOM     18  C13 <0> d   1      19.149  -3.575   8.042  0.00  0.00     0.148 A 
ATOM     19  N17 <0> d   1      19.289  -2.411   7.380  0.00  0.00    -0.230 N 
ATOM     20  N16 <0> d   1      19.877  -2.678   6.263  0.00  0.00    -0.044 NA
ATOM     21  N15 <0> d   1      20.097  -3.945   6.202  0.00  0.00    -0.023 NA
ATOM     22  N14 <0> d   1      19.660  -4.507   7.276  0.00  0.00    -0.114 NA
BRANCH  19  23
ATOM     23  C18 <0> d   1      18.862  -1.089   7.845  0.00  0.00     0.113 C 
ATOM     24  C23 <0> d   1      18.923  -0.096   6.682  0.00  0.00     0.027 C 
ATOM     25  C22 <0> d   1      18.478   1.286   7.168  0.00  0.00     0.002 C 
ATOM     26  C21 <0> d   1      19.407   1.755   8.290  0.00  0.00     0.000 C 
ATOM     27  C20 <0> d   1      19.346   0.762   9.451  0.00  0.00     0.002 C 
ATOM     28  C19 <0> d   1      19.791  -0.618   8.966  0.00  0.00     0.027 C 
ENDBRANCH  19  23
ENDBRANCH  17  18
ENDBRANCH  16  17
ENDBRANCH  15  16
ENDBRANCH   1  15
TORSDOF 7
ENDMDL
MODEL 5
REMARK VINA RESULT:      -8.8      2.902      3.234
REMARK  7 active torsions:
REMARK  status: ('A' for Active; 'I' for Inactive)
REMARK    1  A    between atoms: C7_7  and  O8_8 
REMARK    2  A    between atoms: O8_8  and  C9_9 
REMARK    3  A    between atoms: C9_9  and  C10_10 
REMARK    4  A    between atoms: C10_10  and  C11_11 
REMARK    5  A    between atoms: C11_11  and  C12_12 
REMARK    6  A    between atoms: C12_12  and  C13_13 
REMARK    7  A    between atoms: N17_17  and  C18_18 
ROOT
ATOM      1  C9  <0> d   1      17.961   3.532  11.047  0.00  0.00     0.175 C 
ENDROOT
BRANCH   1   2
ATOM      2  O8  <0> d   1      17.262   2.289  10.959  0.00  0.00    -0.351 OA
BRANCH   2   3
ATOM      3  C7  <0> d   1      18.003   1.155  11.072  0.00  0.00     0.069 A 
ATOM      4  C6  <0> d   1      17.378  -0.062  11.305  0.00  0.00     0.046 A 
ATOM      5  C5  <0> d   1      18.130  -1.213  11.420  0.00  0.00    -0.028 A 
ATOM      6  C4  <0> d   1      17.455  -2.537  11.674  0.00  0.00     0.050 C 
ATOM      7  C26 <0> d   1      19.513  -1.154  11.304  0.00  0.00     0.041 A 
ATOM      8  C3  <0> d   1      18.229  -3.649  10.967  0.00  0.00     0.108 C 
ATOM      9  C2  <0> d   1      19.697  -3.530  11.280  0.00  0.00     0.222 C 
ATOM     10  O1  <0> d   1      20.367  -4.534  11.401  0.00  0.00    -0.273 OA
ATOM     11  N27 <0> d   1      20.273  -2.323  11.429  0.00  0.00    -0.327 N 
ATOM     12  H54 <0> d   1      21.222  -2.263  11.623  0.00  0.00     0.169 HD
ATOM     13  C25 <0> d   1      20.138   0.063  11.071  0.00  0.00     0.033 A 
ATOM     14  C24 <0> d   1      19.384   1.215  10.956  0.00  0.00     0.039 A 
ENDBRANCH   2   3
ENDBRANCH   1   2
BRANCH   1  15
ATOM     15  C10 <0> d   1      17.057   4.580  11.699  0.00  0.00     0.027 C 
BRANCH  15  16
ATOM     16  C11 <0> d   1      17.602   4.932  13.086  0.00  0.00     0.010 C 
BRANCH  16  17
ATOM     17  C12 <0> d   1      17.619   3.676  13.960  0.00  0.00     0.082 C 
BRANCH  17  18
ATOM     18  C13 <0> d   1      18.675   3.822  15.026  0.00  0.00     0.148 A 
ATOM     19  N17 <0> d   1      19.075   2.875  15.895  0.00  0.00    -0.230 N 
ATOM     20  N16 <0> d   1      19.994   3.400  16.633  0.00  0.00    -0.044 NA
ATOM     21  N15 <0> d   1      20.172   4.622  16.268  0.00  0.00    -0.023 NA
ATOM     22  N14 <0> d   1      19.377   4.896  15.291  0.00  0.00    -0.114 NA
BRANCH  19  23
ATOM     23  C18 <0> d   1      18.569   1.503  15.981  0.00  0.00     0.113 C 
ATOM     24  C23 <0> d   1      18.926   0.912  17.346  0.00  0.00     0.027 C 
ATOM     25  C22 <0> d   1      18.398  -0.522  17.436  0.00  0.00     0.002 C 
ATOM     26  C21 <0> d   1      19.034  -1.369  16.330  0.00  0.00     0.000 C 
ATOM     27  C20 <0> d   1      18.676  -0.778  14.966  0.00  0.00     0.002 C 
ATOM     28  C19 <0> d   1      19.204   0.655  14.876  0.00  0.00     0.027 C 
ENDBRANCH  19  23
ENDBRANCH  17  18
ENDBRANCH  16  17
ENDBRANCH  15  16
ENDBRANCH   1  15
TORSDOF 7
ENDMDL
MODEL 6
REMARK VINA RESULT:      -8.7      1.593      2.252
REMARK  7 active torsions:
REMARK  status: ('A' for Active; 'I' for Inactive)
REMARK    1  A    between atoms: C7_7  and  O8_8 
REMARK    2  A    between atoms: O8_8  and  C9_9 
REMARK    3  A    between atoms: C9_9  and  C10_10 
REMARK    4  A    between atoms: C10_10  and  C11_11 
REMARK    5  A    between atoms: C11_11  and  C12_12 
REMARK    6  A    between atoms: C12_12  and  C13_13 
REMARK    7  A    between atoms: N17_17  and  C18_18 
ROOT
ATOM      1  C9  <0> d   1      17.917   3.379  10.077  0.00  0.00     0.175 C 
ENDROOT
BRANCH   1   2
ATOM      2  O8  <0> d   1      19.200   2.895   9.674  0.00  0.00    -0.351 OA
BRANCH   2   3
ATOM      3  C7  <0> d   1      19.232   1.705   9.018  0.00  0.00     0.069 A 
ATOM      4  C6  <0> d   1      18.878   1.642   7.678  0.00  0.00     0.046 A 
ATOM      5  C5  <0> d   1      18.910   0.433   7.012  0.00  0.00    -0.028 A 
ATOM      6  C4  <0> d   1      18.525   0.360   5.557  0.00  0.00     0.050 C 
ATOM      7  C26 <0> d   1      19.297  -0.719   7.683  0.00  0.00     0.041 A 
ATOM      8  C3  <0> d   1      19.368  -0.706   4.858  0.00  0.00     0.108 C 
ATOM      9  C2  <0> d   1      19.352  -1.979   5.661  0.00  0.00     0.222 C 
ATOM     10  O1  <0> d   1      19.362  -3.049   5.088  0.00  0.00    -0.273 OA
ATOM     11  N27 <0> d   1      19.321  -1.945   7.005  0.00  0.00    -0.327 N 
ATOM     12  H54 <0> d   1      19.319  -2.775   7.509  0.00  0.00     0.169 HD
ATOM     13  C25 <0> d   1      19.651  -0.656   9.023  0.00  0.00     0.033 A 
ATOM     14  C24 <0> d   1      19.619   0.554   9.689  0.00  0.00     0.039 A 
ENDBRANCH   2   3
ENDBRANCH   1   2
BRANCH   1  15
ATOM     15  C10 <0> d   1      18.052   4.144  11.395  0.00  0.00     0.027 C 
BRANCH  15  16
ATOM     16  C11 <0> d   1      17.811   3.189  12.566  0.00  0.00     0.010 C 
BRANCH  16  17
ATOM     17  C12 <0> d   1      19.153   2.794  13.186  0.00  0.00     0.082 C 
BRANCH  17  18
ATOM     18  C13 <0> d   1      18.913   1.911  14.384  0.00  0.00     0.148 A 
ATOM     19  N17 <0> d   1      18.721   0.578  14.374  0.00  0.00    -0.230 N 
ATOM     20  N16 <0> d   1      18.555   0.210  15.599  0.00  0.00    -0.044 NA
ATOM     21  N15 <0> d   1      18.627   1.247  16.358  0.00  0.00    -0.023 NA
ATOM     22  N14 <0> d   1      18.844   2.291  15.635  0.00  0.00    -0.114 NA
BRANCH  19  23
ATOM     23  C18 <0> d   1      18.711  -0.290  13.194  0.00  0.00     0.113 C 
ATOM     24  C23 <0> d   1      17.266  -0.523  12.746  0.00  0.00     0.027 C 
ATOM     25  C22 <0> d   1      17.255  -1.432  11.513  0.00  0.00     0.002 C 
ATOM     26  C21 <0> d   1      17.905  -2.773  11.863  0.00  0.00     0.000 C 
ATOM     27  C20 <0> d   1      19.348  -2.539  12.312  0.00  0.00     0.002 C 
ATOM     28  C19 <0> d   1      19.359  -1.632  13.543  0.00  0.00     0.027 C 
ENDBRANCH  19  23
ENDBRANCH  17  18
ENDBRANCH  16  17
ENDBRANCH  15  16
ENDBRANCH   1  15
TORSDOF 7
ENDMDL
MODEL 7
REMARK VINA RESULT:      -8.7      2.417      8.036
REMARK  7 active torsions:
REMARK  status: ('A' for Active; 'I' for Inactive)
REMARK    1  A    between atoms: C7_7  and  O8_8 
REMARK    2  A    between atoms: O8_8  and  C9_9 
REMARK    3  A    between atoms: C9_9  and  C10_10 
REMARK    4  A    between atoms: C10_10  and  C11_11 
REMARK    5  A    between atoms: C11_11  and  C12_12 
REMARK    6  A    between atoms: C12_12  and  C13_13 
REMARK    7  A    between atoms: N17_17  and  C18_18 
ROOT
ATOM      1  C9  <0> d   1      17.846   1.337  10.391  0.00  0.00     0.175 C 
ENDROOT
BRANCH   1   2
ATOM      2  O8  <0> d   1      17.243   2.188  11.369  0.00  0.00    -0.351 OA
BRANCH   2   3
ATOM      3  C7  <0> d   1      17.680   2.061  12.649  0.00  0.00     0.069 A 
ATOM      4  C6  <0> d   1      17.525   0.856  13.319  0.00  0.00     0.046 A 
ATOM      5  C5  <0> d   1      17.969   0.727  14.620  0.00  0.00    -0.028 A 
ATOM      6  C4  <0> d   1      17.801  -0.580  15.351  0.00  0.00     0.050 C 
ATOM      7  C26 <0> d   1      18.570   1.804  15.259  0.00  0.00     0.041 A 
ATOM      8  C3  <0> d   1      18.984  -0.792  16.297  0.00  0.00     0.108 C 
ATOM      9  C2  <0> d   1      19.216   0.453  17.112  0.00  0.00     0.222 C 
ATOM     10  O1  <0> d   1      19.589   0.354  18.262  0.00  0.00    -0.273 OA
ATOM     11  N27 <0> d   1      19.011   1.672  16.581  0.00  0.00    -0.327 N 
ATOM     12  H54 <0> d   1      19.173   2.464  17.117  0.00  0.00     0.169 HD
ATOM     13  C25 <0> d   1      18.724   3.010  14.588  0.00  0.00     0.033 A 
ATOM     14  C24 <0> d   1      18.281   3.137  13.287  0.00  0.00     0.039 A 
ENDBRANCH   2   3
ENDBRANCH   1   2
BRANCH   1  15
ATOM     15  C10 <0> d   1      18.976   2.090   9.687  0.00  0.00     0.027 C 
BRANCH  15  16
ATOM     16  C11 <0> d   1      19.236   1.456   8.318  0.00  0.00     0.010 C 
BRANCH  16  17
ATOM     17  C12 <0> d   1      18.104   0.483   7.984  0.00  0.00     0.082 C 
BRANCH  17  18
ATOM     18  C13 <0> d   1      18.687  -0.803   7.456  0.00  0.00     0.148 A 
ATOM     19  N17 <0> d   1      18.735  -1.986   8.098  0.00  0.00    -0.230 N 
ATOM     20  N16 <0> d   1      19.308  -2.826   7.303  0.00  0.00    -0.044 NA
ATOM     21  N15 <0> d   1      19.620  -2.218   6.211  0.00  0.00    -0.023 NA
ATOM     22  N14 <0> d   1      19.249  -0.986   6.287  0.00  0.00    -0.114 NA
BRANCH  19  23
ATOM     23  C18 <0> d   1      18.226  -2.268   9.442  0.00  0.00     0.113 C 
ATOM     24  C23 <0> d   1      19.345  -2.058  10.465  0.00  0.00     0.027 C 
ATOM     25  C22 <0> d   1      18.813  -2.353  11.870  0.00  0.00     0.002 C 
ATOM     26  C21 <0> d   1      18.326  -3.803  11.936  0.00  0.00     0.000 C 
ATOM     27  C20 <0> d   1      17.208  -4.012  10.913  0.00  0.00     0.002 C 
ATOM     28  C19 <0> d   1      17.739  -3.717   9.510  0.00  0.00     0.027 C 
ENDBRANCH  19  23
ENDBRANCH  17  18
ENDBRANCH  16  17
ENDBRANCH  15  16
ENDBRANCH   1  15
TORSDOF 7
ENDMDL
MODEL 8
REMARK VINA RESULT:      -8.6      1.678      3.938
REMARK  7 active torsions:
REMARK  status: ('A' for Active; 'I' for Inactive)
REMARK    1  A    between atoms: C7_7  and  O8_8 
REMARK    2  A    between atoms: O8_8  and  C9_9 
REMARK    3  A    between atoms: C9_9  and  C10_10 
REMARK    4  A    between atoms: C10_10  and  C11_11 
REMARK    5  A    between atoms: C11_11  and  C12_12 
REMARK    6  A    between atoms: C12_12  and  C13_13 
REMARK    7  A    between atoms: N17_17  and  C18_18 
ROOT
ATOM      1  C9  <0> d   1      17.565  -0.212  12.512  0.00  0.00     0.175 C 
ENDROOT
BRANCH   1   2
ATOM      2  O8  <0> d   1      17.068  -1.314  11.750  0.00  0.00    -0.351 OA
BRANCH   2   3
ATOM      3  C7  <0> d   1      17.572  -1.475  10.498  0.00  0.00     0.069 A 
ATOM      4  C6  <0> d   1      17.434  -0.462   9.560  0.00  0.00     0.046 A 
ATOM      5  C5  <0> d   1      17.946  -0.626   8.288  0.00  0.00    -0.028 A 
ATOM      6  C4  <0> d   1      17.798   0.472   7.265  0.00  0.00     0.050 C 
ATOM      7  C26 <0> d   1      18.598  -1.804   7.947  0.00  0.00     0.041 A 
ATOM      8  C3  <0> d   1      19.026   0.492   6.356  0.00  0.00     0.108 C 
ATOM      9  C2  <0> d   1      19.323  -0.900   5.865  0.00  0.00     0.222 C 
ATOM     10  O1  <0> d   1      19.756  -1.060   4.743  0.00  0.00    -0.273 OA
ATOM     11  N27 <0> d   1      19.109  -1.968   6.654  0.00  0.00    -0.327 N 
ATOM     12  H54 <0> d   1      19.312  -2.859   6.325  0.00  0.00     0.169 HD
ATOM     13  C25 <0> d   1      18.735  -2.817   8.886  0.00  0.00     0.033 A 
ATOM     14  C24 <0> d   1      18.223  -2.652  10.159  0.00  0.00     0.039 A 
ENDBRANCH   2   3
ENDBRANCH   1   2
BRANCH   1  15
ATOM     15  C10 <0> d   1      18.882  -0.608  13.181  0.00  0.00     0.027 C 
BRANCH  15  16
ATOM     16  C11 <0> d   1      18.904  -0.078  14.617  0.00  0.00     0.010 C 
BRANCH  16  17
ATOM     17  C12 <0> d   1      17.822   0.990  14.783  0.00  0.00     0.082 C 
BRANCH  17  18
ATOM     18  C13 <0> d   1      18.472   2.331  15.014  0.00  0.00     0.148 A 
ATOM     19  N17 <0> d   1      18.493   3.371  14.160  0.00  0.00    -0.230 N 
ATOM     20  N16 <0> d   1      19.144   4.324  14.738  0.00  0.00    -0.044 NA
ATOM     21  N15 <0> d   1      19.530   3.918  15.898  0.00  0.00    -0.023 NA
ATOM     22  N14 <0> d   1      19.130   2.708  16.083  0.00  0.00    -0.114 NA
BRANCH  19  23
ATOM     23  C18 <0> d   1      17.883   3.417  12.829  0.00  0.00     0.113 C 
ATOM     24  C23 <0> d   1      18.946   3.112  11.771  0.00  0.00     0.027 C 
ATOM     25  C22 <0> d   1      18.309   3.160  10.380  0.00  0.00     0.002 C 
ATOM     26  C21 <0> d   1      17.728   4.554  10.133  0.00  0.00     0.000 C 
ATOM     27  C20 <0> d   1      16.666   4.858  11.191  0.00  0.00     0.002 C 
ATOM     28  C19 <0> d   1      17.302   4.811  12.581  0.00  0.00     0.027 C 
ENDBRANCH  19  23
ENDBRANCH  17  18
ENDBRANCH  16  17
ENDBRANCH  15  16
ENDBRANCH   1  15
TORSDOF 7
ENDMDL
MODEL 9
REMARK VINA RESULT:      -8.6      3.082      7.925
REMARK  7 active torsions:
REMARK  status: ('A' for Active; 'I' for Inactive)
REMARK    1  A    between atoms: C7_7  and  O8_8 
REMARK    2  A    between atoms: O8_8  and  C9_9 
REMARK    3  A    between atoms: C9_9  and  C10_10 
REMARK    4  A    between atoms: C10_10  and  C11_11 
REMARK    5  A    between atoms: C11_11  and  C12_12 
REMARK    6  A    between atoms: C12_12  and  C13_13 
REMARK    7  A    between atoms: N17_17  and  C18_18 
ROOT
ATOM      1  C9  <0> d   1      18.424  -1.334   6.988  0.00  0.00     0.175 C 
ENDROOT
BRANCH   1   2
ATOM      2  O8  <0> d   1      19.254  -0.178   7.121  0.00  0.00    -0.351 OA
BRANCH   2   3
ATOM      3  C7  <0> d   1      19.297   0.413   8.344  0.00  0.00     0.069 A 
ATOM      4  C6  <0> d   1      18.719   1.661   8.531  0.00  0.00     0.046 A 
ATOM      5  C5  <0> d   1      18.763   2.261   9.773  0.00  0.00    -0.028 A 
ATOM      6  C4  <0> d   1      18.137   3.617   9.981  0.00  0.00     0.050 C 
ATOM      7  C26 <0> d   1      19.384   1.618  10.835  0.00  0.00     0.041 A 
ATOM      8  C3  <0> d   1      17.561   3.703  11.394  0.00  0.00     0.108 C 
ATOM      9  C2  <0> d   1      18.584   3.233  12.394  0.00  0.00     0.222 C 
ATOM     10  O1  <0> d   1      18.645   3.763  13.483  0.00  0.00    -0.273 OA
ATOM     11  N27 <0> d   1      19.433   2.234  12.091  0.00  0.00    -0.327 N 
ATOM     12  H54 <0> d   1      20.081   1.937  12.750  0.00  0.00     0.169 HD
ATOM     13  C25 <0> d   1      19.962   0.370  10.647  0.00  0.00     0.033 A 
ATOM     14  C24 <0> d   1      19.918  -0.231   9.404  0.00  0.00     0.039 A 
ENDBRANCH   2   3
ENDBRANCH   1   2
BRANCH   1  15
ATOM     15  C10 <0> d   1      18.465  -1.826   5.540  0.00  0.00     0.027 C 
BRANCH  15  16
ATOM     16  C11 <0> d   1      18.786  -3.323   5.519  0.00  0.00     0.010 C 
BRANCH  16  17
ATOM     17  C12 <0> d   1      19.802  -3.641   6.618  0.00  0.00     0.082 C 
BRANCH  17  18
ATOM     18  C13 <0> d   1      19.378  -4.890   7.347  0.00  0.00     0.148 A 
ATOM     19  N17 <0> d   1      19.063  -4.990   8.652  0.00  0.00    -0.230 N 
ATOM     20  N16 <0> d   1      18.754  -6.223   8.875  0.00  0.00    -0.044 NA
ATOM     21  N15 <0> d   1      18.871  -6.885   7.777  0.00  0.00    -0.023 NA
ATOM     22  N14 <0> d   1      19.251  -6.090   6.837  0.00  0.00    -0.114 NA
BRANCH  19  23
ATOM     23  C18 <0> d   1      19.062  -3.902   9.633  0.00  0.00     0.113 C 
ATOM     24  C23 <0> d   1      19.946  -4.287  10.822  0.00  0.00     0.027 C 
ATOM     25  C22 <0> d   1      19.945  -3.151  11.847  0.00  0.00     0.002 C 
ATOM     26  C21 <0> d   1      18.514  -2.904  12.333  0.00  0.00     0.000 C 
ATOM     27  C20 <0> d   1      17.632  -2.519  11.144  0.00  0.00     0.002 C 
ATOM     28  C19 <0> d   1      17.633  -3.655  10.120  0.00  0.00     0.027 C 
ENDBRANCH  19  23
ENDBRANCH  17  18
ENDBRANCH  16  17
ENDBRANCH  15  16
ENDBRANCH   1  15
TORSDOF 7
ENDMDL
