MODEL 1
REMARK VINA RESULT:      -3.4      0.000      0.000
REMARK  2 active torsions:
REMARK  status: ('A' for Active; 'I' for Inactive)
REMARK    1  A    between atoms: C2_2  and  P4_4 
REMARK    2  A    between atoms: P4_4  and  O7_7 
ROOT
ATOM      1  P4  <0> d   1      18.578  -0.190   6.588  0.00  0.00     0.351 P 
ATOM      2  O5  <0> d   1      19.367  -1.121   7.536  0.00  0.00    -0.639 OA
ATOM      3  O6  <0> d   1      18.910   1.282   6.916  0.00  0.00    -0.639 OA
ENDROOT
BRANCH   1   4
ATOM      4  C2  <0> d   1      19.040  -0.546   4.870  0.00  0.00     0.297 C 
ATOM      5  O1  <0> d   1      19.966  -1.303   4.632  0.00  0.00    -0.638 OA
ATOM      6  O3  <0> d   1      18.422  -0.032   3.953  0.00  0.00    -0.638 OA
ENDBRANCH   1   4
BRANCH   1   7
ATOM      7  O7  <0> d   1      16.999  -0.441   6.781  0.00  0.00    -0.315 OA
ATOM      8  H8  <0> d   1      16.664  -1.218   6.313  0.00  0.00     0.221 HD
ENDBRANCH   1   7
TORSDOF 2
ENDMDL
MODEL 2
REMARK VINA RESULT:      -3.4      1.969      2.429
REMARK  2 active torsions:
REMARK  status: ('A' for Active; 'I' for Inactive)
REMARK    1  A    between atoms: C2_2  and  P4_4 
REMARK    2  A    between atoms: P4_4  and  O7_7 
ROOT
ATOM      1  P4  <0> d   1      19.168  -2.548   6.499  0.00  0.00     0.351 P 
ATOM      2  O5  <0> d   1      20.328  -3.559   6.354  0.00  0.00    -0.639 OA
ATOM      3  O6  <0> d   1      19.449  -1.608   7.692  0.00  0.00    -0.639 OA
ENDROOT
BRANCH   1   4
ATOM      4  C2  <0> d   1      19.028  -1.569   4.978  0.00  0.00     0.297 C 
ATOM      5  O1  <0> d   1      17.970  -1.527   4.374  0.00  0.00    -0.638 OA
ATOM      6  O3  <0> d   1      19.991  -0.946   4.563  0.00  0.00    -0.638 OA
ENDBRANCH   1   4
BRANCH   1   7
ATOM      7  O7  <0> d   1      17.792  -3.343   6.753  0.00  0.00    -0.315 OA
ATOM      8  H8  <0> d   1      17.904  -4.186   7.213  0.00  0.00     0.221 HD
ENDBRANCH   1   7
TORSDOF 2
ENDMDL
MODEL 3
REMARK VINA RESULT:      -3.4      1.945      3.021
REMARK  2 active torsions:
REMARK  status: ('A' for Active; 'I' for Inactive)
REMARK    1  A    between atoms: C2_2  and  P4_4 
REMARK    2  A    between atoms: P4_4  and  O7_7 
ROOT
ATOM      1  P4  <0> d   1      18.930  -1.288   5.730  0.00  0.00     0.351 P 
ATOM      2  O5  <0> d   1      19.054   0.020   6.543  0.00  0.00    -0.639 OA
ATOM      3  O6  <0> d   1      19.821  -1.199   4.472  0.00  0.00    -0.639 OA
ENDROOT
BRANCH   1   4
ATOM      4  C2  <0> d   1      19.467  -2.687   6.753  0.00  0.00     0.297 C 
ATOM      5  O1  <0> d   1      19.054  -2.803   7.894  0.00  0.00    -0.638 OA
ATOM      6  O3  <0> d   1      20.237  -3.515   6.297  0.00  0.00    -0.638 OA
ENDBRANCH   1   4
BRANCH   1   7
ATOM      7  O7  <0> d   1      17.397  -1.503   5.290  0.00  0.00    -0.315 OA
ATOM      8  H8  <0> d   1      17.279  -2.149   4.579  0.00  0.00     0.221 HD
ENDBRANCH   1   7
TORSDOF 2
ENDMDL
MODEL 4
REMARK VINA RESULT:      -3.4     10.503     11.432
REMARK  2 active torsions:
REMARK  status: ('A' for Active; 'I' for Inactive)
REMARK    1  A    between atoms: C2_2  and  P4_4 
REMARK    2  A    between atoms: P4_4  and  O7_7 
ROOT
ATOM      1  P4  <0> d   1      18.904   1.330  17.317  0.00  0.00     0.351 P 
ATOM      2  O5  <0> d   1      18.991   0.094  16.394  0.00  0.00    -0.639 OA
ATOM      3  O6  <0> d   1      19.869   1.152  18.509  0.00  0.00    -0.639 OA
ENDROOT
BRANCH   1   4
ATOM      4  C2  <0> d   1      19.365   2.815  16.383  0.00  0.00     0.297 C 
ATOM      5  O1  <0> d   1      20.182   3.595  16.841  0.00  0.00    -0.638 OA
ATOM      6  O3  <0> d   1      18.862   3.031  15.293  0.00  0.00    -0.638 OA
ENDBRANCH   1   4
BRANCH   1   7
ATOM      7  O7  <0> d   1      17.398   1.487  17.864  0.00  0.00    -0.315 OA
ATOM      8  H8  <0> d   1      17.150   0.829  18.528  0.00  0.00     0.221 HD
ENDBRANCH   1   7
TORSDOF 2
ENDMDL
MODEL 5
REMARK VINA RESULT:      -3.4     10.278     11.484
REMARK  2 active torsions:
REMARK  status: ('A' for Active; 'I' for Inactive)
REMARK    1  A    between atoms: C2_2  and  P4_4 
REMARK    2  A    between atoms: P4_4  and  O7_7 
ROOT
ATOM      1  P4  <0> d   1      18.676   0.797  16.251  0.00  0.00     0.351 P 
ATOM      2  O5  <0> d   1      19.140   2.144  15.654  0.00  0.00    -0.639 OA
ATOM      3  O6  <0> d   1      19.212  -0.363  15.383  0.00  0.00    -0.639 OA
ENDROOT
BRANCH   1   4
ATOM      4  C2  <0> d   1      19.317   0.633  17.940  0.00  0.00     0.297 C 
ATOM      5  O1  <0> d   1      19.805   1.597  18.504  0.00  0.00    -0.638 OA
ATOM      6  O3  <0> d   1      19.254  -0.442  18.515  0.00  0.00    -0.638 OA
ENDBRANCH   1   4
BRANCH   1   7
ATOM      7  O7  <0> d   1      17.068   0.747  16.280  0.00  0.00    -0.315 OA
ATOM      8  H8  <0> d   1      16.660   0.688  15.405  0.00  0.00     0.221 HD
ENDBRANCH   1   7
TORSDOF 2
ENDMDL
MODEL 6
REMARK VINA RESULT:      -3.3      6.492      7.866
REMARK  2 active torsions:
REMARK  status: ('A' for Active; 'I' for Inactive)
REMARK    1  A    between atoms: C2_2  and  P4_4 
REMARK    2  A    between atoms: P4_4  and  O7_7 
ROOT
ATOM      1  P4  <0> d   1      20.174   0.627  12.285  0.00  0.00     0.351 P 
ATOM      2  O5  <0> d   1      19.552  -0.405  11.318  0.00  0.00    -0.639 OA
ATOM      3  O6  <0> d   1      19.634   2.035  11.955  0.00  0.00    -0.639 OA
ENDROOT
BRANCH   1   4
ATOM      4  C2  <0> d   1      19.735   0.196  13.992  0.00  0.00     0.297 C 
ATOM      5  O1  <0> d   1      19.492   1.076  14.800  0.00  0.00    -0.638 OA
ATOM      6  O3  <0> d   1      19.678  -0.974  14.330  0.00  0.00    -0.638 OA
ENDBRANCH   1   4
BRANCH   1   7
ATOM      7  O7  <0> d   1      21.776   0.616  12.125  0.00  0.00    -0.315 OA
ATOM      8  H8  <0> d   1      22.101   1.137  11.378  0.00  0.00     0.221 HD
ENDBRANCH   1   7
TORSDOF 2
ENDMDL
MODEL 7
REMARK VINA RESULT:      -3.3      5.550      6.897
REMARK  2 active torsions:
REMARK  status: ('A' for Active; 'I' for Inactive)
REMARK    1  A    between atoms: C2_2  and  P4_4 
REMARK    2  A    between atoms: P4_4  and  O7_7 
ROOT
ATOM      1  P4  <0> d   1      18.111   3.135  10.657  0.00  0.00     0.351 P 
ATOM      2  O5  <0> d   1      17.194   1.972  11.099  0.00  0.00    -0.639 OA
ATOM      3  O6  <0> d   1      18.689   2.832   9.257  0.00  0.00    -0.639 OA
ENDROOT
BRANCH   1   4
ATOM      4  C2  <0> d   1      17.148   4.671  10.593  0.00  0.00     0.297 C 
ATOM      5  O1  <0> d   1      17.473   5.564   9.829  0.00  0.00    -0.638 OA
ATOM      6  O3  <0> d   1      16.172   4.810  11.312  0.00  0.00    -0.638 OA
ENDBRANCH   1   4
BRANCH   1   7
ATOM      7  O7  <0> d   1      19.316   3.300  11.711  0.00  0.00    -0.315 OA
ATOM      8  H8  <0> d   1      20.180   3.446  11.301  0.00  0.00     0.221 HD
ENDBRANCH   1   7
TORSDOF 2
ENDMDL
MODEL 8
REMARK VINA RESULT:      -3.3      5.887      6.930
REMARK  2 active torsions:
REMARK  status: ('A' for Active; 'I' for Inactive)
REMARK    1  A    between atoms: C2_2  and  P4_4 
REMARK    2  A    between atoms: P4_4  and  O7_7 
ROOT
ATOM      1  P4  <0> d   1      20.128   0.816  12.255  0.00  0.00     0.351 P 
ATOM      2  O5  <0> d   1      19.716   0.777  13.744  0.00  0.00    -0.639 OA
ATOM      3  O6  <0> d   1      19.403  -0.312  11.489  0.00  0.00    -0.639 OA
ENDROOT
BRANCH   1   4
ATOM      4  C2  <0> d   1      19.668   2.421  11.544  0.00  0.00     0.297 C 
ATOM      5  O1  <0> d   1      19.590   3.405  12.259  0.00  0.00    -0.638 OA
ATOM      6  O3  <0> d   1      19.442   2.516  10.349  0.00  0.00    -0.638 OA
ENDBRANCH   1   4
BRANCH   1   7
ATOM      7  O7  <0> d   1      21.720   0.613  12.132  0.00  0.00    -0.315 OA
ATOM      8  H8  <0> d   1      22.107   1.007  11.339  0.00  0.00     0.221 HD
ENDBRANCH   1   7
TORSDOF 2
ENDMDL
MODEL 9
REMARK VINA RESULT:      -3.2      2.159      2.959
REMARK  2 active torsions:
REMARK  status: ('A' for Active; 'I' for Inactive)
REMARK    1  A    between atoms: C2_2  and  P4_4 
REMARK    2  A    between atoms: P4_4  and  O7_7 
ROOT
ATOM      1  P4  <0> d   1      19.317  -2.859   6.704  0.00  0.00     0.351 P 
ATOM      2  O5  <0> d   1      18.068  -3.703   7.045  0.00  0.00    -0.639 OA
ATOM      3  O6  <0> d   1      20.511  -3.797   6.418  0.00  0.00    -0.639 OA
ENDROOT
BRANCH   1   4
ATOM      4  C2  <0> d   1      18.980  -1.846   5.238  0.00  0.00     0.297 C 
ATOM      5  O1  <0> d   1      19.898  -1.308   4.643  0.00  0.00    -0.638 OA
ATOM      6  O3  <0> d   1      17.834  -1.708   4.843  0.00  0.00    -0.638 OA
ENDBRANCH   1   4
BRANCH   1   7
ATOM      7  O7  <0> d   1      19.674  -1.901   7.948  0.00  0.00    -0.315 OA
ATOM      8  H8  <0> d   1      19.867  -0.987   7.697  0.00  0.00     0.221 HD
ENDBRANCH   1   7
TORSDOF 2
ENDMDL
