MODEL 1
REMARK VINA RESULT:      -6.9      0.000      0.000
REMARK  20 active torsions:
REMARK  status: ('A' for Active; 'I' for Inactive)
REMARK    1  A    between atoms: C2_2  and  O3_3 
REMARK    2  A    between atoms: O3_3  and  C4_4 
REMARK    3  A    between atoms: C7_7  and  C8_8 
REMARK    4  A    between atoms: C8_8  and  C9_9 
REMARK    5  A    between atoms: C9_9  and  C11_10 
REMARK    6  A    between atoms: C9_9  and  N29_28 
REMARK    7  A    between atoms: C11_10  and  N12_11 
REMARK    8  A    between atoms: N12_11  and  C14_13 
REMARK    9  A    between atoms: N12_11  and  C25_24 
REMARK   10  A    between atoms: C14_13  and  C15_14 
REMARK   11  A    between atoms: C15_14  and  N16_15 
REMARK   12  A    between atoms: N16_15  and  C17_16 
REMARK   13  A    between atoms: N16_15  and  C21_20 
REMARK   14  A    between atoms: C17_16  and  C18_17 
REMARK   15  A    between atoms: C21_20  and  C22_21 
REMARK   16  A    between atoms: C25_24  and  C26_25 
REMARK   17  A    between atoms: N29_28  and  C30_29 
REMARK   18  A    between atoms: N29_28  and  C34_33 
REMARK   19  A    between atoms: C30_29  and  C31_30 
REMARK   20  A    between atoms: C34_33  and  C35_34 
ROOT
ATOM      1  C9  ZIN A   1      18.784   1.192   9.331  0.00  0.00     0.254 C 
ENDROOT
BRANCH   1   2
ATOM      2  C8  ZIN A   1      19.239   1.787   7.997  0.00  0.00     0.076 C 
BRANCH   2   3
ATOM      3  C7  ZIN A   1      18.755   0.914   6.866  0.00  0.00    -0.056 A 
ATOM      4  C6  ZIN A   1      17.538   0.266   6.968  0.00  0.00     0.010 A 
ATOM      5  C5  ZIN A   1      17.091  -0.534   5.935  0.00  0.00     0.037 A 
ATOM      6  C4  ZIN A   1      17.865  -0.686   4.793  0.00  0.00     0.068 A 
ATOM      7  C39 ZIN A   1      19.088  -0.039   4.696  0.00  0.00     0.037 A 
ATOM      8  C38 ZIN A   1      19.528   0.764   5.730  0.00  0.00     0.010 A 
BRANCH   6   9
ATOM      9  O3  ZIN A   1      17.428  -1.472   3.774  0.00  0.00    -0.352 OA
BRANCH   9  10
ATOM     10  C2  ZIN A   1      17.082  -2.820   4.099  0.00  0.00     0.171 C 
ATOM     11  C1  ZIN A   1      18.356  -3.653   4.247  0.00  0.00     0.034 C 
ENDBRANCH   9  10
ENDBRANCH   6   9
ENDBRANCH   2   3
ENDBRANCH   1   2
BRANCH   1  12
ATOM     12  C11 ZIN A   1      19.802   0.149   9.796  0.00  0.00     0.271 C 
BRANCH  12  13
ATOM     13  N12 ZIN A   1      19.094  -1.046  10.274  0.00  0.00    -0.058 N 
ATOM     14  H13 ZIN A   1      19.362  -1.238  11.228  0.00  0.00     0.280 HD
BRANCH  13  15
ATOM     15  C14 ZIN A   1      19.444  -2.194   9.427  0.00  0.00     0.265 C 
BRANCH  15  16
ATOM     16  C15 ZIN A   1      19.211  -3.491  10.204  0.00  0.00     0.301 C 
BRANCH  16  17
ATOM     17  N16 ZIN A   1      18.800  -4.552   9.275  0.00  0.00     0.110 N 
BRANCH  17  18
ATOM     18  C17 ZIN A   1      17.348  -4.766   9.329  0.00  0.00     0.385 C 
BRANCH  18  19
ATOM     19  C18 ZIN A   1      16.957  -5.204  10.717  0.00  0.00     0.202 C 
ATOM     20  O19 ZIN A   1      16.390  -4.426  11.466  0.00  0.00    -0.647 OA
ATOM     21  O20 ZIN A   1      17.206  -6.338  11.092  0.00  0.00    -0.647 OA
ENDBRANCH  18  19
ENDBRANCH  17  18
BRANCH  17  22
ATOM     22  C21 ZIN A   1      19.237  -4.252   7.905  0.00  0.00     0.385 C 
BRANCH  22  23
ATOM     23  C22 ZIN A   1      19.975  -5.440   7.342  0.00  0.00     0.202 C 
ATOM     24  O23 ZIN A   1      19.447  -6.140   6.496  0.00  0.00    -0.647 OA
ATOM     25  O24 ZIN A   1      21.100  -5.700   7.733  0.00  0.00    -0.647 OA
ENDBRANCH  22  23
ENDBRANCH  17  22
ENDBRANCH  16  17
ENDBRANCH  15  16
ENDBRANCH  13  15
BRANCH  13  26
ATOM     26  C25 ZIN A   1      17.644  -0.815  10.210  0.00  0.00     0.347 C 
BRANCH  26  27
ATOM     27  C26 ZIN A   1      17.082  -0.757  11.607  0.00  0.00     0.199 C 
ATOM     28  O27 ZIN A   1      17.565  -1.450  12.487  0.00  0.00    -0.647 OA
ATOM     29  O28 ZIN A   1      16.147  -0.017  11.858  0.00  0.00    -0.647 OA
ENDBRANCH  26  27
ENDBRANCH  13  26
ENDBRANCH  12  13
ENDBRANCH   1  12
BRANCH   1  30
ATOM     30  N29 ZIN A   1      18.682   2.260  10.333  0.00  0.00     0.115 N 
BRANCH  30  31
ATOM     31  C30 ZIN A   1      19.847   2.256  11.227  0.00  0.00     0.386 C 
BRANCH  31  32
ATOM     32  C31 ZIN A   1      19.409   1.891  12.623  0.00  0.00     0.202 C 
ATOM     33  O32 ZIN A   1      18.748   2.676  13.279  0.00  0.00    -0.647 OA
ATOM     34  O33 ZIN A   1      19.716   0.809  13.095  0.00  0.00    -0.647 OA
ENDBRANCH  31  32
ENDBRANCH  30  31
BRANCH  30  35
ATOM     35  C34 ZIN A   1      18.516   3.571   9.692  0.00  0.00     0.386 C 
BRANCH  35  36
ATOM     36  C35 ZIN A   1      17.411   4.330  10.381  0.00  0.00     0.202 C 
ATOM     37  O36 ZIN A   1      17.276   5.525  10.180  0.00  0.00    -0.647 OA
ATOM     38  O37 ZIN A   1      16.653   3.751  11.139  0.00  0.00    -0.647 OA
ENDBRANCH  35  36
ENDBRANCH  30  35
ENDBRANCH   1  30
TORSDOF 20
ENDMDL
MODEL 2
REMARK VINA RESULT:      -6.8      2.743      5.913
REMARK  20 active torsions:
REMARK  status: ('A' for Active; 'I' for Inactive)
REMARK    1  A    between atoms: C2_2  and  O3_3 
REMARK    2  A    between atoms: O3_3  and  C4_4 
REMARK    3  A    between atoms: C7_7  and  C8_8 
REMARK    4  A    between atoms: C8_8  and  C9_9 
REMARK    5  A    between atoms: C9_9  and  C11_10 
REMARK    6  A    between atoms: C9_9  and  N29_28 
REMARK    7  A    between atoms: C11_10  and  N12_11 
REMARK    8  A    between atoms: N12_11  and  C14_13 
REMARK    9  A    between atoms: N12_11  and  C25_24 
REMARK   10  A    between atoms: C14_13  and  C15_14 
REMARK   11  A    between atoms: C15_14  and  N16_15 
REMARK   12  A    between atoms: N16_15  and  C17_16 
REMARK   13  A    between atoms: N16_15  and  C21_20 
REMARK   14  A    between atoms: C17_16  and  C18_17 
REMARK   15  A    between atoms: C21_20  and  C22_21 
REMARK   16  A    between atoms: C25_24  and  C26_25 
REMARK   17  A    between atoms: N29_28  and  C30_29 
REMARK   18  A    between atoms: N29_28  and  C34_33 
REMARK   19  A    between atoms: C30_29  and  C31_30 
REMARK   20  A    between atoms: C34_33  and  C35_34 
ROOT
ATOM      1  C9  ZIN A   1      18.636   1.984  10.467  0.00  0.00     0.254 C 
ENDROOT
BRANCH   1   2
ATOM      2  C8  ZIN A   1      19.404   2.045   9.145  0.00  0.00     0.076 C 
BRANCH   2   3
ATOM      3  C7  ZIN A   1      18.688   1.214   8.110  0.00  0.00    -0.056 A 
ATOM      4  C6  ZIN A   1      19.014   1.350   6.773  0.00  0.00     0.010 A 
ATOM      5  C5  ZIN A   1      18.360   0.590   5.821  0.00  0.00     0.037 A 
ATOM      6  C4  ZIN A   1      17.377  -0.308   6.209  0.00  0.00     0.068 A 
ATOM      7  C39 ZIN A   1      17.049  -0.437   7.550  0.00  0.00     0.037 A 
ATOM      8  C38 ZIN A   1      17.709   0.320   8.498  0.00  0.00     0.010 A 
BRANCH   6   9
ATOM      9  O3  ZIN A   1      16.732  -1.056   5.275  0.00  0.00    -0.352 OA
BRANCH   9  10
ATOM     10  C2  ZIN A   1      17.502  -1.502   4.157  0.00  0.00     0.171 C 
ATOM     11  C1  ZIN A   1      17.317  -3.010   3.979  0.00  0.00     0.034 C 
ENDBRANCH   9  10
ENDBRANCH   6   9
ENDBRANCH   2   3
ENDBRANCH   1   2
BRANCH   1  12
ATOM     12  C11 ZIN A   1      19.404   1.113  11.463  0.00  0.00     0.271 C 
BRANCH  12  13
ATOM     13  N12 ZIN A   1      18.457   0.284  12.220  0.00  0.00    -0.058 N 
ATOM     14  H13 ZIN A   1      17.572   0.257  11.736  0.00  0.00     0.280 HD
BRANCH  13  15
ATOM     15  C14 ZIN A   1      18.266   0.857  13.559  0.00  0.00     0.265 C 
BRANCH  15  16
ATOM     16  C15 ZIN A   1      19.429   0.443  14.462  0.00  0.00     0.301 C 
BRANCH  16  17
ATOM     17  N16 ZIN A   1      19.211   0.970  15.815  0.00  0.00     0.110 N 
BRANCH  17  18
ATOM     18  C17 ZIN A   1      18.226   2.060  15.804  0.00  0.00     0.385 C 
BRANCH  18  19
ATOM     19  C18 ZIN A   1      18.860   3.315  16.345  0.00  0.00     0.202 C 
ATOM     20  O19 ZIN A   1      18.175   4.301  16.559  0.00  0.00    -0.647 OA
ATOM     21  O20 ZIN A   1      20.058   3.346  16.570  0.00  0.00    -0.647 OA
ENDBRANCH  18  19
ENDBRANCH  17  18
BRANCH  17  22
ATOM     22  C21 ZIN A   1      18.803  -0.099  16.738  0.00  0.00     0.385 C 
BRANCH  22  23
ATOM     23  C22 ZIN A   1      18.948   0.382  18.159  0.00  0.00     0.202 C 
ATOM     24  O23 ZIN A   1      17.979   0.402  18.897  0.00  0.00    -0.647 OA
ATOM     25  O24 ZIN A   1      20.035   0.751  18.569  0.00  0.00    -0.647 OA
ENDBRANCH  22  23
ENDBRANCH  17  22
ENDBRANCH  16  17
ENDBRANCH  15  16
ENDBRANCH  13  15
BRANCH  13  26
ATOM     26  C25 ZIN A   1      18.989  -1.080  12.343  0.00  0.00     0.347 C 
BRANCH  26  27
ATOM     27  C26 ZIN A   1      18.078  -2.041  11.624  0.00  0.00     0.199 C 
ATOM     28  O27 ZIN A   1      16.872  -1.861  11.635  0.00  0.00    -0.647 OA
ATOM     29  O28 ZIN A   1      18.546  -2.998  11.032  0.00  0.00    -0.647 OA
ENDBRANCH  26  27
ENDBRANCH  13  26
ENDBRANCH  12  13
ENDBRANCH   1  12
BRANCH   1  30
ATOM     30  N29 ZIN A   1      18.490   3.340  11.011  0.00  0.00     0.115 N 
BRANCH  30  31
ATOM     31  C30 ZIN A   1      19.718   3.768  11.693  0.00  0.00     0.386 C 
BRANCH  31  32
ATOM     32  C31 ZIN A   1      19.359   4.560  12.925  0.00  0.00     0.202 C 
ATOM     33  O32 ZIN A   1      18.239   4.475  13.399  0.00  0.00    -0.647 OA
ATOM     34  O33 ZIN A   1      20.188   5.285  13.448  0.00  0.00    -0.647 OA
ENDBRANCH  31  32
ENDBRANCH  30  31
BRANCH  30  35
ATOM     35  C34 ZIN A   1      18.114   4.293   9.958  0.00  0.00     0.386 C 
BRANCH  35  36
ATOM     36  C35 ZIN A   1      17.010   5.187  10.461  0.00  0.00     0.202 C 
ATOM     37  O36 ZIN A   1      17.081   6.394  10.298  0.00  0.00    -0.647 OA
ATOM     38  O37 ZIN A   1      16.046   4.705  11.030  0.00  0.00    -0.647 OA
ENDBRANCH  35  36
ENDBRANCH  30  35
ENDBRANCH   1  30
TORSDOF 20
ENDMDL
MODEL 3
REMARK VINA RESULT:      -6.8      2.258      8.243
REMARK  20 active torsions:
REMARK  status: ('A' for Active; 'I' for Inactive)
REMARK    1  A    between atoms: C2_2  and  O3_3 
REMARK    2  A    between atoms: O3_3  and  C4_4 
REMARK    3  A    between atoms: C7_7  and  C8_8 
REMARK    4  A    between atoms: C8_8  and  C9_9 
REMARK    5  A    between atoms: C9_9  and  C11_10 
REMARK    6  A    between atoms: C9_9  and  N29_28 
REMARK    7  A    between atoms: C11_10  and  N12_11 
REMARK    8  A    between atoms: N12_11  and  C14_13 
REMARK    9  A    between atoms: N12_11  and  C25_24 
REMARK   10  A    between atoms: C14_13  and  C15_14 
REMARK   11  A    between atoms: C15_14  and  N16_15 
REMARK   12  A    between atoms: N16_15  and  C17_16 
REMARK   13  A    between atoms: N16_15  and  C21_20 
REMARK   14  A    between atoms: C17_16  and  C18_17 
REMARK   15  A    between atoms: C21_20  and  C22_21 
REMARK   16  A    between atoms: C25_24  and  C26_25 
REMARK   17  A    between atoms: N29_28  and  C30_29 
REMARK   18  A    between atoms: N29_28  and  C34_33 
REMARK   19  A    between atoms: C30_29  and  C31_30 
REMARK   20  A    between atoms: C34_33  and  C35_34 
ROOT
ATOM      1  C9  ZIN A   1      18.487  -3.855   8.250  0.00  0.00     0.254 C 
ENDROOT
BRANCH   1   2
ATOM      2  C8  ZIN A   1      19.254  -4.513   9.399  0.00  0.00     0.076 C 
BRANCH   2   3
ATOM      3  C7  ZIN A   1      18.998  -3.754  10.676  0.00  0.00    -0.056 A 
ATOM      4  C6  ZIN A   1      17.719  -3.694  11.197  0.00  0.00     0.010 A 
ATOM      5  C5  ZIN A   1      17.480  -2.998  12.366  0.00  0.00     0.037 A 
ATOM      6  C4  ZIN A   1      18.526  -2.360  13.018  0.00  0.00     0.068 A 
ATOM      7  C39 ZIN A   1      19.807  -2.418  12.490  0.00  0.00     0.037 A 
ATOM      8  C38 ZIN A   1      20.041  -3.119  11.322  0.00  0.00     0.010 A 
BRANCH   6   9
ATOM      9  O3  ZIN A   1      18.294  -1.676  14.169  0.00  0.00    -0.352 OA
BRANCH   9  10
ATOM     10  C2  ZIN A   1      19.434  -1.334  14.960  0.00  0.00     0.171 C 
ATOM     11  C1  ZIN A   1      19.080  -1.457  16.443  0.00  0.00     0.034 C 
ENDBRANCH   9  10
ENDBRANCH   6   9
ENDBRANCH   2   3
ENDBRANCH   1   2
BRANCH   1  12
ATOM     12  C11 ZIN A   1      19.459  -3.055   7.381  0.00  0.00     0.271 C 
BRANCH  12  13
ATOM     13  N12 ZIN A   1      18.958  -1.683   7.223  0.00  0.00    -0.058 N 
ATOM     14  H13 ZIN A   1      19.731  -1.035   7.266  0.00  0.00     0.280 HD
BRANCH  13  15
ATOM     15  C14 ZIN A   1      18.008  -1.382   8.302  0.00  0.00     0.265 C 
BRANCH  15  16
ATOM     16  C15 ZIN A   1      17.409   0.008   8.081  0.00  0.00     0.301 C 
BRANCH  16  17
ATOM     17  N16 ZIN A   1      17.725   0.866   9.231  0.00  0.00     0.110 N 
BRANCH  17  18
ATOM     18  C17 ZIN A   1      17.987   0.062  10.432  0.00  0.00     0.385 C 
BRANCH  18  19
ATOM     19  C18 ZIN A   1      17.009   0.443  11.513  0.00  0.00     0.202 C 
ATOM     20  O19 ZIN A   1      15.849   0.071  11.446  0.00  0.00    -0.647 OA
ATOM     21  O20 ZIN A   1      17.376   1.122  12.457  0.00  0.00    -0.647 OA
ENDBRANCH  18  19
ENDBRANCH  17  18
BRANCH  17  22
ATOM     22  C21 ZIN A   1      18.859   1.752   8.932  0.00  0.00     0.385 C 
BRANCH  22  23
ATOM     23  C22 ZIN A   1      18.857   2.912   9.894  0.00  0.00     0.202 C 
ATOM     24  O23 ZIN A   1      19.724   2.997  10.747  0.00  0.00    -0.647 OA
ATOM     25  O24 ZIN A   1      17.988   3.764   9.820  0.00  0.00    -0.647 OA
ENDBRANCH  22  23
ENDBRANCH  17  22
ENDBRANCH  16  17
ENDBRANCH  15  16
ENDBRANCH  13  15
BRANCH  13  26
ATOM     26  C25 ZIN A   1      18.282  -1.554   5.925  0.00  0.00     0.347 C 
BRANCH  26  27
ATOM     27  C26 ZIN A   1      19.312  -1.455   4.830  0.00  0.00     0.199 C 
ATOM     28  O27 ZIN A   1      19.974  -0.438   4.706  0.00  0.00    -0.647 OA
ATOM     29  O28 ZIN A   1      19.484  -2.391   4.068  0.00  0.00    -0.647 OA
ENDBRANCH  26  27
ENDBRANCH  13  26
ENDBRANCH  12  13
ENDBRANCH   1  12
BRANCH   1  30
ATOM     30  N29 ZIN A   1      17.840  -4.892   7.437  0.00  0.00     0.115 N 
BRANCH  30  31
ATOM     31  C30 ZIN A   1      18.646  -5.209   6.250  0.00  0.00     0.386 C 
BRANCH  31  32
ATOM     32  C31 ZIN A   1      17.734  -5.568   5.105  0.00  0.00     0.202 C 
ATOM     33  O32 ZIN A   1      17.624  -6.731   4.755  0.00  0.00    -0.647 OA
ATOM     34  O33 ZIN A   1      17.107  -4.696   4.528  0.00  0.00    -0.647 OA
ENDBRANCH  31  32
ENDBRANCH  30  31
BRANCH  30  35
ATOM     35  C34 ZIN A   1      17.577  -6.098   8.232  0.00  0.00     0.386 C 
BRANCH  35  36
ATOM     36  C35 ZIN A   1      16.089  -6.285   8.384  0.00  0.00     0.202 C 
ATOM     37  O36 ZIN A   1      15.430  -5.457   8.991  0.00  0.00    -0.647 OA
ATOM     38  O37 ZIN A   1      15.544  -7.262   7.901  0.00  0.00    -0.647 OA
ENDBRANCH  35  36
ENDBRANCH  30  35
ENDBRANCH   1  30
TORSDOF 20
ENDMDL
MODEL 4
REMARK VINA RESULT:      -6.7      1.306      2.409
REMARK  20 active torsions:
REMARK  status: ('A' for Active; 'I' for Inactive)
REMARK    1  A    between atoms: C2_2  and  O3_3 
REMARK    2  A    between atoms: O3_3  and  C4_4 
REMARK    3  A    between atoms: C7_7  and  C8_8 
REMARK    4  A    between atoms: C8_8  and  C9_9 
REMARK    5  A    between atoms: C9_9  and  C11_10 
REMARK    6  A    between atoms: C9_9  and  N29_28 
REMARK    7  A    between atoms: C11_10  and  N12_11 
REMARK    8  A    between atoms: N12_11  and  C14_13 
REMARK    9  A    between atoms: N12_11  and  C25_24 
REMARK   10  A    between atoms: C14_13  and  C15_14 
REMARK   11  A    between atoms: C15_14  and  N16_15 
REMARK   12  A    between atoms: N16_15  and  C17_16 
REMARK   13  A    between atoms: N16_15  and  C21_20 
REMARK   14  A    between atoms: C17_16  and  C18_17 
REMARK   15  A    between atoms: C21_20  and  C22_21 
REMARK   16  A    between atoms: C25_24  and  C26_25 
REMARK   17  A    between atoms: N29_28  and  C30_29 
REMARK   18  A    between atoms: N29_28  and  C34_33 
REMARK   19  A    between atoms: C30_29  and  C31_30 
REMARK   20  A    between atoms: C34_33  and  C35_34 
ROOT
ATOM      1  C9  ZIN A   1      18.875   0.489   9.157  0.00  0.00     0.254 C 
ENDROOT
BRANCH   1   2
ATOM      2  C8  ZIN A   1      18.971   1.307   7.867  0.00  0.00     0.076 C 
BRANCH   2   3
ATOM      3  C7  ZIN A   1      18.515   0.464   6.703  0.00  0.00    -0.056 A 
ATOM      4  C6  ZIN A   1      19.394   0.174   5.676  0.00  0.00     0.010 A 
ATOM      5  C5  ZIN A   1      18.980  -0.598   4.608  0.00  0.00     0.037 A 
ATOM      6  C4  ZIN A   1      17.680  -1.081   4.566  0.00  0.00     0.068 A 
ATOM      7  C39 ZIN A   1      16.799  -0.784   5.595  0.00  0.00     0.037 A 
ATOM      8  C38 ZIN A   1      17.220  -0.016   6.664  0.00  0.00     0.010 A 
BRANCH   6   9
ATOM      9  O3  ZIN A   1      17.269  -1.841   3.517  0.00  0.00    -0.352 OA
BRANCH   9  10
ATOM     10  C2  ZIN A   1      16.635  -3.083   3.825  0.00  0.00     0.171 C 
ATOM     11  C1  ZIN A   1      16.910  -4.088   2.704  0.00  0.00     0.034 C 
ENDBRANCH   9  10
ENDBRANCH   6   9
ENDBRANCH   2   3
ENDBRANCH   1   2
BRANCH   1  12
ATOM     12  C11 ZIN A   1      20.158  -0.324   9.341  0.00  0.00     0.271 C 
BRANCH  12  13
ATOM     13  N12 ZIN A   1      19.826  -1.642   9.898  0.00  0.00    -0.058 N 
ATOM     14  H13 ZIN A   1      20.483  -2.327   9.559  0.00  0.00     0.280 HD
BRANCH  13  15
ATOM     15  C14 ZIN A   1      18.467  -2.019   9.486  0.00  0.00     0.265 C 
BRANCH  15  16
ATOM     16  C15 ZIN A   1      18.541  -2.923   8.254  0.00  0.00     0.301 C 
BRANCH  16  17
ATOM     17  N16 ZIN A   1      18.390  -4.325   8.664  0.00  0.00     0.110 N 
BRANCH  17  18
ATOM     18  C17 ZIN A   1      16.984  -4.642   8.948  0.00  0.00     0.385 C 
BRANCH  18  19
ATOM     19  C18 ZIN A   1      16.873  -5.243  10.325  0.00  0.00     0.202 C 
ATOM     20  O19 ZIN A   1      17.260  -6.382  10.526  0.00  0.00    -0.647 OA
ATOM     21  O20 ZIN A   1      16.398  -4.591  11.240  0.00  0.00    -0.647 OA
ENDBRANCH  18  19
ENDBRANCH  17  18
BRANCH  17  22
ATOM     22  C21 ZIN A   1      18.941  -5.234   7.649  0.00  0.00     0.385 C 
BRANCH  22  23
ATOM     23  C22 ZIN A   1      20.258  -5.784   8.130  0.00  0.00     0.202 C 
ATOM     24  O23 ZIN A   1      20.311  -6.419   9.169  0.00  0.00    -0.647 OA
ATOM     25  O24 ZIN A   1      21.272  -5.594   7.479  0.00  0.00    -0.647 OA
ENDBRANCH  22  23
ENDBRANCH  17  22
ENDBRANCH  16  17
ENDBRANCH  15  16
ENDBRANCH  13  15
BRANCH  13  26
ATOM     26  C25 ZIN A   1      19.893  -1.584  11.365  0.00  0.00     0.347 C 
BRANCH  26  27
ATOM     27  C26 ZIN A   1      19.505  -2.922  11.939  0.00  0.00     0.199 C 
ATOM     28  O27 ZIN A   1      18.557  -3.006  12.702  0.00  0.00    -0.647 OA
ATOM     29  O28 ZIN A   1      20.136  -3.921  11.640  0.00  0.00    -0.647 OA
ENDBRANCH  26  27
ENDBRANCH  13  26
ENDBRANCH  12  13
ENDBRANCH   1  12
BRANCH   1  30
ATOM     30  N29 ZIN A   1      18.700   1.396  10.298  0.00  0.00     0.115 N 
BRANCH  30  31
ATOM     31  C30 ZIN A   1      19.250   2.726  10.003  0.00  0.00     0.386 C 
BRANCH  31  32
ATOM     32  C31 ZIN A   1      19.122   3.604  11.222  0.00  0.00     0.202 C 
ATOM     33  O32 ZIN A   1      19.738   3.332  12.238  0.00  0.00    -0.647 OA
ATOM     34  O33 ZIN A   1      18.401   4.587  11.192  0.00  0.00    -0.647 OA
ENDBRANCH  31  32
ENDBRANCH  30  31
BRANCH  30  35
ATOM     35  C34 ZIN A   1      17.287   1.486  10.689  0.00  0.00     0.386 C 
BRANCH  35  36
ATOM     36  C35 ZIN A   1      17.027   0.562  11.851  0.00  0.00     0.202 C 
ATOM     37  O36 ZIN A   1      16.164  -0.295  11.766  0.00  0.00    -0.647 OA
ATOM     38  O37 ZIN A   1      17.680   0.671  12.875  0.00  0.00    -0.647 OA
ENDBRANCH  35  36
ENDBRANCH  30  35
ENDBRANCH   1  30
TORSDOF 20
ENDMDL
MODEL 5
REMARK VINA RESULT:      -6.6      2.700      7.222
REMARK  20 active torsions:
REMARK  status: ('A' for Active; 'I' for Inactive)
REMARK    1  A    between atoms: C2_2  and  O3_3 
REMARK    2  A    between atoms: O3_3  and  C4_4 
REMARK    3  A    between atoms: C7_7  and  C8_8 
REMARK    4  A    between atoms: C8_8  and  C9_9 
REMARK    5  A    between atoms: C9_9  and  C11_10 
REMARK    6  A    between atoms: C9_9  and  N29_28 
REMARK    7  A    between atoms: C11_10  and  N12_11 
REMARK    8  A    between atoms: N12_11  and  C14_13 
REMARK    9  A    between atoms: N12_11  and  C25_24 
REMARK   10  A    between atoms: C14_13  and  C15_14 
REMARK   11  A    between atoms: C15_14  and  N16_15 
REMARK   12  A    between atoms: N16_15  and  C17_16 
REMARK   13  A    between atoms: N16_15  and  C21_20 
REMARK   14  A    between atoms: C17_16  and  C18_17 
REMARK   15  A    between atoms: C21_20  and  C22_21 
REMARK   16  A    between atoms: C25_24  and  C26_25 
REMARK   17  A    between atoms: N29_28  and  C30_29 
REMARK   18  A    between atoms: N29_28  and  C34_33 
REMARK   19  A    between atoms: C30_29  and  C31_30 
REMARK   20  A    between atoms: C34_33  and  C35_34 
ROOT
ATOM      1  C9  ZIN A   1      17.865   0.179  11.889  0.00  0.00     0.254 C 
ENDROOT
BRANCH   1   2
ATOM      2  C8  ZIN A   1      16.886   0.714  10.841  0.00  0.00     0.076 C 
BRANCH   2   3
ATOM      3  C7  ZIN A   1      17.572   0.782   9.501  0.00  0.00    -0.056 A 
ATOM      4  C6  ZIN A   1      18.497   1.779   9.249  0.00  0.00     0.010 A 
ATOM      5  C5  ZIN A   1      19.127   1.844   8.021  0.00  0.00     0.037 A 
ATOM      6  C4  ZIN A   1      18.832   0.907   7.041  0.00  0.00     0.068 A 
ATOM      7  C39 ZIN A   1      17.900  -0.088   7.295  0.00  0.00     0.037 A 
ATOM      8  C38 ZIN A   1      17.276  -0.152   8.526  0.00  0.00     0.010 A 
BRANCH   6   9
ATOM      9  O3  ZIN A   1      19.450   0.969   5.833  0.00  0.00    -0.352 OA
BRANCH   9  10
ATOM     10  C2  ZIN A   1      19.523  -0.244   5.080  0.00  0.00     0.171 C 
ATOM     11  C1  ZIN A   1      18.420  -0.253   4.020  0.00  0.00     0.034 C 
ENDBRANCH   9  10
ENDBRANCH   6   9
ENDBRANCH   2   3
ENDBRANCH   1   2
BRANCH   1  12
ATOM     12  C11 ZIN A   1      17.141   0.021  13.228  0.00  0.00     0.271 C 
BRANCH  12  13
ATOM     13  N12 ZIN A   1      17.682   0.986  14.193  0.00  0.00    -0.058 N 
ATOM     14  H13 ZIN A   1      16.924   1.413  14.704  0.00  0.00     0.280 HD
BRANCH  13  15
ATOM     15  C14 ZIN A   1      18.437   2.023  13.478  0.00  0.00     0.265 C 
BRANCH  15  16
ATOM     16  C15 ZIN A   1      18.487   3.295  14.327  0.00  0.00     0.301 C 
BRANCH  16  17
ATOM     17  N16 ZIN A   1      18.228   4.463  13.475  0.00  0.00     0.110 N 
BRANCH  17  18
ATOM     18  C17 ZIN A   1      19.114   5.580  13.831  0.00  0.00     0.385 C 
BRANCH  18  19
ATOM     19  C18 ZIN A   1      18.338   6.608  14.611  0.00  0.00     0.202 C 
ATOM     20  O19 ZIN A   1      18.923   7.384  15.348  0.00  0.00    -0.647 OA
ATOM     21  O20 ZIN A   1      17.124   6.666  14.506  0.00  0.00    -0.647 OA
ENDBRANCH  18  19
ENDBRANCH  17  18
BRANCH  17  22
ATOM     22  C21 ZIN A   1      18.359   4.119  12.053  0.00  0.00     0.385 C 
BRANCH  22  23
ATOM     23  C22 ZIN A   1      17.258   4.788  11.271  0.00  0.00     0.202 C 
ATOM     24  O23 ZIN A   1      16.136   4.865  11.742  0.00  0.00    -0.647 OA
ATOM     25  O24 ZIN A   1      17.489   5.250  10.167  0.00  0.00    -0.647 OA
ENDBRANCH  22  23
ENDBRANCH  17  22
ENDBRANCH  16  17
ENDBRANCH  15  16
ENDBRANCH  13  15
BRANCH  13  26
ATOM     26  C25 ZIN A   1      18.575   0.292  15.132  0.00  0.00     0.347 C 
BRANCH  26  27
ATOM     27  C26 ZIN A   1      17.903   0.183  16.477  0.00  0.00     0.199 C 
ATOM     28  O27 ZIN A   1      17.127  -0.731  16.697  0.00  0.00    -0.647 OA
ATOM     29  O28 ZIN A   1      18.137   1.007  17.344  0.00  0.00    -0.647 OA
ENDBRANCH  26  27
ENDBRANCH  13  26
ENDBRANCH  12  13
ENDBRANCH   1  12
BRANCH   1  30
ATOM     30  N29 ZIN A   1      18.383  -1.123  11.453  0.00  0.00     0.115 N 
BRANCH  30  31
ATOM     31  C30 ZIN A   1      19.746  -1.343  11.957  0.00  0.00     0.386 C 
BRANCH  31  32
ATOM     32  C31 ZIN A   1      20.691  -0.378  11.287  0.00  0.00     0.202 C 
ATOM     33  O32 ZIN A   1      20.902  -0.464  10.090  0.00  0.00    -0.647 OA
ATOM     34  O33 ZIN A   1      21.244   0.488  11.943  0.00  0.00    -0.647 OA
ENDBRANCH  31  32
ENDBRANCH  30  31
BRANCH  30  35
ATOM     35  C34 ZIN A   1      17.488  -2.212  11.866  0.00  0.00     0.386 C 
BRANCH  35  36
ATOM     36  C35 ZIN A   1      17.758  -3.432  11.022  0.00  0.00     0.202 C 
ATOM     37  O36 ZIN A   1      18.072  -4.483  11.554  0.00  0.00    -0.647 OA
ATOM     38  O37 ZIN A   1      17.664  -3.367   9.809  0.00  0.00    -0.647 OA
ENDBRANCH  35  36
ENDBRANCH  30  35
ENDBRANCH   1  30
TORSDOF 20
ENDMDL
MODEL 6
REMARK VINA RESULT:      -6.6      3.335      8.044
REMARK  20 active torsions:
REMARK  status: ('A' for Active; 'I' for Inactive)
REMARK    1  A    between atoms: C2_2  and  O3_3 
REMARK    2  A    between atoms: O3_3  and  C4_4 
REMARK    3  A    between atoms: C7_7  and  C8_8 
REMARK    4  A    between atoms: C8_8  and  C9_9 
REMARK    5  A    between atoms: C9_9  and  C11_10 
REMARK    6  A    between atoms: C9_9  and  N29_28 
REMARK    7  A    between atoms: C11_10  and  N12_11 
REMARK    8  A    between atoms: N12_11  and  C14_13 
REMARK    9  A    between atoms: N12_11  and  C25_24 
REMARK   10  A    between atoms: C14_13  and  C15_14 
REMARK   11  A    between atoms: C15_14  and  N16_15 
REMARK   12  A    between atoms: N16_15  and  C17_16 
REMARK   13  A    between atoms: N16_15  and  C21_20 
REMARK   14  A    between atoms: C17_16  and  C18_17 
REMARK   15  A    between atoms: C21_20  and  C22_21 
REMARK   16  A    between atoms: C25_24  and  C26_25 
REMARK   17  A    between atoms: N29_28  and  C30_29 
REMARK   18  A    between atoms: N29_28  and  C34_33 
REMARK   19  A    between atoms: C30_29  and  C31_30 
REMARK   20  A    between atoms: C34_33  and  C35_34 
ROOT
ATOM      1  C9  ZIN A   1      18.402   1.428  11.932  0.00  0.00     0.254 C 
ENDROOT
BRANCH   1   2
ATOM      2  C8  ZIN A   1      17.305   0.888  11.013  0.00  0.00     0.076 C 
BRANCH   2   3
ATOM      3  C7  ZIN A   1      17.818   0.832   9.596  0.00  0.00    -0.056 A 
ATOM      4  C6  ZIN A   1      18.855   1.659   9.206  0.00  0.00     0.010 A 
ATOM      5  C5  ZIN A   1      19.328   1.610   7.908  0.00  0.00     0.037 A 
ATOM      6  C4  ZIN A   1      18.761   0.729   6.998  0.00  0.00     0.068 A 
ATOM      7  C39 ZIN A   1      17.718  -0.095   7.392  0.00  0.00     0.037 A 
ATOM      8  C38 ZIN A   1      17.252  -0.046   8.691  0.00  0.00     0.010 A 
BRANCH   6   9
ATOM      9  O3  ZIN A   1      19.224   0.679   5.721  0.00  0.00    -0.352 OA
BRANCH   9  10
ATOM     10  C2  ZIN A   1      19.358  -0.615   5.131  0.00  0.00     0.171 C 
ATOM     11  C1  ZIN A   1      18.211  -0.847   4.145  0.00  0.00     0.034 C 
ENDBRANCH   9  10
ENDBRANCH   6   9
ENDBRANCH   2   3
ENDBRANCH   1   2
BRANCH   1  12
ATOM     12  C11 ZIN A   1      17.830   2.546  12.806  0.00  0.00     0.271 C 
BRANCH  12  13
ATOM     13  N12 ZIN A   1      18.294   3.845  12.303  0.00  0.00    -0.058 N 
ATOM     14  H13 ZIN A   1      18.885   3.703  11.498  0.00  0.00     0.280 HD
BRANCH  13  15
ATOM     15  C14 ZIN A   1      19.055   4.534  13.354  0.00  0.00     0.265 C 
BRANCH  15  16
ATOM     16  C15 ZIN A   1      18.112   5.423  14.167  0.00  0.00     0.301 C 
BRANCH  16  17
ATOM     17  N16 ZIN A   1      18.419   5.284  15.597  0.00  0.00     0.110 N 
BRANCH  17  18
ATOM     18  C17 ZIN A   1      19.416   4.228  15.821  0.00  0.00     0.385 C 
BRANCH  18  19
ATOM     19  C18 ZIN A   1      19.053   3.450  17.059  0.00  0.00     0.202 C 
ATOM     20  O19 ZIN A   1      19.807   2.588  17.481  0.00  0.00    -0.647 OA
ATOM     21  O20 ZIN A   1      18.007   3.682  17.642  0.00  0.00    -0.647 OA
ENDBRANCH  18  19
ENDBRANCH  17  18
BRANCH  17  22
ATOM     22  C21 ZIN A   1      18.868   6.561  16.167  0.00  0.00     0.385 C 
BRANCH  22  23
ATOM     23  C22 ZIN A   1      17.817   7.087  17.110  0.00  0.00     0.202 C 
ATOM     24  O23 ZIN A   1      18.053   7.168  18.303  0.00  0.00    -0.647 OA
ATOM     25  O24 ZIN A   1      16.730   7.432  16.679  0.00  0.00    -0.647 OA
ENDBRANCH  22  23
ENDBRANCH  17  22
ENDBRANCH  16  17
ENDBRANCH  15  16
ENDBRANCH  13  15
BRANCH  13  26
ATOM     26  C25 ZIN A   1      17.135   4.665  11.921  0.00  0.00     0.347 C 
BRANCH  26  27
ATOM     27  C26 ZIN A   1      17.352   5.229  10.541  0.00  0.00     0.199 C 
ATOM     28  O27 ZIN A   1      17.019   6.375  10.293  0.00  0.00    -0.647 OA
ATOM     29  O28 ZIN A   1      17.860   4.540   9.673  0.00  0.00    -0.647 OA
ENDBRANCH  26  27
ENDBRANCH  13  26
ENDBRANCH  12  13
ENDBRANCH   1  12
BRANCH   1  30
ATOM     30  N29 ZIN A   1      18.901   0.343  12.787  0.00  0.00     0.115 N 
BRANCH  30  31
ATOM     31  C30 ZIN A   1      20.040  -0.340  12.159  0.00  0.00     0.386 C 
BRANCH  31  32
ATOM     32  C31 ZIN A   1      19.627  -1.731  11.748  0.00  0.00     0.202 C 
ATOM     33  O32 ZIN A   1      19.322  -2.552  12.595  0.00  0.00    -0.647 OA
ATOM     34  O33 ZIN A   1      19.600  -2.034  10.567  0.00  0.00    -0.647 OA
ENDBRANCH  31  32
ENDBRANCH  30  31
BRANCH  30  35
ATOM     35  C34 ZIN A   1      19.259   0.844  14.120  0.00  0.00     0.386 C 
BRANCH  35  36
ATOM     36  C35 ZIN A   1      18.638  -0.039  15.172  0.00  0.00     0.202 C 
ATOM     37  O36 ZIN A   1      19.239  -1.019  15.577  0.00  0.00    -0.647 OA
ATOM     38  O37 ZIN A   1      17.534   0.226  15.617  0.00  0.00    -0.647 OA
ENDBRANCH  35  36
ENDBRANCH  30  35
ENDBRANCH   1  30
TORSDOF 20
ENDMDL
MODEL 7
REMARK VINA RESULT:      -6.5      0.960      2.098
REMARK  20 active torsions:
REMARK  status: ('A' for Active; 'I' for Inactive)
REMARK    1  A    between atoms: C2_2  and  O3_3 
REMARK    2  A    between atoms: O3_3  and  C4_4 
REMARK    3  A    between atoms: C7_7  and  C8_8 
REMARK    4  A    between atoms: C8_8  and  C9_9 
REMARK    5  A    between atoms: C9_9  and  C11_10 
REMARK    6  A    between atoms: C9_9  and  N29_28 
REMARK    7  A    between atoms: C11_10  and  N12_11 
REMARK    8  A    between atoms: N12_11  and  C14_13 
REMARK    9  A    between atoms: N12_11  and  C25_24 
REMARK   10  A    between atoms: C14_13  and  C15_14 
REMARK   11  A    between atoms: C15_14  and  N16_15 
REMARK   12  A    between atoms: N16_15  and  C17_16 
REMARK   13  A    between atoms: N16_15  and  C21_20 
REMARK   14  A    between atoms: C17_16  and  C18_17 
REMARK   15  A    between atoms: C21_20  and  C22_21 
REMARK   16  A    between atoms: C25_24  and  C26_25 
REMARK   17  A    between atoms: N29_28  and  C30_29 
REMARK   18  A    between atoms: N29_28  and  C34_33 
REMARK   19  A    between atoms: C30_29  and  C31_30 
REMARK   20  A    between atoms: C34_33  and  C35_34 
ROOT
ATOM      1  C9  ZIN A   1      18.826   1.510   9.613  0.00  0.00     0.254 C 
ENDROOT
BRANCH   1   2
ATOM      2  C8  ZIN A   1      19.355   1.946   8.245  0.00  0.00     0.076 C 
BRANCH   2   3
ATOM      3  C7  ZIN A   1      18.771   1.059   7.175  0.00  0.00    -0.056 A 
ATOM      4  C6  ZIN A   1      19.513   0.761   6.047  0.00  0.00     0.010 A 
ATOM      5  C5  ZIN A   1      18.981  -0.052   5.064  0.00  0.00     0.037 A 
ATOM      6  C4  ZIN A   1      17.701  -0.568   5.210  0.00  0.00     0.068 A 
ATOM      7  C39 ZIN A   1      16.958  -0.262   6.340  0.00  0.00     0.037 A 
ATOM      8  C38 ZIN A   1      17.496   0.546   7.323  0.00  0.00     0.010 A 
BRANCH   6   9
ATOM      9  O3  ZIN A   1      17.175  -1.367   4.245  0.00  0.00    -0.352 OA
BRANCH   9  10
ATOM     10  C2  ZIN A   1      17.641  -2.717   4.196  0.00  0.00     0.171 C 
ATOM     11  C1  ZIN A   1      16.522  -3.624   3.681  0.00  0.00     0.034 C 
ENDBRANCH   9  10
ENDBRANCH   6   9
ENDBRANCH   2   3
ENDBRANCH   1   2
BRANCH   1  12
ATOM     12  C11 ZIN A   1      19.747   0.435  10.196  0.00  0.00     0.271 C 
BRANCH  12  13
ATOM     13  N12 ZIN A   1      18.958  -0.762  10.516  0.00  0.00    -0.058 N 
ATOM     14  H13 ZIN A   1      19.138  -1.039  11.469  0.00  0.00     0.280 HD
BRANCH  13  15
ATOM     15  C14 ZIN A   1      19.337  -1.854   9.609  0.00  0.00     0.265 C 
BRANCH  15  16
ATOM     16  C15 ZIN A   1      19.352  -3.175  10.380  0.00  0.00     0.301 C 
BRANCH  16  17
ATOM     17  N16 ZIN A   1      18.800  -4.243   9.535  0.00  0.00     0.110 N 
BRANCH  17  18
ATOM     18  C17 ZIN A   1      17.378  -4.007   9.252  0.00  0.00     0.385 C 
BRANCH  18  19
ATOM     19  C18 ZIN A   1      16.549  -5.068   9.928  0.00  0.00     0.202 C 
ATOM     20  O19 ZIN A   1      16.323  -4.994  11.125  0.00  0.00    -0.647 OA
ATOM     21  O20 ZIN A   1      16.104  -6.001   9.281  0.00  0.00    -0.647 OA
ENDBRANCH  18  19
ENDBRANCH  17  18
BRANCH  17  22
ATOM     22  C21 ZIN A   1      19.570  -4.382   8.291  0.00  0.00     0.385 C 
BRANCH  22  23
ATOM     23  C22 ZIN A   1      20.270  -5.716   8.280  0.00  0.00     0.202 C 
ATOM     24  O23 ZIN A   1      19.731  -6.691   8.774  0.00  0.00    -0.647 OA
ATOM     25  O24 ZIN A   1      21.376  -5.820   7.778  0.00  0.00    -0.647 OA
ENDBRANCH  22  23
ENDBRANCH  17  22
ENDBRANCH  16  17
ENDBRANCH  15  16
ENDBRANCH  13  15
BRANCH  13  26
ATOM     26  C25 ZIN A   1      17.528  -0.465  10.353  0.00  0.00     0.347 C 
BRANCH  26  27
ATOM     27  C26 ZIN A   1      16.858  -0.465  11.703  0.00  0.00     0.199 C 
ATOM     28  O27 ZIN A   1      17.419  -0.971  12.661  0.00  0.00    -0.647 OA
ATOM     29  O28 ZIN A   1      15.758   0.041  11.838  0.00  0.00    -0.647 OA
ENDBRANCH  26  27
ENDBRANCH  13  26
ENDBRANCH  12  13
ENDBRANCH   1  12
BRANCH   1  30
ATOM     30  N29 ZIN A   1      18.790   2.668  10.515  0.00  0.00     0.115 N 
BRANCH  30  31
ATOM     31  C30 ZIN A   1      17.423   3.185  10.654  0.00  0.00     0.386 C 
BRANCH  31  32
ATOM     32  C31 ZIN A   1      17.397   4.644  10.278  0.00  0.00     0.202 C 
ATOM     33  O32 ZIN A   1      16.914   5.462  11.041  0.00  0.00    -0.647 OA
ATOM     34  O33 ZIN A   1      17.858   5.007   9.209  0.00  0.00    -0.647 OA
ENDBRANCH  31  32
ENDBRANCH  30  31
BRANCH  30  35
ATOM     35  C34 ZIN A   1      19.362   2.333  11.826  0.00  0.00     0.386 C 
BRANCH  35  36
ATOM     36  C35 ZIN A   1      19.515   3.590  12.644  0.00  0.00     0.202 C 
ATOM     37  O36 ZIN A   1      20.197   4.510  12.225  0.00  0.00    -0.647 OA
ATOM     38  O37 ZIN A   1      18.958   3.687  13.723  0.00  0.00    -0.647 OA
ENDBRANCH  35  36
ENDBRANCH  30  35
ENDBRANCH   1  30
TORSDOF 20
ENDMDL
MODEL 8
REMARK VINA RESULT:      -6.5      2.174      5.701
REMARK  20 active torsions:
REMARK  status: ('A' for Active; 'I' for Inactive)
REMARK    1  A    between atoms: C2_2  and  O3_3 
REMARK    2  A    between atoms: O3_3  and  C4_4 
REMARK    3  A    between atoms: C7_7  and  C8_8 
REMARK    4  A    between atoms: C8_8  and  C9_9 
REMARK    5  A    between atoms: C9_9  and  C11_10 
REMARK    6  A    between atoms: C9_9  and  N29_28 
REMARK    7  A    between atoms: C11_10  and  N12_11 
REMARK    8  A    between atoms: N12_11  and  C14_13 
REMARK    9  A    between atoms: N12_11  and  C25_24 
REMARK   10  A    between atoms: C14_13  and  C15_14 
REMARK   11  A    between atoms: C15_14  and  N16_15 
REMARK   12  A    between atoms: N16_15  and  C17_16 
REMARK   13  A    between atoms: N16_15  and  C21_20 
REMARK   14  A    between atoms: C17_16  and  C18_17 
REMARK   15  A    between atoms: C21_20  and  C22_21 
REMARK   16  A    between atoms: C25_24  and  C26_25 
REMARK   17  A    between atoms: N29_28  and  C30_29 
REMARK   18  A    between atoms: N29_28  and  C34_33 
REMARK   19  A    between atoms: C30_29  and  C31_30 
REMARK   20  A    between atoms: C34_33  and  C35_34 
ROOT
ATOM      1  C9  ZIN A   1      17.980  -0.123   9.946  0.00  0.00     0.254 C 
ENDROOT
BRANCH   1   2
ATOM      2  C8  ZIN A   1      16.865  -0.456  10.940  0.00  0.00     0.076 C 
BRANCH   2   3
ATOM      3  C7  ZIN A   1      17.429  -0.486  12.337  0.00  0.00    -0.056 A 
ATOM      4  C6  ZIN A   1      18.235  -1.537  12.733  0.00  0.00     0.010 A 
ATOM      5  C5  ZIN A   1      18.754  -1.569  14.013  0.00  0.00     0.037 A 
ATOM      6  C4  ZIN A   1      18.465  -0.543  14.902  0.00  0.00     0.068 A 
ATOM      7  C39 ZIN A   1      17.651   0.507  14.504  0.00  0.00     0.037 A 
ATOM      8  C38 ZIN A   1      17.139   0.536  13.221  0.00  0.00     0.010 A 
BRANCH   6   9
ATOM      9  O3  ZIN A   1      18.973  -0.571  16.162  0.00  0.00    -0.352 OA
BRANCH   9  10
ATOM     10  C2  ZIN A   1      18.078  -0.251  17.229  0.00  0.00     0.171 C 
ATOM     11  C1  ZIN A   1      16.842  -1.148  17.143  0.00  0.00     0.034 C 
ENDBRANCH   9  10
ENDBRANCH   6   9
ENDBRANCH   2   3
ENDBRANCH   1   2
BRANCH   1  12
ATOM     12  C11 ZIN A   1      17.387   0.014   8.542  0.00  0.00     0.271 C 
BRANCH  12  13
ATOM     13  N12 ZIN A   1      18.063  -0.921   7.633  0.00  0.00    -0.058 N 
ATOM     14  H13 ZIN A   1      17.379  -1.375   7.048  0.00  0.00     0.280 HD
BRANCH  13  15
ATOM     15  C14 ZIN A   1      18.785  -1.931   8.418  0.00  0.00     0.265 C 
BRANCH  15  16
ATOM     16  C15 ZIN A   1      18.756  -3.269   7.676  0.00  0.00     0.301 C 
BRANCH  16  17
ATOM     17  N16 ZIN A   1      18.386  -4.340   8.611  0.00  0.00     0.110 N 
BRANCH  17  18
ATOM     18  C17 ZIN A   1      17.616  -3.807   9.743  0.00  0.00     0.385 C 
BRANCH  18  19
ATOM     19  C18 ZIN A   1      17.893  -4.635  10.972  0.00  0.00     0.202 C 
ATOM     20  O19 ZIN A   1      16.977  -5.201  11.545  0.00  0.00    -0.647 OA
ATOM     21  O20 ZIN A   1      19.032  -4.740  11.394  0.00  0.00    -0.647 OA
ENDBRANCH  18  19
ENDBRANCH  17  18
BRANCH  17  22
ATOM     22  C21 ZIN A   1      17.645  -5.407   7.925  0.00  0.00     0.385 C 
BRANCH  22  23
ATOM     23  C22 ZIN A   1      18.434  -6.689   7.989  0.00  0.00     0.202 C 
ATOM     24  O23 ZIN A   1      19.501  -6.719   8.576  0.00  0.00    -0.647 OA
ATOM     25  O24 ZIN A   1      18.005  -7.696   7.452  0.00  0.00    -0.647 OA
ENDBRANCH  22  23
ENDBRANCH  17  22
ENDBRANCH  16  17
ENDBRANCH  15  16
ENDBRANCH  13  15
BRANCH  13  26
ATOM     26  C25 ZIN A   1      19.015  -0.184   6.791  0.00  0.00     0.347 C 
BRANCH  26  27
ATOM     27  C26 ZIN A   1      18.894  -0.654   5.365  0.00  0.00     0.199 C 
ATOM     28  O27 ZIN A   1      17.794  -0.761   4.850  0.00  0.00    -0.647 OA
ATOM     29  O28 ZIN A   1      19.895  -0.927   4.725  0.00  0.00    -0.647 OA
ENDBRANCH  26  27
ENDBRANCH  13  26
ENDBRANCH  12  13
ENDBRANCH   1  12
BRANCH   1  30
ATOM     30  N29 ZIN A   1      18.620   1.140  10.335  0.00  0.00     0.115 N 
BRANCH  30  31
ATOM     31  C30 ZIN A   1      20.076   0.980  10.447  0.00  0.00     0.386 C 
BRANCH  31  32
ATOM     32  C31 ZIN A   1      20.505   1.261  11.864  0.00  0.00     0.202 C 
ATOM     33  O32 ZIN A   1      21.262   0.496  12.436  0.00  0.00    -0.647 OA
ATOM     34  O33 ZIN A   1      20.095   2.255  12.439  0.00  0.00    -0.647 OA
ENDBRANCH  31  32
ENDBRANCH  30  31
BRANCH  30  35
ATOM     35  C34 ZIN A   1      18.280   2.215   9.394  0.00  0.00     0.386 C 
BRANCH  35  36
ATOM     36  C35 ZIN A   1      17.733   3.395  10.156  0.00  0.00     0.202 C 
ATOM     37  O36 ZIN A   1      17.943   4.528   9.757  0.00  0.00    -0.647 OA
ATOM     38  O37 ZIN A   1      17.081   3.217  11.170  0.00  0.00    -0.647 OA
ENDBRANCH  35  36
ENDBRANCH  30  35
ENDBRANCH   1  30
TORSDOF 20
ENDMDL
MODEL 9
REMARK VINA RESULT:      -6.5      2.573      8.580
REMARK  20 active torsions:
REMARK  status: ('A' for Active; 'I' for Inactive)
REMARK    1  A    between atoms: C2_2  and  O3_3 
REMARK    2  A    between atoms: O3_3  and  C4_4 
REMARK    3  A    between atoms: C7_7  and  C8_8 
REMARK    4  A    between atoms: C8_8  and  C9_9 
REMARK    5  A    between atoms: C9_9  and  C11_10 
REMARK    6  A    between atoms: C9_9  and  N29_28 
REMARK    7  A    between atoms: C11_10  and  N12_11 
REMARK    8  A    between atoms: N12_11  and  C14_13 
REMARK    9  A    between atoms: N12_11  and  C25_24 
REMARK   10  A    between atoms: C14_13  and  C15_14 
REMARK   11  A    between atoms: C15_14  and  N16_15 
REMARK   12  A    between atoms: N16_15  and  C17_16 
REMARK   13  A    between atoms: N16_15  and  C21_20 
REMARK   14  A    between atoms: C17_16  and  C18_17 
REMARK   15  A    between atoms: C21_20  and  C22_21 
REMARK   16  A    between atoms: C25_24  and  C26_25 
REMARK   17  A    between atoms: N29_28  and  C30_29 
REMARK   18  A    between atoms: N29_28  and  C34_33 
REMARK   19  A    between atoms: C30_29  and  C31_30 
REMARK   20  A    between atoms: C34_33  and  C35_34 
ROOT
ATOM      1  C9  ZIN A   1      17.999  -5.151   8.178  0.00  0.00     0.254 C 
ENDROOT
BRANCH   1   2
ATOM      2  C8  ZIN A   1      18.367  -5.788   9.520  0.00  0.00     0.076 C 
BRANCH   2   3
ATOM      3  C7  ZIN A   1      18.655  -4.705  10.528  0.00  0.00    -0.056 A 
ATOM      4  C6  ZIN A   1      19.961  -4.420  10.879  0.00  0.00     0.010 A 
ATOM      5  C5  ZIN A   1      20.229  -3.428  11.803  0.00  0.00     0.037 A 
ATOM      6  C4  ZIN A   1      19.185  -2.718  12.379  0.00  0.00     0.068 A 
ATOM      7  C39 ZIN A   1      17.875  -3.010  12.028  0.00  0.00     0.037 A 
ATOM      8  C38 ZIN A   1      17.613  -3.999  11.100  0.00  0.00     0.010 A 
BRANCH   6   9
ATOM      9  O3  ZIN A   1      19.445  -1.743  13.288  0.00  0.00    -0.352 OA
BRANCH   9  10
ATOM     10  C2  ZIN A   1      18.341  -1.264  14.059  0.00  0.00     0.171 C 
ATOM     11  C1  ZIN A   1      18.696  -1.319  15.546  0.00  0.00     0.034 C 
ENDBRANCH   9  10
ENDBRANCH   6   9
ENDBRANCH   2   3
ENDBRANCH   1   2
BRANCH   1  12
ATOM     12  C11 ZIN A   1      19.276  -4.766   7.430  0.00  0.00     0.271 C 
BRANCH  12  13
ATOM     13  N12 ZIN A   1      19.120  -3.423   6.855  0.00  0.00    -0.058 N 
ATOM     14  H13 ZIN A   1      20.022  -2.978   6.788  0.00  0.00     0.280 HD
BRANCH  13  15
ATOM     15  C14 ZIN A   1      18.240  -2.621   7.716  0.00  0.00     0.265 C 
BRANCH  15  16
ATOM     16  C15 ZIN A   1      19.079  -1.613   8.504  0.00  0.00     0.301 C 
BRANCH  16  17
ATOM     17  N16 ZIN A   1      18.325  -0.362   8.657  0.00  0.00     0.110 N 
BRANCH  17  18
ATOM     18  C17 ZIN A   1      17.929   0.177   7.349  0.00  0.00     0.385 C 
BRANCH  18  19
ATOM     19  C18 ZIN A   1      18.907   1.243   6.928  0.00  0.00     0.202 C 
ATOM     20  O19 ZIN A   1      19.261   2.096   7.725  0.00  0.00    -0.647 OA
ATOM     21  O20 ZIN A   1      19.346   1.255   5.790  0.00  0.00    -0.647 OA
ENDBRANCH  18  19
ENDBRANCH  17  18
BRANCH  17  22
ATOM     22  C21 ZIN A   1      17.155  -0.552   9.524  0.00  0.00     0.385 C 
BRANCH  22  23
ATOM     23  C22 ZIN A   1      17.311   0.283  10.768  0.00  0.00     0.202 C 
ATOM     24  O23 ZIN A   1      16.389   0.374  11.561  0.00  0.00    -0.647 OA
ATOM     25  O24 ZIN A   1      18.358   0.869  10.982  0.00  0.00    -0.647 OA
ENDBRANCH  22  23
ENDBRANCH  17  22
ENDBRANCH  16  17
ENDBRANCH  15  16
ENDBRANCH  13  15
BRANCH  13  26
ATOM     26  C25 ZIN A   1      18.527  -3.530   5.515  0.00  0.00     0.347 C 
BRANCH  26  27
ATOM     27  C26 ZIN A   1      18.732  -2.236   4.770  0.00  0.00     0.199 C 
ATOM     28  O27 ZIN A   1      19.853  -1.770   4.656  0.00  0.00    -0.647 OA
ATOM     29  O28 ZIN A   1      17.779  -1.656   4.280  0.00  0.00    -0.647 OA
ENDBRANCH  26  27
ENDBRANCH  13  26
ENDBRANCH  12  13
ENDBRANCH   1  12
BRANCH   1  30
ATOM     30  N29 ZIN A   1      17.230  -6.111   7.376  0.00  0.00     0.115 N 
BRANCH  30  31
ATOM     31  C30 ZIN A   1      18.107  -6.855   6.462  0.00  0.00     0.386 C 
BRANCH  31  32
ATOM     32  C31 ZIN A   1      17.332  -7.250   5.231  0.00  0.00     0.202 C 
ATOM     33  O32 ZIN A   1      17.409  -8.388   4.801  0.00  0.00    -0.647 OA
ATOM     34  O33 ZIN A   1      16.628  -6.431   4.665  0.00  0.00    -0.647 OA
ENDBRANCH  31  32
ENDBRANCH  30  31
BRANCH  30  35
ATOM     35  C34 ZIN A   1      16.467  -7.026   8.235  0.00  0.00     0.386 C 
BRANCH  35  36
ATOM     36  C35 ZIN A   1      15.021  -7.024   7.812  0.00  0.00     0.202 C 
ATOM     37  O36 ZIN A   1      14.492  -5.985   7.455  0.00  0.00    -0.647 OA
ATOM     38  O37 ZIN A   1      14.379  -8.060   7.828  0.00  0.00    -0.647 OA
ENDBRANCH  35  36
ENDBRANCH  30  35
ENDBRANCH   1  30
TORSDOF 20
ENDMDL
