MODEL 1
REMARK VINA RESULT:      -8.2      0.000      0.000
REMARK  6 active torsions:
REMARK  status: ('A' for Active; 'I' for Inactive)
REMARK    1  A    between atoms: C6_6  and  C8_7 
REMARK    2  A    between atoms: C8_7  and  C9_8 
REMARK    3  A    between atoms: C15_14  and  C16_15 
REMARK    4  A    between atoms: C16_15  and  C17_16 
REMARK    5  A    between atoms: C17_16  and  S18_17 
REMARK    6  A    between atoms: S18_17  and  C21_20 
ROOT
ATOM      1  C9  <0> d   1      19.296   0.261   8.315  0.00  0.00    -0.028 A 
ATOM      2  C10 <0> d   1      19.157   1.493   7.803  0.00  0.00     0.096 A 
ATOM      3  N11 <0> d   1      18.966   1.417   6.449  0.00  0.00    -0.365 N 
ATOM      4  C12 <0> d   1      18.978   0.100   6.048  0.00  0.00     0.043 A 
ATOM      5  C13 <0> d   1      18.834  -0.526   4.815  0.00  0.00     0.031 A 
ATOM      6  C14 <0> d   1      18.895  -1.900   4.734  0.00  0.00     0.009 A 
ATOM      7  C15 <0> d   1      19.100  -2.668   5.872  0.00  0.00    -0.056 A 
ATOM      8  C27 <0> d   1      19.244  -2.073   7.094  0.00  0.00     0.021 A 
ATOM      9  C28 <0> d   1      19.192  -0.682   7.198  0.00  0.00    -0.001 A 
ATOM     10  H41 <0> d   1      18.841   2.178   5.861  0.00  0.00     0.165 HD
ENDROOT
BRANCH   7  11
ATOM     11  C16 <0> d   1      19.164  -4.170   5.759  0.00  0.00     0.054 C 
BRANCH  11  12
ATOM     12  C17 <0> d   1      18.161  -4.797   6.729  0.00  0.00     0.150 C 
BRANCH  12  13
ATOM     13  S18 <0> d   1      19.052  -5.767   7.976  0.00  0.00     0.175 S 
ATOM     14  O19 <0> d   1      18.398  -7.007   8.205  0.00  0.00    -0.223 OA
ATOM     15  O20 <0> d   1      20.453  -5.709   7.745  0.00  0.00    -0.223 OA
BRANCH  13  16
ATOM     16  C21 <0> d   1      18.822  -4.871   9.476  0.00  0.00     0.059 A 
ATOM     17  C26 <0> d   1      19.885  -4.689  10.342  0.00  0.00     0.023 A 
ATOM     18  C25 <0> d   1      19.705  -3.983  11.516  0.00  0.00     0.002 A 
ATOM     19  C24 <0> d   1      18.464  -3.464  11.828  0.00  0.00     0.000 A 
ATOM     20  C23 <0> d   1      17.400  -3.649  10.965  0.00  0.00     0.002 A 
ATOM     21  C22 <0> d   1      17.579  -4.353   9.788  0.00  0.00     0.023 A 
ENDBRANCH  13  16
ENDBRANCH  12  13
ENDBRANCH  11  12
ENDBRANCH   7  11
BRANCH   1  22
ATOM     22  C8  <0> d   1      19.524  -0.088   9.763  0.00  0.00     0.076 C 
BRANCH  22  23
ATOM     23  C6  <0> d   1      18.521   0.672  10.634  0.00  0.00     0.227 C 
ATOM     24  N2  <0> d   1      19.016   0.752  12.021  0.00  0.00     0.089 N 
ATOM     25  C1  <0> d   1      20.356   0.161  12.137  0.00  0.00     0.310 C 
ATOM     26  C3  <0> d   1      18.054   0.058  12.905  0.00  0.00     0.272 C 
ATOM     27  C4  <0> d   1      16.709   0.104  12.138  0.00  0.00     0.032 C 
ATOM     28  C5  <0> d   1      17.177  -0.086  10.672  0.00  0.00     0.038 C 
ENDBRANCH  22  23
ENDBRANCH   1  22
TORSDOF 6
ENDMDL
MODEL 2
REMARK VINA RESULT:      -8.2      4.935      8.323
REMARK  6 active torsions:
REMARK  status: ('A' for Active; 'I' for Inactive)
REMARK    1  A    between atoms: C6_6  and  C8_7 
REMARK    2  A    between atoms: C8_7  and  C9_8 
REMARK    3  A    between atoms: C15_14  and  C16_15 
REMARK    4  A    between atoms: C16_15  and  C17_16 
REMARK    5  A    between atoms: C17_16  and  S18_17 
REMARK    6  A    between atoms: S18_17  and  C21_20 
ROOT
ATOM      1  C9  <0> d   1      18.598   2.415  17.137  0.00  0.00    -0.028 A 
ATOM      2  C10 <0> d   1      19.023   2.142  18.380  0.00  0.00     0.096 A 
ATOM      3  N11 <0> d   1      19.269   0.802  18.506  0.00  0.00    -0.365 N 
ATOM      4  C12 <0> d   1      19.002   0.163  17.316  0.00  0.00     0.043 A 
ATOM      5  C13 <0> d   1      19.079  -1.162  16.903  0.00  0.00     0.031 A 
ATOM      6  C14 <0> d   1      18.734  -1.498  15.612  0.00  0.00     0.009 A 
ATOM      7  C15 <0> d   1      18.309  -0.526  14.718  0.00  0.00    -0.056 A 
ATOM      8  C27 <0> d   1      18.225   0.783  15.102  0.00  0.00     0.021 A 
ATOM      9  C28 <0> d   1      18.563   1.144  16.408  0.00  0.00    -0.001 A 
ATOM     10  H41 <0> d   1      19.584   0.367  19.314  0.00  0.00     0.165 HD
ENDROOT
BRANCH   7  11
ATOM     11  C16 <0> d   1      17.936  -0.916  13.310  0.00  0.00     0.054 C 
BRANCH  11  12
ATOM     12  C17 <0> d   1      18.576   0.062  12.324  0.00  0.00     0.150 C 
BRANCH  12  13
ATOM     13  S18 <0> d   1      17.275   0.929  11.403  0.00  0.00     0.175 S 
ATOM     14  O19 <0> d   1      16.083   0.156  11.375  0.00  0.00    -0.223 OA
ATOM     15  O20 <0> d   1      17.247   2.306  11.756  0.00  0.00    -0.223 OA
BRANCH  13  16
ATOM     16  C21 <0> d   1      17.839   0.921   9.734  0.00  0.00     0.059 A 
ATOM     17  C26 <0> d   1      18.731   1.884   9.301  0.00  0.00     0.023 A 
ATOM     18  C25 <0> d   1      19.177   1.874   7.993  0.00  0.00     0.002 A 
ATOM     19  C24 <0> d   1      18.725   0.907   7.115  0.00  0.00     0.000 A 
ATOM     20  C23 <0> d   1      17.829  -0.053   7.547  0.00  0.00     0.002 A 
ATOM     21  C22 <0> d   1      17.386  -0.047   8.857  0.00  0.00     0.023 A 
ENDBRANCH  13  16
ENDBRANCH  12  13
ENDBRANCH  11  12
ENDBRANCH   7  11
BRANCH   1  22
ATOM     22  C8  <0> d   1      18.222   3.769  16.595  0.00  0.00     0.076 C 
BRANCH  22  23
ATOM     23  C6  <0> d   1      19.416   4.370  15.850  0.00  0.00     0.227 C 
ATOM     24  N2  <0> d   1      19.505   5.817  16.122  0.00  0.00     0.089 N 
ATOM     25  C1  <0> d   1      18.483   6.234  17.091  0.00  0.00     0.310 C 
ATOM     26  C3  <0> d   1      19.352   6.546  14.844  0.00  0.00     0.272 C 
ATOM     27  C4  <0> d   1      19.782   5.532  13.756  0.00  0.00     0.032 C 
ATOM     28  C5  <0> d   1      19.223   4.202  14.327  0.00  0.00     0.038 C 
ENDBRANCH  22  23
ENDBRANCH   1  22
TORSDOF 6
ENDMDL
MODEL 3
REMARK VINA RESULT:      -8.1      3.508      5.478
REMARK  6 active torsions:
REMARK  status: ('A' for Active; 'I' for Inactive)
REMARK    1  A    between atoms: C6_6  and  C8_7 
REMARK    2  A    between atoms: C8_7  and  C9_8 
REMARK    3  A    between atoms: C15_14  and  C16_15 
REMARK    4  A    between atoms: C16_15  and  C17_16 
REMARK    5  A    between atoms: C17_16  and  S18_17 
REMARK    6  A    between atoms: S18_17  and  C21_20 
ROOT
ATOM      1  C9  <0> d   1      19.102  -2.463   7.885  0.00  0.00    -0.028 A 
ATOM      2  C10 <0> d   1      18.953  -2.779   6.590  0.00  0.00     0.096 A 
ATOM      3  N11 <0> d   1      18.840  -1.638   5.842  0.00  0.00    -0.365 N 
ATOM      4  C12 <0> d   1      18.915  -0.533   6.659  0.00  0.00     0.043 A 
ATOM      5  C13 <0> d   1      18.858   0.837   6.425  0.00  0.00     0.031 A 
ATOM      6  C14 <0> d   1      18.966   1.716   7.480  0.00  0.00     0.009 A 
ATOM      7  C15 <0> d   1      19.131   1.250   8.777  0.00  0.00    -0.056 A 
ATOM      8  C27 <0> d   1      19.189  -0.091   9.030  0.00  0.00     0.021 A 
ATOM      9  C28 <0> d   1      19.075  -1.001   7.976  0.00  0.00    -0.001 A 
ATOM     10  H41 <0> d   1      18.723  -1.613   4.879  0.00  0.00     0.165 HD
ENDROOT
BRANCH   7  11
ATOM     11  C16 <0> d   1      19.247   2.231   9.915  0.00  0.00     0.054 C 
BRANCH  11  12
ATOM     12  C17 <0> d   1      19.448   1.469  11.226  0.00  0.00     0.150 C 
BRANCH  12  13
ATOM     13  S18 <0> d   1      17.940   1.582  12.229  0.00  0.00     0.175 S 
ATOM     14  O19 <0> d   1      17.846   2.858  12.847  0.00  0.00    -0.223 OA
ATOM     15  O20 <0> d   1      16.835   1.022  11.532  0.00  0.00    -0.223 OA
BRANCH  13  16
ATOM     16  C21 <0> d   1      18.218   0.469  13.567  0.00  0.00     0.059 A 
ATOM     17  C26 <0> d   1      19.181  -0.516  13.456  0.00  0.00     0.023 A 
ATOM     18  C25 <0> d   1      19.402  -1.386  14.507  0.00  0.00     0.002 A 
ATOM     19  C24 <0> d   1      18.656  -1.276  15.665  0.00  0.00     0.000 A 
ATOM     20  C23 <0> d   1      17.690  -0.292  15.774  0.00  0.00     0.002 A 
ATOM     21  C22 <0> d   1      17.471   0.581  14.724  0.00  0.00     0.023 A 
ENDBRANCH  13  16
ENDBRANCH  12  13
ENDBRANCH  11  12
ENDBRANCH   7  11
BRANCH   1  22
ATOM     22  C8  <0> d   1      19.259  -3.429   9.031  0.00  0.00     0.076 C 
BRANCH  22  23
ATOM     23  C6  <0> d   1      18.000  -3.400   9.900  0.00  0.00     0.227 C 
ATOM     24  N2  <0> d   1      18.360  -3.586  11.317  0.00  0.00     0.089 N 
ATOM     25  C1  <0> d   1      19.817  -3.654  11.486  0.00  0.00     0.310 C 
ATOM     26  C3  <0> d   1      17.713  -4.822  11.809  0.00  0.00     0.272 C 
ATOM     27  C4  <0> d   1      16.495  -5.029  10.875  0.00  0.00     0.032 C 
ATOM     28  C5  <0> d   1      17.066  -4.566   9.509  0.00  0.00     0.038 C 
ENDBRANCH  22  23
ENDBRANCH   1  22
TORSDOF 6
ENDMDL
MODEL 4
REMARK VINA RESULT:      -8.0      4.314      7.853
REMARK  6 active torsions:
REMARK  status: ('A' for Active; 'I' for Inactive)
REMARK    1  A    between atoms: C6_6  and  C8_7 
REMARK    2  A    between atoms: C8_7  and  C9_8 
REMARK    3  A    between atoms: C15_14  and  C16_15 
REMARK    4  A    between atoms: C16_15  and  C17_16 
REMARK    5  A    between atoms: C17_16  and  S18_17 
REMARK    6  A    between atoms: S18_17  and  C21_20 
ROOT
ATOM      1  C9  <0> d   1      19.081   2.914  16.408  0.00  0.00    -0.028 A 
ATOM      2  C10 <0> d   1      19.216   3.009  17.739  0.00  0.00     0.096 A 
ATOM      3  N11 <0> d   1      19.191   1.761  18.301  0.00  0.00    -0.365 N 
ATOM      4  C12 <0> d   1      19.036   0.808  17.318  0.00  0.00     0.043 A 
ATOM      5  C13 <0> d   1      18.949  -0.579  17.336  0.00  0.00     0.031 A 
ATOM      6  C14 <0> d   1      18.792  -1.270  16.154  0.00  0.00     0.009 A 
ATOM      7  C15 <0> d   1      18.718  -0.595  14.944  0.00  0.00    -0.056 A 
ATOM      8  C27 <0> d   1      18.800   0.769  14.903  0.00  0.00     0.021 A 
ATOM      9  C28 <0> d   1      18.954   1.489  16.090  0.00  0.00    -0.001 A 
ATOM     10  H41 <0> d   1      19.270   1.575  19.250  0.00  0.00     0.165 HD
ENDROOT
BRANCH   7  11
ATOM     11  C16 <0> d   1      18.545  -1.371  13.663  0.00  0.00     0.054 C 
BRANCH  11  12
ATOM     12  C17 <0> d   1      18.735  -0.434  12.469  0.00  0.00     0.150 C 
BRANCH  12  13
ATOM     13  S18 <0> d   1      17.428  -0.739  11.248  0.00  0.00     0.175 S 
ATOM     14  O19 <0> d   1      17.400  -2.110  10.880  0.00  0.00    -0.223 OA
ATOM     15  O20 <0> d   1      16.238  -0.052  11.610  0.00  0.00    -0.223 OA
BRANCH  13  16
ATOM     16  C21 <0> d   1      17.984   0.091   9.796  0.00  0.00     0.059 A 
ATOM     17  C26 <0> d   1      17.592  -0.362   8.550  0.00  0.00     0.023 A 
ATOM     18  C25 <0> d   1      18.024   0.291   7.411  0.00  0.00     0.002 A 
ATOM     19  C24 <0> d   1      18.853   1.392   7.517  0.00  0.00     0.000 A 
ATOM     20  C23 <0> d   1      19.248   1.842   8.763  0.00  0.00     0.002 A 
ATOM     21  C22 <0> d   1      18.813   1.191   9.903  0.00  0.00     0.023 A 
ENDBRANCH  13  16
ENDBRANCH  12  13
ENDBRANCH  11  12
ENDBRANCH   7  11
BRANCH   1  22
ATOM     22  C8  <0> d   1      19.059   4.056  15.425  0.00  0.00     0.076 C 
BRANCH  22  23
ATOM     23  C6  <0> d   1      17.650   4.204  14.846  0.00  0.00     0.227 C 
ATOM     24  N2  <0> d   1      17.705   4.186  13.373  0.00  0.00     0.089 N 
ATOM     25  C1  <0> d   1      19.074   3.943  12.900  0.00  0.00     0.310 C 
ATOM     26  C3  <0> d   1      17.191   5.477  12.867  0.00  0.00     0.272 C 
ATOM     27  C4  <0> d   1      16.275   6.008  13.997  0.00  0.00     0.032 C 
ATOM     28  C5  <0> d   1      17.051   5.564  15.265  0.00  0.00     0.038 C 
ENDBRANCH  22  23
ENDBRANCH   1  22
TORSDOF 6
ENDMDL
MODEL 5
REMARK VINA RESULT:      -7.9      5.845      9.628
REMARK  6 active torsions:
REMARK  status: ('A' for Active; 'I' for Inactive)
REMARK    1  A    between atoms: C6_6  and  C8_7 
REMARK    2  A    between atoms: C8_7  and  C9_8 
REMARK    3  A    between atoms: C15_14  and  C16_15 
REMARK    4  A    between atoms: C16_15  and  C17_16 
REMARK    5  A    between atoms: C17_16  and  S18_17 
REMARK    6  A    between atoms: S18_17  and  C21_20 
ROOT
ATOM      1  C9  <0> d   1      19.273  -0.327  14.800  0.00  0.00    -0.028 A 
ATOM      2  C10 <0> d   1      19.094  -1.516  15.394  0.00  0.00     0.096 A 
ATOM      3  N11 <0> d   1      18.808  -1.337  16.721  0.00  0.00    -0.365 N 
ATOM      4  C12 <0> d   1      18.796   0.007  17.020  0.00  0.00     0.043 A 
ATOM      5  C13 <0> d   1      18.567   0.726  18.187  0.00  0.00     0.031 A 
ATOM      6  C14 <0> d   1      18.626   2.103  18.166  0.00  0.00     0.009 A 
ATOM      7  C15 <0> d   1      18.914   2.781  16.990  0.00  0.00    -0.056 A 
ATOM      8  C27 <0> d   1      19.142   2.095  15.831  0.00  0.00     0.021 A 
ATOM      9  C28 <0> d   1      19.093   0.699  15.831  0.00  0.00    -0.001 A 
ATOM     10  H41 <0> d   1      18.640  -2.051  17.356  0.00  0.00     0.165 HD
ENDROOT
BRANCH   7  11
ATOM     11  C16 <0> d   1      18.974   4.287  16.991  0.00  0.00     0.054 C 
BRANCH  11  12
ATOM     12  C17 <0> d   1      19.475   4.778  15.631  0.00  0.00     0.150 C 
BRANCH  12  13
ATOM     13  S18 <0> d   1      18.123   5.610  14.753  0.00  0.00     0.175 S 
ATOM     14  O19 <0> d   1      16.868   5.242  15.307  0.00  0.00    -0.223 OA
ATOM     15  O20 <0> d   1      18.448   6.973  14.515  0.00  0.00    -0.223 OA
BRANCH  13  16
ATOM     16  C21 <0> d   1      18.124   4.877  13.151  0.00  0.00     0.059 A 
ATOM     17  C26 <0> d   1      19.187   4.088  12.753  0.00  0.00     0.023 A 
ATOM     18  C25 <0> d   1      19.186   3.509  11.498  0.00  0.00     0.002 A 
ATOM     19  C24 <0> d   1      18.127   3.725  10.638  0.00  0.00     0.000 A 
ATOM     20  C23 <0> d   1      17.066   4.518  11.034  0.00  0.00     0.002 A 
ATOM     21  C22 <0> d   1      17.064   5.094  12.291  0.00  0.00     0.023 A 
ENDBRANCH  13  16
ENDBRANCH  12  13
ENDBRANCH  11  12
ENDBRANCH   7  11
BRANCH   1  22
ATOM     22  C8  <0> d   1      19.603  -0.090  13.349  0.00  0.00     0.076 C 
BRANCH  22  23
ATOM     23  C6  <0> d   1      18.493  -0.674  12.472  0.00  0.00     0.227 C 
ATOM     24  N2  <0> d   1      18.979  -0.842  11.089  0.00  0.00     0.089 N 
ATOM     25  C1  <0> d   1      20.400  -0.488  10.984  0.00  0.00     0.310 C 
ATOM     26  C3  <0> d   1      18.155  -0.000  10.195  0.00  0.00     0.272 C 
ATOM     27  C4  <0> d   1      16.816   0.186  10.950  0.00  0.00     0.032 C 
ATOM     28  C5  <0> d   1      17.298   0.302  12.420  0.00  0.00     0.038 C 
ENDBRANCH  22  23
ENDBRANCH   1  22
TORSDOF 6
ENDMDL
MODEL 6
REMARK VINA RESULT:      -7.8      3.526      5.805
REMARK  6 active torsions:
REMARK  status: ('A' for Active; 'I' for Inactive)
REMARK    1  A    between atoms: C6_6  and  C8_7 
REMARK    2  A    between atoms: C8_7  and  C9_8 
REMARK    3  A    between atoms: C15_14  and  C16_15 
REMARK    4  A    between atoms: C16_15  and  C17_16 
REMARK    5  A    between atoms: C17_16  and  S18_17 
REMARK    6  A    between atoms: S18_17  and  C21_20 
ROOT
ATOM      1  C9  <0> d   1      18.375   3.175  14.225  0.00  0.00    -0.028 A 
ATOM      2  C10 <0> d   1      17.687   4.196  14.758  0.00  0.00     0.096 A 
ATOM      3  N11 <0> d   1      17.147   4.965  13.763  0.00  0.00    -0.365 N 
ATOM      4  C12 <0> d   1      17.484   4.444  12.534  0.00  0.00     0.043 A 
ATOM      5  C13 <0> d   1      17.206   4.822  11.225  0.00  0.00     0.031 A 
ATOM      6  C14 <0> d   1      17.699   4.075  10.177  0.00  0.00     0.009 A 
ATOM      7  C15 <0> d   1      18.472   2.948  10.414  0.00  0.00    -0.056 A 
ATOM      8  C27 <0> d   1      18.757   2.557  11.692  0.00  0.00     0.021 A 
ATOM      9  C28 <0> d   1      18.273   3.304  12.769  0.00  0.00    -0.001 A 
ATOM     10  H41 <0> d   1      16.609   5.760  13.903  0.00  0.00     0.165 HD
ENDROOT
BRANCH   7  11
ATOM     11  C16 <0> d   1      19.001   2.146   9.252  0.00  0.00     0.054 C 
BRANCH  11  12
ATOM     12  C17 <0> d   1      18.207   0.844   9.129  0.00  0.00     0.150 C 
BRANCH  12  13
ATOM     13  S18 <0> d   1      19.357  -0.553   8.990  0.00  0.00     0.175 S 
ATOM     14  O19 <0> d   1      19.397  -1.036   7.655  0.00  0.00    -0.223 OA
ATOM     15  O20 <0> d   1      20.553  -0.287   9.710  0.00  0.00    -0.223 OA
BRANCH  13  16
ATOM     16  C21 <0> d   1      18.583  -1.850   9.899  0.00  0.00     0.059 A 
ATOM     17  C26 <0> d   1      18.017  -2.919   9.230  0.00  0.00     0.023 A 
ATOM     18  C25 <0> d   1      17.414  -3.938   9.943  0.00  0.00     0.002 A 
ATOM     19  C24 <0> d   1      17.369  -3.884  11.323  0.00  0.00     0.000 A 
ATOM     20  C23 <0> d   1      17.930  -2.812  11.991  0.00  0.00     0.002 A 
ATOM     21  C22 <0> d   1      18.538  -1.794  11.279  0.00  0.00     0.023 A 
ENDBRANCH  13  16
ENDBRANCH  12  13
ENDBRANCH  11  12
ENDBRANCH   7  11
BRANCH   1  22
ATOM     22  C8  <0> d   1      19.118   2.103  14.980  0.00  0.00     0.076 C 
BRANCH  22  23
ATOM     23  C6  <0> d   1      18.140   1.002  15.396  0.00  0.00     0.227 C 
ATOM     24  N2  <0> d   1      18.213   0.786  16.853  0.00  0.00     0.089 N 
ATOM     25  C1  <0> d   1      19.130   1.746  17.482  0.00  0.00     0.310 C 
ATOM     26  C3  <0> d   1      18.650  -0.604  17.102  0.00  0.00     0.272 C 
ATOM     27  C4  <0> d   1      18.248  -1.380  15.824  0.00  0.00     0.032 C 
ATOM     28  C5  <0> d   1      18.528  -0.329  14.718  0.00  0.00     0.038 C 
ENDBRANCH  22  23
ENDBRANCH   1  22
TORSDOF 6
ENDMDL
MODEL 7
REMARK VINA RESULT:      -7.8      3.602      5.555
REMARK  6 active torsions:
REMARK  status: ('A' for Active; 'I' for Inactive)
REMARK    1  A    between atoms: C6_6  and  C8_7 
REMARK    2  A    between atoms: C8_7  and  C9_8 
REMARK    3  A    between atoms: C15_14  and  C16_15 
REMARK    4  A    between atoms: C16_15  and  C17_16 
REMARK    5  A    between atoms: C17_16  and  S18_17 
REMARK    6  A    between atoms: S18_17  and  C21_20 
ROOT
ATOM      1  C9  <0> d   1      18.499  -2.971   7.079  0.00  0.00    -0.028 A 
ATOM      2  C10 <0> d   1      18.715  -3.572   5.899  0.00  0.00     0.096 A 
ATOM      3  N11 <0> d   1      19.057  -2.641   4.956  0.00  0.00    -0.365 N 
ATOM      4  C12 <0> d   1      19.070  -1.385   5.522  0.00  0.00     0.043 A 
ATOM      5  C13 <0> d   1      19.342  -0.115   5.026  0.00  0.00     0.031 A 
ATOM      6  C14 <0> d   1      19.269   0.977   5.864  0.00  0.00     0.009 A 
ATOM      7  C15 <0> d   1      18.924   0.822   7.199  0.00  0.00    -0.056 A 
ATOM      8  C27 <0> d   1      18.652  -0.417   7.707  0.00  0.00     0.021 A 
ATOM      9  C28 <0> d   1      18.714  -1.536   6.874  0.00  0.00    -0.001 A 
ATOM     10  H41 <0> d   1      19.260  -2.836   4.028  0.00  0.00     0.165 HD
ENDROOT
BRANCH   7  11
ATOM     11  C16 <0> d   1      18.849   2.031   8.097  0.00  0.00     0.054 C 
BRANCH  11  12
ATOM     12  C17 <0> d   1      19.609   1.749   9.395  0.00  0.00     0.150 C 
BRANCH  12  13
ATOM     13  S18 <0> d   1      18.691   2.446  10.796  0.00  0.00     0.175 S 
ATOM     14  O19 <0> d   1      19.423   3.506  11.395  0.00  0.00    -0.223 OA
ATOM     15  O20 <0> d   1      17.317   2.601  10.464  0.00  0.00    -0.223 OA
BRANCH  13  16
ATOM     16  C21 <0> d   1      18.703   1.168  12.009  0.00  0.00     0.059 A 
ATOM     17  C26 <0> d   1      17.587   0.372  12.185  0.00  0.00     0.023 A 
ATOM     18  C25 <0> d   1      17.599  -0.633  13.133  0.00  0.00     0.002 A 
ATOM     19  C24 <0> d   1      18.722  -0.838  13.910  0.00  0.00     0.000 A 
ATOM     20  C23 <0> d   1      19.838  -0.039  13.737  0.00  0.00     0.002 A 
ATOM     21  C22 <0> d   1      19.828   0.964  12.786  0.00  0.00     0.023 A 
ENDBRANCH  13  16
ENDBRANCH  12  13
ENDBRANCH  11  12
ENDBRANCH   7  11
BRANCH   1  22
ATOM     22  C8  <0> d   1      18.104  -3.643   8.368  0.00  0.00     0.076 C 
BRANCH  22  23
ATOM     23  C6  <0> d   1      19.324  -3.744   9.286  0.00  0.00     0.227 C 
ATOM     24  N2  <0> d   1      19.345  -5.057   9.956  0.00  0.00     0.089 N 
ATOM     25  C1  <0> d   1      18.246  -5.908   9.481  0.00  0.00     0.310 C 
ATOM     26  C3  <0> d   1      19.253  -4.842  11.417  0.00  0.00     0.272 C 
ATOM     27  C4  <0> d   1      19.791  -3.407  11.639  0.00  0.00     0.032 C 
ATOM     28  C5  <0> d   1      19.240  -2.668  10.391  0.00  0.00     0.038 C 
ENDBRANCH  22  23
ENDBRANCH   1  22
TORSDOF 6
ENDMDL
MODEL 8
REMARK VINA RESULT:      -7.8      3.639      6.538
REMARK  6 active torsions:
REMARK  status: ('A' for Active; 'I' for Inactive)
REMARK    1  A    between atoms: C6_6  and  C8_7 
REMARK    2  A    between atoms: C8_7  and  C9_8 
REMARK    3  A    between atoms: C15_14  and  C16_15 
REMARK    4  A    between atoms: C16_15  and  C17_16 
REMARK    5  A    between atoms: C17_16  and  S18_17 
REMARK    6  A    between atoms: S18_17  and  C21_20 
ROOT
ATOM      1  C9  <0> d   1      18.403   3.209  14.406  0.00  0.00    -0.028 A 
ATOM      2  C10 <0> d   1      17.780   4.254  14.971  0.00  0.00     0.096 A 
ATOM      3  N11 <0> d   1      17.225   5.047  14.003  0.00  0.00    -0.365 N 
ATOM      4  C12 <0> d   1      17.486   4.518  12.758  0.00  0.00     0.043 A 
ATOM      5  C13 <0> d   1      17.165   4.911  11.464  0.00  0.00     0.031 A 
ATOM      6  C14 <0> d   1      17.582   4.150  10.394  0.00  0.00     0.009 A 
ATOM      7  C15 <0> d   1      18.321   2.993  10.594  0.00  0.00    -0.056 A 
ATOM      8  C27 <0> d   1      18.648   2.587  11.857  0.00  0.00     0.021 A 
ATOM      9  C28 <0> d   1      18.241   3.347  12.956  0.00  0.00    -0.001 A 
ATOM     10  H41 <0> d   1      16.724   5.861  14.168  0.00  0.00     0.165 HD
ENDROOT
BRANCH   7  11
ATOM     11  C16 <0> d   1      18.766   2.175   9.408  0.00  0.00     0.054 C 
BRANCH  11  12
ATOM     12  C17 <0> d   1      17.894   0.923   9.295  0.00  0.00     0.150 C 
BRANCH  12  13
ATOM     13  S18 <0> d   1      18.950  -0.526   9.022  0.00  0.00     0.175 S 
ATOM     14  O19 <0> d   1      20.287  -0.252   9.419  0.00  0.00    -0.223 OA
ATOM     15  O20 <0> d   1      18.289  -1.711   9.443  0.00  0.00    -0.223 OA
BRANCH  13  16
ATOM     16  C21 <0> d   1      19.040  -0.679   7.268  0.00  0.00     0.059 A 
ATOM     17  C26 <0> d   1      19.047   0.454   6.476  0.00  0.00     0.023 A 
ATOM     18  C25 <0> d   1      19.122   0.334   5.101  0.00  0.00     0.002 A 
ATOM     19  C24 <0> d   1      19.181  -0.917   4.518  0.00  0.00     0.000 A 
ATOM     20  C23 <0> d   1      19.169  -2.050   5.311  0.00  0.00     0.002 A 
ATOM     21  C22 <0> d   1      19.099  -1.931   6.686  0.00  0.00     0.023 A 
ENDBRANCH  13  16
ENDBRANCH  12  13
ENDBRANCH  11  12
ENDBRANCH   7  11
BRANCH   1  22
ATOM     22  C8  <0> d   1      19.137   2.107  15.124  0.00  0.00     0.076 C 
BRANCH  22  23
ATOM     23  C6  <0> d   1      18.148   1.006  15.516  0.00  0.00     0.227 C 
ATOM     24  N2  <0> d   1      18.225   0.751  16.966  0.00  0.00     0.089 N 
ATOM     25  C1  <0> d   1      19.156   1.683  17.616  0.00  0.00     0.310 C 
ATOM     26  C3  <0> d   1      18.648  -0.651  17.175  0.00  0.00     0.272 C 
ATOM     27  C4  <0> d   1      18.231  -1.387  15.879  0.00  0.00     0.032 C 
ATOM     28  C5  <0> d   1      18.519  -0.310  14.800  0.00  0.00     0.038 C 
ENDBRANCH  22  23
ENDBRANCH   1  22
TORSDOF 6
ENDMDL
MODEL 9
REMARK VINA RESULT:      -7.8      4.527      8.175
REMARK  6 active torsions:
REMARK  status: ('A' for Active; 'I' for Inactive)
REMARK    1  A    between atoms: C6_6  and  C8_7 
REMARK    2  A    between atoms: C8_7  and  C9_8 
REMARK    3  A    between atoms: C15_14  and  C16_15 
REMARK    4  A    between atoms: C16_15  and  C17_16 
REMARK    5  A    between atoms: C17_16  and  S18_17 
REMARK    6  A    between atoms: S18_17  and  C21_20 
ROOT
ATOM      1  C9  <0> d   1      18.631   2.588  16.895  0.00  0.00    -0.028 A 
ATOM      2  C10 <0> d   1      18.881   2.680  18.210  0.00  0.00     0.096 A 
ATOM      3  N11 <0> d   1      19.137   1.438  18.725  0.00  0.00    -0.365 N 
ATOM      4  C12 <0> d   1      19.055   0.492  17.727  0.00  0.00     0.043 A 
ATOM      5  C13 <0> d   1      19.220  -0.888  17.701  0.00  0.00     0.031 A 
ATOM      6  C14 <0> d   1      19.069  -1.573  16.515  0.00  0.00     0.009 A 
ATOM      7  C15 <0> d   1      18.753  -0.900  15.344  0.00  0.00    -0.056 A 
ATOM      8  C27 <0> d   1      18.586   0.457  15.347  0.00  0.00     0.021 A 
ATOM      9  C28 <0> d   1      18.728   1.170  16.539  0.00  0.00    -0.001 A 
ATOM     10  H41 <0> d   1      19.344   1.252  19.654  0.00  0.00     0.165 HD
ENDROOT
BRANCH   7  11
ATOM     11  C16 <0> d   1      18.592  -1.670  14.058  0.00  0.00     0.054 C 
BRANCH  11  12
ATOM     12  C17 <0> d   1      19.321  -0.937  12.931  0.00  0.00     0.150 C 
BRANCH  12  13
ATOM     13  S18 <0> d   1      18.349  -1.057  11.404  0.00  0.00     0.175 S 
ATOM     14  O19 <0> d   1      19.027  -1.851  10.441  0.00  0.00    -0.223 OA
ATOM     15  O20 <0> d   1      16.977  -1.280  11.703  0.00  0.00    -0.223 OA
BRANCH  13  16
ATOM     16  C21 <0> d   1      18.387   0.571  10.731  0.00  0.00     0.059 A 
ATOM     17  C26 <0> d   1      19.246   0.867   9.689  0.00  0.00     0.023 A 
ATOM     18  C25 <0> d   1      19.273   2.143   9.158  0.00  0.00     0.002 A 
ATOM     19  C24 <0> d   1      18.447   3.124   9.672  0.00  0.00     0.000 A 
ATOM     20  C23 <0> d   1      17.590   2.828  10.717  0.00  0.00     0.002 A 
ATOM     21  C22 <0> d   1      17.560   1.551  11.246  0.00  0.00     0.023 A 
ENDBRANCH  13  16
ENDBRANCH  12  13
ENDBRANCH  11  12
ENDBRANCH   7  11
BRANCH   1  22
ATOM     22  C8  <0> d   1      18.305   3.726  15.963  0.00  0.00     0.076 C 
BRANCH  22  23
ATOM     23  C6  <0> d   1      19.548   4.089  15.147  0.00  0.00     0.227 C 
ATOM     24  N2  <0> d   1      19.916   5.496  15.387  0.00  0.00     0.089 N 
ATOM     25  C1  <0> d   1      19.042   6.104  16.400  0.00  0.00     0.310 C 
ATOM     26  C3  <0> d   1      19.832   6.231  14.106  0.00  0.00     0.272 C 
ATOM     27  C4  <0> d   1      20.009   5.145  13.017  0.00  0.00     0.032 C 
ATOM     28  C5  <0> d   1      19.246   3.947  13.640  0.00  0.00     0.038 C 
ENDBRANCH  22  23
ENDBRANCH   1  22
TORSDOF 6
ENDMDL
