MODEL 1
REMARK VINA RESULT:      -7.2      0.000      0.000
REMARK  6 active torsions:
REMARK  status: ('A' for Active; 'I' for Inactive)
REMARK    1  A    between atoms: C7_6  and  O9_7 
REMARK    2  A    between atoms: O9_7  and  C10_8 
REMARK    3  A    between atoms: C10_8  and  C12_10 
REMARK    4  A    between atoms: C12_10  and  O13_11 
REMARK    5  A    between atoms: C12_10  and  C14_12 
REMARK    6  A    between atoms: C12_10  and  C19_17 
ROOT
ATOM      1  C10 <0> d   1      18.123   1.887  11.220  0.00  0.00     0.305 C 
ATOM      2  O11 <0> d   1      17.330   2.788  11.089  0.00  0.00    -0.261 OA
ENDROOT
BRANCH   1   3
ATOM      3  O9  <0> d   1      18.066   0.819  10.409  0.00  0.00    -0.313 OA
BRANCH   3   4
ATOM      4  C7  <0> d   1      18.139   1.072   8.981  0.00  0.00     0.136 C 
ATOM      5  C6  <0> d   1      17.172   0.138   8.248  0.00  0.00     0.069 C 
ATOM      6  C4  <0> d   1      17.657  -1.311   8.415  0.00  0.00     0.224 C 
ATOM      7  N2  <0> d   1      18.977  -1.415   7.735  0.00  0.00    -0.061 N 
ATOM      8  C30 <0> d   1      17.979  -1.547   9.908  0.00  0.00     0.184 A 
ATOM      9  C1  <0> d   1      19.382  -2.820   7.606  0.00  0.00     0.273 C 
ATOM     10  C25 <0> d   1      19.895  -0.686   8.651  0.00  0.00     0.224 C 
ATOM     11  C3  <0> d   1      18.936  -0.766   6.418  0.00  0.00     0.273 C 
ATOM     12  C24 <0> d   1      19.569   0.822   8.493  0.00  0.00     0.069 C 
ATOM     13  C27 <0> d   1      19.477  -1.114  10.077  0.00  0.00     0.184 A 
ATOM     14  O29 <0> d   1      19.070  -2.469  10.276  0.00  0.00    -0.371 OA
ENDBRANCH   3   4
ENDBRANCH   1   3
BRANCH   1  15
ATOM     15  C12 <0> d   1      19.175   1.959  12.296  0.00  0.00     0.213 C 
BRANCH  15  16
ATOM     16  O13 <0> d   1      20.472   1.950  11.697  0.00  0.00    -0.370 OA
ATOM     17  H40 <0> d   1      20.467   2.127  10.746  0.00  0.00     0.212 HD
ENDBRANCH  15  16
BRANCH  15  18
ATOM     18  C14 <0> d   1      18.998   3.230  13.087  0.00  0.00     0.032 A 
ATOM     19  S18 <0> d   1      18.046   3.384  14.559  0.00  0.00    -0.102 SA
ATOM     20  C17 <0> d   1      18.449   5.093  14.676  0.00  0.00     0.050 A 
ATOM     21  C16 <0> d   1      19.230   5.438  13.651  0.00  0.00     0.008 A 
ATOM     22  C15 <0> d   1      19.533   4.411  12.775  0.00  0.00     0.019 A 
ENDBRANCH  15  18
BRANCH  15  23
ATOM     23  C19 <0> d   1      19.037   0.773  13.216  0.00  0.00     0.032 A 
ATOM     24  S23 <0> d   1      17.529  -0.049  13.592  0.00  0.00    -0.102 SA
ATOM     25  C22 <0> d   1      18.373  -1.179  14.645  0.00  0.00     0.050 A 
ATOM     26  C21 <0> d   1      19.674  -0.887  14.661  0.00  0.00     0.008 A 
ATOM     27  C20 <0> d   1      20.041   0.189  13.873  0.00  0.00     0.019 A 
ENDBRANCH  15  23
ENDBRANCH   1  15
TORSDOF 6
ENDMDL
MODEL 2
REMARK VINA RESULT:      -7.1      2.951      4.910
REMARK  6 active torsions:
REMARK  status: ('A' for Active; 'I' for Inactive)
REMARK    1  A    between atoms: C7_6  and  O9_7 
REMARK    2  A    between atoms: O9_7  and  C10_8 
REMARK    3  A    between atoms: C10_8  and  C12_10 
REMARK    4  A    between atoms: C12_10  and  O13_11 
REMARK    5  A    between atoms: C12_10  and  C14_12 
REMARK    6  A    between atoms: C12_10  and  C19_17 
ROOT
ATOM      1  C10 <0> d   1      20.079  -2.880  11.043  0.00  0.00     0.305 C 
ATOM      2  O11 <0> d   1      20.738  -3.593  11.762  0.00  0.00    -0.261 OA
ENDROOT
BRANCH   1   3
ATOM      3  O9  <0> d   1      19.292  -3.420  10.100  0.00  0.00    -0.313 OA
BRANCH   3   4
ATOM      4  C7  <0> d   1      19.000  -4.838  10.217  0.00  0.00     0.136 C 
ATOM      5  C6  <0> d   1      19.873  -5.620   9.231  0.00  0.00     0.069 C 
ATOM      6  C4  <0> d   1      19.457  -5.251   7.798  0.00  0.00     0.224 C 
ATOM      7  N2  <0> d   1      18.055  -5.712   7.613  0.00  0.00    -0.061 N 
ATOM      8  C30 <0> d   1      19.367  -3.711   7.699  0.00  0.00     0.184 A 
ATOM      9  C1  <0> d   1      17.673  -5.650   6.196  0.00  0.00     0.273 C 
ATOM     10  C25 <0> d   1      17.263  -4.739   8.413  0.00  0.00     0.224 C 
ATOM     11  C3  <0> d   1      17.882  -7.074   8.136  0.00  0.00     0.273 C 
ATOM     12  C24 <0> d   1      17.521  -5.080   9.904  0.00  0.00     0.069 C 
ATOM     13  C27 <0> d   1      17.900  -3.359   8.126  0.00  0.00     0.184 A 
ATOM     14  O29 <0> d   1      18.368  -3.100   6.802  0.00  0.00    -0.371 OA
ENDBRANCH   3   4
ENDBRANCH   1   3
BRANCH   1  15
ATOM     15  C12 <0> d   1      20.144  -1.383  11.204  0.00  0.00     0.213 C 
BRANCH  15  16
ATOM     16  O13 <0> d   1      21.499  -0.948  11.082  0.00  0.00    -0.370 OA
ATOM     17  H40 <0> d   1      21.674  -0.088  11.487  0.00  0.00     0.212 HD
ENDBRANCH  15  16
BRANCH  15  18
ATOM     18  C14 <0> d   1      19.309  -0.726  10.135  0.00  0.00     0.032 A 
ATOM     19  S18 <0> d   1      17.582  -0.407  10.251  0.00  0.00    -0.102 SA
ATOM     20  C17 <0> d   1      17.578   0.312   8.644  0.00  0.00     0.050 A 
ATOM     21  C16 <0> d   1      18.809   0.267   8.132  0.00  0.00     0.008 A 
ATOM     22  C15 <0> d   1      19.763  -0.305   8.954  0.00  0.00     0.019 A 
ENDBRANCH  15  18
BRANCH  15  23
ATOM     23  C19 <0> d   1      19.613  -1.000  12.562  0.00  0.00     0.032 A 
ATOM     24  S23 <0> d   1      19.901   0.537  13.366  0.00  0.00    -0.102 SA
ATOM     25  C22 <0> d   1      18.943   0.026  14.751  0.00  0.00     0.050 A 
ATOM     26  C21 <0> d   1      18.488  -1.211  14.547  0.00  0.00     0.008 A 
ATOM     27  C20 <0> d   1      18.857  -1.777  13.339  0.00  0.00     0.019 A 
ENDBRANCH  15  23
ENDBRANCH   1  15
TORSDOF 6
ENDMDL
MODEL 3
REMARK VINA RESULT:      -7.1      3.057      6.809
REMARK  6 active torsions:
REMARK  status: ('A' for Active; 'I' for Inactive)
REMARK    1  A    between atoms: C7_6  and  O9_7 
REMARK    2  A    between atoms: O9_7  and  C10_8 
REMARK    3  A    between atoms: C10_8  and  C12_10 
REMARK    4  A    between atoms: C12_10  and  O13_11 
REMARK    5  A    between atoms: C12_10  and  C14_12 
REMARK    6  A    between atoms: C12_10  and  C19_17 
ROOT
ATOM      1  C10 <0> d   1      18.005  -1.102  10.588  0.00  0.00     0.305 C 
ATOM      2  O11 <0> d   1      17.143  -1.754  11.127  0.00  0.00    -0.261 OA
ENDROOT
BRANCH   1   3
ATOM      3  O9  <0> d   1      18.211   0.173  10.954  0.00  0.00    -0.313 OA
BRANCH   3   4
ATOM      4  C7  <0> d   1      18.453   0.423  12.364  0.00  0.00     0.136 C 
ATOM      5  C6  <0> d   1      17.393   1.389  12.899  0.00  0.00     0.069 C 
ATOM      6  C4  <0> d   1      17.578   2.757  12.221  0.00  0.00     0.224 C 
ATOM      7  N2  <0> d   1      18.907   3.279  12.638  0.00  0.00    -0.061 N 
ATOM      8  C30 <0> d   1      17.719   2.529  10.699  0.00  0.00     0.184 A 
ATOM      9  C1  <0> d   1      19.048   4.692  12.262  0.00  0.00     0.273 C 
ATOM     10  C25 <0> d   1      19.865   2.435  11.874  0.00  0.00     0.224 C 
ATOM     11  C3  <0> d   1      19.104   3.106  14.083  0.00  0.00     0.273 C 
ATOM     12  C24 <0> d   1      19.847   1.035  12.539  0.00  0.00     0.069 C 
ATOM     13  C27 <0> d   1      19.251   2.297  10.461  0.00  0.00     0.184 A 
ATOM     14  O29 <0> d   1      18.579   3.430   9.909  0.00  0.00    -0.371 OA
ENDBRANCH   3   4
ENDBRANCH   1   3
BRANCH   1  15
ATOM     15  C12 <0> d   1      18.849  -1.719   9.503  0.00  0.00     0.213 C 
BRANCH  15  16
ATOM     16  O13 <0> d   1      20.214  -1.339   9.687  0.00  0.00    -0.370 OA
ATOM     17  H40 <0> d   1      20.346  -0.659  10.361  0.00  0.00     0.212 HD
ENDBRANCH  15  16
BRANCH  15  18
ATOM     18  C14 <0> d   1      18.733  -3.221   9.569  0.00  0.00     0.032 A 
ATOM     19  S18 <0> d   1      17.503  -4.179   8.755  0.00  0.00    -0.102 SA
ATOM     20  C17 <0> d   1      18.185  -5.664   9.409  0.00  0.00     0.050 A 
ATOM     21  C16 <0> d   1      19.240  -5.372  10.171  0.00  0.00     0.008 A 
ATOM     22  C15 <0> d   1      19.542  -4.025  10.259  0.00  0.00     0.019 A 
ENDBRANCH  15  18
BRANCH  15  23
ATOM     23  C19 <0> d   1      18.370  -1.238   8.158  0.00  0.00     0.032 A 
ATOM     24  S23 <0> d   1      19.107  -1.644   6.614  0.00  0.00    -0.102 SA
ATOM     25  C22 <0> d   1      17.914  -0.677   5.756  0.00  0.00     0.050 A 
ATOM     26  C21 <0> d   1      17.074  -0.124   6.632  0.00  0.00     0.008 A 
ATOM     27  C20 <0> d   1      17.325  -0.433   7.957  0.00  0.00     0.019 A 
ENDBRANCH  15  23
ENDBRANCH   1  15
TORSDOF 6
ENDMDL
MODEL 4
REMARK VINA RESULT:      -7.0      2.326      3.222
REMARK  6 active torsions:
REMARK  status: ('A' for Active; 'I' for Inactive)
REMARK    1  A    between atoms: C7_6  and  O9_7 
REMARK    2  A    between atoms: O9_7  and  C10_8 
REMARK    3  A    between atoms: C10_8  and  C12_10 
REMARK    4  A    between atoms: C12_10  and  O13_11 
REMARK    5  A    between atoms: C12_10  and  C14_12 
REMARK    6  A    between atoms: C12_10  and  C19_17 
ROOT
ATOM      1  C10 <0> d   1      20.209  -0.521  10.621  0.00  0.00     0.305 C 
ATOM      2  O11 <0> d   1      20.797  -0.267   9.596  0.00  0.00    -0.261 OA
ENDROOT
BRANCH   1   3
ATOM      3  O9  <0> d   1      19.545  -1.680  10.744  0.00  0.00    -0.313 OA
BRANCH   3   4
ATOM      4  C7  <0> d   1      18.411  -1.888   9.861  0.00  0.00     0.136 C 
ATOM      5  C6  <0> d   1      17.226  -2.421  10.670  0.00  0.00     0.069 C 
ATOM      6  C4  <0> d   1      17.573  -3.823  11.197  0.00  0.00     0.224 C 
ATOM      7  N2  <0> d   1      17.739  -4.709  10.013  0.00  0.00    -0.061 N 
ATOM      8  C30 <0> d   1      18.982  -3.769  11.831  0.00  0.00     0.184 A 
ATOM      9  C1  <0> d   1      17.799  -6.117  10.426  0.00  0.00     0.273 C 
ATOM     10  C25 <0> d   1      19.040  -4.276   9.437  0.00  0.00     0.224 C 
ATOM     11  C3  <0> d   1      16.651  -4.499   9.049  0.00  0.00     0.273 C 
ATOM     12  C24 <0> d   1      18.791  -2.896   8.774  0.00  0.00     0.069 C 
ATOM     13  C27 <0> d   1      19.973  -4.056  10.650  0.00  0.00     0.184 A 
ATOM     14  O29 <0> d   1      19.856  -4.954  11.755  0.00  0.00    -0.371 OA
ENDBRANCH   3   4
ENDBRANCH   1   3
BRANCH   1  15
ATOM     15  C12 <0> d   1      20.222   0.465  11.761  0.00  0.00     0.213 C 
BRANCH  15  16
ATOM     16  O13 <0> d   1      21.573   0.759  12.121  0.00  0.00    -0.370 OA
ATOM     17  H40 <0> d   1      21.942   1.529  11.667  0.00  0.00     0.212 HD
ENDBRANCH  15  16
BRANCH  15  18
ATOM     18  C14 <0> d   1      19.528   1.733  11.336  0.00  0.00     0.032 A 
ATOM     19  S18 <0> d   1      18.284   1.842  10.097  0.00  0.00    -0.102 SA
ATOM     20  C17 <0> d   1      18.149   3.579  10.343  0.00  0.00     0.050 A 
ATOM     21  C16 <0> d   1      19.007   3.964  11.289  0.00  0.00     0.008 A 
ATOM     22  C15 <0> d   1      19.768   2.946  11.836  0.00  0.00     0.019 A 
ENDBRANCH  15  18
BRANCH  15  23
ATOM     23  C19 <0> d   1      19.504  -0.128  12.946  0.00  0.00     0.032 A 
ATOM     24  S23 <0> d   1      17.809   0.129  13.337  0.00  0.00    -0.102 SA
ATOM     25  C22 <0> d   1      17.951  -0.895  14.760  0.00  0.00     0.050 A 
ATOM     26  C21 <0> d   1      19.201  -1.346  14.863  0.00  0.00     0.008 A 
ATOM     27  C20 <0> d   1      20.059  -0.923  13.863  0.00  0.00     0.019 A 
ENDBRANCH  15  23
ENDBRANCH   1  15
TORSDOF 6
ENDMDL
MODEL 5
REMARK VINA RESULT:      -6.9      0.970      1.893
REMARK  6 active torsions:
REMARK  status: ('A' for Active; 'I' for Inactive)
REMARK    1  A    between atoms: C7_6  and  O9_7 
REMARK    2  A    between atoms: O9_7  and  C10_8 
REMARK    3  A    between atoms: C10_8  and  C12_10 
REMARK    4  A    between atoms: C12_10  and  O13_11 
REMARK    5  A    between atoms: C12_10  and  C14_12 
REMARK    6  A    between atoms: C12_10  and  C19_17 
ROOT
ATOM      1  C10 <0> d   1      18.144   2.084  11.374  0.00  0.00     0.305 C 
ATOM      2  O11 <0> d   1      17.137   2.734  11.526  0.00  0.00    -0.261 OA
ENDROOT
BRANCH   1   3
ATOM      3  O9  <0> d   1      18.305   1.345  10.266  0.00  0.00    -0.313 OA
BRANCH   3   4
ATOM      4  C7  <0> d   1      18.032  -0.077  10.376  0.00  0.00     0.136 C 
ATOM      5  C6  <0> d   1      19.315  -0.866  10.102  0.00  0.00     0.069 C 
ATOM      6  C4  <0> d   1      19.723  -0.659   8.635  0.00  0.00     0.224 C 
ATOM      7  N2  <0> d   1      18.649  -1.249   7.792  0.00  0.00    -0.061 N 
ATOM      8  C30 <0> d   1      19.663   0.854   8.323  0.00  0.00     0.184 A 
ATOM      9  C1  <0> d   1      19.084  -1.342   6.392  0.00  0.00     0.273 C 
ATOM     10  C25 <0> d   1      17.529  -0.280   7.929  0.00  0.00     0.224 C 
ATOM     11  C3  <0> d   1      18.255  -2.570   8.299  0.00  0.00     0.273 C 
ATOM     12  C24 <0> d   1      16.956  -0.468   9.358  0.00  0.00     0.069 C 
ATOM     13  C27 <0> d   1      18.187   1.118   7.864  0.00  0.00     0.184 A 
ATOM     14  O29 <0> d   1      19.285   1.300   6.969  0.00  0.00    -0.371 OA
ENDBRANCH   3   4
ENDBRANCH   1   3
BRANCH   1  15
ATOM     15  C12 <0> d   1      19.218   2.102  12.431  0.00  0.00     0.213 C 
BRANCH  15  16
ATOM     16  O13 <0> d   1      20.502   2.042  11.806  0.00  0.00    -0.370 OA
ATOM     17  H40 <0> d   1      21.226   1.844  12.415  0.00  0.00     0.212 HD
ENDBRANCH  15  16
BRANCH  15  18
ATOM     18  C14 <0> d   1      19.110   3.373  13.235  0.00  0.00     0.032 A 
ATOM     19  S18 <0> d   1      18.356   3.509  14.819  0.00  0.00    -0.102 SA
ATOM     20  C17 <0> d   1      18.722   5.229  14.878  0.00  0.00     0.050 A 
ATOM     21  C16 <0> d   1      19.352   5.590  13.758  0.00  0.00     0.008 A 
ATOM     22  C15 <0> d   1      19.566   4.566  12.853  0.00  0.00     0.019 A 
ENDBRANCH  15  18
BRANCH  15  23
ATOM     23  C19 <0> d   1      19.046   0.915  13.343  0.00  0.00     0.032 A 
ATOM     24  S23 <0> d   1      17.514   0.348  13.992  0.00  0.00    -0.102 SA
ATOM     25  C22 <0> d   1      18.326  -0.959  14.847  0.00  0.00     0.050 A 
ATOM     26  C21 <0> d   1      19.638  -0.897  14.615  0.00  0.00     0.008 A 
ATOM     27  C20 <0> d   1      20.036   0.136  13.786  0.00  0.00     0.019 A 
ENDBRANCH  15  23
ENDBRANCH   1  15
TORSDOF 6
ENDMDL
MODEL 6
REMARK VINA RESULT:      -6.9      2.983      6.925
REMARK  6 active torsions:
REMARK  status: ('A' for Active; 'I' for Inactive)
REMARK    1  A    between atoms: C7_6  and  O9_7 
REMARK    2  A    between atoms: O9_7  and  C10_8 
REMARK    3  A    between atoms: C10_8  and  C12_10 
REMARK    4  A    between atoms: C12_10  and  O13_11 
REMARK    5  A    between atoms: C12_10  and  C14_12 
REMARK    6  A    between atoms: C12_10  and  C19_17 
ROOT
ATOM      1  C10 <0> d   1      18.121  -1.990  11.619  0.00  0.00     0.305 C 
ATOM      2  O11 <0> d   1      17.088  -2.598  11.472  0.00  0.00    -0.261 OA
ENDROOT
BRANCH   1   3
ATOM      3  O9  <0> d   1      18.325  -1.273  12.735  0.00  0.00    -0.313 OA
BRANCH   3   4
ATOM      4  C7  <0> d   1      18.120   0.161  12.644  0.00  0.00     0.136 C 
ATOM      5  C6  <0> d   1      19.427   0.886  12.975  0.00  0.00     0.069 C 
ATOM      6  C4  <0> d   1      19.776   0.633  14.451  0.00  0.00     0.224 C 
ATOM      7  N2  <0> d   1      18.702   1.257  15.270  0.00  0.00    -0.061 N 
ATOM      8  C30 <0> d   1      19.637  -0.881  14.731  0.00  0.00     0.184 A 
ATOM      9  C1  <0> d   1      19.093   1.304  16.685  0.00  0.00     0.273 C 
ATOM     10  C25 <0> d   1      17.544   0.342  15.077  0.00  0.00     0.224 C 
ATOM     11  C3  <0> d   1      18.386   2.604  14.776  0.00  0.00     0.273 C 
ATOM     12  C24 <0> d   1      17.029   0.583  13.634  0.00  0.00     0.069 C 
ATOM     13  C27 <0> d   1      18.136  -1.085  15.136  0.00  0.00     0.184 A 
ATOM     14  O29 <0> d   1      19.194  -1.333  16.064  0.00  0.00    -0.371 OA
ENDBRANCH   3   4
ENDBRANCH   1   3
BRANCH   1  15
ATOM     15  C12 <0> d   1      19.181  -2.036  10.549  0.00  0.00     0.213 C 
BRANCH  15  16
ATOM     16  O13 <0> d   1      20.474  -2.007  11.157  0.00  0.00    -0.370 OA
ATOM     17  H40 <0> d   1      20.562  -2.592  11.922  0.00  0.00     0.212 HD
ENDBRANCH  15  16
BRANCH  15  18
ATOM     18  C14 <0> d   1      19.032  -3.304   9.748  0.00  0.00     0.032 A 
ATOM     19  S18 <0> d   1      19.515  -4.907  10.288  0.00  0.00    -0.102 SA
ATOM     20  C17 <0> d   1      18.969  -5.614   8.772  0.00  0.00     0.050 A 
ATOM     21  C16 <0> d   1      18.486  -4.655   7.981  0.00  0.00     0.008 A 
ATOM     22  C15 <0> d   1      18.521  -3.381   8.519  0.00  0.00     0.019 A 
ENDBRANCH  15  18
BRANCH  15  23
ATOM     23  C19 <0> d   1      19.028  -0.845   9.638  0.00  0.00     0.032 A 
ATOM     24  S23 <0> d   1      17.498  -0.214   9.043  0.00  0.00    -0.102 SA
ATOM     25  C22 <0> d   1      18.333   1.053   8.153  0.00  0.00     0.050 A 
ATOM     26  C21 <0> d   1      19.649   0.934   8.336  0.00  0.00     0.008 A 
ATOM     27  C20 <0> d   1      20.033  -0.112   9.155  0.00  0.00     0.019 A 
ENDBRANCH  15  23
ENDBRANCH   1  15
TORSDOF 6
ENDMDL
MODEL 7
REMARK VINA RESULT:      -6.8      2.700      5.799
REMARK  6 active torsions:
REMARK  status: ('A' for Active; 'I' for Inactive)
REMARK    1  A    between atoms: C7_6  and  O9_7 
REMARK    2  A    between atoms: O9_7  and  C10_8 
REMARK    3  A    between atoms: C10_8  and  C12_10 
REMARK    4  A    between atoms: C12_10  and  O13_11 
REMARK    5  A    between atoms: C12_10  and  C14_12 
REMARK    6  A    between atoms: C12_10  and  C19_17 
ROOT
ATOM      1  C10 <0> d   1      19.053   0.190  11.235  0.00  0.00     0.305 C 
ATOM      2  O11 <0> d   1      19.784  -0.530  10.599  0.00  0.00    -0.261 OA
ENDROOT
BRANCH   1   3
ATOM      3  O9  <0> d   1      19.135   0.216  12.575  0.00  0.00    -0.313 OA
BRANCH   3   4
ATOM      4  C7  <0> d   1      18.807  -1.011  13.280  0.00  0.00     0.136 C 
ATOM      5  C6  <0> d   1      17.358  -0.945  13.771  0.00  0.00     0.069 C 
ATOM      6  C4  <0> d   1      17.243   0.160  14.834  0.00  0.00     0.224 C 
ATOM      7  N2  <0> d   1      18.086  -0.249  15.988  0.00  0.00    -0.061 N 
ATOM      8  C30 <0> d   1      17.935   1.432  14.290  0.00  0.00     0.184 A 
ATOM      9  C1  <0> d   1      17.820   0.606  17.153  0.00  0.00     0.273 C 
ATOM     10  C25 <0> d   1      19.474  -0.044  15.494  0.00  0.00     0.224 C 
ATOM     11  C3  <0> d   1      17.860  -1.662  16.323  0.00  0.00     0.273 C 
ATOM     12  C24 <0> d   1      19.751  -1.179  14.474  0.00  0.00     0.069 C 
ATOM     13  C27 <0> d   1      19.438   1.293  14.716  0.00  0.00     0.184 A 
ATOM     14  O29 <0> d   1      18.616   2.343  15.229  0.00  0.00    -0.371 OA
ENDBRANCH   3   4
ENDBRANCH   1   3
BRANCH   1  15
ATOM     15  C12 <0> d   1      18.047   1.059  10.526  0.00  0.00     0.213 C 
BRANCH  15  16
ATOM     16  O13 <0> d   1      16.726   0.640  10.873  0.00  0.00    -0.370 OA
ATOM     17  H40 <0> d   1      16.173   0.413  10.113  0.00  0.00     0.212 HD
ENDBRANCH  15  16
BRANCH  15  18
ATOM     18  C14 <0> d   1      18.243   2.495  10.939  0.00  0.00     0.032 A 
ATOM     19  S18 <0> d   1      19.754   3.187  11.516  0.00  0.00    -0.102 SA
ATOM     20  C17 <0> d   1      18.993   4.762  11.709  0.00  0.00     0.050 A 
ATOM     21  C16 <0> d   1      17.709   4.684  11.355  0.00  0.00     0.008 A 
ATOM     22  C15 <0> d   1      17.296   3.433  10.930  0.00  0.00     0.019 A 
ENDBRANCH  15  18
BRANCH  15  23
ATOM     23  C19 <0> d   1      18.238   0.935   9.036  0.00  0.00     0.032 A 
ATOM     24  S23 <0> d   1      17.419  -0.228   8.002  0.00  0.00    -0.102 SA
ATOM     25  C22 <0> d   1      18.255   0.397   6.586  0.00  0.00     0.050 A 
ATOM     26  C21 <0> d   1      19.068   1.390   6.949  0.00  0.00     0.008 A 
ATOM     27  C20 <0> d   1      19.059   1.687   8.300  0.00  0.00     0.019 A 
ENDBRANCH  15  23
ENDBRANCH   1  15
TORSDOF 6
ENDMDL
MODEL 8
REMARK VINA RESULT:      -6.8      2.825      6.701
REMARK  6 active torsions:
REMARK  status: ('A' for Active; 'I' for Inactive)
REMARK    1  A    between atoms: C7_6  and  O9_7 
REMARK    2  A    between atoms: O9_7  and  C10_8 
REMARK    3  A    between atoms: C10_8  and  C12_10 
REMARK    4  A    between atoms: C12_10  and  O13_11 
REMARK    5  A    between atoms: C12_10  and  C14_12 
REMARK    6  A    between atoms: C12_10  and  C19_17 
ROOT
ATOM      1  C10 <0> d   1      19.254   2.615  11.912  0.00  0.00     0.305 C 
ATOM      2  O11 <0> d   1      20.091   2.918  11.096  0.00  0.00    -0.261 OA
ENDROOT
BRANCH   1   3
ATOM      3  O9  <0> d   1      19.109   3.344  13.029  0.00  0.00    -0.313 OA
BRANCH   3   4
ATOM      4  C7  <0> d   1      18.951   4.778  12.864  0.00  0.00     0.136 C 
ATOM      5  C6  <0> d   1      19.982   5.507  13.729  0.00  0.00     0.069 C 
ATOM      6  C4  <0> d   1      19.664   5.246  15.210  0.00  0.00     0.224 C 
ATOM      7  N2  <0> d   1      18.337   5.857  15.490  0.00  0.00    -0.061 N 
ATOM      8  C30 <0> d   1      19.431   3.729  15.397  0.00  0.00     0.184 A 
ATOM      9  C1  <0> d   1      18.081   5.897  16.936  0.00  0.00     0.273 C 
ATOM     10  C25 <0> d   1      17.383   4.938  14.813  0.00  0.00     0.224 C 
ATOM     11  C3  <0> d   1      18.253   7.206  14.913  0.00  0.00     0.273 C 
ATOM     12  C24 <0> d   1      17.537   5.186  13.290  0.00  0.00     0.069 C 
ATOM     13  C27 <0> d   1      17.903   3.513  15.116  0.00  0.00     0.184 A 
ATOM     14  O29 <0> d   1      18.462   3.265  16.407  0.00  0.00    -0.371 OA
ENDBRANCH   3   4
ENDBRANCH   1   3
BRANCH   1  15
ATOM     15  C12 <0> d   1      18.373   1.416  11.676  0.00  0.00     0.213 C 
BRANCH  15  16
ATOM     16  O13 <0> d   1      17.003   1.822  11.684  0.00  0.00    -0.370 OA
ATOM     17  H40 <0> d   1      16.849   2.695  11.300  0.00  0.00     0.212 HD
ENDBRANCH  15  16
BRANCH  15  18
ATOM     18  C14 <0> d   1      18.705   0.802  10.340  0.00  0.00     0.032 A 
ATOM     19  S18 <0> d   1      19.963  -0.396  10.060  0.00  0.00    -0.102 SA
ATOM     20  C17 <0> d   1      19.572  -0.448   8.345  0.00  0.00     0.050 A 
ATOM     21  C16 <0> d   1      18.575   0.400   8.088  0.00  0.00     0.008 A 
ATOM     22  C15 <0> d   1      18.097   1.089   9.189  0.00  0.00     0.019 A 
ENDBRANCH  15  18
BRANCH  15  23
ATOM     23  C19 <0> d   1      18.602   0.400  12.766  0.00  0.00     0.032 A 
ATOM     24  S23 <0> d   1      20.086   0.226  13.693  0.00  0.00    -0.102 SA
ATOM     25  C22 <0> d   1      19.391  -1.104  14.612  0.00  0.00     0.050 A 
ATOM     26  C21 <0> d   1      18.148  -1.338  14.188  0.00  0.00     0.008 A 
ATOM     27  C20 <0> d   1      17.713  -0.508  13.170  0.00  0.00     0.019 A 
ENDBRANCH  15  23
ENDBRANCH   1  15
TORSDOF 6
ENDMDL
MODEL 9
REMARK VINA RESULT:      -6.8      2.459      4.271
REMARK  6 active torsions:
REMARK  status: ('A' for Active; 'I' for Inactive)
REMARK    1  A    between atoms: C7_6  and  O9_7 
REMARK    2  A    between atoms: O9_7  and  C10_8 
REMARK    3  A    between atoms: C10_8  and  C12_10 
REMARK    4  A    between atoms: C12_10  and  O13_11 
REMARK    5  A    between atoms: C12_10  and  C14_12 
REMARK    6  A    between atoms: C12_10  and  C19_17 
ROOT
ATOM      1  C10 <0> d   1      18.881  -0.437  11.592  0.00  0.00     0.305 C 
ATOM      2  O11 <0> d   1      19.875   0.105  11.170  0.00  0.00    -0.261 OA
ENDROOT
BRANCH   1   3
ATOM      3  O9  <0> d   1      18.643  -1.725  11.300  0.00  0.00    -0.313 OA
BRANCH   3   4
ATOM      4  C7  <0> d   1      19.666  -2.431  10.550  0.00  0.00     0.136 C 
ATOM      5  C6  <0> d   1      19.100  -2.860   9.194  0.00  0.00     0.069 C 
ATOM      6  C4  <0> d   1      17.994  -3.903   9.425  0.00  0.00     0.224 C 
ATOM      7  N2  <0> d   1      18.635  -5.097  10.037  0.00  0.00    -0.061 N 
ATOM      8  C30 <0> d   1      17.048  -3.372  10.526  0.00  0.00     0.184 A 
ATOM      9  C1  <0> d   1      17.709  -6.238  10.036  0.00  0.00     0.273 C 
ATOM     10  C25 <0> d   1      18.925  -4.659  11.428  0.00  0.00     0.224 C 
ATOM     11  C3  <0> d   1      19.877  -5.440   9.332  0.00  0.00     0.273 C 
ATOM     12  C24 <0> d   1      20.114  -3.666  11.338  0.00  0.00     0.069 C 
ATOM     13  C27 <0> d   1      17.677  -3.863  11.876  0.00  0.00     0.184 A 
ATOM     14  O29 <0> d   1      16.397  -4.327  11.443  0.00  0.00    -0.371 OA
ENDBRANCH   3   4
ENDBRANCH   1   3
BRANCH   1  15
ATOM     15  C12 <0> d   1      17.907   0.334  12.445  0.00  0.00     0.213 C 
BRANCH  15  16
ATOM     16  O13 <0> d   1      16.574   0.068  12.005  0.00  0.00    -0.370 OA
ATOM     17  H40 <0> d   1      16.068   0.861  11.779  0.00  0.00     0.212 HD
ENDBRANCH  15  16
BRANCH  15  18
ATOM     18  C14 <0> d   1      18.055  -0.089  13.884  0.00  0.00     0.032 A 
ATOM     19  S18 <0> d   1      19.344  -1.106  14.514  0.00  0.00    -0.102 SA
ATOM     20  C17 <0> d   1      18.668  -1.009  16.136  0.00  0.00     0.050 A 
ATOM     21  C16 <0> d   1      17.563  -0.262  16.115  0.00  0.00     0.008 A 
ATOM     22  C15 <0> d   1      17.225   0.245  14.873  0.00  0.00     0.019 A 
ENDBRANCH  15  18
BRANCH  15  23
ATOM     23  C19 <0> d   1      18.191   1.810  12.323  0.00  0.00     0.032 A 
ATOM     24  S23 <0> d   1      17.633   2.845  11.016  0.00  0.00    -0.102 SA
ATOM     25  C22 <0> d   1      18.422   4.239  11.745  0.00  0.00     0.050 A 
ATOM     26  C21 <0> d   1      19.035   3.868  12.870  0.00  0.00     0.008 A 
ATOM     27  C20 <0> d   1      18.908   2.528  13.189  0.00  0.00     0.019 A 
ENDBRANCH  15  23
ENDBRANCH   1  15
TORSDOF 6
ENDMDL
