MODEL 1
REMARK VINA RESULT:      -9.1      0.000      0.000
REMARK  6 active torsions:
REMARK  status: ('A' for Active; 'I' for Inactive)
REMARK    1  A    between atoms: C2_2  and  C3_3 
REMARK    2  A    between atoms: C2_2  and  C23_23 
REMARK    3  A    between atoms: C3_3  and  C4_4 
REMARK    4  A    between atoms: C4_4  and  C5_5 
REMARK    5  A    between atoms: C5_5  and  N6_6 
REMARK    6  A    between atoms: C10_10  and  N11_11 
ROOT
ATOM      1  N6  <0> d   1      18.745  -3.559  10.529  0.00  0.00    -0.068 N 
ATOM      2  H7  <0> d   1      19.011  -2.825   9.890  0.00  0.00     0.280 HD
ATOM      3  C8  <0> d   1      19.812  -3.763  11.516  0.00  0.00     0.264 C 
ATOM      4  C9  <0> d   1      19.929  -2.566  12.415  0.00  0.00     0.026 C 
ATOM      5  C10 <0> d   1      18.980  -1.675  12.544  0.00  0.00     0.021 C 
ATOM      6  C21 <0> d   1      17.681  -1.765  11.792  0.00  0.00     0.085 C 
ATOM      7  C22 <0> d   1      17.508  -3.178  11.231  0.00  0.00     0.241 C 
ENDROOT
BRANCH   1   8
ATOM      8  C5  <0> d   1      18.522  -4.804   9.782  0.00  0.00     0.235 C 
BRANCH   8   9
ATOM      9  C4  <0> d   1      19.162  -4.690   8.397  0.00  0.00     0.035 C 
BRANCH   9  10
ATOM     10  C3  <0> d   1      18.331  -3.745   7.528  0.00  0.00     0.085 C 
BRANCH  10  11
ATOM     11  C2  <0> d   1      19.245  -2.771   6.828  0.00  0.00     0.159 C 
ATOM     12  O1  <0> d   1      20.029  -3.169   5.994  0.00  0.00    -0.292 OA
BRANCH  11  13
ATOM     13  C23 <0> d   1      19.189  -1.341   7.162  0.00  0.00     0.010 A 
ATOM     14  C29 <0> d   1      19.410  -0.918   8.478  0.00  0.00     0.018 A 
ATOM     15  C28 <0> d   1      19.363   0.425   8.784  0.00  0.00     0.043 A 
ATOM     16  C26 <0> d   1      19.085   1.355   7.793  0.00  0.00     0.116 A 
ATOM     17  C25 <0> d   1      18.858   0.943   6.488  0.00  0.00     0.043 A 
ATOM     18  F27 <0> d   1      19.035   2.670   8.100  0.00  0.00    -0.206 F 
ATOM     19  C24 <0> d   1      18.909  -0.396   6.168  0.00  0.00     0.018 A 
ENDBRANCH  11  13
ENDBRANCH  10  11
ENDBRANCH   9  10
ENDBRANCH   8   9
ENDBRANCH   1   8
BRANCH   5  20
ATOM     20  N11 <0> d   1      19.182  -0.601  13.409  0.00  0.00    -0.266 N 
ATOM     21  C20 <0> d   1      18.711  -0.509  14.718  0.00  0.00     0.070 A 
ATOM     22  C15 <0> d   1      19.141   0.723  15.216  0.00  0.00     0.063 A 
ATOM     23  C19 <0> d   1      17.977  -1.362  15.527  0.00  0.00     0.032 A 
ATOM     24  N14 <0> d   1      19.852   1.345  14.192  0.00  0.00    -0.306 N 
ATOM     25  C16 <0> d   1      18.822   1.093  16.513  0.00  0.00     0.032 A 
ATOM     26  C12 <0> d   1      19.858   0.528  13.122  0.00  0.00     0.332 A 
ATOM     27  H39 <0> d   1      20.270   2.218  14.241  0.00  0.00     0.171 HD
ATOM     28  O13 <0> d   1      20.393   0.771  12.058  0.00  0.00    -0.246 OA
ATOM     29  C17 <0> d   1      18.084   0.239  17.310  0.00  0.00     0.002 A 
ATOM     30  C18 <0> d   1      17.662  -0.985  16.819  0.00  0.00     0.002 A 
ENDBRANCH   5  20
TORSDOF 6
ENDMDL
MODEL 2
REMARK VINA RESULT:      -8.7      2.367      6.998
REMARK  6 active torsions:
REMARK  status: ('A' for Active; 'I' for Inactive)
REMARK    1  A    between atoms: C2_2  and  C3_3 
REMARK    2  A    between atoms: C2_2  and  C23_23 
REMARK    3  A    between atoms: C3_3  and  C4_4 
REMARK    4  A    between atoms: C4_4  and  C5_5 
REMARK    5  A    between atoms: C5_5  and  N6_6 
REMARK    6  A    between atoms: C10_10  and  N11_11 
ROOT
ATOM      1  N6  <0> d   1      18.336  -1.288  13.161  0.00  0.00    -0.068 N 
ATOM      2  H7  <0> d   1      17.996  -2.237  13.152  0.00  0.00     0.280 HD
ATOM      3  C8  <0> d   1      19.643  -1.227  12.497  0.00  0.00     0.264 C 
ATOM      4  C9  <0> d   1      19.498  -1.513  11.030  0.00  0.00     0.026 C 
ATOM      5  C10 <0> d   1      18.356  -1.434  10.397  0.00  0.00     0.021 C 
ATOM      6  C21 <0> d   1      17.075  -1.054  11.087  0.00  0.00     0.085 C 
ATOM      7  C22 <0> d   1      17.390  -0.418  12.443  0.00  0.00     0.241 C 
ENDROOT
BRANCH   1   8
ATOM      8  C5  <0> d   1      18.469  -0.827  14.550  0.00  0.00     0.235 C 
BRANCH   8   9
ATOM      9  C4  <0> d   1      17.827   0.553  14.695  0.00  0.00     0.035 C 
BRANCH   9  10
ATOM     10  C3  <0> d   1      18.901   1.581  15.052  0.00  0.00     0.085 C 
BRANCH  10  11
ATOM     11  C2  <0> d   1      18.525   2.923  14.477  0.00  0.00     0.159 C 
ATOM     12  O1  <0> d   1      18.240   3.840  15.217  0.00  0.00    -0.292 OA
BRANCH  11  13
ATOM     13  C23 <0> d   1      18.496   3.117  13.021  0.00  0.00     0.010 A 
ATOM     14  C29 <0> d   1      19.515   2.586  12.221  0.00  0.00     0.018 A 
ATOM     15  C28 <0> d   1      19.479   2.765  10.855  0.00  0.00     0.043 A 
ATOM     16  C26 <0> d   1      18.442   3.480  10.274  0.00  0.00     0.116 A 
ATOM     17  C25 <0> d   1      17.432   4.015  11.061  0.00  0.00     0.043 A 
ATOM     18  F27 <0> d   1      18.415   3.657   8.935  0.00  0.00    -0.206 F 
ATOM     19  C24 <0> d   1      17.453   3.837  12.426  0.00  0.00     0.018 A 
ENDBRANCH  11  13
ENDBRANCH  10  11
ENDBRANCH   9  10
ENDBRANCH   8   9
ENDBRANCH   1   8
BRANCH   5  20
ATOM     20  N11 <0> d   1      18.325  -1.713   9.032  0.00  0.00    -0.266 N 
ATOM     21  C20 <0> d   1      18.520  -0.790   8.006  0.00  0.00     0.070 A 
ATOM     22  C15 <0> d   1      18.408  -1.493   6.804  0.00  0.00     0.063 A 
ATOM     23  C19 <0> d   1      18.799   0.567   7.988  0.00  0.00     0.032 A 
ATOM     24  N14 <0> d   1      18.138  -2.818   7.136  0.00  0.00    -0.306 N 
ATOM     25  C16 <0> d   1      18.562  -0.828   5.598  0.00  0.00     0.032 A 
ATOM     26  C12 <0> d   1      18.094  -2.919   8.478  0.00  0.00     0.332 A 
ATOM     27  H39 <0> d   1      18.004  -3.545   6.508  0.00  0.00     0.171 HD
ATOM     28  O13 <0> d   1      17.878  -3.944   9.097  0.00  0.00    -0.246 OA
ATOM     29  C17 <0> d   1      18.832   0.527   5.590  0.00  0.00     0.002 A 
ATOM     30  C18 <0> d   1      18.950   1.223   6.781  0.00  0.00     0.002 A 
ENDBRANCH   5  20
TORSDOF 6
ENDMDL
MODEL 3
REMARK VINA RESULT:      -8.6      1.984      3.096
REMARK  6 active torsions:
REMARK  status: ('A' for Active; 'I' for Inactive)
REMARK    1  A    between atoms: C2_2  and  C3_3 
REMARK    2  A    between atoms: C2_2  and  C23_23 
REMARK    3  A    between atoms: C3_3  and  C4_4 
REMARK    4  A    between atoms: C4_4  and  C5_5 
REMARK    5  A    between atoms: C5_5  and  N6_6 
REMARK    6  A    between atoms: C10_10  and  N11_11 
ROOT
ATOM      1  N6  <0> d   1      18.211  -3.095  12.151  0.00  0.00    -0.068 N 
ATOM      2  H7  <0> d   1      17.822  -3.328  13.052  0.00  0.00     0.280 HD
ATOM      3  C8  <0> d   1      17.350  -2.113  11.482  0.00  0.00     0.264 C 
ATOM      4  C9  <0> d   1      17.389  -0.800  12.210  0.00  0.00     0.026 C 
ATOM      5  C10 <0> d   1      18.334  -0.481  13.056  0.00  0.00     0.021 C 
ATOM      6  C21 <0> d   1      19.471  -1.409  13.383  0.00  0.00     0.085 C 
ATOM      7  C22 <0> d   1      19.553  -2.515  12.328  0.00  0.00     0.241 C 
ENDROOT
BRANCH   1   8
ATOM      8  C5  <0> d   1      18.305  -4.308  11.327  0.00  0.00     0.235 C 
BRANCH   8   9
ATOM      9  C4  <0> d   1      17.817  -4.002   9.910  0.00  0.00     0.035 C 
BRANCH   9  10
ATOM     10  C3  <0> d   1      19.010  -3.971   8.955  0.00  0.00     0.085 C 
BRANCH  10  11
ATOM     11  C2  <0> d   1      18.683  -3.101   7.768  0.00  0.00     0.159 C 
ATOM     12  O1  <0> d   1      18.324  -3.607   6.727  0.00  0.00    -0.292 OA
BRANCH  11  13
ATOM     13  C23 <0> d   1      18.805  -1.640   7.872  0.00  0.00     0.010 A 
ATOM     14  C29 <0> d   1      18.146  -0.813   6.955  0.00  0.00     0.018 A 
ATOM     15  C28 <0> d   1      18.259   0.556   7.062  0.00  0.00     0.043 A 
ATOM     16  C26 <0> d   1      19.033   1.114   8.069  0.00  0.00     0.116 A 
ATOM     17  C25 <0> d   1      19.694   0.301   8.977  0.00  0.00     0.043 A 
ATOM     18  F27 <0> d   1      19.145   2.458   8.165  0.00  0.00    -0.206 F 
ATOM     19  C24 <0> d   1      19.584  -1.069   8.885  0.00  0.00     0.018 A 
ENDBRANCH  11  13
ENDBRANCH  10  11
ENDBRANCH   9  10
ENDBRANCH   8   9
ENDBRANCH   1   8
BRANCH   5  20
ATOM     20  N11 <0> d   1      18.285   0.765  13.678  0.00  0.00    -0.266 N 
ATOM     21  C20 <0> d   1      18.782   1.958  13.154  0.00  0.00     0.070 A 
ATOM     22  C15 <0> d   1      18.522   2.953  14.100  0.00  0.00     0.063 A 
ATOM     23  C19 <0> d   1      19.410   2.285  11.963  0.00  0.00     0.032 A 
ATOM     24  N14 <0> d   1      17.884   2.333  15.171  0.00  0.00    -0.306 N 
ATOM     25  C16 <0> d   1      18.904   4.261  13.848  0.00  0.00     0.032 A 
ATOM     26  C12 <0> d   1      17.757   1.022  14.889  0.00  0.00     0.332 A 
ATOM     27  H39 <0> d   1      17.583   2.770  15.983  0.00  0.00     0.171 HD
ATOM     28  O13 <0> d   1      17.243   0.196  15.619  0.00  0.00    -0.246 OA
ATOM     29  C17 <0> d   1      19.536   4.576  12.660  0.00  0.00     0.002 A 
ATOM     30  C18 <0> d   1      19.788   3.592  11.721  0.00  0.00     0.002 A 
ENDBRANCH   5  20
TORSDOF 6
ENDMDL
MODEL 4
REMARK VINA RESULT:      -8.5      2.763      7.030
REMARK  6 active torsions:
REMARK  status: ('A' for Active; 'I' for Inactive)
REMARK    1  A    between atoms: C2_2  and  C3_3 
REMARK    2  A    between atoms: C2_2  and  C23_23 
REMARK    3  A    between atoms: C3_3  and  C4_4 
REMARK    4  A    between atoms: C4_4  and  C5_5 
REMARK    5  A    between atoms: C5_5  and  N6_6 
REMARK    6  A    between atoms: C10_10  and  N11_11 
ROOT
ATOM      1  N6  <0> d   1      18.618   1.062   9.068  0.00  0.00    -0.068 N 
ATOM      2  H7  <0> d   1      17.815   0.804   9.621  0.00  0.00     0.280 HD
ATOM      3  C8  <0> d   1      19.803   0.350   9.560  0.00  0.00     0.264 C 
ATOM      4  C9  <0> d   1      19.677  -1.122   9.295  0.00  0.00     0.026 C 
ATOM      5  C10 <0> d   1      18.838  -1.621   8.423  0.00  0.00     0.021 C 
ATOM      6  C21 <0> d   1      17.915  -0.759   7.607  0.00  0.00     0.085 C 
ATOM      7  C22 <0> d   1      18.387   0.696   7.661  0.00  0.00     0.241 C 
ENDROOT
BRANCH   1   8
ATOM      8  C5  <0> d   1      18.839   2.511   9.169  0.00  0.00     0.235 C 
BRANCH   8   9
ATOM      9  C4  <0> d   1      17.887   3.102  10.211  0.00  0.00     0.035 C 
BRANCH   9  10
ATOM     10  C3  <0> d   1      18.685   3.550  11.436  0.00  0.00     0.085 C 
BRANCH  10  11
ATOM     11  C2  <0> d   1      18.172   2.834  12.659  0.00  0.00     0.159 C 
ATOM     12  O1  <0> d   1      17.667   3.466  13.563  0.00  0.00    -0.292 OA
BRANCH  11  13
ATOM     13  C23 <0> d   1      18.291   1.373  12.760  0.00  0.00     0.010 A 
ATOM     14  C29 <0> d   1      17.222   0.554  12.378  0.00  0.00     0.018 A 
ATOM     15  C28 <0> d   1      17.341  -0.816  12.469  0.00  0.00     0.043 A 
ATOM     16  C26 <0> d   1      18.514  -1.382  12.947  0.00  0.00     0.116 A 
ATOM     17  C25 <0> d   1      19.575  -0.577  13.334  0.00  0.00     0.043 A 
ATOM     18  F27 <0> d   1      18.623  -2.726  13.039  0.00  0.00    -0.206 F 
ATOM     19  C24 <0> d   1      19.471   0.794  13.242  0.00  0.00     0.018 A 
ENDBRANCH  11  13
ENDBRANCH  10  11
ENDBRANCH   9  10
ENDBRANCH   8   9
ENDBRANCH   1   8
BRANCH   5  20
ATOM     20  N11 <0> d   1      18.800  -3.003   8.243  0.00  0.00    -0.266 N 
ATOM     21  C20 <0> d   1      18.160  -3.916   9.079  0.00  0.00     0.070 A 
ATOM     22  C15 <0> d   1      18.370  -5.183   8.529  0.00  0.00     0.063 A 
ATOM     23  C19 <0> d   1      17.410  -3.783  10.238  0.00  0.00     0.032 A 
ATOM     24  N14 <0> d   1      19.138  -5.000   7.381  0.00  0.00    -0.306 N 
ATOM     25  C16 <0> d   1      17.839  -6.302   9.150  0.00  0.00     0.032 A 
ATOM     26  C12 <0> d   1      19.380  -3.684   7.237  0.00  0.00     0.332 A 
ATOM     27  H39 <0> d   1      19.447  -5.702   6.788  0.00  0.00     0.171 HD
ATOM     28  O13 <0> d   1      20.026  -3.185   6.335  0.00  0.00    -0.246 OA
ATOM     29  C17 <0> d   1      17.099  -6.160  10.308  0.00  0.00     0.002 A 
ATOM     30  C18 <0> d   1      16.886  -4.904  10.851  0.00  0.00     0.002 A 
ENDBRANCH   5  20
TORSDOF 6
ENDMDL
MODEL 5
REMARK VINA RESULT:      -8.4      3.768      5.732
REMARK  6 active torsions:
REMARK  status: ('A' for Active; 'I' for Inactive)
REMARK    1  A    between atoms: C2_2  and  C3_3 
REMARK    2  A    between atoms: C2_2  and  C23_23 
REMARK    3  A    between atoms: C3_3  and  C4_4 
REMARK    4  A    between atoms: C4_4  and  C5_5 
REMARK    5  A    between atoms: C5_5  and  N6_6 
REMARK    6  A    between atoms: C10_10  and  N11_11 
ROOT
ATOM      1  N6  <0> d   1      18.981   0.758  11.517  0.00  0.00    -0.068 N 
ATOM      2  H7  <0> d   1      18.832   1.734  11.726  0.00  0.00     0.280 HD
ATOM      3  C8  <0> d   1      20.231   0.307  12.140  0.00  0.00     0.264 C 
ATOM      4  C9  <0> d   1      20.101   0.310  13.636  0.00  0.00     0.026 C 
ATOM      5  C10 <0> d   1      18.947   0.330  14.252  0.00  0.00     0.021 C 
ATOM      6  C21 <0> d   1      17.638   0.358  13.513  0.00  0.00     0.085 C 
ATOM      7  C22 <0> d   1      17.864  -0.037  12.052  0.00  0.00     0.241 C 
ENDROOT
BRANCH   1   8
ATOM      8  C5  <0> d   1      19.064   0.575  10.062  0.00  0.00     0.235 C 
BRANCH   8   9
ATOM      9  C4  <0> d   1      18.565   1.838   9.358  0.00  0.00     0.035 C 
BRANCH   9  10
ATOM     10  C3  <0> d   1      19.045   3.072  10.124  0.00  0.00     0.085 C 
BRANCH  10  11
ATOM     11  C2  <0> d   1      17.974   3.511  11.091  0.00  0.00     0.159 C 
ATOM     12  O1  <0> d   1      16.828   3.153  10.928  0.00  0.00    -0.292 OA
BRANCH  11  13
ATOM     13  C23 <0> d   1      18.320   4.378  12.225  0.00  0.00     0.010 A 
ATOM     14  C29 <0> d   1      17.311   5.020  12.952  0.00  0.00     0.018 A 
ATOM     15  C28 <0> d   1      17.641   5.827  14.020  0.00  0.00     0.043 A 
ATOM     16  C26 <0> d   1      18.972   6.012  14.366  0.00  0.00     0.116 A 
ATOM     17  C25 <0> d   1      19.978   5.384  13.647  0.00  0.00     0.043 A 
ATOM     18  F27 <0> d   1      19.290   6.809  15.411  0.00  0.00    -0.206 F 
ATOM     19  C24 <0> d   1      19.661   4.570  12.582  0.00  0.00     0.018 A 
ENDBRANCH  11  13
ENDBRANCH  10  11
ENDBRANCH   9  10
ENDBRANCH   8   9
ENDBRANCH   1   8
BRANCH   5  20
ATOM     20  N11 <0> d   1      18.931   0.324  15.646  0.00  0.00    -0.266 N 
ATOM     21  C20 <0> d   1      18.948   1.451  16.466  0.00  0.00     0.070 A 
ATOM     22  C15 <0> d   1      18.919   0.990  17.785  0.00  0.00     0.063 A 
ATOM     23  C19 <0> d   1      18.968   2.813  16.211  0.00  0.00     0.032 A 
ATOM     24  N14 <0> d   1      18.894  -0.401  17.725  0.00  0.00    -0.306 N 
ATOM     25  C16 <0> d   1      18.923   1.897  18.833  0.00  0.00     0.032 A 
ATOM     26  C12 <0> d   1      18.903  -0.770  16.430  0.00  0.00     0.332 A 
ATOM     27  H39 <0> d   1      18.875  -1.002  18.486  0.00  0.00     0.171 HD
ATOM     28  O13 <0> d   1      18.887  -1.918  16.029  0.00  0.00    -0.246 OA
ATOM     29  C17 <0> d   1      18.950   3.253  18.569  0.00  0.00     0.002 A 
ATOM     30  C18 <0> d   1      18.973   3.710  17.262  0.00  0.00     0.002 A 
ENDBRANCH   5  20
TORSDOF 6
ENDMDL
MODEL 6
REMARK VINA RESULT:      -8.4      2.826      8.050
REMARK  6 active torsions:
REMARK  status: ('A' for Active; 'I' for Inactive)
REMARK    1  A    between atoms: C2_2  and  C3_3 
REMARK    2  A    between atoms: C2_2  and  C23_23 
REMARK    3  A    between atoms: C3_3  and  C4_4 
REMARK    4  A    between atoms: C4_4  and  C5_5 
REMARK    5  A    between atoms: C5_5  and  N6_6 
REMARK    6  A    between atoms: C10_10  and  N11_11 
ROOT
ATOM      1  N6  <0> d   1      17.754   2.938  10.757  0.00  0.00    -0.068 N 
ATOM      2  H7  <0> d   1      17.285   3.188   9.900  0.00  0.00     0.280 HD
ATOM      3  C8  <0> d   1      17.238   1.653  11.244  0.00  0.00     0.264 C 
ATOM      4  C9  <0> d   1      17.635   0.544  10.312  0.00  0.00     0.026 C 
ATOM      5  C10 <0> d   1      18.604   0.656   9.441  0.00  0.00     0.021 C 
ATOM      6  C21 <0> d   1      19.410   1.916   9.288  0.00  0.00     0.085 C 
ATOM      7  C22 <0> d   1      19.200   2.812  10.510  0.00  0.00     0.241 C 
ENDROOT
BRANCH   1   8
ATOM      8  C5  <0> d   1      17.516   3.976  11.769  0.00  0.00     0.235 C 
BRANCH   8   9
ATOM      9  C4  <0> d   1      18.698   4.024  12.740  0.00  0.00     0.035 C 
BRANCH   9  10
ATOM     10  C3  <0> d   1      18.178   4.010  14.178  0.00  0.00     0.085 C 
BRANCH  10  11
ATOM     11  C2  <0> d   1      18.887   2.933  14.959  0.00  0.00     0.159 C 
ATOM     12  O1  <0> d   1      19.513   3.221  15.956  0.00  0.00    -0.292 OA
BRANCH  11  13
ATOM     13  C23 <0> d   1      18.823   1.536  14.508  0.00  0.00     0.010 A 
ATOM     14  C29 <0> d   1      17.727   0.736  14.850  0.00  0.00     0.018 A 
ATOM     15  C28 <0> d   1      17.670  -0.571  14.419  0.00  0.00     0.043 A 
ATOM     16  C26 <0> d   1      18.702  -1.098  13.656  0.00  0.00     0.116 A 
ATOM     17  C25 <0> d   1      19.795  -0.313  13.318  0.00  0.00     0.043 A 
ATOM     18  F27 <0> d   1      18.643  -2.382  13.240  0.00  0.00    -0.206 F 
ATOM     19  C24 <0> d   1      19.861   0.997  13.738  0.00  0.00     0.018 A 
ENDBRANCH  11  13
ENDBRANCH  10  11
ENDBRANCH   9  10
ENDBRANCH   8   9
ENDBRANCH   1   8
BRANCH   5  20
ATOM     20  N11 <0> d   1      18.901  -0.434   8.623  0.00  0.00    -0.266 N 
ATOM     21  C20 <0> d   1      18.829  -0.453   7.232  0.00  0.00     0.070 A 
ATOM     22  C15 <0> d   1      19.212  -1.734   6.826  0.00  0.00     0.063 A 
ATOM     23  C19 <0> d   1      18.493   0.500   6.283  0.00  0.00     0.032 A 
ATOM     24  N14 <0> d   1      19.495  -2.455   7.983  0.00  0.00    -0.306 N 
ATOM     25  C16 <0> d   1      19.242  -2.050   5.477  0.00  0.00     0.032 A 
ATOM     26  C12 <0> d   1      19.299  -1.650   9.044  0.00  0.00     0.332 A 
ATOM     27  H39 <0> d   1      19.784  -3.380   8.019  0.00  0.00     0.171 HD
ATOM     28  O13 <0> d   1      19.457  -1.971  10.206  0.00  0.00    -0.246 OA
ATOM     29  C17 <0> d   1      18.898  -1.095   4.539  0.00  0.00     0.002 A 
ATOM     30  C18 <0> d   1      18.525   0.176   4.940  0.00  0.00     0.002 A 
ENDBRANCH   5  20
TORSDOF 6
ENDMDL
MODEL 7
REMARK VINA RESULT:      -8.2      3.042      7.811
REMARK  6 active torsions:
REMARK  status: ('A' for Active; 'I' for Inactive)
REMARK    1  A    between atoms: C2_2  and  C3_3 
REMARK    2  A    between atoms: C2_2  and  C23_23 
REMARK    3  A    between atoms: C3_3  and  C4_4 
REMARK    4  A    between atoms: C4_4  and  C5_5 
REMARK    5  A    between atoms: C5_5  and  N6_6 
REMARK    6  A    between atoms: C10_10  and  N11_11 
ROOT
ATOM      1  N6  <0> d   1      18.173   2.929  11.551  0.00  0.00    -0.068 N 
ATOM      2  H7  <0> d   1      17.712   3.181  10.690  0.00  0.00     0.280 HD
ATOM      3  C8  <0> d   1      17.403   1.883  12.234  0.00  0.00     0.264 C 
ATOM      4  C9  <0> d   1      17.446   0.605  11.448  0.00  0.00     0.026 C 
ATOM      5  C10 <0> d   1      18.343   0.363  10.526  0.00  0.00     0.021 C 
ATOM      6  C21 <0> d   1      19.414   1.355  10.163  0.00  0.00     0.085 C 
ATOM      7  C22 <0> d   1      19.522   2.419  11.257  0.00  0.00     0.241 C 
ENDROOT
BRANCH   1   8
ATOM      8  C5  <0> d   1      18.273   4.111  12.419  0.00  0.00     0.235 C 
BRANCH   8   9
ATOM      9  C4  <0> d   1      19.235   3.819  13.571  0.00  0.00     0.035 C 
BRANCH   9  10
ATOM     10  C3  <0> d   1      18.469   3.836  14.894  0.00  0.00     0.085 C 
BRANCH  10  11
ATOM     11  C2  <0> d   1      19.180   2.967  15.899  0.00  0.00     0.159 C 
ATOM     12  O1  <0> d   1      20.057   3.436  16.592  0.00  0.00    -0.292 OA
BRANCH  11  13
ATOM     13  C23 <0> d   1      18.816   1.550  16.034  0.00  0.00     0.010 A 
ATOM     14  C29 <0> d   1      18.089   1.114  17.147  0.00  0.00     0.018 A 
ATOM     15  C28 <0> d   1      17.744  -0.215  17.265  0.00  0.00     0.043 A 
ATOM     16  C26 <0> d   1      18.126  -1.122  16.287  0.00  0.00     0.116 A 
ATOM     17  C25 <0> d   1      18.852  -0.699  15.184  0.00  0.00     0.043 A 
ATOM     18  F27 <0> d   1      17.790  -2.425  16.410  0.00  0.00    -0.206 F 
ATOM     19  C24 <0> d   1      19.198   0.628  15.051  0.00  0.00     0.018 A 
ENDBRANCH  11  13
ENDBRANCH  10  11
ENDBRANCH   9  10
ENDBRANCH   8   9
ENDBRANCH   1   8
BRANCH   5  20
ATOM     20  N11 <0> d   1      18.303  -0.858   9.855  0.00  0.00    -0.266 N 
ATOM     21  C20 <0> d   1      18.898  -2.043  10.284  0.00  0.00     0.070 A 
ATOM     22  C15 <0> d   1      18.609  -3.011   9.319  0.00  0.00     0.063 A 
ATOM     23  C19 <0> d   1      19.636  -2.386  11.406  0.00  0.00     0.032 A 
ATOM     24  N14 <0> d   1      17.857  -2.382   8.330  0.00  0.00    -0.306 N 
ATOM     25  C16 <0> d   1      19.073  -4.307   9.480  0.00  0.00     0.032 A 
ATOM     26  C12 <0> d   1      17.691  -1.092   8.679  0.00  0.00     0.332 A 
ATOM     27  H39 <0> d   1      17.512  -2.801   7.526  0.00  0.00     0.171 HD
ATOM     28  O13 <0> d   1      17.080  -0.264   8.030  0.00  0.00    -0.246 OA
ATOM     29  C17 <0> d   1      19.814  -4.638  10.599  0.00  0.00     0.002 A 
ATOM     30  C18 <0> d   1      20.095  -3.680  11.558  0.00  0.00     0.002 A 
ENDBRANCH   5  20
TORSDOF 6
ENDMDL
MODEL 8
REMARK VINA RESULT:      -8.2      2.796      4.151
REMARK  6 active torsions:
REMARK  status: ('A' for Active; 'I' for Inactive)
REMARK    1  A    between atoms: C2_2  and  C3_3 
REMARK    2  A    between atoms: C2_2  and  C23_23 
REMARK    3  A    between atoms: C3_3  and  C4_4 
REMARK    4  A    between atoms: C4_4  and  C5_5 
REMARK    5  A    between atoms: C5_5  and  N6_6 
REMARK    6  A    between atoms: C10_10  and  N11_11 
ROOT
ATOM      1  N6  <0> d   1      18.318   2.157  11.052  0.00  0.00    -0.068 N 
ATOM      2  H7  <0> d   1      18.032   2.908  11.660  0.00  0.00     0.280 HD
ATOM      3  C8  <0> d   1      19.689   1.751  11.382  0.00  0.00     0.264 C 
ATOM      4  C9  <0> d   1      19.733   1.113  12.741  0.00  0.00     0.026 C 
ATOM      5  C10 <0> d   1      18.670   0.646  13.345  0.00  0.00     0.021 C 
ATOM      6  C21 <0> d   1      17.299   0.712  12.731  0.00  0.00     0.085 C 
ATOM      7  C22 <0> d   1      17.419   1.005  11.234  0.00  0.00     0.241 C 
ENDROOT
BRANCH   1   8
ATOM      8  C5  <0> d   1      18.263   2.607   9.654  0.00  0.00     0.235 C 
BRANCH   8   9
ATOM      9  C4  <0> d   1      19.418   1.982   8.870  0.00  0.00     0.035 C 
BRANCH   9  10
ATOM     10  C3  <0> d   1      18.862   1.189   7.687  0.00  0.00     0.085 C 
BRANCH  10  11
ATOM     11  C2  <0> d   1      19.206  -0.270   7.854  0.00  0.00     0.159 C 
ATOM     12  O1  <0> d   1      19.600  -0.680   8.924  0.00  0.00    -0.292 OA
BRANCH  11  13
ATOM     13  C23 <0> d   1      19.069  -1.191   6.717  0.00  0.00     0.010 A 
ATOM     14  C29 <0> d   1      18.561  -0.731   5.497  0.00  0.00     0.018 A 
ATOM     15  C28 <0> d   1      18.442  -1.599   4.433  0.00  0.00     0.043 A 
ATOM     16  C26 <0> d   1      18.814  -2.928   4.574  0.00  0.00     0.116 A 
ATOM     17  C25 <0> d   1      19.312  -3.392   5.782  0.00  0.00     0.043 A 
ATOM     18  F27 <0> d   1      18.689  -3.775   3.528  0.00  0.00    -0.206 F 
ATOM     19  C24 <0> d   1      19.442  -2.534   6.851  0.00  0.00     0.018 A 
ENDBRANCH  11  13
ENDBRANCH  10  11
ENDBRANCH   9  10
ENDBRANCH   8   9
ENDBRANCH   1   8
BRANCH   5  20
ATOM     20  N11 <0> d   1      18.815   0.065  14.603  0.00  0.00    -0.266 N 
ATOM     21  C20 <0> d   1      18.917   0.753  15.812  0.00  0.00     0.070 A 
ATOM     22  C15 <0> d   1      19.044  -0.211  16.815  0.00  0.00     0.063 A 
ATOM     23  C19 <0> d   1      18.897   2.098  16.146  0.00  0.00     0.032 A 
ATOM     24  N14 <0> d   1      19.024  -1.453  16.184  0.00  0.00    -0.306 N 
ATOM     25  C16 <0> d   1      19.162   0.181  18.139  0.00  0.00     0.032 A 
ATOM     26  C12 <0> d   1      18.886  -1.255  14.860  0.00  0.00     0.332 A 
ATOM     27  H39 <0> d   1      19.097  -2.314  16.624  0.00  0.00     0.171 HD
ATOM     28  O13 <0> d   1      18.833  -2.134  14.021  0.00  0.00    -0.246 OA
ATOM     29  C17 <0> d   1      19.148   1.525  18.461  0.00  0.00     0.002 A 
ATOM     30  C18 <0> d   1      19.017   2.480  17.468  0.00  0.00     0.002 A 
ENDBRANCH   5  20
TORSDOF 6
ENDMDL
MODEL 9
REMARK VINA RESULT:      -8.2      2.842      4.187
REMARK  6 active torsions:
REMARK  status: ('A' for Active; 'I' for Inactive)
REMARK    1  A    between atoms: C2_2  and  C3_3 
REMARK    2  A    between atoms: C2_2  and  C23_23 
REMARK    3  A    between atoms: C3_3  and  C4_4 
REMARK    4  A    between atoms: C4_4  and  C5_5 
REMARK    5  A    between atoms: C5_5  and  N6_6 
REMARK    6  A    between atoms: C10_10  and  N11_11 
ROOT
ATOM      1  N6  <0> d   1      18.983   0.807   9.115  0.00  0.00    -0.068 N 
ATOM      2  H7  <0> d   1      19.659   0.147   9.467  0.00  0.00     0.280 HD
ATOM      3  C8  <0> d   1      17.646   0.451   9.603  0.00  0.00     0.264 C 
ATOM      4  C9  <0> d   1      17.561   0.650  11.089  0.00  0.00     0.026 C 
ATOM      5  C10 <0> d   1      18.407   1.390  11.759  0.00  0.00     0.021 C 
ATOM      6  C21 <0> d   1      19.552   2.106  11.098  0.00  0.00     0.085 C 
ATOM      7  C22 <0> d   1      19.322   2.160   9.586  0.00  0.00     0.241 C 
ENDROOT
BRANCH   1   8
ATOM      8  C5  <0> d   1      18.992   0.782   7.646  0.00  0.00     0.235 C 
BRANCH   8   9
ATOM      9  C4  <0> d   1      17.819  -0.062   7.142  0.00  0.00     0.035 C 
BRANCH   9  10
ATOM     10  C3  <0> d   1      17.884  -0.169   5.618  0.00  0.00     0.085 C 
BRANCH  10  11
ATOM     11  C2  <0> d   1      19.010  -1.092   5.226  0.00  0.00     0.159 C 
ATOM     12  O1  <0> d   1      19.972  -0.654   4.632  0.00  0.00    -0.292 OA
BRANCH  11  13
ATOM     13  C23 <0> d   1      18.938  -2.521   5.559  0.00  0.00     0.010 A 
ATOM     14  C29 <0> d   1      19.729  -3.044   6.588  0.00  0.00     0.018 A 
ATOM     15  C28 <0> d   1      19.652  -4.384   6.900  0.00  0.00     0.043 A 
ATOM     16  C26 <0> d   1      18.801  -5.216   6.187  0.00  0.00     0.116 A 
ATOM     17  C25 <0> d   1      18.020  -4.707   5.160  0.00  0.00     0.043 A 
ATOM     18  F27 <0> d   1      18.734  -6.531   6.493  0.00  0.00    -0.206 F 
ATOM     19  C24 <0> d   1      18.082  -3.368   4.844  0.00  0.00     0.018 A 
ENDBRANCH  11  13
ENDBRANCH  10  11
ENDBRANCH   9  10
ENDBRANCH   8   9
ENDBRANCH   1   8
BRANCH   5  20
ATOM     20  N11 <0> d   1      18.241   1.519  13.137  0.00  0.00    -0.266 N 
ATOM     21  C20 <0> d   1      18.454   0.516  14.082  0.00  0.00     0.070 A 
ATOM     22  C15 <0> d   1      18.174   1.074  15.331  0.00  0.00     0.063 A 
ATOM     23  C19 <0> d   1      18.874  -0.802  13.992  0.00  0.00     0.032 A 
ATOM     24  N14 <0> d   1      17.791   2.394  15.107  0.00  0.00    -0.306 N 
ATOM     25  C16 <0> d   1      18.304   0.303  16.476  0.00  0.00     0.032 A 
ATOM     26  C12 <0> d   1      17.840   2.631  13.782  0.00  0.00     0.332 A 
ATOM     27  H39 <0> d   1      17.532   3.033  15.788  0.00  0.00     0.171 HD
ATOM     28  O13 <0> d   1      17.565   3.689  13.249  0.00  0.00    -0.246 OA
ATOM     29  C17 <0> d   1      18.716  -1.012  16.376  0.00  0.00     0.002 A 
ATOM     30  C18 <0> d   1      19.000  -1.563  15.138  0.00  0.00     0.002 A 
ENDBRANCH   5  20
TORSDOF 6
ENDMDL
