MODEL 1
REMARK VINA RESULT:      -8.4      0.000      0.000
REMARK  4 active torsions:
REMARK  status: ('A' for Active; 'I' for Inactive)
REMARK    1  A    between atoms: O2_2  and  C3_3 
REMARK    2  A    between atoms: C4_4  and  N5_5 
REMARK    3  A    between atoms: N18_17  and  C19_18 
REMARK    4  A    between atoms: C23_22  and  C24_23 
ROOT
ATOM      1  C3  ZIN A   1      18.649  -0.596  10.331  0.00  0.00     0.120 A 
ATOM      2  C4  ZIN A   1      18.798   0.729   9.942  0.00  0.00     0.086 A 
ATOM      3  C13 ZIN A   1      19.137   1.046   8.626  0.00  0.00     0.141 A 
ATOM      4  F14 ZIN A   1      19.280   2.340   8.261  0.00  0.00    -0.204 F 
ATOM      5  C15 ZIN A   1      19.326   0.055   7.703  0.00  0.00     0.062 A 
ATOM      6  C16 ZIN A   1      19.179  -1.283   8.078  0.00  0.00     0.048 A 
ATOM      7  C17 ZIN A   1      18.844  -1.615   9.403  0.00  0.00     0.084 A 
ATOM      8  N18 ZIN A   1      18.698  -2.938   9.773  0.00  0.00    -0.348 N 
ATOM      9  C22 ZIN A   1      18.863  -3.952   8.916  0.00  0.00     0.114 A 
ATOM     10  C23 ZIN A   1      19.193  -3.749   7.590  0.00  0.00     0.107 A 
ATOM     11  C27 ZIN A   1      19.377  -2.370   7.105  0.00  0.00     0.203 A 
ATOM     12  O28 ZIN A   1      19.668  -2.139   5.944  0.00  0.00    -0.286 OA
ENDROOT
BRANCH   2  13
ATOM     13  N5  ZIN A   1      18.608   1.751  10.873  0.00  0.00    -0.275 NA
ATOM     14  C12 ZIN A   1      17.747   2.808  10.327  0.00  0.00     0.131 C 
ATOM     15  C9  ZIN A   1      17.498   3.868  11.403  0.00  0.00     0.229 C 
ATOM     16  N8  ZIN A   1      18.785   4.420  11.850  0.00  0.00     0.090 N 
ATOM     17  C11 ZIN A   1      16.634   4.991  10.825  0.00  0.00     0.044 C 
ATOM     18  C7  ZIN A   1      19.647   3.361  12.396  0.00  0.00     0.284 C 
ATOM     19  H36 ZIN A   1      18.647   5.158  12.523  0.00  0.00     0.316 HD
ATOM     20  C6  ZIN A   1      19.895   2.302  11.320  0.00  0.00     0.126 C 
ENDBRANCH   2  13
BRANCH   1  21
ATOM     21  O2  ZIN A   1      18.318  -0.896  11.617  0.00  0.00    -0.352 OA
ATOM     22  C1  ZIN A   1      17.045  -0.445  12.081  0.00  0.00     0.210 C 
ENDBRANCH   1  21
BRANCH   8  23
ATOM     23  C19 ZIN A   1      18.348  -3.242  11.162  0.00  0.00     0.090 A 
ATOM     24  C21 ZIN A   1      18.521  -4.687  11.634  0.00  0.00     0.028 A 
ATOM     25  C20 ZIN A   1      17.119  -4.121  11.405  0.00  0.00     0.028 A 
ENDBRANCH   8  23
BRANCH  10  26
ATOM     26  C24 ZIN A   1      19.365  -4.887   6.681  0.00  0.00     0.214 C 
ATOM     27  O25 ZIN A   1      18.577  -5.057   5.759  0.00  0.00    -0.644 OA
ATOM     28  O26 ZIN A   1      20.295  -5.666   6.843  0.00  0.00    -0.644 OA
ENDBRANCH  10  26
TORSDOF 4
ENDMDL
MODEL 2
REMARK VINA RESULT:      -8.4      1.285      1.551
REMARK  4 active torsions:
REMARK  status: ('A' for Active; 'I' for Inactive)
REMARK    1  A    between atoms: O2_2  and  C3_3 
REMARK    2  A    between atoms: C4_4  and  N5_5 
REMARK    3  A    between atoms: N18_17  and  C19_18 
REMARK    4  A    between atoms: C23_22  and  C24_23 
ROOT
ATOM      1  C3  ZIN A   1      18.859   0.537  10.937  0.00  0.00     0.120 A 
ATOM      2  C4  ZIN A   1      18.736   1.900  10.697  0.00  0.00     0.086 A 
ATOM      3  C13 ZIN A   1      18.705   2.388   9.390  0.00  0.00     0.141 A 
ATOM      4  F14 ZIN A   1      18.586   3.716   9.171  0.00  0.00    -0.204 F 
ATOM      5  C15 ZIN A   1      18.794   1.530   8.329  0.00  0.00     0.062 A 
ATOM      6  C16 ZIN A   1      18.917   0.156   8.553  0.00  0.00     0.048 A 
ATOM      7  C17 ZIN A   1      18.957  -0.348   9.866  0.00  0.00     0.084 A 
ATOM      8  N18 ZIN A   1      19.078  -1.706  10.087  0.00  0.00    -0.348 N 
ATOM      9  C22 ZIN A   1      19.163  -2.597   9.092  0.00  0.00     0.114 A 
ATOM     10  C23 ZIN A   1      19.135  -2.220   7.763  0.00  0.00     0.107 A 
ATOM     11  C27 ZIN A   1      19.015  -0.791   7.430  0.00  0.00     0.203 A 
ATOM     12  O28 ZIN A   1      18.986  -0.409   6.273  0.00  0.00    -0.286 OA
ENDROOT
BRANCH   2  13
ATOM     13  N5  ZIN A   1      18.644   2.787  11.770  0.00  0.00    -0.275 NA
ATOM     14  C12 ZIN A   1      17.453   3.639  11.648  0.00  0.00     0.131 C 
ATOM     15  C9  ZIN A   1      17.345   4.540  12.881  0.00  0.00     0.229 C 
ATOM     16  N8  ZIN A   1      18.562   5.355  12.997  0.00  0.00     0.090 N 
ATOM     17  C11 ZIN A   1      16.128   5.456  12.739  0.00  0.00     0.044 C 
ATOM     18  C7  ZIN A   1      19.754   4.503  13.118  0.00  0.00     0.284 C 
ATOM     19  H36 ZIN A   1      18.495   5.997  13.772  0.00  0.00     0.316 HD
ATOM     20  C6  ZIN A   1      19.862   3.602  11.885  0.00  0.00     0.126 C 
ENDBRANCH   2  13
BRANCH   1  21
ATOM     21  O2  ZIN A   1      18.889   0.069  12.215  0.00  0.00    -0.352 OA
ATOM     22  C1  ZIN A   1      17.685   0.180  12.975  0.00  0.00     0.210 C 
ENDBRANCH   1  21
BRANCH   8  23
ATOM     23  C19 ZIN A   1      19.115  -2.190  11.469  0.00  0.00     0.090 A 
ATOM     24  C21 ZIN A   1      19.658  -3.599  11.709  0.00  0.00     0.028 A 
ATOM     25  C20 ZIN A   1      18.160  -3.325  11.845  0.00  0.00     0.028 A 
ENDBRANCH   8  23
BRANCH  10  26
ATOM     26  C24 ZIN A   1      19.230  -3.227   6.701  0.00  0.00     0.214 C 
ATOM     27  O25 ZIN A   1      18.212  -3.668   6.184  0.00  0.00    -0.644 OA
ATOM     28  O26 ZIN A   1      20.326  -3.626   6.332  0.00  0.00    -0.644 OA
ENDBRANCH  10  26
TORSDOF 4
ENDMDL
MODEL 3
REMARK VINA RESULT:      -7.8      2.106      2.752
REMARK  4 active torsions:
REMARK  status: ('A' for Active; 'I' for Inactive)
REMARK    1  A    between atoms: O2_2  and  C3_3 
REMARK    2  A    between atoms: C4_4  and  N5_5 
REMARK    3  A    between atoms: N18_17  and  C19_18 
REMARK    4  A    between atoms: C23_22  and  C24_23 
ROOT
ATOM      1  C3  ZIN A   1      18.545  -0.201  10.465  0.00  0.00     0.120 A 
ATOM      2  C4  ZIN A   1      18.639   1.088  10.973  0.00  0.00     0.086 A 
ATOM      3  C13 ZIN A   1      18.811   2.176  10.115  0.00  0.00     0.141 A 
ATOM      4  F14 ZIN A   1      18.902   3.425  10.623  0.00  0.00    -0.204 F 
ATOM      5  C15 ZIN A   1      18.888   1.985   8.764  0.00  0.00     0.062 A 
ATOM      6  C16 ZIN A   1      18.794   0.694   8.236  0.00  0.00     0.048 A 
ATOM      7  C17 ZIN A   1      18.628  -0.411   9.090  0.00  0.00     0.084 A 
ATOM      8  N18 ZIN A   1      18.534  -1.686   8.569  0.00  0.00    -0.348 N 
ATOM      9  C22 ZIN A   1      18.596  -1.938   7.256  0.00  0.00     0.114 A 
ATOM     10  C23 ZIN A   1      18.757  -0.933   6.321  0.00  0.00     0.107 A 
ATOM     11  C27 ZIN A   1      18.874   0.460   6.785  0.00  0.00     0.203 A 
ATOM     12  O28 ZIN A   1      19.017   1.381   6.000  0.00  0.00    -0.286 OA
ENDROOT
BRANCH   2  13
ATOM     13  N5  ZIN A   1      18.562   1.297  12.350  0.00  0.00    -0.275 NA
ATOM     14  C12 ZIN A   1      18.180   2.683  12.652  0.00  0.00     0.131 C 
ATOM     15  C9  ZIN A   1      18.029   2.851  14.166  0.00  0.00     0.229 C 
ATOM     16  N8  ZIN A   1      19.296   2.503  14.824  0.00  0.00     0.090 N 
ATOM     17  C11 ZIN A   1      17.670   4.304  14.486  0.00  0.00     0.044 C 
ATOM     18  C7  ZIN A   1      19.679   1.117  14.521  0.00  0.00     0.284 C 
ATOM     19  H36 ZIN A   1      19.241   2.655  15.819  0.00  0.00     0.316 HD
ATOM     20  C6  ZIN A   1      19.831   0.949  13.008  0.00  0.00     0.126 C 
ENDBRANCH   2  13
BRANCH   1  21
ATOM     21  O2  ZIN A   1      18.378  -1.257  11.308  0.00  0.00    -0.352 OA
ATOM     22  C1  ZIN A   1      17.152  -1.316  12.038  0.00  0.00     0.210 C 
ENDBRANCH   1  21
BRANCH   8  23
ATOM     23  C19 ZIN A   1      18.361  -2.810   9.492  0.00  0.00     0.090 A 
ATOM     24  C21 ZIN A   1      18.948  -4.161   9.079  0.00  0.00     0.028 A 
ATOM     25  C20 ZIN A   1      17.434  -3.946   9.055  0.00  0.00     0.028 A 
ENDBRANCH   8  23
BRANCH  10  26
ATOM     26  C24 ZIN A   1      18.819  -1.250   4.890  0.00  0.00     0.214 C 
ATOM     27  O25 ZIN A   1      19.902  -1.457   4.357  0.00  0.00    -0.644 OA
ATOM     28  O26 ZIN A   1      17.790  -1.306   4.230  0.00  0.00    -0.644 OA
ENDBRANCH  10  26
TORSDOF 4
ENDMDL
MODEL 4
REMARK VINA RESULT:      -7.8      3.856      8.167
REMARK  4 active torsions:
REMARK  status: ('A' for Active; 'I' for Inactive)
REMARK    1  A    between atoms: O2_2  and  C3_3 
REMARK    2  A    between atoms: C4_4  and  N5_5 
REMARK    3  A    between atoms: N18_17  and  C19_18 
REMARK    4  A    between atoms: C23_22  and  C24_23 
ROOT
ATOM      1  C3  ZIN A   1      18.705   0.822  12.751  0.00  0.00     0.120 A 
ATOM      2  C4  ZIN A   1      18.759  -0.478  12.262  0.00  0.00     0.086 A 
ATOM      3  C13 ZIN A   1      18.823  -1.561  13.140  0.00  0.00     0.141 A 
ATOM      4  F14 ZIN A   1      18.877  -2.820  12.651  0.00  0.00    -0.204 F 
ATOM      5  C15 ZIN A   1      18.833  -1.356  14.492  0.00  0.00     0.062 A 
ATOM      6  C16 ZIN A   1      18.778  -0.055  14.999  0.00  0.00     0.048 A 
ATOM      7  C17 ZIN A   1      18.719   1.045  14.125  0.00  0.00     0.084 A 
ATOM      8  N18 ZIN A   1      18.664   2.330  14.627  0.00  0.00    -0.348 N 
ATOM      9  C22 ZIN A   1      18.664   2.597  15.938  0.00  0.00     0.114 A 
ATOM     10  C23 ZIN A   1      18.717   1.598  16.891  0.00  0.00     0.107 A 
ATOM     11  C27 ZIN A   1      18.786   0.194  16.450  0.00  0.00     0.203 A 
ATOM     12  O28 ZIN A   1      18.835  -0.722  17.252  0.00  0.00    -0.286 OA
ENDROOT
BRANCH   2  13
ATOM     13  N5  ZIN A   1      18.750  -0.702  10.885  0.00  0.00    -0.275 NA
ATOM     14  C12 ZIN A   1      18.231  -2.040  10.573  0.00  0.00     0.131 C 
ATOM     15  C9  ZIN A   1      18.163  -2.217   9.053  0.00  0.00     0.229 C 
ATOM     16  N8  ZIN A   1      19.503  -2.028   8.480  0.00  0.00     0.090 N 
ATOM     17  C11 ZIN A   1      17.660  -3.624   8.725  0.00  0.00     0.044 C 
ATOM     18  C7  ZIN A   1      20.022  -0.689   8.794  0.00  0.00     0.284 C 
ATOM     19  H36 ZIN A   1      19.496  -2.190   7.485  0.00  0.00     0.316 HD
ATOM     20  C6  ZIN A   1      20.091  -0.513  10.312  0.00  0.00     0.126 C 
ENDBRANCH   2  13
BRANCH   1  21
ATOM     21  O2  ZIN A   1      18.642   1.872  11.888  0.00  0.00    -0.352 OA
ATOM     22  C1  ZIN A   1      17.468   1.982  11.083  0.00  0.00     0.210 C 
ENDBRANCH   1  21
BRANCH   8  23
ATOM     23  C19 ZIN A   1      18.604   3.449  13.683  0.00  0.00     0.090 A 
ATOM     24  C21 ZIN A   1      18.965   4.839  14.211  0.00  0.00     0.028 A 
ATOM     25  C20 ZIN A   1      17.508   4.495  13.897  0.00  0.00     0.028 A 
ENDBRANCH   8  23
BRANCH  10  26
ATOM     26  C24 ZIN A   1      18.714   1.930  18.320  0.00  0.00     0.214 C 
ATOM     27  O25 ZIN A   1      17.658   1.957  18.939  0.00  0.00    -0.644 OA
ATOM     28  O26 ZIN A   1      19.766   2.180  18.894  0.00  0.00    -0.644 OA
ENDBRANCH  10  26
TORSDOF 4
ENDMDL
MODEL 5
REMARK VINA RESULT:      -7.6      2.072      3.125
REMARK  4 active torsions:
REMARK  status: ('A' for Active; 'I' for Inactive)
REMARK    1  A    between atoms: O2_2  and  C3_3 
REMARK    2  A    between atoms: C4_4  and  N5_5 
REMARK    3  A    between atoms: N18_17  and  C19_18 
REMARK    4  A    between atoms: C23_22  and  C24_23 
ROOT
ATOM      1  C3  ZIN A   1      18.687   1.759  11.696  0.00  0.00     0.120 A 
ATOM      2  C4  ZIN A   1      18.475   3.130  11.618  0.00  0.00     0.086 A 
ATOM      3  C13 ZIN A   1      18.326   3.754  10.379  0.00  0.00     0.141 A 
ATOM      4  F14 ZIN A   1      18.121   5.088  10.318  0.00  0.00    -0.204 F 
ATOM      5  C15 ZIN A   1      18.386   3.022   9.225  0.00  0.00     0.062 A 
ATOM      6  C16 ZIN A   1      18.597   1.642   9.286  0.00  0.00     0.048 A 
ATOM      7  C17 ZIN A   1      18.756   1.003  10.528  0.00  0.00     0.084 A 
ATOM      8  N18 ZIN A   1      18.964  -0.361  10.588  0.00  0.00    -0.348 N 
ATOM      9  C22 ZIN A   1      19.027  -1.133   9.496  0.00  0.00     0.114 A 
ATOM     10  C23 ZIN A   1      18.885  -0.617   8.222  0.00  0.00     0.107 A 
ATOM     11  C27 ZIN A   1      18.666   0.830   8.059  0.00  0.00     0.203 A 
ATOM     12  O28 ZIN A   1      18.535   1.333   6.957  0.00  0.00    -0.286 OA
ENDROOT
BRANCH   2  13
ATOM     13  N5  ZIN A   1      18.412   3.888  12.788  0.00  0.00    -0.275 NA
ATOM     14  C12 ZIN A   1      17.156   4.647  12.856  0.00  0.00     0.131 C 
ATOM     15  C9  ZIN A   1      17.090   5.402  14.186  0.00  0.00     0.229 C 
ATOM     16  N8  ZIN A   1      18.250   6.298  14.297  0.00  0.00     0.090 N 
ATOM     17  C11 ZIN A   1      15.801   6.225  14.243  0.00  0.00     0.044 C 
ATOM     18  C7  ZIN A   1      19.506   5.538  14.228  0.00  0.00     0.284 C 
ATOM     19  H36 ZIN A   1      18.204   6.846  15.142  0.00  0.00     0.316 HD
ATOM     20  C6  ZIN A   1      19.572   4.784  12.898  0.00  0.00     0.126 C 
ENDBRANCH   2  13
BRANCH   1  21
ATOM     21  O2  ZIN A   1      18.832   1.158  12.909  0.00  0.00    -0.352 OA
ATOM     22  C1  ZIN A   1      17.749   1.290  13.831  0.00  0.00     0.210 C 
ENDBRANCH   1  21
BRANCH   8  23
ATOM     23  C19 ZIN A   1      19.124  -0.989  11.901  0.00  0.00     0.090 A 
ATOM     24  C21 ZIN A   1      19.472  -2.478  11.935  0.00  0.00     0.028 A 
ATOM     25  C20 ZIN A   1      18.069  -2.012  12.328  0.00  0.00     0.028 A 
ENDBRANCH   8  23
BRANCH  10  26
ATOM     26  C24 ZIN A   1      18.958  -1.496   7.050  0.00  0.00     0.214 C 
ATOM     27  O25 ZIN A   1      18.298  -2.526   7.016  0.00  0.00    -0.644 OA
ATOM     28  O26 ZIN A   1      19.678  -1.199   6.106  0.00  0.00    -0.644 OA
ENDBRANCH  10  26
TORSDOF 4
ENDMDL
MODEL 6
REMARK VINA RESULT:      -7.4      3.534      8.450
REMARK  4 active torsions:
REMARK  status: ('A' for Active; 'I' for Inactive)
REMARK    1  A    between atoms: O2_2  and  C3_3 
REMARK    2  A    between atoms: C4_4  and  N5_5 
REMARK    3  A    between atoms: N18_17  and  C19_18 
REMARK    4  A    between atoms: C23_22  and  C24_23 
ROOT
ATOM      1  C3  ZIN A   1      18.160   1.112  12.325  0.00  0.00     0.120 A 
ATOM      2  C4  ZIN A   1      18.576  -0.198  12.525  0.00  0.00     0.086 A 
ATOM      3  C13 ZIN A   1      19.190  -0.570  13.722  0.00  0.00     0.141 A 
ATOM      4  F14 ZIN A   1      19.591  -1.848  13.902  0.00  0.00    -0.204 F 
ATOM      5  C15 ZIN A   1      19.388   0.350  14.712  0.00  0.00     0.062 A 
ATOM      6  C16 ZIN A   1      18.974   1.672  14.528  0.00  0.00     0.048 A 
ATOM      7  C17 ZIN A   1      18.360   2.062  13.324  0.00  0.00     0.084 A 
ATOM      8  N18 ZIN A   1      17.951   3.368  13.142  0.00  0.00    -0.348 N 
ATOM      9  C22 ZIN A   1      18.110   4.314  14.076  0.00  0.00     0.114 A 
ATOM     10  C23 ZIN A   1      18.699   4.049  15.297  0.00  0.00     0.107 A 
ATOM     11  C27 ZIN A   1      19.175   2.684  15.579  0.00  0.00     0.203 A 
ATOM     12  O28 ZIN A   1      19.700   2.401  16.641  0.00  0.00    -0.286 OA
ENDROOT
BRANCH   2  13
ATOM     13  N5  ZIN A   1      18.380  -1.148  11.521  0.00  0.00    -0.275 NA
ATOM     14  C12 ZIN A   1      17.700  -2.338  12.049  0.00  0.00     0.131 C 
ATOM     15  C9  ZIN A   1      17.433  -3.320  10.905  0.00  0.00     0.229 C 
ATOM     16  N8  ZIN A   1      18.707  -3.683  10.268  0.00  0.00     0.090 N 
ATOM     17  C11 ZIN A   1      16.760  -4.578  11.458  0.00  0.00     0.044 C 
ATOM     18  C7  ZIN A   1      19.388  -2.492   9.741  0.00  0.00     0.284 C 
ATOM     19  H36 ZIN A   1      18.565  -4.370   9.543  0.00  0.00     0.316 HD
ATOM     20  C6  ZIN A   1      19.655  -1.511  10.885  0.00  0.00     0.126 C 
ENDBRANCH   2  13
BRANCH   1  21
ATOM     21  O2  ZIN A   1      17.562   1.468  11.154  0.00  0.00    -0.352 OA
ATOM     22  C1  ZIN A   1      18.401   1.565  10.002  0.00  0.00     0.210 C 
ENDBRANCH   1  21
BRANCH   8  23
ATOM     23  C19 ZIN A   1      17.315   3.733  11.874  0.00  0.00     0.090 A 
ATOM     24  C21 ZIN A   1      17.847   4.970  11.148  0.00  0.00     0.028 A 
ATOM     25  C20 ZIN A   1      16.486   5.019  11.844  0.00  0.00     0.028 A 
ENDBRANCH   8  23
BRANCH  10  26
ATOM     26  C24 ZIN A   1      18.855   5.113  16.295  0.00  0.00     0.214 C 
ATOM     27  O25 ZIN A   1      19.844   5.835  16.269  0.00  0.00    -0.644 OA
ATOM     28  O26 ZIN A   1      17.999   5.278  17.154  0.00  0.00    -0.644 OA
ENDBRANCH  10  26
TORSDOF 4
ENDMDL
MODEL 7
REMARK VINA RESULT:      -7.3      3.301      7.098
REMARK  4 active torsions:
REMARK  status: ('A' for Active; 'I' for Inactive)
REMARK    1  A    between atoms: O2_2  and  C3_3 
REMARK    2  A    between atoms: C4_4  and  N5_5 
REMARK    3  A    between atoms: N18_17  and  C19_18 
REMARK    4  A    between atoms: C23_22  and  C24_23 
ROOT
ATOM      1  C3  ZIN A   1      18.576   0.647  11.619  0.00  0.00     0.120 A 
ATOM      2  C4  ZIN A   1      18.567   1.265  10.375  0.00  0.00     0.086 A 
ATOM      3  C13 ZIN A   1      18.658   2.654  10.275  0.00  0.00     0.141 A 
ATOM      4  F14 ZIN A   1      18.647   3.242   9.058  0.00  0.00    -0.204 F 
ATOM      5  C15 ZIN A   1      18.758   3.423  11.400  0.00  0.00     0.062 A 
ATOM      6  C16 ZIN A   1      18.770   2.817  12.659  0.00  0.00     0.048 A 
ATOM      7  C17 ZIN A   1      18.672   1.419  12.774  0.00  0.00     0.084 A 
ATOM      8  N18 ZIN A   1      18.684   0.820  14.019  0.00  0.00    -0.348 N 
ATOM      9  C22 ZIN A   1      18.786   1.517  15.157  0.00  0.00     0.114 A 
ATOM     10  C23 ZIN A   1      18.889   2.895  15.169  0.00  0.00     0.107 A 
ATOM     11  C27 ZIN A   1      18.877   3.622  13.888  0.00  0.00     0.203 A 
ATOM     12  O28 ZIN A   1      18.964   4.837  13.846  0.00  0.00    -0.286 OA
ENDROOT
BRANCH   2  13
ATOM     13  N5  ZIN A   1      18.465   0.492   9.218  0.00  0.00    -0.275 NA
ATOM     14  C12 ZIN A   1      19.081   1.175   8.072  0.00  0.00     0.131 C 
ATOM     15  C9  ZIN A   1      19.020   0.264   6.844  0.00  0.00     0.229 C 
ATOM     16  N8  ZIN A   1      17.619  -0.077   6.559  0.00  0.00     0.090 N 
ATOM     17  C11 ZIN A   1      19.624   0.988   5.639  0.00  0.00     0.044 C 
ATOM     18  C7  ZIN A   1      17.003  -0.760   7.706  0.00  0.00     0.284 C 
ATOM     19  H36 ZIN A   1      17.546  -0.635   5.722  0.00  0.00     0.316 HD
ATOM     20  C6  ZIN A   1      17.064   0.152   8.933  0.00  0.00     0.126 C 
ENDBRANCH   2  13
BRANCH   1  21
ATOM     21  O2  ZIN A   1      18.487  -0.708  11.708  0.00  0.00    -0.352 OA
ATOM     22  C1  ZIN A   1      19.596  -1.465  11.221  0.00  0.00     0.210 C 
ENDBRANCH   1  21
BRANCH   8  23
ATOM     23  C19 ZIN A   1      18.581  -0.639  14.095  0.00  0.00     0.090 A 
ATOM     24  C21 ZIN A   1      18.189  -1.249  15.442  0.00  0.00     0.028 A 
ATOM     25  C20 ZIN A   1      19.626  -1.378  14.933  0.00  0.00     0.028 A 
ENDBRANCH   8  23
BRANCH  10  26
ATOM     26  C24 ZIN A   1      19.000   3.623  16.437  0.00  0.00     0.214 C 
ATOM     27  O25 ZIN A   1      20.051   3.601  17.064  0.00  0.00    -0.644 OA
ATOM     28  O26 ZIN A   1      18.042   4.252  16.868  0.00  0.00    -0.644 OA
ENDBRANCH  10  26
TORSDOF 4
ENDMDL
MODEL 8
REMARK VINA RESULT:      -7.3      3.428      5.303
REMARK  4 active torsions:
REMARK  status: ('A' for Active; 'I' for Inactive)
REMARK    1  A    between atoms: O2_2  and  C3_3 
REMARK    2  A    between atoms: C4_4  and  N5_5 
REMARK    3  A    between atoms: N18_17  and  C19_18 
REMARK    4  A    between atoms: C23_22  and  C24_23 
ROOT
ATOM      1  C3  ZIN A   1      17.959   3.034  13.880  0.00  0.00     0.120 A 
ATOM      2  C4  ZIN A   1      17.548   4.320  13.551  0.00  0.00     0.086 A 
ATOM      3  C13 ZIN A   1      17.372   4.687  12.216  0.00  0.00     0.141 A 
ATOM      4  F14 ZIN A   1      16.972   5.941  11.911  0.00  0.00    -0.204 F 
ATOM      5  C15 ZIN A   1      17.602   3.784  11.215  0.00  0.00     0.062 A 
ATOM      6  C16 ZIN A   1      18.015   2.487  11.529  0.00  0.00     0.048 A 
ATOM      7  C17 ZIN A   1      18.202   2.107  12.870  0.00  0.00     0.084 A 
ATOM      8  N18 ZIN A   1      18.609   0.824  13.180  0.00  0.00    -0.348 N 
ATOM      9  C22 ZIN A   1      18.845  -0.107  12.247  0.00  0.00     0.114 A 
ATOM     10  C23 ZIN A   1      18.694   0.150  10.898  0.00  0.00     0.107 A 
ATOM     11  C27 ZIN A   1      18.270   1.495  10.471  0.00  0.00     0.203 A 
ATOM     12  O28 ZIN A   1      18.123   1.770   9.293  0.00  0.00    -0.286 OA
ENDROOT
BRANCH   2  13
ATOM     13  N5  ZIN A   1      17.310   5.251  14.563  0.00  0.00    -0.275 NA
ATOM     14  C12 ZIN A   1      15.928   5.748  14.506  0.00  0.00     0.131 C 
ATOM     15  C9  ZIN A   1      15.684   6.704  15.676  0.00  0.00     0.229 C 
ATOM     16  N8  ZIN A   1      16.643   7.815  15.607  0.00  0.00     0.090 N 
ATOM     17  C11 ZIN A   1      14.258   7.255  15.597  0.00  0.00     0.044 C 
ATOM     18  C7  ZIN A   1      18.025   7.318  15.662  0.00  0.00     0.284 C 
ATOM     19  H36 ZIN A   1      16.471   8.488  16.338  0.00  0.00     0.316 HD
ATOM     20  C6  ZIN A   1      18.269   6.362  14.492  0.00  0.00     0.126 C 
ENDBRANCH   2  13
BRANCH   1  21
ATOM     21  O2  ZIN A   1      18.128   2.685  15.184  0.00  0.00    -0.352 OA
ATOM     22  C1  ZIN A   1      19.266   3.225  15.858  0.00  0.00     0.210 C 
ENDBRANCH   1  21
BRANCH   8  23
ATOM     23  C19 ZIN A   1      18.793   0.468  14.588  0.00  0.00     0.090 A 
ATOM     24  C21 ZIN A   1      19.249  -0.958  14.903  0.00  0.00     0.028 A 
ATOM     25  C20 ZIN A   1      17.809  -0.534  15.197  0.00  0.00     0.028 A 
ENDBRANCH   8  23
BRANCH  10  26
ATOM     26  C24 ZIN A   1      18.961  -0.896   9.905  0.00  0.00     0.214 C 
ATOM     27  O25 ZIN A   1      18.159  -1.808   9.748  0.00  0.00    -0.644 OA
ATOM     28  O26 ZIN A   1      19.984  -0.859   9.235  0.00  0.00    -0.644 OA
ENDBRANCH  10  26
TORSDOF 4
ENDMDL
MODEL 9
REMARK VINA RESULT:      -7.1      2.912      7.703
REMARK  4 active torsions:
REMARK  status: ('A' for Active; 'I' for Inactive)
REMARK    1  A    between atoms: O2_2  and  C3_3 
REMARK    2  A    between atoms: C4_4  and  N5_5 
REMARK    3  A    between atoms: N18_17  and  C19_18 
REMARK    4  A    between atoms: C23_22  and  C24_23 
ROOT
ATOM      1  C3  ZIN A   1      18.474  -1.237  10.746  0.00  0.00     0.120 A 
ATOM      2  C4  ZIN A   1      18.404  -2.617  10.881  0.00  0.00     0.086 A 
ATOM      3  C13 ZIN A   1      18.430  -3.207  12.146  0.00  0.00     0.141 A 
ATOM      4  F14 ZIN A   1      18.363  -4.552  12.262  0.00  0.00    -0.204 F 
ATOM      5  C15 ZIN A   1      18.523  -2.431  13.267  0.00  0.00     0.062 A 
ATOM      6  C16 ZIN A   1      18.593  -1.041  13.149  0.00  0.00     0.048 A 
ATOM      7  C17 ZIN A   1      18.575  -0.435  11.880  0.00  0.00     0.084 A 
ATOM      8  N18 ZIN A   1      18.642   0.939  11.763  0.00  0.00    -0.348 N 
ATOM      9  C22 ZIN A   1      18.728   1.753  12.822  0.00  0.00     0.114 A 
ATOM     10  C23 ZIN A   1      18.754   1.273  14.118  0.00  0.00     0.107 A 
ATOM     11  C27 ZIN A   1      18.694  -0.181  14.341  0.00  0.00     0.203 A 
ATOM     12  O28 ZIN A   1      18.713  -0.653  15.464  0.00  0.00    -0.286 OA
ENDROOT
BRANCH   2  13
ATOM     13  N5  ZIN A   1      18.309  -3.421   9.744  0.00  0.00    -0.275 NA
ATOM     14  C12 ZIN A   1      17.060  -4.194   9.749  0.00  0.00     0.131 C 
ATOM     15  C9  ZIN A   1      16.956  -5.000   8.451  0.00  0.00     0.229 C 
ATOM     16  N8  ZIN A   1      18.121  -5.888   8.335  0.00  0.00     0.090 N 
ATOM     17  C11 ZIN A   1      15.675  -5.836   8.470  0.00  0.00     0.044 C 
ATOM     18  C7  ZIN A   1      19.371  -5.115   8.331  0.00  0.00     0.284 C 
ATOM     19  H36 ZIN A   1      18.051  -6.469   7.513  0.00  0.00     0.316 HD
ATOM     20  C6  ZIN A   1      19.475  -4.310   9.628  0.00  0.00     0.126 C 
ENDBRANCH   2  13
BRANCH   1  21
ATOM     21  O2  ZIN A   1      18.448  -0.670   9.508  0.00  0.00    -0.352 OA
ATOM     22  C1  ZIN A   1      19.631  -0.789   8.716  0.00  0.00     0.210 C 
ENDBRANCH   1  21
BRANCH   8  23
ATOM     23  C19 ZIN A   1      18.620   1.531  10.424  0.00  0.00     0.090 A 
ATOM     24  C21 ZIN A   1      19.256   2.911  10.250  0.00  0.00     0.028 A 
ATOM     25  C20 ZIN A   1      17.734   2.760  10.209  0.00  0.00     0.028 A 
ENDBRANCH   8  23
BRANCH  10  26
ATOM     26  C24 ZIN A   1      18.848   2.197  15.253  0.00  0.00     0.214 C 
ATOM     27  O25 ZIN A   1      19.641   1.973  16.159  0.00  0.00    -0.644 OA
ATOM     28  O26 ZIN A   1      18.135   3.191  15.295  0.00  0.00    -0.644 OA
ENDBRANCH  10  26
TORSDOF 4
ENDMDL
