MODEL 1
REMARK VINA RESULT:     -10.7      0.000      0.000
REMARK  14 active torsions:
REMARK  status: ('A' for Active; 'I' for Inactive)
REMARK    1  A    between atoms: C2_2  and  N5_5 
REMARK       I    between atoms: N5_5  and  C6_6 
REMARK    2  A    between atoms: C6_6  and  C8_8 
REMARK    3  A    between atoms: N20_17  and  C22_19 
REMARK    4  A    between atoms: C22_19  and  C23_20 
REMARK    5  A    between atoms: C23_20  and  O25_21 
REMARK    6  A    between atoms: C23_20  and  C26_22 
REMARK    7  A    between atoms: C26_22  and  C28_23 
REMARK    8  A    between atoms: C26_22  and  N35_30 
REMARK    9  A    between atoms: C28_23  and  C29_24 
REMARK       I    between atoms: N35_30  and  C36_31 
REMARK   10  A    between atoms: C36_31  and  C38_33 
REMARK   11  A    between atoms: C38_33  and  C40_34 
REMARK   12  A    between atoms: C38_33  and  N44_38 
REMARK   13  A    between atoms: C40_34  and  C41_35 
REMARK       I    between atoms: C41_35  and  N42_36 
REMARK       I    between atoms: N44_38  and  C45_39 
REMARK   14  A    between atoms: C45_39  and  C47_41 
ROOT
ATOM      1  C26 ZIN A   1      18.387  -1.855  12.773  0.00  0.00     0.119 C 
ENDROOT
BRANCH   1   2
ATOM      2  C23 ZIN A   1      18.100  -0.579  11.979  0.00  0.00     0.167 C 
BRANCH   2   3
ATOM      3  C22 ZIN A   1      19.027  -0.514  10.764  0.00  0.00     0.269 C 
BRANCH   3   4
ATOM      4  N20 ZIN A   1      19.264   0.890  10.403  0.00  0.00    -0.055 N 
ATOM      5  C8  ZIN A   1      18.122   1.367   9.613  0.00  0.00     0.279 C 
ATOM      6  C10 ZIN A   1      18.366   2.812   9.173  0.00  0.00     0.048 C 
ATOM      7  C11 ZIN A   1      18.531   3.694  10.418  0.00  0.00    -0.006 C 
ATOM      8  C17 ZIN A   1      19.683   3.144  11.262  0.00  0.00     0.016 C 
ATOM      9  C13 ZIN A   1      17.231   3.665  11.224  0.00  0.00     0.005 C 
ATOM     10  C16 ZIN A   1      19.828   3.968  12.541  0.00  0.00     0.007 C 
ATOM     11  C19 ZIN A   1      19.366   1.690  11.613  0.00  0.00     0.241 C 
ATOM     12  C15 ZIN A   1      18.525   3.935  13.342  0.00  0.00     0.000 C 
ATOM     13  C14 ZIN A   1      17.392   4.509  12.490  0.00  0.00     0.000 C 
ATOM     14  H21 ZIN A   1      20.124   0.961   9.881  0.00  0.00     0.281 HD
BRANCH   5  15
ATOM     15  C6  ZIN A   1      17.955   0.495   8.396  0.00  0.00     0.249 C 
ATOM     16  N5  ZIN A   1      18.805   0.617   7.358  0.00  0.00    -0.351 N 
ATOM     17  H66 ZIN A   1      19.525   1.267   7.393  0.00  0.00     0.163 HD
ATOM     18  O7  ZIN A   1      17.056  -0.317   8.351  0.00  0.00    -0.271 OA
BRANCH  16  19
ATOM     19  C2  ZIN A   1      18.643  -0.231   6.174  0.00  0.00     0.022 C 
ATOM     20  C1  ZIN A   1      19.115  -1.651   6.497  0.00  0.00     0.037 C 
ATOM     21  C3  ZIN A   1      19.478   0.333   5.022  0.00  0.00     0.037 C 
ATOM     22  C4  ZIN A   1      17.169  -0.264   5.767  0.00  0.00     0.037 C 
ENDBRANCH  16  19
ENDBRANCH   5  15
ENDBRANCH   3   4
ENDBRANCH   2   3
BRANCH   2  23
ATOM     23  O25 ZIN A   1      16.740  -0.586  11.541  0.00  0.00    -0.392 OA
ATOM     24  H81 ZIN A   1      16.291   0.266  11.639  0.00  0.00     0.210 HD
ENDBRANCH   2  23
ENDBRANCH   1   2
BRANCH   1  25
ATOM     25  C28 ZIN A   1      19.482  -1.577  13.806  0.00  0.00     0.066 C 
BRANCH  25  26
ATOM     26  C29 ZIN A   1      18.890  -0.839  14.978  0.00  0.00    -0.056 A 
ATOM     27  C34 ZIN A   1      18.080  -1.506  15.878  0.00  0.00     0.007 A 
ATOM     28  C33 ZIN A   1      17.541  -0.829  16.956  0.00  0.00     0.001 A 
ATOM     29  C32 ZIN A   1      17.805   0.517  17.129  0.00  0.00     0.000 A 
ATOM     30  C31 ZIN A   1      18.610   1.186  16.226  0.00  0.00     0.001 A 
ATOM     31  C30 ZIN A   1      19.153   0.508  15.151  0.00  0.00     0.007 A 
ENDBRANCH  25  26
ENDBRANCH   1  25
BRANCH   1  32
ATOM     32  N35 ZIN A   1      18.835  -2.909  11.859  0.00  0.00    -0.352 N 
ATOM     33  C36 ZIN A   1      17.938  -3.756  11.317  0.00  0.00     0.241 C 
ATOM     34  O37 ZIN A   1      16.760  -3.646  11.586  0.00  0.00    -0.271 OA
ATOM     35  H89 ZIN A   1      19.776  -2.995  11.643  0.00  0.00     0.163 HD
BRANCH  33  36
ATOM     36  C38 ZIN A   1      18.398  -4.839  10.377  0.00  0.00     0.185 C 
BRANCH  36  37
ATOM     37  C40 ZIN A   1      19.829  -4.547   9.923  0.00  0.00     0.137 C 
BRANCH  37  38
ATOM     38  C41 ZIN A   1      20.193  -5.466   8.785  0.00  0.00     0.217 C 
ATOM     39  N42 ZIN A   1      20.668  -4.955   7.632  0.00  0.00    -0.370 N 
ATOM     40  H92 ZIN A   1      20.776  -3.997   7.533  0.00  0.00     0.159 HD
ATOM     41  H93 ZIN A   1      20.902  -5.547   6.899  0.00  0.00     0.159 HD
ATOM     42  O43 ZIN A   1      20.057  -6.665   8.907  0.00  0.00    -0.274 OA
ENDBRANCH  37  38
ENDBRANCH  36  37
BRANCH  36  43
ATOM     43  N44 ZIN A   1      17.515  -4.880   9.208  0.00  0.00    -0.342 N 
ATOM     44  C45 ZIN A   1      16.744  -5.962   8.983  0.00  0.00     0.271 C 
ATOM     45  O46 ZIN A   1      16.715  -6.867   9.794  0.00  0.00    -0.266 OA
ATOM     46  H94 ZIN A   1      17.484  -4.127   8.597  0.00  0.00     0.163 HD
BRANCH  44  47
ATOM     47  C47 ZIN A   1      15.934  -6.051   7.743  0.00  0.00     0.125 A 
ATOM     48  N56 ZIN A   1      16.499  -5.776   6.584  0.00  0.00    -0.243 NA
ATOM     49  C55 ZIN A   1      15.811  -5.846   5.446  0.00  0.00     0.068 A 
ATOM     50  C50 ZIN A   1      14.440  -6.214   5.467  0.00  0.00    -0.007 A 
ATOM     51  C54 ZIN A   1      16.422  -5.556   4.210  0.00  0.00     0.032 A 
ATOM     52  C49 ZIN A   1      13.827  -6.503   6.699  0.00  0.00     0.016 A 
ATOM     53  C51 ZIN A   1      13.721  -6.279   4.262  0.00  0.00     0.014 A 
ATOM     54  C48 ZIN A   1      14.584  -6.419   7.833  0.00  0.00     0.038 A 
ATOM     55  C52 ZIN A   1      14.347  -5.991   3.088  0.00  0.00     0.001 A 
ATOM     56  C53 ZIN A   1      15.694  -5.632   3.064  0.00  0.00     0.002 A 
ENDBRANCH  44  47
ENDBRANCH  36  43
ENDBRANCH  33  36
ENDBRANCH   1  32
TORSDOF 14
ENDMDL
MODEL 2
REMARK VINA RESULT:      -9.9      3.773     10.873
REMARK  14 active torsions:
REMARK  status: ('A' for Active; 'I' for Inactive)
REMARK    1  A    between atoms: C2_2  and  N5_5 
REMARK       I    between atoms: N5_5  and  C6_6 
REMARK    2  A    between atoms: C6_6  and  C8_8 
REMARK    3  A    between atoms: N20_17  and  C22_19 
REMARK    4  A    between atoms: C22_19  and  C23_20 
REMARK    5  A    between atoms: C23_20  and  O25_21 
REMARK    6  A    between atoms: C23_20  and  C26_22 
REMARK    7  A    between atoms: C26_22  and  C28_23 
REMARK    8  A    between atoms: C26_22  and  N35_30 
REMARK    9  A    between atoms: C28_23  and  C29_24 
REMARK       I    between atoms: N35_30  and  C36_31 
REMARK   10  A    between atoms: C36_31  and  C38_33 
REMARK   11  A    between atoms: C38_33  and  C40_34 
REMARK   12  A    between atoms: C38_33  and  N44_38 
REMARK   13  A    between atoms: C40_34  and  C41_35 
REMARK       I    between atoms: C41_35  and  N42_36 
REMARK       I    between atoms: N44_38  and  C45_39 
REMARK   14  A    between atoms: C45_39  and  C47_41 
ROOT
ATOM      1  C26 ZIN A   1      18.255   2.127  10.895  0.00  0.00     0.119 C 
ENDROOT
BRANCH   1   2
ATOM      2  C23 ZIN A   1      17.933   0.858  11.685  0.00  0.00     0.167 C 
BRANCH   2   3
ATOM      3  C22 ZIN A   1      18.818   0.795  12.932  0.00  0.00     0.269 C 
BRANCH   3   4
ATOM      4  N20 ZIN A   1      18.133   0.026  13.980  0.00  0.00    -0.055 N 
ATOM      5  C8  ZIN A   1      18.910  -1.191  14.248  0.00  0.00     0.279 C 
ATOM      6  C10 ZIN A   1      18.191  -2.042  15.296  0.00  0.00     0.048 C 
ATOM      7  C11 ZIN A   1      18.051  -1.230  16.590  0.00  0.00    -0.006 C 
ATOM      8  C17 ZIN A   1      17.295   0.065  16.280  0.00  0.00     0.016 C 
ATOM      9  C13 ZIN A   1      19.447  -0.906  17.128  0.00  0.00     0.005 C 
ATOM     10  C16 ZIN A   1      17.197   0.922  17.542  0.00  0.00     0.007 C 
ATOM     11  C19 ZIN A   1      18.067   0.819  15.197  0.00  0.00     0.241 C 
ATOM     12  C15 ZIN A   1      18.595   1.242  18.074  0.00  0.00     0.000 C 
ATOM     13  C14 ZIN A   1      19.324  -0.063  18.399  0.00  0.00     0.000 C 
ATOM     14  H21 ZIN A   1      17.198  -0.197  13.675  0.00  0.00     0.281 HD
BRANCH   5  15
ATOM     15  C6  ZIN A   1      19.056  -1.983  12.974  0.00  0.00     0.249 C 
ATOM     16  N5  ZIN A   1      18.072  -2.816  12.583  0.00  0.00    -0.351 N 
ATOM     17  H66 ZIN A   1      17.269  -2.906  13.121  0.00  0.00     0.163 HD
ATOM     18  O7  ZIN A   1      20.058  -1.870  12.301  0.00  0.00    -0.271 OA
BRANCH  16  19
ATOM     19  C2  ZIN A   1      18.213  -3.586  11.344  0.00  0.00     0.022 C 
ATOM     20  C1  ZIN A   1      16.973  -4.461  11.143  0.00  0.00     0.037 C 
ATOM     21  C3  ZIN A   1      19.455  -4.475  11.434  0.00  0.00     0.037 C 
ATOM     22  C4  ZIN A   1      18.358  -2.626  10.161  0.00  0.00     0.037 C 
ENDBRANCH  16  19
ENDBRANCH   5  15
ENDBRANCH   3   4
ENDBRANCH   2   3
BRANCH   2  23
ATOM     23  O25 ZIN A   1      16.559   0.875  12.077  0.00  0.00    -0.392 OA
ATOM     24  H81 ZIN A   1      16.046   0.126  11.742  0.00  0.00     0.210 HD
ENDBRANCH   2  23
ENDBRANCH   1   2
BRANCH   1  25
ATOM     25  C28 ZIN A   1      19.348   1.825   9.868  0.00  0.00     0.066 C 
BRANCH  25  26
ATOM     26  C29 ZIN A   1      18.724   1.237   8.628  0.00  0.00    -0.056 A 
ATOM     27  C34 ZIN A   1      17.649   0.376   8.738  0.00  0.00     0.007 A 
ATOM     28  C33 ZIN A   1      17.074  -0.159   7.600  0.00  0.00     0.001 A 
ATOM     29  C32 ZIN A   1      17.580   0.160   6.354  0.00  0.00     0.000 A 
ATOM     30  C31 ZIN A   1      18.659   1.017   6.244  0.00  0.00     0.001 A 
ATOM     31  C30 ZIN A   1      19.231   1.556   7.382  0.00  0.00     0.007 A 
ENDBRANCH  25  26
ENDBRANCH   1  25
BRANCH   1  32
ATOM     32  N35 ZIN A   1      18.722   3.169  11.812  0.00  0.00    -0.352 N 
ATOM     33  C36 ZIN A   1      17.876   4.134  12.223  0.00  0.00     0.241 C 
ATOM     34  O37 ZIN A   1      16.727   4.139  11.834  0.00  0.00    -0.271 OA
ATOM     35  H89 ZIN A   1      19.640   3.164  12.124  0.00  0.00     0.163 HD
BRANCH  33  36
ATOM     36  C38 ZIN A   1      18.356   5.206  13.167  0.00  0.00     0.185 C 
BRANCH  36  37
ATOM     37  C40 ZIN A   1      19.869   5.081  13.353  0.00  0.00     0.137 C 
BRANCH  37  38
ATOM     38  C41 ZIN A   1      20.303   5.928  14.522  0.00  0.00     0.217 C 
ATOM     39  N42 ZIN A   1      21.073   5.395  15.491  0.00  0.00    -0.370 N 
ATOM     40  H92 ZIN A   1      21.348   4.467  15.438  0.00  0.00     0.159 HD
ATOM     41  H93 ZIN A   1      21.352   5.940  16.244  0.00  0.00     0.159 HD
ATOM     42  O43 ZIN A   1      19.959   7.089  14.590  0.00  0.00    -0.274 OA
ENDBRANCH  37  38
ENDBRANCH  36  37
BRANCH  36  43
ATOM     43  N44 ZIN A   1      17.691   5.049  14.463  0.00  0.00    -0.342 N 
ATOM     44  C45 ZIN A   1      16.812   5.979  14.886  0.00  0.00     0.271 C 
ATOM     45  O46 ZIN A   1      16.504   6.901  14.156  0.00  0.00    -0.266 OA
ATOM     46  H94 ZIN A   1      17.882   4.276  15.016  0.00  0.00     0.163 HD
BRANCH  44  47
ATOM     47  C47 ZIN A   1      16.223   5.879  16.244  0.00  0.00     0.125 A 
ATOM     48  N56 ZIN A   1      16.889   5.245  17.190  0.00  0.00    -0.243 NA
ATOM     49  C55 ZIN A   1      16.399   5.134  18.424  0.00  0.00     0.068 A 
ATOM     50  C50 ZIN A   1      15.134   5.696  18.739  0.00  0.00    -0.007 A 
ATOM     51  C54 ZIN A   1      17.117   4.461  19.430  0.00  0.00     0.032 A 
ATOM     52  C49 ZIN A   1      14.414   6.369  17.735  0.00  0.00     0.016 A 
ATOM     53  C51 ZIN A   1      14.624   5.569  20.041  0.00  0.00     0.014 A 
ATOM     54  C48 ZIN A   1      14.968   6.455  16.490  0.00  0.00     0.038 A 
ATOM     55  C52 ZIN A   1      15.348   4.910  20.987  0.00  0.00     0.001 A 
ATOM     56  C53 ZIN A   1      16.592   4.359  20.680  0.00  0.00     0.002 A 
ENDBRANCH  44  47
ENDBRANCH  36  43
ENDBRANCH  33  36
ENDBRANCH   1  32
TORSDOF 14
ENDMDL
MODEL 3
REMARK VINA RESULT:      -9.7      1.748      5.563
REMARK  14 active torsions:
REMARK  status: ('A' for Active; 'I' for Inactive)
REMARK    1  A    between atoms: C2_2  and  N5_5 
REMARK       I    between atoms: N5_5  and  C6_6 
REMARK    2  A    between atoms: C6_6  and  C8_8 
REMARK    3  A    between atoms: N20_17  and  C22_19 
REMARK    4  A    between atoms: C22_19  and  C23_20 
REMARK    5  A    between atoms: C23_20  and  O25_21 
REMARK    6  A    between atoms: C23_20  and  C26_22 
REMARK    7  A    between atoms: C26_22  and  C28_23 
REMARK    8  A    between atoms: C26_22  and  N35_30 
REMARK    9  A    between atoms: C28_23  and  C29_24 
REMARK       I    between atoms: N35_30  and  C36_31 
REMARK   10  A    between atoms: C36_31  and  C38_33 
REMARK   11  A    between atoms: C38_33  and  C40_34 
REMARK   12  A    between atoms: C38_33  and  N44_38 
REMARK   13  A    between atoms: C40_34  and  C41_35 
REMARK       I    between atoms: C41_35  and  N42_36 
REMARK       I    between atoms: N44_38  and  C45_39 
REMARK   14  A    between atoms: C45_39  and  C47_41 
ROOT
ATOM      1  C26 ZIN A   1      18.043  -0.539  10.983  0.00  0.00     0.119 C 
ENDROOT
BRANCH   1   2
ATOM      2  C23 ZIN A   1      17.849   0.021  12.392  0.00  0.00     0.167 C 
BRANCH   2   3
ATOM      3  C22 ZIN A   1      19.009   0.958  12.734  0.00  0.00     0.269 C 
BRANCH   3   4
ATOM      4  N20 ZIN A   1      19.248   0.935  14.183  0.00  0.00    -0.055 N 
ATOM      5  C8  ZIN A   1      18.298   1.850  14.827  0.00  0.00     0.279 C 
ATOM      6  C10 ZIN A   1      18.561   1.890  16.334  0.00  0.00     0.048 C 
ATOM      7  C11 ZIN A   1      18.383   0.480  16.911  0.00  0.00    -0.006 C 
ATOM      8  C17 ZIN A   1      19.334  -0.473  16.184  0.00  0.00     0.016 C 
ATOM      9  C13 ZIN A   1      16.934   0.035  16.701  0.00  0.00     0.005 C 
ATOM     10  C16 ZIN A   1      19.132  -1.899  16.697  0.00  0.00     0.007 C 
ATOM     11  C19 ZIN A   1      19.022  -0.410  14.688  0.00  0.00     0.241 C 
ATOM     12  C15 ZIN A   1      17.682  -2.337  16.485  0.00  0.00     0.000 C 
ATOM     13  C14 ZIN A   1      16.750  -1.385  17.237  0.00  0.00     0.000 C 
ATOM     14  H21 ZIN A   1      20.201   1.207  14.370  0.00  0.00     0.281 HD
BRANCH   5  15
ATOM     15  C6  ZIN A   1      18.467   3.233  14.252  0.00  0.00     0.249 C 
ATOM     16  N5  ZIN A   1      19.449   4.036  14.707  0.00  0.00    -0.351 N 
ATOM     17  H66 ZIN A   1      20.048   3.724  15.403  0.00  0.00     0.163 HD
ATOM     18  O7  ZIN A   1      17.719   3.623  13.381  0.00  0.00    -0.271 OA
BRANCH  16  19
ATOM     19  C2  ZIN A   1      19.614   5.380  14.148  0.00  0.00     0.022 C 
ATOM     20  C1  ZIN A   1      19.892   5.278  12.646  0.00  0.00     0.037 C 
ATOM     21  C3  ZIN A   1      20.787   6.080  14.836  0.00  0.00     0.037 C 
ATOM     22  C4  ZIN A   1      18.334   6.188  14.376  0.00  0.00     0.037 C 
ENDBRANCH  16  19
ENDBRANCH   5  15
ENDBRANCH   3   4
ENDBRANCH   2   3
BRANCH   2  23
ATOM     23  O25 ZIN A   1      16.618   0.746  12.452  0.00  0.00    -0.392 OA
ATOM     24  H81 ZIN A   1      16.398   1.214  11.635  0.00  0.00     0.210 HD
ENDBRANCH   2  23
ENDBRANCH   1   2
BRANCH   1  25
ATOM     25  C28 ZIN A   1      17.018   0.092  10.038  0.00  0.00     0.066 C 
BRANCH  25  26
ATOM     26  C29 ZIN A   1      17.690   0.456   8.739  0.00  0.00    -0.056 A 
ATOM     27  C34 ZIN A   1      17.312  -0.170   7.566  0.00  0.00     0.007 A 
ATOM     28  C33 ZIN A   1      17.926   0.167   6.374  0.00  0.00     0.001 A 
ATOM     29  C32 ZIN A   1      18.924   1.123   6.356  0.00  0.00     0.000 A 
ATOM     30  C31 ZIN A   1      19.306   1.745   7.531  0.00  0.00     0.001 A 
ATOM     31  C30 ZIN A   1      18.689   1.412   8.721  0.00  0.00     0.007 A 
ENDBRANCH  25  26
ENDBRANCH   1  25
BRANCH   1  32
ATOM     32  N35 ZIN A   1      17.856  -1.992  11.004  0.00  0.00    -0.352 N 
ATOM     33  C36 ZIN A   1      18.654  -2.785  10.262  0.00  0.00     0.241 C 
ATOM     34  O37 ZIN A   1      19.526  -2.296   9.575  0.00  0.00    -0.271 OA
ATOM     35  H89 ZIN A   1      17.160  -2.383  11.554  0.00  0.00     0.163 HD
BRANCH  33  36
ATOM     36  C38 ZIN A   1      18.463  -4.279  10.284  0.00  0.00     0.185 C 
BRANCH  36  37
ATOM     37  C40 ZIN A   1      19.824  -4.969  10.190  0.00  0.00     0.137 C 
BRANCH  37  38
ATOM     38  C41 ZIN A   1      20.006  -5.537   8.806  0.00  0.00     0.217 C 
ATOM     39  N42 ZIN A   1      20.655  -4.825   7.865  0.00  0.00    -0.370 N 
ATOM     40  H92 ZIN A   1      21.007  -3.946   8.077  0.00  0.00     0.159 HD
ATOM     41  H93 ZIN A   1      20.772  -5.190   6.974  0.00  0.00     0.159 HD
ATOM     42  O43 ZIN A   1      19.566  -6.636   8.540  0.00  0.00    -0.274 OA
ENDBRANCH  37  38
ENDBRANCH  36  37
BRANCH  36  43
ATOM     43  N44 ZIN A   1      17.632  -4.683   9.147  0.00  0.00    -0.342 N 
ATOM     44  C45 ZIN A   1      16.411  -5.213   9.359  0.00  0.00     0.271 C 
ATOM     45  O46 ZIN A   1      15.962  -5.274  10.486  0.00  0.00    -0.266 OA
ATOM     46  H94 ZIN A   1      17.961  -4.568   8.242  0.00  0.00     0.163 HD
BRANCH  44  47
ATOM     47  C47 ZIN A   1      15.616  -5.724   8.215  0.00  0.00     0.125 A 
ATOM     48  N56 ZIN A   1      16.207  -5.905   7.050  0.00  0.00    -0.243 NA
ATOM     49  C55 ZIN A   1      15.533  -6.365   5.997  0.00  0.00     0.068 A 
ATOM     50  C50 ZIN A   1      14.149  -6.661   6.115  0.00  0.00    -0.007 A 
ATOM     51  C54 ZIN A   1      16.170  -6.561   4.757  0.00  0.00     0.032 A 
ATOM     52  C49 ZIN A   1      13.509  -6.466   7.352  0.00  0.00     0.016 A 
ATOM     53  C51 ZIN A   1      13.446  -7.140   4.997  0.00  0.00     0.014 A 
ATOM     54  C48 ZIN A   1      14.252  -5.996   8.397  0.00  0.00     0.038 A 
ATOM     55  C52 ZIN A   1      14.098  -7.316   3.816  0.00  0.00     0.001 A 
ATOM     56  C53 ZIN A   1      15.457  -7.028   3.698  0.00  0.00     0.002 A 
ENDBRANCH  44  47
ENDBRANCH  36  43
ENDBRANCH  33  36
ENDBRANCH   1  32
TORSDOF 14
ENDMDL
MODEL 4
REMARK VINA RESULT:      -9.6      1.121      3.850
REMARK  14 active torsions:
REMARK  status: ('A' for Active; 'I' for Inactive)
REMARK    1  A    between atoms: C2_2  and  N5_5 
REMARK       I    between atoms: N5_5  and  C6_6 
REMARK    2  A    between atoms: C6_6  and  C8_8 
REMARK    3  A    between atoms: N20_17  and  C22_19 
REMARK    4  A    between atoms: C22_19  and  C23_20 
REMARK    5  A    between atoms: C23_20  and  O25_21 
REMARK    6  A    between atoms: C23_20  and  C26_22 
REMARK    7  A    between atoms: C26_22  and  C28_23 
REMARK    8  A    between atoms: C26_22  and  N35_30 
REMARK    9  A    between atoms: C28_23  and  C29_24 
REMARK       I    between atoms: N35_30  and  C36_31 
REMARK   10  A    between atoms: C36_31  and  C38_33 
REMARK   11  A    between atoms: C38_33  and  C40_34 
REMARK   12  A    between atoms: C38_33  and  N44_38 
REMARK   13  A    between atoms: C40_34  and  C41_35 
REMARK       I    between atoms: C41_35  and  N42_36 
REMARK       I    between atoms: N44_38  and  C45_39 
REMARK   14  A    between atoms: C45_39  and  C47_41 
ROOT
ATOM      1  C26 ZIN A   1      18.327  -1.808  12.549  0.00  0.00     0.119 C 
ENDROOT
BRANCH   1   2
ATOM      2  C23 ZIN A   1      18.023  -0.575  11.696  0.00  0.00     0.167 C 
BRANCH   2   3
ATOM      3  C22 ZIN A   1      18.942  -0.561  10.473  0.00  0.00     0.269 C 
BRANCH   3   4
ATOM      4  N20 ZIN A   1      18.240   0.056   9.339  0.00  0.00    -0.055 N 
ATOM      5  C8  ZIN A   1      18.927   1.306   8.991  0.00  0.00     0.279 C 
ATOM      6  C10 ZIN A   1      18.184   2.002   7.848  0.00  0.00     0.048 C 
ATOM      7  C11 ZIN A   1      18.161   1.074   6.627  0.00  0.00    -0.006 C 
ATOM      8  C17 ZIN A   1      17.500  -0.248   7.026  0.00  0.00     0.016 C 
ATOM      9  C13 ZIN A   1      19.598   0.823   6.166  0.00  0.00     0.005 C 
ATOM     10  C16 ZIN A   1      17.521  -1.215   5.842  0.00  0.00     0.007 C 
ATOM     11  C19 ZIN A   1      18.287  -0.841   8.196  0.00  0.00     0.241 C 
ATOM     12  C15 ZIN A   1      18.960  -1.462   5.386  0.00  0.00     0.000 C 
ATOM     13  C14 ZIN A   1      19.594  -0.133   4.971  0.00  0.00     0.000 C 
ATOM     14  H21 ZIN A   1      17.279   0.226   9.593  0.00  0.00     0.281 HD
BRANCH   5  15
ATOM     15  C6  ZIN A   1      18.958   2.213  10.194  0.00  0.00     0.249 C 
ATOM     16  N5  ZIN A   1      17.866   2.931  10.525  0.00  0.00    -0.351 N 
ATOM     17  H66 ZIN A   1      17.060   2.863   9.989  0.00  0.00     0.163 HD
ATOM     18  O7  ZIN A   1      19.965   2.298  10.864  0.00  0.00    -0.271 OA
BRANCH  16  19
ATOM     19  C2  ZIN A   1      17.896   3.812  11.695  0.00  0.00     0.022 C 
ATOM     20  C1  ZIN A   1      17.672   2.985  12.962  0.00  0.00     0.037 C 
ATOM     21  C3  ZIN A   1      16.791   4.864  11.570  0.00  0.00     0.037 C 
ATOM     22  C4  ZIN A   1      19.256   4.509  11.774  0.00  0.00     0.037 C 
ENDBRANCH  16  19
ENDBRANCH   5  15
ENDBRANCH   3   4
ENDBRANCH   2   3
BRANCH   2  23
ATOM     23  O25 ZIN A   1      16.660  -0.617  11.267  0.00  0.00    -0.392 OA
ATOM     24  H81 ZIN A   1      16.131   0.136  11.566  0.00  0.00     0.210 HD
ENDBRANCH   2  23
ENDBRANCH   1   2
BRANCH   1  25
ATOM     25  C28 ZIN A   1      19.415  -1.467  13.568  0.00  0.00     0.066 C 
BRANCH  25  26
ATOM     26  C29 ZIN A   1      18.783  -0.865  14.796  0.00  0.00    -0.056 A 
ATOM     27  C34 ZIN A   1      17.934  -1.624  15.579  0.00  0.00     0.007 A 
ATOM     28  C33 ZIN A   1      17.357  -1.073  16.708  0.00  0.00     0.001 A 
ATOM     29  C32 ZIN A   1      17.622   0.240  17.049  0.00  0.00     0.000 A 
ATOM     30  C31 ZIN A   1      18.466   1.002  16.262  0.00  0.00     0.001 A 
ATOM     31  C30 ZIN A   1      19.047   0.449  15.136  0.00  0.00     0.007 A 
ENDBRANCH  25  26
ENDBRANCH   1  25
BRANCH   1  32
ATOM     32  N35 ZIN A   1      18.790  -2.897  11.686  0.00  0.00    -0.352 N 
ATOM     33  C36 ZIN A   1      17.908  -3.791  11.197  0.00  0.00     0.241 C 
ATOM     34  O37 ZIN A   1      16.731  -3.693  11.470  0.00  0.00    -0.271 OA
ATOM     35  H89 ZIN A   1      19.732  -2.974  11.466  0.00  0.00     0.163 HD
BRANCH  33  36
ATOM     36  C38 ZIN A   1      18.385  -4.911  10.309  0.00  0.00     0.185 C 
BRANCH  36  37
ATOM     37  C40 ZIN A   1      19.914  -4.902  10.252  0.00  0.00     0.137 C 
BRANCH  37  38
ATOM     38  C41 ZIN A   1      20.376  -5.674   9.043  0.00  0.00     0.217 C 
ATOM     39  N42 ZIN A   1      20.908  -5.023   7.990  0.00  0.00    -0.370 N 
ATOM     40  H92 ZIN A   1      20.993  -4.057   8.009  0.00  0.00     0.159 HD
ATOM     41  H93 ZIN A   1      21.206  -5.520   7.212  0.00  0.00     0.159 HD
ATOM     42  O43 ZIN A   1      20.269  -6.882   9.018  0.00  0.00    -0.274 OA
ENDBRANCH  37  38
ENDBRANCH  36  37
BRANCH  36  43
ATOM     43  N44 ZIN A   1      17.846  -4.728   8.958  0.00  0.00    -0.342 N 
ATOM     44  C45 ZIN A   1      17.109  -5.702   8.389  0.00  0.00     0.271 C 
ATOM     45  O46 ZIN A   1      16.818  -6.694   9.026  0.00  0.00    -0.266 OA
ATOM     46  H94 ZIN A   1      18.018  -3.904   8.475  0.00  0.00     0.163 HD
BRANCH  44  47
ATOM     47  C47 ZIN A   1      16.657  -5.564   6.983  0.00  0.00     0.125 A 
ATOM     48  N56 ZIN A   1      15.486  -6.060   6.632  0.00  0.00    -0.243 NA
ATOM     49  C55 ZIN A   1      15.039  -5.957   5.381  0.00  0.00     0.068 A 
ATOM     50  C50 ZIN A   1      15.830  -5.310   4.395  0.00  0.00    -0.007 A 
ATOM     51  C54 ZIN A   1      13.786  -6.484   5.013  0.00  0.00     0.032 A 
ATOM     52  C49 ZIN A   1      17.082  -4.782   4.760  0.00  0.00     0.016 A 
ATOM     53  C51 ZIN A   1      15.352  -5.210   3.079  0.00  0.00     0.014 A 
ATOM     54  C48 ZIN A   1      17.487  -4.915   6.057  0.00  0.00     0.038 A 
ATOM     55  C52 ZIN A   1      14.136  -5.733   2.762  0.00  0.00     0.001 A 
ATOM     56  C53 ZIN A   1      13.355  -6.367   3.729  0.00  0.00     0.002 A 
ENDBRANCH  44  47
ENDBRANCH  36  43
ENDBRANCH  33  36
ENDBRANCH   1  32
TORSDOF 14
ENDMDL
MODEL 5
REMARK VINA RESULT:      -9.6      3.268      9.262
REMARK  14 active torsions:
REMARK  status: ('A' for Active; 'I' for Inactive)
REMARK    1  A    between atoms: C2_2  and  N5_5 
REMARK       I    between atoms: N5_5  and  C6_6 
REMARK    2  A    between atoms: C6_6  and  C8_8 
REMARK    3  A    between atoms: N20_17  and  C22_19 
REMARK    4  A    between atoms: C22_19  and  C23_20 
REMARK    5  A    between atoms: C23_20  and  O25_21 
REMARK    6  A    between atoms: C23_20  and  C26_22 
REMARK    7  A    between atoms: C26_22  and  C28_23 
REMARK    8  A    between atoms: C26_22  and  N35_30 
REMARK    9  A    between atoms: C28_23  and  C29_24 
REMARK       I    between atoms: N35_30  and  C36_31 
REMARK   10  A    between atoms: C36_31  and  C38_33 
REMARK   11  A    between atoms: C38_33  and  C40_34 
REMARK   12  A    between atoms: C38_33  and  N44_38 
REMARK   13  A    between atoms: C40_34  and  C41_35 
REMARK       I    between atoms: C41_35  and  N42_36 
REMARK       I    between atoms: N44_38  and  C45_39 
REMARK   14  A    between atoms: C45_39  and  C47_41 
ROOT
ATOM      1  C26 ZIN A   1      18.411  -1.187  12.990  0.00  0.00     0.119 C 
ENDROOT
BRANCH   1   2
ATOM      2  C23 ZIN A   1      17.941  -0.328  11.815  0.00  0.00     0.167 C 
BRANCH   2   3
ATOM      3  C22 ZIN A   1      19.001  -0.348  10.712  0.00  0.00     0.269 C 
BRANCH   3   4
ATOM      4  N20 ZIN A   1      19.243   1.022  10.241  0.00  0.00    -0.055 N 
ATOM      5  C8  ZIN A   1      18.116   1.429   9.392  0.00  0.00     0.279 C 
ATOM      6  C10 ZIN A   1      18.368   2.834   8.840  0.00  0.00     0.048 C 
ATOM      7  C11 ZIN A   1      18.507   3.815  10.010  0.00  0.00    -0.006 C 
ATOM      8  C17 ZIN A   1      19.644   3.340  10.919  0.00  0.00     0.016 C 
ATOM      9  C13 ZIN A   1      17.191   3.849  10.791  0.00  0.00     0.005 C 
ATOM     10  C16 ZIN A   1      19.763   4.267  12.128  0.00  0.00     0.007 C 
ATOM     11  C19 ZIN A   1      19.321   1.919  11.383  0.00  0.00     0.241 C 
ATOM     12  C15 ZIN A   1      18.445   4.297  12.903  0.00  0.00     0.000 C 
ATOM     13  C14 ZIN A   1      17.327   4.796  11.985  0.00  0.00     0.000 C 
ATOM     14  H21 ZIN A   1      20.113   1.052   9.731  0.00  0.00     0.281 HD
BRANCH   5  15
ATOM     15  C6  ZIN A   1      17.974   0.458   8.248  0.00  0.00     0.249 C 
ATOM     16  N5  ZIN A   1      18.833   0.509   7.211  0.00  0.00    -0.351 N 
ATOM     17  H66 ZIN A   1      19.543   1.170   7.201  0.00  0.00     0.163 HD
ATOM     18  O7  ZIN A   1      17.086  -0.368   8.261  0.00  0.00    -0.271 OA
BRANCH  16  19
ATOM     19  C2  ZIN A   1      18.695  -0.435   6.099  0.00  0.00     0.022 C 
ATOM     20  C1  ZIN A   1      19.200  -1.812   6.534  0.00  0.00     0.037 C 
ATOM     21  C3  ZIN A   1      19.518   0.057   4.907  0.00  0.00     0.037 C 
ATOM     22  C4  ZIN A   1      17.222  -0.535   5.695  0.00  0.00     0.037 C 
ENDBRANCH  16  19
ENDBRANCH   5  15
ENDBRANCH   3   4
ENDBRANCH   2   3
BRANCH   2  23
ATOM     23  O25 ZIN A   1      16.712  -0.850  11.304  0.00  0.00    -0.392 OA
ATOM     24  H81 ZIN A   1      16.034  -0.178  11.148  0.00  0.00     0.210 HD
ENDBRANCH   2  23
ENDBRANCH   1   2
BRANCH   1  25
ATOM     25  C28 ZIN A   1      17.623  -2.499  13.010  0.00  0.00     0.066 C 
BRANCH  25  26
ATOM     26  C29 ZIN A   1      18.214  -3.455  12.007  0.00  0.00    -0.056 A 
ATOM     27  C34 ZIN A   1      17.384  -4.220  11.209  0.00  0.00     0.007 A 
ATOM     28  C33 ZIN A   1      17.927  -5.094  10.286  0.00  0.00     0.001 A 
ATOM     29  C32 ZIN A   1      19.299  -5.210  10.168  0.00  0.00     0.000 A 
ATOM     30  C31 ZIN A   1      20.130  -4.449  10.970  0.00  0.00     0.001 A 
ATOM     31  C30 ZIN A   1      19.587  -3.572  11.889  0.00  0.00     0.007 A 
ENDBRANCH  25  26
ENDBRANCH   1  25
BRANCH   1  32
ATOM     32  N35 ZIN A   1      18.187  -0.464  14.244  0.00  0.00    -0.352 N 
ATOM     33  C36 ZIN A   1      19.167   0.299  14.766  0.00  0.00     0.241 C 
ATOM     34  O37 ZIN A   1      20.234   0.388  14.198  0.00  0.00    -0.271 OA
ATOM     35  H89 ZIN A   1      17.332  -0.534  14.698  0.00  0.00     0.163 HD
BRANCH  33  36
ATOM     36  C38 ZIN A   1      18.936   1.043  16.056  0.00  0.00     0.185 C 
BRANCH  36  37
ATOM     37  C40 ZIN A   1      17.896   0.300  16.895  0.00  0.00     0.137 C 
BRANCH  37  38
ATOM     38  C41 ZIN A   1      18.316   0.313  18.343  0.00  0.00     0.217 C 
ATOM     39  N42 ZIN A   1      17.831   1.254  19.177  0.00  0.00    -0.370 N 
ATOM     40  H92 ZIN A   1      17.212   1.924  18.846  0.00  0.00     0.159 HD
ATOM     41  H93 ZIN A   1      18.101   1.263  20.108  0.00  0.00     0.159 HD
ATOM     42  O43 ZIN A   1      19.090  -0.524  18.757  0.00  0.00    -0.274 OA
ENDBRANCH  37  38
ENDBRANCH  36  37
BRANCH  36  43
ATOM     43  N44 ZIN A   1      18.450   2.394  15.761  0.00  0.00    -0.342 N 
ATOM     44  C45 ZIN A   1      18.883   3.441  16.490  0.00  0.00     0.271 C 
ATOM     45  O46 ZIN A   1      19.744   3.280  17.332  0.00  0.00    -0.266 OA
ATOM     46  H94 ZIN A   1      17.816   2.533  15.040  0.00  0.00     0.163 HD
BRANCH  44  47
ATOM     47  C47 ZIN A   1      18.309   4.790  16.265  0.00  0.00     0.125 A 
ATOM     48  N56 ZIN A   1      16.998   4.932  16.220  0.00  0.00    -0.243 NA
ATOM     49  C55 ZIN A   1      16.438   6.124  16.024  0.00  0.00     0.068 A 
ATOM     50  C50 ZIN A   1      17.256   7.272  15.849  0.00  0.00    -0.007 A 
ATOM     51  C54 ZIN A   1      15.038   6.270  15.982  0.00  0.00     0.032 A 
ATOM     52  C49 ZIN A   1      18.655   7.129  15.890  0.00  0.00     0.016 A 
ATOM     53  C51 ZIN A   1      16.657   8.525  15.638  0.00  0.00     0.014 A 
ATOM     54  C48 ZIN A   1      19.171   5.883  16.099  0.00  0.00     0.038 A 
ATOM     55  C52 ZIN A   1      15.300   8.624  15.603  0.00  0.00     0.001 A 
ATOM     56  C53 ZIN A   1      14.494   7.499  15.776  0.00  0.00     0.002 A 
ENDBRANCH  44  47
ENDBRANCH  36  43
ENDBRANCH  33  36
ENDBRANCH   1  32
TORSDOF 14
ENDMDL
MODEL 6
REMARK VINA RESULT:      -9.5      1.915      5.417
REMARK  14 active torsions:
REMARK  status: ('A' for Active; 'I' for Inactive)
REMARK    1  A    between atoms: C2_2  and  N5_5 
REMARK       I    between atoms: N5_5  and  C6_6 
REMARK    2  A    between atoms: C6_6  and  C8_8 
REMARK    3  A    between atoms: N20_17  and  C22_19 
REMARK    4  A    between atoms: C22_19  and  C23_20 
REMARK    5  A    between atoms: C23_20  and  O25_21 
REMARK    6  A    between atoms: C23_20  and  C26_22 
REMARK    7  A    between atoms: C26_22  and  C28_23 
REMARK    8  A    between atoms: C26_22  and  N35_30 
REMARK    9  A    between atoms: C28_23  and  C29_24 
REMARK       I    between atoms: N35_30  and  C36_31 
REMARK   10  A    between atoms: C36_31  and  C38_33 
REMARK   11  A    between atoms: C38_33  and  C40_34 
REMARK   12  A    between atoms: C38_33  and  N44_38 
REMARK   13  A    between atoms: C40_34  and  C41_35 
REMARK       I    between atoms: C41_35  and  N42_36 
REMARK       I    between atoms: N44_38  and  C45_39 
REMARK   14  A    between atoms: C45_39  and  C47_41 
ROOT
ATOM      1  C26 ZIN A   1      18.438   1.074  10.375  0.00  0.00     0.119 C 
ENDROOT
BRANCH   1   2
ATOM      2  C23 ZIN A   1      17.857   0.224  11.507  0.00  0.00     0.167 C 
BRANCH   2   3
ATOM      3  C22 ZIN A   1      18.686   0.428  12.776  0.00  0.00     0.269 C 
BRANCH   3   4
ATOM      4  N20 ZIN A   1      18.042  -0.268  13.899  0.00  0.00    -0.055 N 
ATOM      5  C8  ZIN A   1      18.850  -1.444  14.243  0.00  0.00     0.279 C 
ATOM      6  C10 ZIN A   1      18.174  -2.222  15.374  0.00  0.00     0.048 C 
ATOM      7  C11 ZIN A   1      18.048  -1.312  16.602  0.00  0.00    -0.006 C 
ATOM      8  C17 ZIN A   1      17.258  -0.061  16.209  0.00  0.00     0.016 C 
ATOM      9  C13 ZIN A   1      19.448  -0.920  17.078  0.00  0.00     0.005 C 
ATOM     10  C16 ZIN A   1      17.171   0.893  17.400  0.00  0.00     0.007 C 
ATOM     11  C19 ZIN A   1      17.988   0.619  15.050  0.00  0.00     0.241 C 
ATOM     12  C15 ZIN A   1      18.574   1.280  17.870  0.00  0.00     0.000 C 
ATOM     13  C14 ZIN A   1      19.338   0.019  18.280  0.00  0.00     0.000 C 
ATOM     14  H21 ZIN A   1      17.105  -0.533  13.636  0.00  0.00     0.281 HD
BRANCH   5  15
ATOM     15  C6  ZIN A   1      18.983  -2.333  13.032  0.00  0.00     0.249 C 
ATOM     16  N5  ZIN A   1      18.023  -3.236  12.752  0.00  0.00    -0.351 N 
ATOM     17  H66 ZIN A   1      17.246  -3.314  13.329  0.00  0.00     0.163 HD
ATOM     18  O7  ZIN A   1      19.953  -2.235  12.312  0.00  0.00    -0.271 OA
BRANCH  16  19
ATOM     19  C2  ZIN A   1      18.151  -4.099  11.575  0.00  0.00     0.022 C 
ATOM     20  C1  ZIN A   1      17.500  -3.418  10.370  0.00  0.00     0.037 C 
ATOM     21  C3  ZIN A   1      17.454  -5.435  11.843  0.00  0.00     0.037 C 
ATOM     22  C4  ZIN A   1      19.633  -4.347  11.283  0.00  0.00     0.037 C 
ENDBRANCH  16  19
ENDBRANCH   5  15
ENDBRANCH   3   4
ENDBRANCH   2   3
BRANCH   2  23
ATOM     23  O25 ZIN A   1      16.505   0.616  11.752  0.00  0.00    -0.392 OA
ATOM     24  H81 ZIN A   1      15.922  -0.115  12.002  0.00  0.00     0.210 HD
ENDBRANCH   2  23
ENDBRANCH   1   2
BRANCH   1  25
ATOM     25  C28 ZIN A   1      17.658   2.386  10.272  0.00  0.00     0.066 C 
BRANCH  25  26
ATOM     26  C29 ZIN A   1      18.193   3.369  11.280  0.00  0.00    -0.056 A 
ATOM     27  C34 ZIN A   1      19.558   3.536  11.425  0.00  0.00     0.007 A 
ATOM     28  C33 ZIN A   1      20.049   4.442  12.347  0.00  0.00     0.001 A 
ATOM     29  C32 ZIN A   1      19.176   5.173  13.131  0.00  0.00     0.000 A 
ATOM     30  C31 ZIN A   1      17.811   5.001  12.991  0.00  0.00     0.001 A 
ATOM     31  C30 ZIN A   1      17.320   4.100  12.065  0.00  0.00     0.007 A 
ENDBRANCH  25  26
ENDBRANCH   1  25
BRANCH   1  32
ATOM     32  N35 ZIN A   1      18.332   0.342   9.111  0.00  0.00    -0.352 N 
ATOM     33  C36 ZIN A   1      19.398  -0.326   8.628  0.00  0.00     0.241 C 
ATOM     34  O37 ZIN A   1      20.444  -0.323   9.240  0.00  0.00    -0.271 OA
ATOM     35  H89 ZIN A   1      17.494   0.338   8.622  0.00  0.00     0.163 HD
BRANCH  33  36
ATOM     36  C38 ZIN A   1      19.289  -1.079   7.327  0.00  0.00     0.185 C 
BRANCH  36  37
ATOM     37  C40 ZIN A   1      18.483  -0.251   6.324  0.00  0.00     0.137 C 
BRANCH  37  38
ATOM     38  C41 ZIN A   1      18.874  -0.640   4.922  0.00  0.00     0.217 C 
ATOM     39  N42 ZIN A   1      17.923  -0.940   4.016  0.00  0.00    -0.370 N 
ATOM     40  H92 ZIN A   1      16.986  -0.907   4.265  0.00  0.00     0.159 HD
ATOM     41  H93 ZIN A   1      18.175  -1.191   3.113  0.00  0.00     0.159 HD
ATOM     42  O43 ZIN A   1      20.045  -0.683   4.610  0.00  0.00    -0.274 OA
ENDBRANCH  37  38
ENDBRANCH  36  37
BRANCH  36  43
ATOM     43  N44 ZIN A   1      18.613  -2.359   7.558  0.00  0.00    -0.342 N 
ATOM     44  C45 ZIN A   1      19.127  -3.494   7.046  0.00  0.00     0.271 C 
ATOM     45  O46 ZIN A   1      20.195  -3.471   6.468  0.00  0.00    -0.266 OA
ATOM     46  H94 ZIN A   1      17.796  -2.388   8.081  0.00  0.00     0.163 HD
BRANCH  44  47
ATOM     47  C47 ZIN A   1      18.386  -4.772   7.184  0.00  0.00     0.125 A 
ATOM     48  N56 ZIN A   1      17.269  -4.946   6.504  0.00  0.00    -0.243 NA
ATOM     49  C55 ZIN A   1      16.573  -6.078   6.595  0.00  0.00     0.068 A 
ATOM     50  C50 ZIN A   1      17.026  -7.123   7.444  0.00  0.00    -0.007 A 
ATOM     51  C54 ZIN A   1      15.385  -6.260   5.862  0.00  0.00     0.032 A 
ATOM     52  C49 ZIN A   1      18.213  -6.944   8.178  0.00  0.00     0.016 A 
ATOM     53  C51 ZIN A   1      16.282  -8.311   7.538  0.00  0.00     0.014 A 
ATOM     54  C48 ZIN A   1      18.885  -5.763   8.041  0.00  0.00     0.038 A 
ATOM     55  C52 ZIN A   1      15.138  -8.448   6.814  0.00  0.00     0.001 A 
ATOM     56  C53 ZIN A   1      14.692  -7.424   5.977  0.00  0.00     0.002 A 
ENDBRANCH  44  47
ENDBRANCH  36  43
ENDBRANCH  33  36
ENDBRANCH   1  32
TORSDOF 14
ENDMDL
MODEL 7
REMARK VINA RESULT:      -9.4      2.098      6.121
REMARK  14 active torsions:
REMARK  status: ('A' for Active; 'I' for Inactive)
REMARK    1  A    between atoms: C2_2  and  N5_5 
REMARK       I    between atoms: N5_5  and  C6_6 
REMARK    2  A    between atoms: C6_6  and  C8_8 
REMARK    3  A    between atoms: N20_17  and  C22_19 
REMARK    4  A    between atoms: C22_19  and  C23_20 
REMARK    5  A    between atoms: C23_20  and  O25_21 
REMARK    6  A    between atoms: C23_20  and  C26_22 
REMARK    7  A    between atoms: C26_22  and  C28_23 
REMARK    8  A    between atoms: C26_22  and  N35_30 
REMARK    9  A    between atoms: C28_23  and  C29_24 
REMARK       I    between atoms: N35_30  and  C36_31 
REMARK   10  A    between atoms: C36_31  and  C38_33 
REMARK   11  A    between atoms: C38_33  and  C40_34 
REMARK   12  A    between atoms: C38_33  and  N44_38 
REMARK   13  A    between atoms: C40_34  and  C41_35 
REMARK       I    between atoms: C41_35  and  N42_36 
REMARK       I    between atoms: N44_38  and  C45_39 
REMARK   14  A    between atoms: C45_39  and  C47_41 
ROOT
ATOM      1  C26 ZIN A   1      18.897  -3.090  10.469  0.00  0.00     0.119 C 
ENDROOT
BRANCH   1   2
ATOM      2  C23 ZIN A   1      19.905  -2.341  11.342  0.00  0.00     0.167 C 
BRANCH   2   3
ATOM      3  C22 ZIN A   1      19.254  -1.979  12.678  0.00  0.00     0.269 C 
BRANCH   3   4
ATOM      4  N20 ZIN A   1      18.378  -0.812  12.496  0.00  0.00    -0.055 N 
ATOM      5  C8  ZIN A   1      18.753   0.209  13.481  0.00  0.00     0.279 C 
ATOM      6  C10 ZIN A   1      17.821   1.416  13.354  0.00  0.00     0.048 C 
ATOM      7  C11 ZIN A   1      17.945   1.998  11.940  0.00  0.00    -0.006 C 
ATOM      8  C17 ZIN A   1      17.614   0.902  10.925  0.00  0.00     0.016 C 
ATOM      9  C13 ZIN A   1      19.378   2.492  11.730  0.00  0.00     0.005 C 
ATOM     10  C16 ZIN A   1      17.792   1.439   9.505  0.00  0.00     0.007 C 
ATOM     11  C19 ZIN A   1      18.568  -0.270  11.160  0.00  0.00     0.241 C 
ATOM     12  C15 ZIN A   1      19.225   1.931   9.302  0.00  0.00     0.000 C 
ATOM     13  C14 ZIN A   1      19.529   3.041  10.310  0.00  0.00     0.000 C 
ATOM     14  H21 ZIN A   1      17.417  -1.095  12.610  0.00  0.00     0.281 HD
BRANCH   5  15
ATOM     15  C6  ZIN A   1      18.640  -0.367  14.869  0.00  0.00     0.249 C 
ATOM     16  N5  ZIN A   1      18.044   0.344  15.847  0.00  0.00    -0.351 N 
ATOM     17  H66 ZIN A   1      17.688   1.226  15.658  0.00  0.00     0.163 HD
ATOM     18  O7  ZIN A   1      19.086  -1.470  15.106  0.00  0.00    -0.271 OA
BRANCH  16  19
ATOM     19  C2  ZIN A   1      17.934  -0.217  17.196  0.00  0.00     0.022 C 
ATOM     20  C1  ZIN A   1      16.957  -1.395  17.180  0.00  0.00     0.037 C 
ATOM     21  C3  ZIN A   1      17.420   0.858  18.156  0.00  0.00     0.037 C 
ATOM     22  C4  ZIN A   1      19.309  -0.700  17.662  0.00  0.00     0.037 C 
ENDBRANCH  16  19
ENDBRANCH   5  15
ENDBRANCH   3   4
ENDBRANCH   2   3
BRANCH   2  23
ATOM     23  O25 ZIN A   1      21.043  -3.174  11.578  0.00  0.00    -0.392 OA
ATOM     24  H81 ZIN A   1      21.327  -3.678  10.803  0.00  0.00     0.210 HD
ENDBRANCH   2  23
ENDBRANCH   1   2
BRANCH   1  25
ATOM     25  C28 ZIN A   1      18.880  -4.568  10.863  0.00  0.00     0.066 C 
BRANCH  25  26
ATOM     26  C29 ZIN A   1      17.957  -5.323   9.942  0.00  0.00    -0.056 A 
ATOM     27  C34 ZIN A   1      16.598  -5.067   9.964  0.00  0.00     0.007 A 
ATOM     28  C33 ZIN A   1      15.752  -5.757   9.115  0.00  0.00     0.001 A 
ATOM     29  C32 ZIN A   1      16.263  -6.708   8.252  0.00  0.00     0.000 A 
ATOM     30  C31 ZIN A   1      17.621  -6.968   8.234  0.00  0.00     0.001 A 
ATOM     31  C30 ZIN A   1      18.468  -6.275   9.079  0.00  0.00     0.007 A 
ENDBRANCH  25  26
ENDBRANCH   1  25
BRANCH   1  32
ATOM     32  N35 ZIN A   1      19.281  -2.964   9.061  0.00  0.00    -0.352 N 
ATOM     33  C36 ZIN A   1      18.461  -2.341   8.192  0.00  0.00     0.241 C 
ATOM     34  O37 ZIN A   1      17.405  -1.884   8.575  0.00  0.00    -0.271 OA
ATOM     35  H89 ZIN A   1      20.126  -3.328   8.755  0.00  0.00     0.163 HD
BRANCH  33  36
ATOM     36  C38 ZIN A   1      18.857  -2.211   6.744  0.00  0.00     0.185 C 
BRANCH  36  37
ATOM     37  C40 ZIN A   1      19.130  -0.742   6.420  0.00  0.00     0.137 C 
BRANCH  37  38
ATOM     38  C41 ZIN A   1      19.429  -0.598   4.949  0.00  0.00     0.217 C 
ATOM     39  N42 ZIN A   1      19.206   0.576   4.327  0.00  0.00    -0.370 N 
ATOM     40  H92 ZIN A   1      18.853   1.330   4.825  0.00  0.00     0.159 HD
ATOM     41  H93 ZIN A   1      19.398   0.668   3.381  0.00  0.00     0.159 HD
ATOM     42  O43 ZIN A   1      19.869  -1.541   4.326  0.00  0.00    -0.274 OA
ENDBRANCH  37  38
ENDBRANCH  36  37
BRANCH  36  43
ATOM     43  N44 ZIN A   1      17.770  -2.704   5.894  0.00  0.00    -0.342 N 
ATOM     44  C45 ZIN A   1      17.831  -3.945   5.373  0.00  0.00     0.271 C 
ATOM     45  O46 ZIN A   1      18.742  -4.688   5.679  0.00  0.00    -0.266 OA
ATOM     46  H94 ZIN A   1      17.005  -2.136   5.707  0.00  0.00     0.163 HD
BRANCH  44  47
ATOM     47  C47 ZIN A   1      16.786  -4.404   4.425  0.00  0.00     0.125 A 
ATOM     48  N56 ZIN A   1      15.982  -5.387   4.779  0.00  0.00    -0.243 NA
ATOM     49  C55 ZIN A   1      15.028  -5.829   3.961  0.00  0.00     0.068 A 
ATOM     50  C50 ZIN A   1      14.869  -5.245   2.677  0.00  0.00    -0.007 A 
ATOM     51  C54 ZIN A   1      14.169  -6.876   4.347  0.00  0.00     0.032 A 
ATOM     52  C49 ZIN A   1      15.725  -4.199   2.288  0.00  0.00     0.016 A 
ATOM     53  C51 ZIN A   1      13.863  -5.722   1.819  0.00  0.00     0.014 A 
ATOM     54  C48 ZIN A   1      16.682  -3.786   3.170  0.00  0.00     0.038 A 
ATOM     55  C52 ZIN A   1      13.053  -6.736   2.229  0.00  0.00     0.001 A 
ATOM     56  C53 ZIN A   1      13.207  -7.310   3.490  0.00  0.00     0.002 A 
ENDBRANCH  44  47
ENDBRANCH  36  43
ENDBRANCH  33  36
ENDBRANCH   1  32
TORSDOF 14
ENDMDL
MODEL 8
REMARK VINA RESULT:      -9.2      2.352      5.756
REMARK  14 active torsions:
REMARK  status: ('A' for Active; 'I' for Inactive)
REMARK    1  A    between atoms: C2_2  and  N5_5 
REMARK       I    between atoms: N5_5  and  C6_6 
REMARK    2  A    between atoms: C6_6  and  C8_8 
REMARK    3  A    between atoms: N20_17  and  C22_19 
REMARK    4  A    between atoms: C22_19  and  C23_20 
REMARK    5  A    between atoms: C23_20  and  O25_21 
REMARK    6  A    between atoms: C23_20  and  C26_22 
REMARK    7  A    between atoms: C26_22  and  C28_23 
REMARK    8  A    between atoms: C26_22  and  N35_30 
REMARK    9  A    between atoms: C28_23  and  C29_24 
REMARK       I    between atoms: N35_30  and  C36_31 
REMARK   10  A    between atoms: C36_31  and  C38_33 
REMARK   11  A    between atoms: C38_33  and  C40_34 
REMARK   12  A    between atoms: C38_33  and  N44_38 
REMARK   13  A    between atoms: C40_34  and  C41_35 
REMARK       I    between atoms: C41_35  and  N42_36 
REMARK       I    between atoms: N44_38  and  C45_39 
REMARK   14  A    between atoms: C45_39  and  C47_41 
ROOT
ATOM      1  C26 ZIN A   1      19.373  -1.310  10.863  0.00  0.00     0.119 C 
ENDROOT
BRANCH   1   2
ATOM      2  C23 ZIN A   1      20.308  -0.167  11.260  0.00  0.00     0.167 C 
BRANCH   2   3
ATOM      3  C22 ZIN A   1      20.089   0.184  12.733  0.00  0.00     0.269 C 
BRANCH   3   4
ATOM      4  N20 ZIN A   1      19.008   1.173  12.846  0.00  0.00    -0.055 N 
ATOM      5  C8  ZIN A   1      18.893   1.579  14.252  0.00  0.00     0.279 C 
ATOM      6  C10 ZIN A   1      17.736   2.568  14.410  0.00  0.00     0.048 C 
ATOM      7  C11 ZIN A   1      18.010   3.802  13.542  0.00  0.00    -0.006 C 
ATOM      8  C17 ZIN A   1      18.191   3.353  12.090  0.00  0.00     0.016 C 
ATOM      9  C13 ZIN A   1      19.283   4.490  14.041  0.00  0.00     0.005 C 
ATOM     10  C16 ZIN A   1      18.528   4.559  11.213  0.00  0.00     0.007 C 
ATOM     11  C19 ZIN A   1      19.337   2.341  12.044  0.00  0.00     0.241 C 
ATOM     12  C15 ZIN A   1      19.800   5.241  11.717  0.00  0.00     0.000 C 
ATOM     13  C14 ZIN A   1      19.590   5.702  13.161  0.00  0.00     0.000 C 
ATOM     14  H21 ZIN A   1      18.148   0.767  12.511  0.00  0.00     0.281 HD
BRANCH   5  15
ATOM     15  C6  ZIN A   1      18.634   0.364  15.105  0.00  0.00     0.249 C 
ATOM     16  N5  ZIN A   1      18.773   0.439  16.443  0.00  0.00    -0.351 N 
ATOM     17  H66 ZIN A   1      19.038   1.274  16.858  0.00  0.00     0.163 HD
ATOM     18  O7  ZIN A   1      18.302  -0.681  14.586  0.00  0.00    -0.271 OA
BRANCH  16  19
ATOM     19  C2  ZIN A   1      18.520  -0.743  17.272  0.00  0.00     0.022 C 
ATOM     20  C1  ZIN A   1      18.665  -0.369  18.749  0.00  0.00     0.037 C 
ATOM     21  C3  ZIN A   1      19.530  -1.838  16.923  0.00  0.00     0.037 C 
ATOM     22  C4  ZIN A   1      17.102  -1.256  17.012  0.00  0.00     0.037 C 
ENDBRANCH  16  19
ENDBRANCH   5  15
ENDBRANCH   3   4
ENDBRANCH   2   3
BRANCH   2  23
ATOM     23  O25 ZIN A   1      21.665  -0.571  11.064  0.00  0.00    -0.392 OA
ATOM     24  H81 ZIN A   1      22.315   0.108  11.295  0.00  0.00     0.210 HD
ENDBRANCH   2  23
ENDBRANCH   1   2
BRANCH   1  25
ATOM     25  C28 ZIN A   1      19.664  -2.533  11.735  0.00  0.00     0.066 C 
BRANCH  25  26
ATOM     26  C29 ZIN A   1      18.800  -3.684  11.291  0.00  0.00    -0.056 A 
ATOM     27  C34 ZIN A   1      17.449  -3.688  11.583  0.00  0.00     0.007 A 
ATOM     28  C33 ZIN A   1      16.656  -4.742  11.170  0.00  0.00     0.001 A 
ATOM     29  C32 ZIN A   1      17.215  -5.797  10.474  0.00  0.00     0.000 A 
ATOM     30  C31 ZIN A   1      18.567  -5.797  10.187  0.00  0.00     0.001 A 
ATOM     31  C30 ZIN A   1      19.359  -4.741  10.595  0.00  0.00     0.007 A 
ENDBRANCH  25  26
ENDBRANCH   1  25
BRANCH   1  32
ATOM     32  N35 ZIN A   1      19.589  -1.652   9.455  0.00  0.00    -0.352 N 
ATOM     33  C36 ZIN A   1      18.693  -1.272   8.524  0.00  0.00     0.241 C 
ATOM     34  O37 ZIN A   1      17.707  -0.646   8.851  0.00  0.00    -0.271 OA
ATOM     35  H89 ZIN A   1      20.379  -2.152   9.193  0.00  0.00     0.163 HD
BRANCH  33  36
ATOM     36  C38 ZIN A   1      18.916  -1.623   7.076  0.00  0.00     0.185 C 
BRANCH  36  37
ATOM     37  C40 ZIN A   1      18.314  -0.532   6.188  0.00  0.00     0.137 C 
BRANCH  37  38
ATOM     38  C41 ZIN A   1      18.840  -0.681   4.783  0.00  0.00     0.217 C 
ATOM     39  N42 ZIN A   1      17.984  -0.721   3.744  0.00  0.00    -0.370 N 
ATOM     40  H92 ZIN A   1      17.028  -0.654   3.898  0.00  0.00     0.159 HD
ATOM     41  H93 ZIN A   1      18.322  -0.816   2.839  0.00  0.00     0.159 HD
ATOM     42  O43 ZIN A   1      20.034  -0.765   4.589  0.00  0.00    -0.274 OA
ENDBRANCH  37  38
ENDBRANCH  36  37
BRANCH  36  43
ATOM     43  N44 ZIN A   1      18.270  -2.905   6.779  0.00  0.00    -0.342 N 
ATOM     44  C45 ZIN A   1      19.002  -3.935   6.311  0.00  0.00     0.271 C 
ATOM     45  O46 ZIN A   1      20.209  -3.831   6.220  0.00  0.00    -0.266 OA
ATOM     46  H94 ZIN A   1      17.316  -3.011   6.920  0.00  0.00     0.163 HD
BRANCH  44  47
ATOM     47  C47 ZIN A   1      18.333  -5.196   5.906  0.00  0.00     0.125 A 
ATOM     48  N56 ZIN A   1      18.186  -6.161   6.793  0.00  0.00    -0.243 NA
ATOM     49  C55 ZIN A   1      17.589  -7.308   6.474  0.00  0.00     0.068 A 
ATOM     50  C50 ZIN A   1      17.104  -7.513   5.155  0.00  0.00    -0.007 A 
ATOM     51  C54 ZIN A   1      17.429  -8.332   7.428  0.00  0.00     0.032 A 
ATOM     52  C49 ZIN A   1      17.262  -6.492   4.201  0.00  0.00     0.016 A 
ATOM     53  C51 ZIN A   1      16.481  -8.728   4.827  0.00  0.00     0.014 A 
ATOM     54  C48 ZIN A   1      17.879  -5.336   4.587  0.00  0.00     0.038 A 
ATOM     55  C52 ZIN A   1      16.347  -9.694   5.777  0.00  0.00     0.001 A 
ATOM     56  C53 ZIN A   1      16.820  -9.495   7.074  0.00  0.00     0.002 A 
ENDBRANCH  44  47
ENDBRANCH  36  43
ENDBRANCH  33  36
ENDBRANCH   1  32
TORSDOF 14
ENDMDL
MODEL 9
REMARK VINA RESULT:      -8.8      2.147      5.601
REMARK  14 active torsions:
REMARK  status: ('A' for Active; 'I' for Inactive)
REMARK    1  A    between atoms: C2_2  and  N5_5 
REMARK       I    between atoms: N5_5  and  C6_6 
REMARK    2  A    between atoms: C6_6  and  C8_8 
REMARK    3  A    between atoms: N20_17  and  C22_19 
REMARK    4  A    between atoms: C22_19  and  C23_20 
REMARK    5  A    between atoms: C23_20  and  O25_21 
REMARK    6  A    between atoms: C23_20  and  C26_22 
REMARK    7  A    between atoms: C26_22  and  C28_23 
REMARK    8  A    between atoms: C26_22  and  N35_30 
REMARK    9  A    between atoms: C28_23  and  C29_24 
REMARK       I    between atoms: N35_30  and  C36_31 
REMARK   10  A    between atoms: C36_31  and  C38_33 
REMARK   11  A    between atoms: C38_33  and  C40_34 
REMARK   12  A    between atoms: C38_33  and  N44_38 
REMARK   13  A    between atoms: C40_34  and  C41_35 
REMARK       I    between atoms: C41_35  and  N42_36 
REMARK       I    between atoms: N44_38  and  C45_39 
REMARK   14  A    between atoms: C45_39  and  C47_41 
ROOT
ATOM      1  C26 ZIN A   1      18.389  -1.887  11.690  0.00  0.00     0.119 C 
ENDROOT
BRANCH   1   2
ATOM      2  C23 ZIN A   1      19.174  -1.002  12.659  0.00  0.00     0.167 C 
BRANCH   2   3
ATOM      3  C22 ZIN A   1      18.198  -0.214  13.536  0.00  0.00     0.269 C 
BRANCH   3   4
ATOM      4  N20 ZIN A   1      18.943   0.486  14.592  0.00  0.00    -0.055 N 
ATOM      5  C8  ZIN A   1      18.468   1.873  14.654  0.00  0.00     0.279 C 
ATOM      6  C10 ZIN A   1      19.266   2.645  15.708  0.00  0.00     0.048 C 
ATOM      7  C11 ZIN A   1      19.070   1.975  17.074  0.00  0.00    -0.006 C 
ATOM      8  C17 ZIN A   1      19.509   0.512  16.973  0.00  0.00     0.016 C 
ATOM      9  C13 ZIN A   1      17.591   2.054  17.459  0.00  0.00     0.005 C 
ATOM     10  C16 ZIN A   1      19.265  -0.195  18.306  0.00  0.00     0.007 C 
ATOM     11  C19 ZIN A   1      18.687  -0.157  15.871  0.00  0.00     0.241 C 
ATOM     12  C15 ZIN A   1      17.785  -0.113  18.685  0.00  0.00     0.000 C 
ATOM     13  C14 ZIN A   1      17.373   1.356  18.803  0.00  0.00     0.000 C 
ATOM     14  H21 ZIN A   1      19.930   0.446  14.388  0.00  0.00     0.281 HD
BRANCH   5  15
ATOM     15  C6  ZIN A   1      18.653   2.527  13.309  0.00  0.00     0.249 C 
ATOM     16  N5  ZIN A   1      17.650   3.245  12.766  0.00  0.00    -0.351 N 
ATOM     17  H66 ZIN A   1      16.809   3.342  13.241  0.00  0.00     0.163 HD
ATOM     18  O7  ZIN A   1      19.703   2.407  12.715  0.00  0.00    -0.271 OA
BRANCH  16  19
ATOM     19  C2  ZIN A   1      17.829   3.881  11.458  0.00  0.00     0.022 C 
ATOM     20  C1  ZIN A   1      17.950   2.802  10.379  0.00  0.00     0.037 C 
ATOM     21  C3  ZIN A   1      19.101   4.731  11.473  0.00  0.00     0.037 C 
ATOM     22  C4  ZIN A   1      16.623   4.773  11.155  0.00  0.00     0.037 C 
ENDBRANCH  16  19
ENDBRANCH   5  15
ENDBRANCH   3   4
ENDBRANCH   2   3
BRANCH   2  23
ATOM     23  O25 ZIN A   1      20.004  -1.819  13.487  0.00  0.00    -0.392 OA
ATOM     24  H81 ZIN A   1      20.951  -1.657  13.375  0.00  0.00     0.210 HD
ENDBRANCH   2  23
ENDBRANCH   1   2
BRANCH   1  25
ATOM     25  C28 ZIN A   1      18.431  -3.337  12.177  0.00  0.00     0.066 C 
BRANCH  25  26
ATOM     26  C29 ZIN A   1      18.206  -4.264  11.011  0.00  0.00    -0.056 A 
ATOM     27  C34 ZIN A   1      16.919  -4.573  10.612  0.00  0.00     0.007 A 
ATOM     28  C33 ZIN A   1      16.713  -5.421   9.539  0.00  0.00     0.001 A 
ATOM     29  C32 ZIN A   1      17.793  -5.967   8.871  0.00  0.00     0.000 A 
ATOM     30  C31 ZIN A   1      19.081  -5.662   9.274  0.00  0.00     0.001 A 
ATOM     31  C30 ZIN A   1      19.286  -4.811  10.343  0.00  0.00     0.007 A 
ENDBRANCH  25  26
ENDBRANCH   1  25
BRANCH   1  32
ATOM     32  N35 ZIN A   1      18.988  -1.802  10.356  0.00  0.00    -0.352 N 
ATOM     33  C36 ZIN A   1      18.388  -1.075   9.393  0.00  0.00     0.241 C 
ATOM     34  O37 ZIN A   1      17.353  -0.491   9.630  0.00  0.00    -0.271 OA
ATOM     35  H89 ZIN A   1      19.817  -2.268  10.167  0.00  0.00     0.163 HD
BRANCH  33  36
ATOM     36  C38 ZIN A   1      19.005  -0.988   8.021  0.00  0.00     0.185 C 
BRANCH  36  37
ATOM     37  C40 ZIN A   1      19.004   0.469   7.553  0.00  0.00     0.137 C 
BRANCH  37  38
ATOM     38  C41 ZIN A   1      18.650   0.527   6.090  0.00  0.00     0.217 C 
ATOM     39  N42 ZIN A   1      19.626   0.557   5.161  0.00  0.00    -0.370 N 
ATOM     40  H92 ZIN A   1      20.557   0.543   5.433  0.00  0.00     0.159 HD
ATOM     41  H93 ZIN A   1      19.398   0.595   4.218  0.00  0.00     0.159 HD
ATOM     42  O43 ZIN A   1      17.486   0.546   5.748  0.00  0.00    -0.274 OA
ENDBRANCH  37  38
ENDBRANCH  36  37
BRANCH  36  43
ATOM     43  N44 ZIN A   1      18.227  -1.801   7.083  0.00  0.00    -0.342 N 
ATOM     44  C45 ZIN A   1      18.829  -2.785   6.385  0.00  0.00     0.271 C 
ATOM     45  O46 ZIN A   1      19.994  -3.056   6.598  0.00  0.00    -0.266 OA
ATOM     46  H94 ZIN A   1      17.279  -1.632   6.965  0.00  0.00     0.163 HD
BRANCH  44  47
ATOM     47  C47 ZIN A   1      18.069  -3.535   5.355  0.00  0.00     0.125 A 
ATOM     48  N56 ZIN A   1      18.050  -4.853   5.402  0.00  0.00    -0.243 NA
ATOM     49  C55 ZIN A   1      17.378  -5.567   4.500  0.00  0.00     0.068 A 
ATOM     50  C50 ZIN A   1      16.671  -4.910   3.458  0.00  0.00    -0.007 A 
ATOM     51  C54 ZIN A   1      17.358  -6.974   4.558  0.00  0.00     0.032 A 
ATOM     52  C49 ZIN A   1      16.690  -3.505   3.397  0.00  0.00     0.016 A 
ATOM     53  C51 ZIN A   1      15.970  -5.672   2.509  0.00  0.00     0.014 A 
ATOM     54  C48 ZIN A   1      17.393  -2.827   4.352  0.00  0.00     0.038 A 
ATOM     55  C52 ZIN A   1      15.976  -7.030   2.598  0.00  0.00     0.001 A 
ATOM     56  C53 ZIN A   1      16.667  -7.678   3.621  0.00  0.00     0.002 A 
ENDBRANCH  44  47
ENDBRANCH  36  43
ENDBRANCH  33  36
ENDBRANCH   1  32
TORSDOF 14
ENDMDL
