MODEL 1
REMARK VINA RESULT:      -5.3      0.000      0.000
REMARK  20 active torsions:
REMARK  status: ('A' for Active; 'I' for Inactive)
REMARK    1  A    between atoms: C2_2  and  C3_3 
REMARK    2  A    between atoms: C3_3  and  C4_4 
REMARK    3  A    between atoms: C4_4  and  C5_5 
REMARK    4  A    between atoms: C5_5  and  C6_6 
REMARK    5  A    between atoms: C6_6  and  C7_7 
REMARK    6  A    between atoms: C7_7  and  C8_8 
REMARK    7  A    between atoms: C8_8  and  C9_9 
REMARK    8  A    between atoms: C9_9  and  C10_10 
REMARK    9  A    between atoms: C10_10  and  C11_11 
REMARK   10  A    between atoms: C11_11  and  C12_12 
REMARK   11  A    between atoms: C12_12  and  C13_13 
REMARK   12  A    between atoms: C13_13  and  C14_14 
REMARK   13  A    between atoms: C14_14  and  C15_15 
REMARK   14  A    between atoms: C15_15  and  C16_16 
REMARK   15  A    between atoms: C16_16  and  O17_17 
REMARK   16  A    between atoms: O17_17  and  P18_18 
REMARK   17  A    between atoms: P18_18  and  O21_21 
REMARK   18  A    between atoms: O21_21  and  C22_22 
REMARK   19  A    between atoms: C22_22  and  C23_23 
REMARK   20  A    between atoms: C23_23  and  N24_24 
ROOT
ATOM      1  C14 ZIN A   1      19.559  -0.199  14.207  0.00  0.00     0.002 C 
ENDROOT
BRANCH   1   2
ATOM      2  C13 ZIN A   1      20.075   0.499  12.948  0.00  0.00     0.000 C 
BRANCH   2   3
ATOM      3  C12 ZIN A   1      19.036   1.514  12.464  0.00  0.00     0.000 C 
BRANCH   3   4
ATOM      4  C11 ZIN A   1      19.665   2.425  11.409  0.00  0.00     0.000 C 
BRANCH   4   5
ATOM      5  C10 ZIN A   1      18.568   2.991  10.505  0.00  0.00     0.000 C 
BRANCH   5   6
ATOM      6  C9  ZIN A   1      18.889   2.661   9.046  0.00  0.00     0.000 C 
BRANCH   6   7
ATOM      7  C8  ZIN A   1      19.110   1.155   8.899  0.00  0.00     0.000 C 
BRANCH   7   8
ATOM      8  C7  ZIN A   1      17.766   0.464   8.655  0.00  0.00     0.000 C 
BRANCH   8   9
ATOM      9  C6  ZIN A   1      17.941  -1.051   8.782  0.00  0.00     0.000 C 
BRANCH   9  10
ATOM     10  C5  ZIN A   1      18.609  -1.377  10.119  0.00  0.00     0.000 C 
BRANCH  10  11
ATOM     11  C4  ZIN A   1      17.560  -1.912  11.095  0.00  0.00     0.000 C 
BRANCH  11  12
ATOM     12  C3  ZIN A   1      18.214  -2.919  12.045  0.00  0.00    -0.000 C 
BRANCH  12  13
ATOM     13  C2  ZIN A   1      19.682  -3.107  11.657  0.00  0.00    -0.005 C 
ATOM     14  C1  ZIN A   1      19.925  -4.567  11.273  0.00  0.00     0.005 C 
ENDBRANCH  12  13
ENDBRANCH  11  12
ENDBRANCH  10  11
ENDBRANCH   9  10
ENDBRANCH   8   9
ENDBRANCH   7   8
ENDBRANCH   6   7
ENDBRANCH   5   6
ENDBRANCH   4   5
ENDBRANCH   3   4
ENDBRANCH   2   3
ENDBRANCH   1   2
BRANCH   1  15
ATOM     15  C15 ZIN A   1      18.035  -0.074  14.271  0.00  0.00     0.027 C 
BRANCH  15  16
ATOM     16  C16 ZIN A   1      17.635   0.630  15.568  0.00  0.00     0.181 C 
BRANCH  16  17
ATOM     17  O17 ZIN A   1      18.808   0.954  16.318  0.00  0.00    -0.290 OA
BRANCH  17  18
ATOM     18  P18 ZIN A   1      18.759   1.661  17.763  0.00  0.00     0.408 P 
ATOM     19  O19 ZIN A   1      17.442   1.283  18.476  0.00  0.00    -0.624 OA
ATOM     20  O20 ZIN A   1      19.959   1.184  18.610  0.00  0.00    -0.624 OA
BRANCH  18  21
ATOM     21  O21 ZIN A   1      18.831   3.259  17.581  0.00  0.00    -0.288 OA
BRANCH  21  22
ATOM     22  C22 ZIN A   1      19.459   3.888  16.463  0.00  0.00     0.209 C 
BRANCH  22  23
ATOM     23  C23 ZIN A   1      18.835   5.266  16.236  0.00  0.00     0.262 C 
BRANCH  23  24
ATOM     24  N24 ZIN A   1      18.519   5.431  14.810  0.00  0.00    -0.077 N 
ATOM     25  C25 ZIN A   1      17.657   4.326  14.369  0.00  0.00     0.271 C 
ATOM     26  C26 ZIN A   1      17.820   6.707  14.608  0.00  0.00     0.271 C 
ATOM     27  C27 ZIN A   1      19.762   5.425  14.029  0.00  0.00     0.271 C 
ENDBRANCH  23  24
ENDBRANCH  22  23
ENDBRANCH  21  22
ENDBRANCH  18  21
ENDBRANCH  17  18
ENDBRANCH  16  17
ENDBRANCH  15  16
ENDBRANCH   1  15
TORSDOF 20
ENDMDL
MODEL 2
REMARK VINA RESULT:      -5.3      5.796      8.793
REMARK  20 active torsions:
REMARK  status: ('A' for Active; 'I' for Inactive)
REMARK    1  A    between atoms: C2_2  and  C3_3 
REMARK    2  A    between atoms: C3_3  and  C4_4 
REMARK    3  A    between atoms: C4_4  and  C5_5 
REMARK    4  A    between atoms: C5_5  and  C6_6 
REMARK    5  A    between atoms: C6_6  and  C7_7 
REMARK    6  A    between atoms: C7_7  and  C8_8 
REMARK    7  A    between atoms: C8_8  and  C9_9 
REMARK    8  A    between atoms: C9_9  and  C10_10 
REMARK    9  A    between atoms: C10_10  and  C11_11 
REMARK   10  A    between atoms: C11_11  and  C12_12 
REMARK   11  A    between atoms: C12_12  and  C13_13 
REMARK   12  A    between atoms: C13_13  and  C14_14 
REMARK   13  A    between atoms: C14_14  and  C15_15 
REMARK   14  A    between atoms: C15_15  and  C16_16 
REMARK   15  A    between atoms: C16_16  and  O17_17 
REMARK   16  A    between atoms: O17_17  and  P18_18 
REMARK   17  A    between atoms: P18_18  and  O21_21 
REMARK   18  A    between atoms: O21_21  and  C22_22 
REMARK   19  A    between atoms: C22_22  and  C23_23 
REMARK   20  A    between atoms: C23_23  and  N24_24 
ROOT
ATOM      1  C14 ZIN A   1      19.049   1.234   8.351  0.00  0.00     0.002 C 
ENDROOT
BRANCH   1   2
ATOM      2  C13 ZIN A   1      18.889   2.632   8.951  0.00  0.00     0.000 C 
BRANCH   2   3
ATOM      3  C12 ZIN A   1      18.884   2.535  10.479  0.00  0.00     0.000 C 
BRANCH   3   4
ATOM      4  C11 ZIN A   1      17.687   3.307  11.036  0.00  0.00     0.000 C 
BRANCH   4   5
ATOM      5  C10 ZIN A   1      18.184   4.505  11.845  0.00  0.00     0.000 C 
BRANCH   5   6
ATOM      6  C9  ZIN A   1      19.119   4.020  12.954  0.00  0.00     0.000 C 
BRANCH   6   7
ATOM      7  C8  ZIN A   1      18.317   3.229  13.989  0.00  0.00     0.000 C 
BRANCH   7   8
ATOM      8  C7  ZIN A   1      18.937   1.840  14.161  0.00  0.00     0.000 C 
BRANCH   8   9
ATOM      9  C6  ZIN A   1      17.967   0.941  14.931  0.00  0.00     0.000 C 
BRANCH   9  10
ATOM     10  C5  ZIN A   1      17.811  -0.390  14.194  0.00  0.00     0.000 C 
BRANCH  10  11
ATOM     11  C4  ZIN A   1      17.372  -0.127  12.753  0.00  0.00     0.000 C 
BRANCH  11  12
ATOM     12  C3  ZIN A   1      17.928  -1.224  11.842  0.00  0.00    -0.000 C 
BRANCH  12  13
ATOM     13  C2  ZIN A   1      19.394  -1.483  12.192  0.00  0.00    -0.005 C 
ATOM     14  C1  ZIN A   1      20.291  -0.894  11.102  0.00  0.00     0.005 C 
ENDBRANCH  12  13
ENDBRANCH  11  12
ENDBRANCH  10  11
ENDBRANCH   9  10
ENDBRANCH   8   9
ENDBRANCH   7   8
ENDBRANCH   6   7
ENDBRANCH   5   6
ENDBRANCH   4   5
ENDBRANCH   3   4
ENDBRANCH   2   3
ENDBRANCH   1   2
BRANCH   1  15
ATOM     15  C15 ZIN A   1      17.798   0.406   8.650  0.00  0.00     0.027 C 
BRANCH  15  16
ATOM     16  C16 ZIN A   1      17.699  -0.748   7.651  0.00  0.00     0.181 C 
BRANCH  16  17
ATOM     17  O17 ZIN A   1      18.656  -0.558   6.606  0.00  0.00    -0.290 OA
BRANCH  17  18
ATOM     18  P18 ZIN A   1      19.078  -1.724   5.580  0.00  0.00     0.408 P 
ATOM     19  O19 ZIN A   1      17.808  -2.432   5.056  0.00  0.00    -0.624 OA
ATOM     20  O20 ZIN A   1      19.852  -1.110   4.393  0.00  0.00    -0.624 OA
BRANCH  18  21
ATOM     21  O21 ZIN A   1      20.013  -2.793   6.337  0.00  0.00    -0.288 OA
BRANCH  21  22
ATOM     22  C22 ZIN A   1      19.555  -4.087   6.731  0.00  0.00     0.209 C 
BRANCH  22  23
ATOM     23  C23 ZIN A   1      19.145  -4.056   8.205  0.00  0.00     0.262 C 
BRANCH  23  24
ATOM     24  N24 ZIN A   1      18.103  -5.064   8.443  0.00  0.00    -0.077 N 
ATOM     25  C25 ZIN A   1      17.155  -4.560   9.446  0.00  0.00     0.271 C 
ATOM     26  C26 ZIN A   1      17.389  -5.336   7.188  0.00  0.00     0.271 C 
ATOM     27  C27 ZIN A   1      18.721  -6.302   8.933  0.00  0.00     0.271 C 
ENDBRANCH  23  24
ENDBRANCH  22  23
ENDBRANCH  21  22
ENDBRANCH  18  21
ENDBRANCH  17  18
ENDBRANCH  16  17
ENDBRANCH  15  16
ENDBRANCH   1  15
TORSDOF 20
ENDMDL
MODEL 3
REMARK VINA RESULT:      -5.3      1.725      3.764
REMARK  20 active torsions:
REMARK  status: ('A' for Active; 'I' for Inactive)
REMARK    1  A    between atoms: C2_2  and  C3_3 
REMARK    2  A    between atoms: C3_3  and  C4_4 
REMARK    3  A    between atoms: C4_4  and  C5_5 
REMARK    4  A    between atoms: C5_5  and  C6_6 
REMARK    5  A    between atoms: C6_6  and  C7_7 
REMARK    6  A    between atoms: C7_7  and  C8_8 
REMARK    7  A    between atoms: C8_8  and  C9_9 
REMARK    8  A    between atoms: C9_9  and  C10_10 
REMARK    9  A    between atoms: C10_10  and  C11_11 
REMARK   10  A    between atoms: C11_11  and  C12_12 
REMARK   11  A    between atoms: C12_12  and  C13_13 
REMARK   12  A    between atoms: C13_13  and  C14_14 
REMARK   13  A    between atoms: C14_14  and  C15_15 
REMARK   14  A    between atoms: C15_15  and  C16_16 
REMARK   15  A    between atoms: C16_16  and  O17_17 
REMARK   16  A    between atoms: O17_17  and  P18_18 
REMARK   17  A    between atoms: P18_18  and  O21_21 
REMARK   18  A    between atoms: O21_21  and  C22_22 
REMARK   19  A    between atoms: C22_22  and  C23_23 
REMARK   20  A    between atoms: C23_23  and  N24_24 
ROOT
ATOM      1  C14 ZIN A   1      18.815  -1.240  14.989  0.00  0.00     0.002 C 
ENDROOT
BRANCH   1   2
ATOM      2  C13 ZIN A   1      18.012  -0.420  13.977  0.00  0.00     0.000 C 
BRANCH   2   3
ATOM      3  C12 ZIN A   1      18.175  -1.030  12.582  0.00  0.00     0.000 C 
BRANCH   3   4
ATOM      4  C11 ZIN A   1      19.137  -2.217  12.653  0.00  0.00     0.000 C 
BRANCH   4   5
ATOM      5  C10 ZIN A   1      18.624  -3.342  11.753  0.00  0.00     0.000 C 
BRANCH   5   6
ATOM      6  C9  ZIN A   1      17.722  -2.756  10.665  0.00  0.00     0.000 C 
BRANCH   6   7
ATOM      7  C8  ZIN A   1      18.130  -3.321   9.304  0.00  0.00     0.000 C 
BRANCH   7   8
ATOM      8  C7  ZIN A   1      18.444  -2.169   8.346  0.00  0.00     0.000 C 
BRANCH   8   9
ATOM      9  C6  ZIN A   1      17.497  -1.000   8.628  0.00  0.00     0.000 C 
BRANCH   9  10
ATOM     10  C5  ZIN A   1      18.271   0.316   8.535  0.00  0.00     0.000 C 
BRANCH  10  11
ATOM     11  C4  ZIN A   1      18.886   0.448   7.141  0.00  0.00     0.000 C 
BRANCH  11  12
ATOM     12  C3  ZIN A   1      17.771   0.528   6.096  0.00  0.00    -0.000 C 
BRANCH  12  13
ATOM     13  C2  ZIN A   1      18.267  -0.062   4.774  0.00  0.00    -0.005 C 
ATOM     14  C1  ZIN A   1      19.468  -0.971   5.041  0.00  0.00     0.005 C 
ENDBRANCH  12  13
ENDBRANCH  11  12
ENDBRANCH  10  11
ENDBRANCH   9  10
ENDBRANCH   8   9
ENDBRANCH   7   8
ENDBRANCH   6   7
ENDBRANCH   5   6
ENDBRANCH   4   5
ENDBRANCH   3   4
ENDBRANCH   2   3
ENDBRANCH   1   2
BRANCH   1  15
ATOM     15  C15 ZIN A   1      17.998  -1.407  16.272  0.00  0.00     0.027 C 
BRANCH  15  16
ATOM     16  C16 ZIN A   1      17.205  -0.127  16.542  0.00  0.00     0.181 C 
BRANCH  16  17
ATOM     17  O17 ZIN A   1      17.628   0.444  17.782  0.00  0.00    -0.290 OA
BRANCH  17  18
ATOM     18  P18 ZIN A   1      18.679   1.660  17.876  0.00  0.00     0.408 P 
ATOM     19  O19 ZIN A   1      18.057   2.816  18.690  0.00  0.00    -0.624 OA
ATOM     20  O20 ZIN A   1      19.968   1.173  18.573  0.00  0.00    -0.624 OA
BRANCH  18  21
ATOM     21  O21 ZIN A   1      19.033   2.179  16.394  0.00  0.00    -0.288 OA
BRANCH  21  22
ATOM     22  C22 ZIN A   1      18.552   3.416  15.867  0.00  0.00     0.209 C 
BRANCH  22  23
ATOM     23  C23 ZIN A   1      18.207   3.242  14.387  0.00  0.00     0.262 C 
BRANCH  23  24
ATOM     24  N24 ZIN A   1      18.653   4.424  13.638  0.00  0.00    -0.077 N 
ATOM     25  C25 ZIN A   1      19.556   5.223  14.477  0.00  0.00     0.271 C 
ATOM     26  C26 ZIN A   1      19.364   3.997  12.425  0.00  0.00     0.271 C 
ATOM     27  C27 ZIN A   1      17.488   5.235  13.262  0.00  0.00     0.271 C 
ENDBRANCH  23  24
ENDBRANCH  22  23
ENDBRANCH  21  22
ENDBRANCH  18  21
ENDBRANCH  17  18
ENDBRANCH  16  17
ENDBRANCH  15  16
ENDBRANCH   1  15
TORSDOF 20
ENDMDL
MODEL 4
REMARK VINA RESULT:      -5.3      3.663      6.377
REMARK  20 active torsions:
REMARK  status: ('A' for Active; 'I' for Inactive)
REMARK    1  A    between atoms: C2_2  and  C3_3 
REMARK    2  A    between atoms: C3_3  and  C4_4 
REMARK    3  A    between atoms: C4_4  and  C5_5 
REMARK    4  A    between atoms: C5_5  and  C6_6 
REMARK    5  A    between atoms: C6_6  and  C7_7 
REMARK    6  A    between atoms: C7_7  and  C8_8 
REMARK    7  A    between atoms: C8_8  and  C9_9 
REMARK    8  A    between atoms: C9_9  and  C10_10 
REMARK    9  A    between atoms: C10_10  and  C11_11 
REMARK   10  A    between atoms: C11_11  and  C12_12 
REMARK   11  A    between atoms: C12_12  and  C13_13 
REMARK   12  A    between atoms: C13_13  and  C14_14 
REMARK   13  A    between atoms: C14_14  and  C15_15 
REMARK   14  A    between atoms: C15_15  and  C16_16 
REMARK   15  A    between atoms: C16_16  and  O17_17 
REMARK   16  A    between atoms: O17_17  and  P18_18 
REMARK   17  A    between atoms: P18_18  and  O21_21 
REMARK   18  A    between atoms: O21_21  and  C22_22 
REMARK   19  A    between atoms: C22_22  and  C23_23 
REMARK   20  A    between atoms: C23_23  and  N24_24 
ROOT
ATOM      1  C14 ZIN A   1      18.330   2.724  15.291  0.00  0.00     0.002 C 
ENDROOT
BRANCH   1   2
ATOM      2  C13 ZIN A   1      19.167   1.994  16.343  0.00  0.00     0.000 C 
BRANCH   2   3
ATOM      3  C12 ZIN A   1      18.289   1.661  17.553  0.00  0.00     0.000 C 
BRANCH   3   4
ATOM      4  C11 ZIN A   1      17.837   0.202  17.468  0.00  0.00     0.000 C 
BRANCH   4   5
ATOM      5  C10 ZIN A   1      18.982  -0.656  16.929  0.00  0.00     0.000 C 
BRANCH   5   6
ATOM      6  C9  ZIN A   1      18.450  -1.592  15.841  0.00  0.00     0.000 C 
BRANCH   6   7
ATOM      7  C8  ZIN A   1      18.982  -1.144  14.478  0.00  0.00     0.000 C 
BRANCH   7   8
ATOM      8  C7  ZIN A   1      17.847  -0.508  13.672  0.00  0.00     0.000 C 
BRANCH   8   9
ATOM      9  C6  ZIN A   1      18.150  -0.633  12.178  0.00  0.00     0.000 C 
BRANCH   9  10
ATOM     10  C5  ZIN A   1      17.502  -1.906  11.631  0.00  0.00     0.000 C 
BRANCH  10  11
ATOM     11  C4  ZIN A   1      18.460  -2.586  10.652  0.00  0.00     0.000 C 
BRANCH  11  12
ATOM     12  C3  ZIN A   1      19.711  -3.050  11.403  0.00  0.00    -0.000 C 
BRANCH  12  13
ATOM     13  C2  ZIN A   1      19.801  -4.577  11.349  0.00  0.00    -0.005 C 
ATOM     14  C1  ZIN A   1      19.752  -5.039   9.892  0.00  0.00     0.005 C 
ENDBRANCH  12  13
ENDBRANCH  11  12
ENDBRANCH  10  11
ENDBRANCH   9  10
ENDBRANCH   8   9
ENDBRANCH   7   8
ENDBRANCH   6   7
ENDBRANCH   5   6
ENDBRANCH   4   5
ENDBRANCH   3   4
ENDBRANCH   2   3
ENDBRANCH   1   2
BRANCH   1  15
ATOM     15  C15 ZIN A   1      19.166   2.927  14.026  0.00  0.00     0.027 C 
BRANCH  15  16
ATOM     16  C16 ZIN A   1      18.759   4.238  13.351  0.00  0.00     0.181 C 
BRANCH  16  17
ATOM     17  O17 ZIN A   1      19.155   4.211  11.978  0.00  0.00    -0.290 OA
BRANCH  17  18
ATOM     18  P18 ZIN A   1      18.296   3.478  10.830  0.00  0.00     0.408 P 
ATOM     19  O19 ZIN A   1      16.971   2.958  11.432  0.00  0.00    -0.624 OA
ATOM     20  O20 ZIN A   1      17.988   4.483   9.698  0.00  0.00    -0.624 OA
BRANCH  18  21
ATOM     21  O21 ZIN A   1      19.137   2.240  10.237  0.00  0.00    -0.288 OA
BRANCH  21  22
ATOM     22  C22 ZIN A   1      19.208   1.945   8.842  0.00  0.00     0.209 C 
BRANCH  22  23
ATOM     23  C23 ZIN A   1      19.558   0.468   8.650  0.00  0.00     0.262 C 
BRANCH  23  24
ATOM     24  N24 ZIN A   1      18.691  -0.110   7.614  0.00  0.00    -0.077 N 
ATOM     25  C25 ZIN A   1      17.306  -0.150   8.102  0.00  0.00     0.271 C 
ATOM     26  C26 ZIN A   1      18.759   0.718   6.401  0.00  0.00     0.271 C 
ATOM     27  C27 ZIN A   1      19.140  -1.472   7.302  0.00  0.00     0.271 C 
ENDBRANCH  23  24
ENDBRANCH  22  23
ENDBRANCH  21  22
ENDBRANCH  18  21
ENDBRANCH  17  18
ENDBRANCH  16  17
ENDBRANCH  15  16
ENDBRANCH   1  15
TORSDOF 20
ENDMDL
MODEL 5
REMARK VINA RESULT:      -5.3      1.153      3.606
REMARK  20 active torsions:
REMARK  status: ('A' for Active; 'I' for Inactive)
REMARK    1  A    between atoms: C2_2  and  C3_3 
REMARK    2  A    between atoms: C3_3  and  C4_4 
REMARK    3  A    between atoms: C4_4  and  C5_5 
REMARK    4  A    between atoms: C5_5  and  C6_6 
REMARK    5  A    between atoms: C6_6  and  C7_7 
REMARK    6  A    between atoms: C7_7  and  C8_8 
REMARK    7  A    between atoms: C8_8  and  C9_9 
REMARK    8  A    between atoms: C9_9  and  C10_10 
REMARK    9  A    between atoms: C10_10  and  C11_11 
REMARK   10  A    between atoms: C11_11  and  C12_12 
REMARK   11  A    between atoms: C12_12  and  C13_13 
REMARK   12  A    between atoms: C13_13  and  C14_14 
REMARK   13  A    between atoms: C14_14  and  C15_15 
REMARK   14  A    between atoms: C15_15  and  C16_16 
REMARK   15  A    between atoms: C16_16  and  O17_17 
REMARK   16  A    between atoms: O17_17  and  P18_18 
REMARK   17  A    between atoms: P18_18  and  O21_21 
REMARK   18  A    between atoms: O21_21  and  C22_22 
REMARK   19  A    between atoms: C22_22  and  C23_23 
REMARK   20  A    between atoms: C23_23  and  N24_24 
ROOT
ATOM      1  C14 ZIN A   1      18.748   0.328  13.749  0.00  0.00     0.002 C 
ENDROOT
BRANCH   1   2
ATOM      2  C13 ZIN A   1      18.703  -0.269  12.341  0.00  0.00     0.000 C 
BRANCH   2   3
ATOM      3  C12 ZIN A   1      17.339  -0.923  12.107  0.00  0.00     0.000 C 
BRANCH   3   4
ATOM      4  C11 ZIN A   1      17.528  -2.247  11.365  0.00  0.00     0.000 C 
BRANCH   4   5
ATOM      5  C10 ZIN A   1      18.797  -2.178  10.514  0.00  0.00     0.000 C 
BRANCH   5   6
ATOM      6  C9  ZIN A   1      18.434  -2.366   9.039  0.00  0.00     0.000 C 
BRANCH   6   7
ATOM      7  C8  ZIN A   1      18.069  -1.013   8.427  0.00  0.00     0.000 C 
BRANCH   7   8
ATOM      8  C7  ZIN A   1      19.231  -0.036   8.620  0.00  0.00     0.000 C 
BRANCH   8   9
ATOM      9  C6  ZIN A   1      19.014   1.195   7.736  0.00  0.00     0.000 C 
BRANCH   9  10
ATOM     10  C5  ZIN A   1      18.788   2.423   8.619  0.00  0.00     0.000 C 
BRANCH  10  11
ATOM     11  C4  ZIN A   1      19.473   2.214   9.970  0.00  0.00     0.000 C 
BRANCH  11  12
ATOM     12  C3  ZIN A   1      18.914   3.212  10.986  0.00  0.00    -0.000 C 
BRANCH  12  13
ATOM     13  C2  ZIN A   1      17.481   3.584  10.600  0.00  0.00    -0.005 C 
ATOM     14  C1  ZIN A   1      17.315   5.103  10.656  0.00  0.00     0.005 C 
ENDBRANCH  12  13
ENDBRANCH  11  12
ENDBRANCH  10  11
ENDBRANCH   9  10
ENDBRANCH   8   9
ENDBRANCH   7   8
ENDBRANCH   6   7
ENDBRANCH   5   6
ENDBRANCH   4   5
ENDBRANCH   3   4
ENDBRANCH   2   3
ENDBRANCH   1   2
BRANCH   1  15
ATOM     15  C15 ZIN A   1      19.228  -0.736  14.739  0.00  0.00     0.027 C 
BRANCH  15  16
ATOM     16  C16 ZIN A   1      18.548  -0.518  16.092  0.00  0.00     0.181 C 
BRANCH  16  17
ATOM     17  O17 ZIN A   1      18.489   0.882  16.376  0.00  0.00    -0.290 OA
BRANCH  17  18
ATOM     18  P18 ZIN A   1      18.951   1.512  17.783  0.00  0.00     0.408 P 
ATOM     19  O19 ZIN A   1      17.720   1.676  18.702  0.00  0.00    -0.624 OA
ATOM     20  O20 ZIN A   1      19.976   0.572  18.456  0.00  0.00    -0.624 OA
BRANCH  18  21
ATOM     21  O21 ZIN A   1      19.627   2.951  17.531  0.00  0.00    -0.288 OA
BRANCH  21  22
ATOM     22  C22 ZIN A   1      19.401   3.721  16.349  0.00  0.00     0.209 C 
BRANCH  22  23
ATOM     23  C23 ZIN A   1      18.759   5.058  16.725  0.00  0.00     0.262 C 
BRANCH  23  24
ATOM     24  N24 ZIN A   1      18.021   5.587  15.570  0.00  0.00    -0.077 N 
ATOM     25  C25 ZIN A   1      17.862   4.530  14.563  0.00  0.00     0.271 C 
ATOM     26  C26 ZIN A   1      16.696   6.050  16.007  0.00  0.00     0.271 C 
ATOM     27  C27 ZIN A   1      18.763   6.712  14.987  0.00  0.00     0.271 C 
ENDBRANCH  23  24
ENDBRANCH  22  23
ENDBRANCH  21  22
ENDBRANCH  18  21
ENDBRANCH  17  18
ENDBRANCH  16  17
ENDBRANCH  15  16
ENDBRANCH   1  15
TORSDOF 20
ENDMDL
MODEL 6
REMARK VINA RESULT:      -5.3      2.159      4.503
REMARK  20 active torsions:
REMARK  status: ('A' for Active; 'I' for Inactive)
REMARK    1  A    between atoms: C2_2  and  C3_3 
REMARK    2  A    between atoms: C3_3  and  C4_4 
REMARK    3  A    between atoms: C4_4  and  C5_5 
REMARK    4  A    between atoms: C5_5  and  C6_6 
REMARK    5  A    between atoms: C6_6  and  C7_7 
REMARK    6  A    between atoms: C7_7  and  C8_8 
REMARK    7  A    between atoms: C8_8  and  C9_9 
REMARK    8  A    between atoms: C9_9  and  C10_10 
REMARK    9  A    between atoms: C10_10  and  C11_11 
REMARK   10  A    between atoms: C11_11  and  C12_12 
REMARK   11  A    between atoms: C12_12  and  C13_13 
REMARK   12  A    between atoms: C13_13  and  C14_14 
REMARK   13  A    between atoms: C14_14  and  C15_15 
REMARK   14  A    between atoms: C15_15  and  C16_16 
REMARK   15  A    between atoms: C16_16  and  O17_17 
REMARK   16  A    between atoms: O17_17  and  P18_18 
REMARK   17  A    between atoms: P18_18  and  O21_21 
REMARK   18  A    between atoms: O21_21  and  C22_22 
REMARK   19  A    between atoms: C22_22  and  C23_23 
REMARK   20  A    between atoms: C23_23  and  N24_24 
ROOT
ATOM      1  C14 ZIN A   1      18.928   0.173  18.198  0.00  0.00     0.002 C 
ENDROOT
BRANCH   1   2
ATOM      2  C13 ZIN A   1      17.563  -0.066  17.551  0.00  0.00     0.000 C 
BRANCH   2   3
ATOM      3  C12 ZIN A   1      17.671  -1.211  16.540  0.00  0.00     0.000 C 
BRANCH   3   4
ATOM      4  C11 ZIN A   1      19.123  -1.348  16.077  0.00  0.00     0.000 C 
BRANCH   4   5
ATOM      5  C10 ZIN A   1      19.168  -1.394  14.549  0.00  0.00     0.000 C 
BRANCH   5   6
ATOM      6  C9  ZIN A   1      18.232  -0.327  13.978  0.00  0.00     0.000 C 
BRANCH   6   7
ATOM      7  C8  ZIN A   1      17.468  -0.904  12.785  0.00  0.00     0.000 C 
BRANCH   7   8
ATOM      8  C7  ZIN A   1      18.460  -1.316  11.695  0.00  0.00     0.000 C 
BRANCH   8   9
ATOM      9  C6  ZIN A   1      17.856  -1.024  10.319  0.00  0.00     0.000 C 
BRANCH   9  10
ATOM     10  C5  ZIN A   1      18.587  -1.847   9.257  0.00  0.00     0.000 C 
BRANCH  10  11
ATOM     11  C4  ZIN A   1      18.041  -1.493   7.873  0.00  0.00     0.000 C 
BRANCH  11  12
ATOM     12  C3  ZIN A   1      17.614  -0.023   7.854  0.00  0.00    -0.000 C 
BRANCH  12  13
ATOM     13  C2  ZIN A   1      18.700   0.815   7.176  0.00  0.00    -0.005 C 
ATOM     14  C1  ZIN A   1      19.250   1.839   8.170  0.00  0.00     0.005 C 
ENDBRANCH  12  13
ENDBRANCH  11  12
ENDBRANCH  10  11
ENDBRANCH   9  10
ENDBRANCH   8   9
ENDBRANCH   7   8
ENDBRANCH   6   7
ENDBRANCH   5   6
ENDBRANCH   4   5
ENDBRANCH   3   4
ENDBRANCH   2   3
ENDBRANCH   1   2
BRANCH   1  15
ATOM     15  C15 ZIN A   1      19.167   1.677  18.342  0.00  0.00     0.027 C 
BRANCH  15  16
ATOM     16  C16 ZIN A   1      19.280   2.311  16.955  0.00  0.00     0.181 C 
BRANCH  16  17
ATOM     17  O17 ZIN A   1      19.979   3.554  17.052  0.00  0.00    -0.290 OA
BRANCH  17  18
ATOM     18  P18 ZIN A   1      19.700   4.797  16.069  0.00  0.00     0.408 P 
ATOM     19  O19 ZIN A   1      18.624   5.715  16.692  0.00  0.00    -0.624 OA
ATOM     20  O20 ZIN A   1      21.006   5.597  15.868  0.00  0.00    -0.624 OA
BRANCH  18  21
ATOM     21  O21 ZIN A   1      19.179   4.251  14.647  0.00  0.00    -0.288 OA
BRANCH  21  22
ATOM     22  C22 ZIN A   1      19.222   5.030  13.451  0.00  0.00     0.209 C 
BRANCH  22  23
ATOM     23  C23 ZIN A   1      17.947   4.791  12.640  0.00  0.00     0.262 C 
BRANCH  23  24
ATOM     24  N24 ZIN A   1      18.241   3.887  11.520  0.00  0.00    -0.077 N 
ATOM     25  C25 ZIN A   1      17.815   4.512  10.261  0.00  0.00     0.271 C 
ATOM     26  C26 ZIN A   1      19.686   3.624  11.471  0.00  0.00     0.271 C 
ATOM     27  C27 ZIN A   1      17.520   2.622  11.708  0.00  0.00     0.271 C 
ENDBRANCH  23  24
ENDBRANCH  22  23
ENDBRANCH  21  22
ENDBRANCH  18  21
ENDBRANCH  17  18
ENDBRANCH  16  17
ENDBRANCH  15  16
ENDBRANCH   1  15
TORSDOF 20
ENDMDL
MODEL 7
REMARK VINA RESULT:      -5.2      6.265      9.492
REMARK  20 active torsions:
REMARK  status: ('A' for Active; 'I' for Inactive)
REMARK    1  A    between atoms: C2_2  and  C3_3 
REMARK    2  A    between atoms: C3_3  and  C4_4 
REMARK    3  A    between atoms: C4_4  and  C5_5 
REMARK    4  A    between atoms: C5_5  and  C6_6 
REMARK    5  A    between atoms: C6_6  and  C7_7 
REMARK    6  A    between atoms: C7_7  and  C8_8 
REMARK    7  A    between atoms: C8_8  and  C9_9 
REMARK    8  A    between atoms: C9_9  and  C10_10 
REMARK    9  A    between atoms: C10_10  and  C11_11 
REMARK   10  A    between atoms: C11_11  and  C12_12 
REMARK   11  A    between atoms: C12_12  and  C13_13 
REMARK   12  A    between atoms: C13_13  and  C14_14 
REMARK   13  A    between atoms: C14_14  and  C15_15 
REMARK   14  A    between atoms: C15_15  and  C16_16 
REMARK   15  A    between atoms: C16_16  and  O17_17 
REMARK   16  A    between atoms: O17_17  and  P18_18 
REMARK   17  A    between atoms: P18_18  and  O21_21 
REMARK   18  A    between atoms: O21_21  and  C22_22 
REMARK   19  A    between atoms: C22_22  and  C23_23 
REMARK   20  A    between atoms: C23_23  and  N24_24 
ROOT
ATOM      1  C14 ZIN A   1      19.029   1.356   8.381  0.00  0.00     0.002 C 
ENDROOT
BRANCH   1   2
ATOM      2  C13 ZIN A   1      18.827   2.496   9.380  0.00  0.00     0.000 C 
BRANCH   2   3
ATOM      3  C12 ZIN A   1      17.665   2.155  10.317  0.00  0.00     0.000 C 
BRANCH   3   4
ATOM      4  C11 ZIN A   1      17.591   0.639  10.507  0.00  0.00     0.000 C 
BRANCH   4   5
ATOM      5  C10 ZIN A   1      16.898   0.324  11.833  0.00  0.00     0.000 C 
BRANCH   5   6
ATOM      6  C9  ZIN A   1      17.290  -1.081  12.294  0.00  0.00     0.000 C 
BRANCH   6   7
ATOM      7  C8  ZIN A   1      18.815  -1.199  12.332  0.00  0.00     0.000 C 
BRANCH   7   8
ATOM      8  C7  ZIN A   1      19.268  -1.488  13.765  0.00  0.00     0.000 C 
BRANCH   8   9
ATOM      9  C6  ZIN A   1      18.337  -0.776  14.749  0.00  0.00     0.000 C 
BRANCH   9  10
ATOM     10  C5  ZIN A   1      18.430  -1.451  16.118  0.00  0.00     0.000 C 
BRANCH  10  11
ATOM     11  C4  ZIN A   1      17.678  -0.612  17.152  0.00  0.00     0.000 C 
BRANCH  11  12
ATOM     12  C3  ZIN A   1      18.610  -0.287  18.322  0.00  0.00    -0.000 C 
BRANCH  12  13
ATOM     13  C2  ZIN A   1      19.390   0.993  18.011  0.00  0.00    -0.005 C 
ATOM     14  C1  ZIN A   1      18.548   2.210  18.398  0.00  0.00     0.005 C 
ENDBRANCH  12  13
ENDBRANCH  11  12
ENDBRANCH  10  11
ENDBRANCH   9  10
ENDBRANCH   8   9
ENDBRANCH   7   8
ENDBRANCH   6   7
ENDBRANCH   5   6
ENDBRANCH   4   5
ENDBRANCH   3   4
ENDBRANCH   2   3
ENDBRANCH   1   2
BRANCH   1  15
ATOM     15  C15 ZIN A   1      18.765   1.867   6.964  0.00  0.00     0.027 C 
BRANCH  15  16
ATOM     16  C16 ZIN A   1      19.175   0.797   5.951  0.00  0.00     0.181 C 
BRANCH  16  17
ATOM     17  O17 ZIN A   1      18.268  -0.305   6.026  0.00  0.00    -0.290 OA
BRANCH  17  18
ATOM     18  P18 ZIN A   1      18.398  -1.614   5.099  0.00  0.00     0.408 P 
ATOM     19  O19 ZIN A   1      17.200  -1.678   4.126  0.00  0.00    -0.624 OA
ATOM     20  O20 ZIN A   1      19.714  -1.544   4.292  0.00  0.00    -0.624 OA
BRANCH  18  21
ATOM     21  O21 ZIN A   1      18.405  -2.930   6.026  0.00  0.00    -0.288 OA
BRANCH  21  22
ATOM     22  C22 ZIN A   1      19.567  -3.387   6.720  0.00  0.00     0.209 C 
BRANCH  22  23
ATOM     23  C23 ZIN A   1      19.437  -4.886   7.000  0.00  0.00     0.262 C 
BRANCH  23  24
ATOM     24  N24 ZIN A   1      19.086  -5.090   8.412  0.00  0.00    -0.077 N 
ATOM     25  C25 ZIN A   1      19.020  -3.791   9.094  0.00  0.00     0.271 C 
ATOM     26  C26 ZIN A   1      17.779  -5.756   8.500  0.00  0.00     0.271 C 
ATOM     27  C27 ZIN A   1      20.106  -5.930   9.054  0.00  0.00     0.271 C 
ENDBRANCH  23  24
ENDBRANCH  22  23
ENDBRANCH  21  22
ENDBRANCH  18  21
ENDBRANCH  17  18
ENDBRANCH  16  17
ENDBRANCH  15  16
ENDBRANCH   1  15
TORSDOF 20
ENDMDL
MODEL 8
REMARK VINA RESULT:      -5.2      2.552      4.681
REMARK  20 active torsions:
REMARK  status: ('A' for Active; 'I' for Inactive)
REMARK    1  A    between atoms: C2_2  and  C3_3 
REMARK    2  A    between atoms: C3_3  and  C4_4 
REMARK    3  A    between atoms: C4_4  and  C5_5 
REMARK    4  A    between atoms: C5_5  and  C6_6 
REMARK    5  A    between atoms: C6_6  and  C7_7 
REMARK    6  A    between atoms: C7_7  and  C8_8 
REMARK    7  A    between atoms: C8_8  and  C9_9 
REMARK    8  A    between atoms: C9_9  and  C10_10 
REMARK    9  A    between atoms: C10_10  and  C11_11 
REMARK   10  A    between atoms: C11_11  and  C12_12 
REMARK   11  A    between atoms: C12_12  and  C13_13 
REMARK   12  A    between atoms: C13_13  and  C14_14 
REMARK   13  A    between atoms: C14_14  and  C15_15 
REMARK   14  A    between atoms: C15_15  and  C16_16 
REMARK   15  A    between atoms: C16_16  and  O17_17 
REMARK   16  A    between atoms: O17_17  and  P18_18 
REMARK   17  A    between atoms: P18_18  and  O21_21 
REMARK   18  A    between atoms: O21_21  and  C22_22 
REMARK   19  A    between atoms: C22_22  and  C23_23 
REMARK   20  A    between atoms: C23_23  and  N24_24 
ROOT
ATOM      1  C14 ZIN A   1      18.583   3.192  10.205  0.00  0.00     0.002 C 
ENDROOT
BRANCH   1   2
ATOM      2  C13 ZIN A   1      18.564   1.799   9.574  0.00  0.00     0.000 C 
BRANCH   2   3
ATOM      3  C12 ZIN A   1      19.160   1.868   8.165  0.00  0.00     0.000 C 
BRANCH   3   4
ATOM      4  C11 ZIN A   1      18.700   0.654   7.356  0.00  0.00     0.000 C 
BRANCH   4   5
ATOM      5  C10 ZIN A   1      19.191  -0.626   8.034  0.00  0.00     0.000 C 
BRANCH   5   6
ATOM      6  C9  ZIN A   1      18.246  -1.779   7.693  0.00  0.00     0.000 C 
BRANCH   6   7
ATOM      7  C8  ZIN A   1      18.947  -3.111   7.964  0.00  0.00     0.000 C 
BRANCH   7   8
ATOM      8  C7  ZIN A   1      18.236  -3.839   9.107  0.00  0.00     0.000 C 
BRANCH   8   9
ATOM      9  C6  ZIN A   1      19.228  -4.761   9.820  0.00  0.00     0.000 C 
BRANCH   9  10
ATOM     10  C5  ZIN A   1      19.165  -4.508  11.327  0.00  0.00     0.000 C 
BRANCH  10  11
ATOM     11  C4  ZIN A   1      20.070  -3.329  11.685  0.00  0.00     0.000 C 
BRANCH  11  12
ATOM     12  C3  ZIN A   1      19.304  -2.350  12.577  0.00  0.00    -0.000 C 
BRANCH  12  13
ATOM     13  C2  ZIN A   1      18.863  -1.142  11.748  0.00  0.00    -0.005 C 
ATOM     14  C1  ZIN A   1      17.335  -1.097  11.684  0.00  0.00     0.005 C 
ENDBRANCH  12  13
ENDBRANCH  11  12
ENDBRANCH  10  11
ENDBRANCH   9  10
ENDBRANCH   8   9
ENDBRANCH   7   8
ENDBRANCH   6   7
ENDBRANCH   5   6
ENDBRANCH   4   5
ENDBRANCH   3   4
ENDBRANCH   2   3
ENDBRANCH   1   2
BRANCH   1  15
ATOM     15  C15 ZIN A   1      19.532   3.195  11.405  0.00  0.00     0.027 C 
BRANCH  15  16
ATOM     16  C16 ZIN A   1      19.425   4.534  12.136  0.00  0.00     0.181 C 
BRANCH  16  17
ATOM     17  O17 ZIN A   1      18.227   4.559  12.915  0.00  0.00    -0.290 OA
BRANCH  17  18
ATOM     18  P18 ZIN A   1      18.213   4.349  14.511  0.00  0.00     0.408 P 
ATOM     19  O19 ZIN A   1      19.544   4.858  15.109  0.00  0.00    -0.624 OA
ATOM     20  O20 ZIN A   1      17.036   5.140  15.124  0.00  0.00    -0.624 OA
BRANCH  18  21
ATOM     21  O21 ZIN A   1      18.040   2.784  14.845  0.00  0.00    -0.288 OA
BRANCH  21  22
ATOM     22  C22 ZIN A   1      18.610   2.167  16.000  0.00  0.00     0.209 C 
BRANCH  22  23
ATOM     23  C23 ZIN A   1      19.017   0.731  15.663  0.00  0.00     0.262 C 
BRANCH  23  24
ATOM     24  N24 ZIN A   1      18.646  -0.156  16.773  0.00  0.00    -0.077 N 
ATOM     25  C25 ZIN A   1      19.316   0.289  18.001  0.00  0.00     0.271 C 
ATOM     26  C26 ZIN A   1      17.190  -0.114  16.967  0.00  0.00     0.271 C 
ATOM     27  C27 ZIN A   1      19.057  -1.531  16.461  0.00  0.00     0.271 C 
ENDBRANCH  23  24
ENDBRANCH  22  23
ENDBRANCH  21  22
ENDBRANCH  18  21
ENDBRANCH  17  18
ENDBRANCH  16  17
ENDBRANCH  15  16
ENDBRANCH   1  15
TORSDOF 20
ENDMDL
MODEL 9
REMARK VINA RESULT:      -5.2      4.117      7.655
REMARK  20 active torsions:
REMARK  status: ('A' for Active; 'I' for Inactive)
REMARK    1  A    between atoms: C2_2  and  C3_3 
REMARK    2  A    between atoms: C3_3  and  C4_4 
REMARK    3  A    between atoms: C4_4  and  C5_5 
REMARK    4  A    between atoms: C5_5  and  C6_6 
REMARK    5  A    between atoms: C6_6  and  C7_7 
REMARK    6  A    between atoms: C7_7  and  C8_8 
REMARK    7  A    between atoms: C8_8  and  C9_9 
REMARK    8  A    between atoms: C9_9  and  C10_10 
REMARK    9  A    between atoms: C10_10  and  C11_11 
REMARK   10  A    between atoms: C11_11  and  C12_12 
REMARK   11  A    between atoms: C12_12  and  C13_13 
REMARK   12  A    between atoms: C13_13  and  C14_14 
REMARK   13  A    between atoms: C14_14  and  C15_15 
REMARK   14  A    between atoms: C15_15  and  C16_16 
REMARK   15  A    between atoms: C16_16  and  O17_17 
REMARK   16  A    between atoms: O17_17  and  P18_18 
REMARK   17  A    between atoms: P18_18  and  O21_21 
REMARK   18  A    between atoms: O21_21  and  C22_22 
REMARK   19  A    between atoms: C22_22  and  C23_23 
REMARK   20  A    between atoms: C23_23  and  N24_24 
ROOT
ATOM      1  C14 ZIN A   1      18.665   0.019  13.816  0.00  0.00     0.002 C 
ENDROOT
BRANCH   1   2
ATOM      2  C13 ZIN A   1      18.755  -0.669  15.179  0.00  0.00     0.000 C 
BRANCH   2   3
ATOM      3  C12 ZIN A   1      17.612  -0.182  16.074  0.00  0.00     0.000 C 
BRANCH   3   4
ATOM      4  C11 ZIN A   1      18.039  -0.271  17.540  0.00  0.00     0.000 C 
BRANCH   4   5
ATOM      5  C10 ZIN A   1      19.165   0.729  17.805  0.00  0.00     0.000 C 
BRANCH   5   6
ATOM      6  C9  ZIN A   1      18.630   2.154  17.650  0.00  0.00     0.000 C 
BRANCH   6   7
ATOM      7  C8  ZIN A   1      19.478   2.909  16.626  0.00  0.00     0.000 C 
BRANCH   7   8
ATOM      8  C7  ZIN A   1      18.581   3.841  15.808  0.00  0.00     0.000 C 
BRANCH   8   9
ATOM      9  C6  ZIN A   1      18.746   3.530  14.319  0.00  0.00     0.000 C 
BRANCH   9  10
ATOM     10  C5  ZIN A   1      19.362   4.738  13.612  0.00  0.00     0.000 C 
BRANCH  10  11
ATOM     11  C4  ZIN A   1      19.309   4.525  12.098  0.00  0.00     0.000 C 
BRANCH  11  12
ATOM     12  C3  ZIN A   1      18.638   3.182  11.796  0.00  0.00    -0.000 C 
BRANCH  12  13
ATOM     13  C2  ZIN A   1      17.604   3.368  10.684  0.00  0.00    -0.005 C 
ATOM     14  C1  ZIN A   1      17.557   4.840  10.271  0.00  0.00     0.005 C 
ENDBRANCH  12  13
ENDBRANCH  11  12
ENDBRANCH  10  11
ENDBRANCH   9  10
ENDBRANCH   8   9
ENDBRANCH   7   8
ENDBRANCH   6   7
ENDBRANCH   5   6
ENDBRANCH   4   5
ENDBRANCH   3   4
ENDBRANCH   2   3
ENDBRANCH   1   2
BRANCH   1  15
ATOM     15  C15 ZIN A   1      17.411  -0.463  13.083  0.00  0.00     0.027 C 
BRANCH  15  16
ATOM     16  C16 ZIN A   1      17.689  -0.519  11.580  0.00  0.00     0.181 C 
BRANCH  16  17
ATOM     17  O17 ZIN A   1      17.708  -1.882  11.149  0.00  0.00    -0.290 OA
BRANCH  17  18
ATOM     18  P18 ZIN A   1      19.064  -2.669  10.786  0.00  0.00     0.408 P 
ATOM     19  O19 ZIN A   1      20.280  -1.765  11.088  0.00  0.00    -0.624 OA
ATOM     20  O20 ZIN A   1      19.156  -3.956  11.635  0.00  0.00    -0.624 OA
BRANCH  18  21
ATOM     21  O21 ZIN A   1      19.059  -3.055   9.223  0.00  0.00    -0.288 OA
BRANCH  21  22
ATOM     22  C22 ZIN A   1      18.320  -2.325   8.243  0.00  0.00     0.209 C 
BRANCH  22  23
ATOM     23  C23 ZIN A   1      19.264  -1.393   7.481  0.00  0.00     0.262 C 
BRANCH  23  24
ATOM     24  N24 ZIN A   1      18.712  -0.032   7.479  0.00  0.00    -0.077 N 
ATOM     25  C25 ZIN A   1      18.885   0.565   6.149  0.00  0.00     0.271 C 
ATOM     26  C26 ZIN A   1      17.281  -0.083   7.811  0.00  0.00     0.271 C 
ATOM     27  C27 ZIN A   1      19.416   0.784   8.477  0.00  0.00     0.271 C 
ENDBRANCH  23  24
ENDBRANCH  22  23
ENDBRANCH  21  22
ENDBRANCH  18  21
ENDBRANCH  17  18
ENDBRANCH  16  17
ENDBRANCH  15  16
ENDBRANCH   1  15
TORSDOF 20
ENDMDL
