MODEL 1
REMARK VINA RESULT:      -3.4      0.000      0.000
REMARK  4 active torsions:
REMARK  status: ('A' for Active; 'I' for Inactive)
REMARK    1  A    between atoms: C2_2  and  C4_4 
REMARK    2  A    between atoms: C4_4  and  C5_5 
REMARK    3  A    between atoms: C5_5  and  C6_6 
REMARK    4  A    between atoms: C6_6  and  O7_7 
ROOT
ATOM      1  C4  <0> d   1      19.121  -0.847  17.339  0.00  0.00     0.115 C 
ENDROOT
BRANCH   1   2
ATOM      2  C2  <0> d   1      18.955   0.406  18.160  0.00  0.00     0.172 C 
ATOM      3  O1  <0> d   1      17.842   0.769  18.501  0.00  0.00    -0.648 OA
ATOM      4  O3  <0> d   1      19.935   1.054  18.488  0.00  0.00    -0.648 OA
ENDBRANCH   1   2
BRANCH   1   5
ATOM      5  C5  <0> d   1      17.852  -1.091  16.520  0.00  0.00     0.036 C 
BRANCH   5   6
ATOM      6  C6  <0> d   1      17.901  -0.252  15.241  0.00  0.00     0.164 C 
BRANCH   6   7
ATOM      7  O7  <0> d   1      17.084   0.910  15.402  0.00  0.00    -0.401 OA
ATOM      8  H14 <0> d   1      16.726   1.018  16.294  0.00  0.00     0.209 HD
ENDBRANCH   6   7
ENDBRANCH   5   6
ENDBRANCH   1   5
TORSDOF 4
ENDMDL
MODEL 2
REMARK VINA RESULT:      -3.4      5.795      6.769
REMARK  4 active torsions:
REMARK  status: ('A' for Active; 'I' for Inactive)
REMARK    1  A    between atoms: C2_2  and  C4_4 
REMARK    2  A    between atoms: C4_4  and  C5_5 
REMARK    3  A    between atoms: C5_5  and  C6_6 
REMARK    4  A    between atoms: C6_6  and  O7_7 
ROOT
ATOM      1  C4  <0> d   1      19.120   2.499  10.835  0.00  0.00     0.115 C 
ENDROOT
BRANCH   1   2
ATOM      2  C2  <0> d   1      17.621   2.547  10.987  0.00  0.00     0.172 C 
ATOM      3  O1  <0> d   1      17.003   1.534  11.263  0.00  0.00    -0.648 OA
ATOM      4  O3  <0> d   1      17.028   3.603  10.841  0.00  0.00    -0.648 OA
ENDBRANCH   1   2
BRANCH   1   5
ATOM      5  C5  <0> d   1      19.748   1.996  12.136  0.00  0.00     0.036 C 
BRANCH   5   6
ATOM      6  C6  <0> d   1      20.332   0.599  11.914  0.00  0.00     0.164 C 
BRANCH   6   7
ATOM      7  O7  <0> d   1      21.741   0.628  12.158  0.00  0.00    -0.401 OA
ATOM      8  H14 <0> d   1      22.093  -0.196  12.520  0.00  0.00     0.209 HD
ENDBRANCH   6   7
ENDBRANCH   5   6
ENDBRANCH   1   5
TORSDOF 4
ENDMDL
MODEL 3
REMARK VINA RESULT:      -3.4      9.103     10.625
REMARK  4 active torsions:
REMARK  status: ('A' for Active; 'I' for Inactive)
REMARK    1  A    between atoms: C2_2  and  C4_4 
REMARK    2  A    between atoms: C4_4  and  C5_5 
REMARK    3  A    between atoms: C5_5  and  C6_6 
REMARK    4  A    between atoms: C6_6  and  O7_7 
ROOT
ATOM      1  C4  <0> d   1      18.927   1.338   6.480  0.00  0.00     0.115 C 
ENDROOT
BRANCH   1   2
ATOM      2  C2  <0> d   1      19.228   1.046   7.927  0.00  0.00     0.172 C 
ATOM      3  O1  <0> d   1      19.271   1.955   8.737  0.00  0.00    -0.648 OA
ATOM      4  O3  <0> d   1      19.424  -0.103   8.289  0.00  0.00    -0.648 OA
ENDBRANCH   1   2
BRANCH   1   5
ATOM      5  C5  <0> d   1      18.128   0.179   5.881  0.00  0.00     0.036 C 
BRANCH   5   6
ATOM      6  C6  <0> d   1      18.690  -0.169   4.502  0.00  0.00     0.164 C 
BRANCH   6   7
ATOM      7  O7  <0> d   1      20.075  -0.506   4.623  0.00  0.00    -0.401 OA
ATOM      8  H14 <0> d   1      20.280  -1.417   4.374  0.00  0.00     0.209 HD
ENDBRANCH   6   7
ENDBRANCH   5   6
ENDBRANCH   1   5
TORSDOF 4
ENDMDL
MODEL 4
REMARK VINA RESULT:      -3.4      9.298     11.201
REMARK  4 active torsions:
REMARK  status: ('A' for Active; 'I' for Inactive)
REMARK    1  A    between atoms: C2_2  and  C4_4 
REMARK    2  A    between atoms: C4_4  and  C5_5 
REMARK    3  A    between atoms: C5_5  and  C6_6 
REMARK    4  A    between atoms: C6_6  and  O7_7 
ROOT
ATOM      1  C4  <0> d   1      18.228  -0.001   5.826  0.00  0.00     0.115 C 
ENDROOT
BRANCH   1   2
ATOM      2  C2  <0> d   1      19.241  -1.062   5.479  0.00  0.00     0.172 C 
ATOM      3  O1  <0> d   1      19.973  -0.916   4.516  0.00  0.00    -0.648 OA
ATOM      4  O3  <0> d   1      19.332  -2.066   6.167  0.00  0.00    -0.648 OA
ENDBRANCH   1   2
BRANCH   1   5
ATOM      5  C5  <0> d   1      18.932   1.170   6.513  0.00  0.00     0.036 C 
BRANCH   5   6
ATOM      6  C6  <0> d   1      18.993   0.914   8.020  0.00  0.00     0.164 C 
BRANCH   6   7
ATOM      7  O7  <0> d   1      19.971   1.774   8.611  0.00  0.00    -0.401 OA
ATOM      8  H14 <0> d   1      20.491   2.277   7.969  0.00  0.00     0.209 HD
ENDBRANCH   6   7
ENDBRANCH   5   6
ENDBRANCH   1   5
TORSDOF 4
ENDMDL
MODEL 5
REMARK VINA RESULT:      -3.4      9.642     11.546
REMARK  4 active torsions:
REMARK  status: ('A' for Active; 'I' for Inactive)
REMARK    1  A    between atoms: C2_2  and  C4_4 
REMARK    2  A    between atoms: C4_4  and  C5_5 
REMARK    3  A    between atoms: C5_5  and  C6_6 
REMARK    4  A    between atoms: C6_6  and  O7_7 
ROOT
ATOM      1  C4  <0> d   1      19.045   0.660   5.981  0.00  0.00     0.115 C 
ENDROOT
BRANCH   1   2
ATOM      2  C2  <0> d   1      19.103  -0.265   4.792  0.00  0.00     0.172 C 
ATOM      3  O1  <0> d   1      18.278  -0.164   3.900  0.00  0.00    -0.648 OA
ATOM      4  O3  <0> d   1      19.978  -1.111   4.720  0.00  0.00    -0.648 OA
ENDBRANCH   1   2
BRANCH   1   5
ATOM      5  C5  <0> d   1      18.290  -0.024   7.122  0.00  0.00     0.036 C 
BRANCH   5   6
ATOM      6  C6  <0> d   1      19.291  -0.552   8.151  0.00  0.00     0.164 C 
BRANCH   6   7
ATOM      7  O7  <0> d   1      19.681  -1.882   7.798  0.00  0.00    -0.401 OA
ATOM      8  H14 <0> d   1      20.623  -1.976   7.601  0.00  0.00     0.209 HD
ENDBRANCH   6   7
ENDBRANCH   5   6
ENDBRANCH   1   5
TORSDOF 4
ENDMDL
MODEL 6
REMARK VINA RESULT:      -3.3      5.733      6.496
REMARK  4 active torsions:
REMARK  status: ('A' for Active; 'I' for Inactive)
REMARK    1  A    between atoms: C2_2  and  C4_4 
REMARK    2  A    between atoms: C4_4  and  C5_5 
REMARK    3  A    between atoms: C5_5  and  C6_6 
REMARK    4  A    between atoms: C6_6  and  O7_7 
ROOT
ATOM      1  C4  <0> d   1      18.385   0.109  12.096  0.00  0.00     0.115 C 
ENDROOT
BRANCH   1   2
ATOM      2  C2  <0> d   1      17.081  -0.553  11.730  0.00  0.00     0.172 C 
ATOM      3  O1  <0> d   1      16.991  -1.769  11.738  0.00  0.00    -0.648 OA
ATOM      4  O3  <0> d   1      16.115   0.127  11.430  0.00  0.00    -0.648 OA
ENDBRANCH   1   2
BRANCH   1   5
ATOM      5  C5  <0> d   1      19.313   0.113  10.880  0.00  0.00     0.036 C 
BRANCH   5   6
ATOM      6  C6  <0> d   1      20.297  -1.054  10.987  0.00  0.00     0.164 C 
BRANCH   6   7
ATOM      7  O7  <0> d   1      21.636  -0.553  10.952  0.00  0.00    -0.401 OA
ATOM      8  H14 <0> d   1      21.760   0.194  10.351  0.00  0.00     0.209 HD
ENDBRANCH   6   7
ENDBRANCH   5   6
ENDBRANCH   1   5
TORSDOF 4
ENDMDL
MODEL 7
REMARK VINA RESULT:      -3.2      1.748      3.386
REMARK  4 active torsions:
REMARK  status: ('A' for Active; 'I' for Inactive)
REMARK    1  A    between atoms: C2_2  and  C4_4 
REMARK    2  A    between atoms: C4_4  and  C5_5 
REMARK    3  A    between atoms: C5_5  and  C6_6 
REMARK    4  A    between atoms: C6_6  and  O7_7 
ROOT
ATOM      1  C4  <0> d   1      18.719  -1.379  16.495  0.00  0.00     0.115 C 
ENDROOT
BRANCH   1   2
ATOM      2  C2  <0> d   1      19.098  -0.789  15.161  0.00  0.00     0.172 C 
ATOM      3  O1  <0> d   1      19.388   0.392  15.076  0.00  0.00    -0.648 OA
ATOM      4  O3  <0> d   1      19.120  -1.495  14.166  0.00  0.00    -0.648 OA
ENDBRANCH   1   2
BRANCH   1   5
ATOM      5  C5  <0> d   1      17.962  -0.335  17.317  0.00  0.00     0.036 C 
BRANCH   5   6
ATOM      6  C6  <0> d   1      18.771   0.012  18.569  0.00  0.00     0.164 C 
BRANCH   6   7
ATOM      7  O7  <0> d   1      19.819   0.921  18.222  0.00  0.00    -0.401 OA
ATOM      8  H14 <0> d   1      20.358   0.632  17.474  0.00  0.00     0.209 HD
ENDBRANCH   6   7
ENDBRANCH   5   6
ENDBRANCH   1   5
TORSDOF 4
ENDMDL
MODEL 8
REMARK VINA RESULT:      -3.0     10.778     11.854
REMARK  4 active torsions:
REMARK  status: ('A' for Active; 'I' for Inactive)
REMARK    1  A    between atoms: C2_2  and  C4_4 
REMARK    2  A    between atoms: C4_4  and  C5_5 
REMARK    3  A    between atoms: C5_5  and  C6_6 
REMARK    4  A    between atoms: C6_6  and  O7_7 
ROOT
ATOM      1  C4  <0> d   1      18.462  -0.612   6.387  0.00  0.00     0.115 C 
ENDROOT
BRANCH   1   2
ATOM      2  C2  <0> d   1      18.826  -0.906   4.954  0.00  0.00     0.172 C 
ATOM      3  O1  <0> d   1      19.996  -0.909   4.610  0.00  0.00    -0.648 OA
ATOM      4  O3  <0> d   1      17.951  -1.148   4.140  0.00  0.00    -0.648 OA
ENDBRANCH   1   2
BRANCH   1   5
ATOM      5  C5  <0> d   1      19.338  -1.452   7.318  0.00  0.00     0.036 C 
BRANCH   5   6
ATOM      6  C6  <0> d   1      19.149  -2.935   6.995  0.00  0.00     0.164 C 
BRANCH   6   7
ATOM      7  O7  <0> d   1      20.396  -3.495   6.577  0.00  0.00    -0.401 OA
ATOM      8  H14 <0> d   1      21.090  -3.453   7.249  0.00  0.00     0.209 HD
ENDBRANCH   6   7
ENDBRANCH   5   6
ENDBRANCH   1   5
TORSDOF 4
ENDMDL
MODEL 9
REMARK VINA RESULT:      -3.0      7.215      8.563
REMARK  4 active torsions:
REMARK  status: ('A' for Active; 'I' for Inactive)
REMARK    1  A    between atoms: C2_2  and  C4_4 
REMARK    2  A    between atoms: C4_4  and  C5_5 
REMARK    3  A    between atoms: C5_5  and  C6_6 
REMARK    4  A    between atoms: C6_6  and  O7_7 
ROOT
ATOM      1  C4  <0> d   1      18.376   1.649   9.747  0.00  0.00     0.115 C 
ENDROOT
BRANCH   1   2
ATOM      2  C2  <0> d   1      17.826   2.936  10.305  0.00  0.00     0.172 C 
ATOM      3  O1  <0> d   1      18.139   4.002   9.803  0.00  0.00    -0.648 OA
ATOM      4  O3  <0> d   1      17.062   2.912  11.255  0.00  0.00    -0.648 OA
ENDBRANCH   1   2
BRANCH   1   5
ATOM      5  C5  <0> d   1      19.104   1.934   8.432  0.00  0.00     0.036 C 
BRANCH   5   6
ATOM      6  C6  <0> d   1      18.861   0.782   7.455  0.00  0.00     0.164 C 
BRANCH   6   7
ATOM      7  O7  <0> d   1      19.219   1.194   6.134  0.00  0.00    -0.401 OA
ATOM      8  H14 <0> d   1      18.734   1.969   5.819  0.00  0.00     0.209 HD
ENDBRANCH   6   7
ENDBRANCH   5   6
ENDBRANCH   1   5
TORSDOF 4
ENDMDL
