MODEL 1
REMARK VINA RESULT:      -7.8      0.000      0.000
REMARK  6 active torsions:
REMARK  status: ('A' for Active; 'I' for Inactive)
REMARK    1  A    between atoms: C5_5  and  C6_6 
REMARK    2  A    between atoms: C6_6  and  O7_7 
REMARK    3  A    between atoms: O7_7  and  N8_8 
REMARK    4  A    between atoms: C9_9  and  C10_10 
REMARK    5  A    between atoms: C9_9  and  C16_16 
REMARK    6  A    between atoms: C10_10  and  N11_11 
ROOT
ATOM      1  N8  ZIN A   1      19.821  -0.030   9.768  0.00  0.00    -0.136 NA
ATOM      2  C9  ZIN A   1      18.790  -0.728   9.415  0.00  0.00     0.091 C 
ENDROOT
BRANCH   2   3
ATOM      3  C10 ZIN A   1      17.897  -0.243   8.303  0.00  0.00     0.191 C 
BRANCH   3   4
ATOM      4  N11 ZIN A   1      18.579  -0.419   7.017  0.00  0.00    -0.344 N 
ATOM      5  C15 ZIN A   1      19.037  -1.582   6.507  0.00  0.00     0.209 A 
ATOM      6  N14 ZIN A   1      19.583  -1.342   5.345  0.00  0.00    -0.255 NA
ATOM      7  C13 ZIN A   1      19.500  -0.030   5.080  0.00  0.00     0.135 A 
ATOM      8  C12 ZIN A   1      18.875   0.565   6.114  0.00  0.00     0.111 A 
ENDBRANCH   3   4
ENDBRANCH   2   3
BRANCH   2   9
ATOM      9  C16 ZIN A   1      18.488  -1.998  10.104  0.00  0.00     0.014 A 
ATOM     10  C22 ZIN A   1      17.550  -2.029  11.140  0.00  0.00     0.048 A 
ATOM     11  C21 ZIN A   1      17.269  -3.222  11.775  0.00  0.00     0.048 A 
ATOM     12 Cl23 ZIN A   1      16.732  -0.574  11.618  0.00  0.00    -0.083 Cl
ATOM     13  C19 ZIN A   1      17.921  -4.384  11.395  0.00  0.00     0.035 A 
ATOM     14  C18 ZIN A   1      18.855  -4.356  10.372  0.00  0.00     0.025 A 
ATOM     15 Cl20 ZIN A   1      17.566  -5.878  12.202  0.00  0.00    -0.084 Cl
ATOM     16  C17 ZIN A   1      19.142  -3.172   9.726  0.00  0.00     0.017 A 
ENDBRANCH   2   9
BRANCH   1  17
ATOM     17  O7  ZIN A   1      20.594  -0.425  10.887  0.00  0.00    -0.252 OA
BRANCH  17  18
ATOM     18  C6  ZIN A   1      20.731   0.588  11.884  0.00  0.00     0.244 C 
BRANCH  18  19
ATOM     19  C5  ZIN A   1      19.833   0.269  13.052  0.00  0.00    -0.010 A 
ATOM     20  C4  ZIN A   1      19.814  -1.009  13.579  0.00  0.00     0.013 A 
ATOM     21  C3  ZIN A   1      18.989  -1.304  14.649  0.00  0.00     0.024 A 
ATOM     22  C2  ZIN A   1      18.185  -0.318  15.194  0.00  0.00     0.035 A 
ATOM     23 Cl1  ZIN A   1      17.152  -0.688  16.539  0.00  0.00    -0.084 Cl
ATOM     24  C26 ZIN A   1      18.200   0.959  14.663  0.00  0.00     0.048 A 
ATOM     25  C24 ZIN A   1      19.029   1.254  13.596  0.00  0.00     0.044 A 
ATOM     26 Cl25 ZIN A   1      19.053   2.859  12.933  0.00  0.00    -0.084 Cl
ENDBRANCH  18  19
ENDBRANCH  17  18
ENDBRANCH   1  17
TORSDOF 6
ENDMDL
MODEL 2
REMARK VINA RESULT:      -7.8      1.961      4.035
REMARK  6 active torsions:
REMARK  status: ('A' for Active; 'I' for Inactive)
REMARK    1  A    between atoms: C5_5  and  C6_6 
REMARK    2  A    between atoms: C6_6  and  O7_7 
REMARK    3  A    between atoms: O7_7  and  N8_8 
REMARK    4  A    between atoms: C9_9  and  C10_10 
REMARK    5  A    between atoms: C9_9  and  C16_16 
REMARK    6  A    between atoms: C10_10  and  N11_11 
ROOT
ATOM      1  N8  ZIN A   1      19.362  -0.808   8.900  0.00  0.00    -0.136 NA
ATOM      2  C9  ZIN A   1      18.419   0.024   8.598  0.00  0.00     0.091 C 
ENDROOT
BRANCH   2   3
ATOM      3  C10 ZIN A   1      17.513  -0.255   7.426  0.00  0.00     0.191 C 
BRANCH   3   4
ATOM      4  N11 ZIN A   1      18.315  -0.710   6.287  0.00  0.00    -0.344 N 
ATOM      5  C15 ZIN A   1      19.181   0.036   5.568  0.00  0.00     0.209 A 
ATOM      6  N14 ZIN A   1      19.707  -0.714   4.638  0.00  0.00    -0.255 NA
ATOM      7  C13 ZIN A   1      19.196  -1.950   4.724  0.00  0.00     0.135 A 
ATOM      8  C12 ZIN A   1      18.323  -1.969   5.750  0.00  0.00     0.111 A 
ENDBRANCH   3   4
ENDBRANCH   2   3
BRANCH   2   9
ATOM      9  C16 ZIN A   1      18.231   1.250   9.399  0.00  0.00     0.014 A 
ATOM     10  C22 ZIN A   1      17.413   1.230  10.532  0.00  0.00     0.048 A 
ATOM     11  C21 ZIN A   1      17.246   2.378  11.279  0.00  0.00     0.048 A 
ATOM     12 Cl23 ZIN A   1      16.620  -0.240  11.007  0.00  0.00    -0.083 Cl
ATOM     13  C19 ZIN A   1      17.878   3.552  10.901  0.00  0.00     0.035 A 
ATOM     14  C18 ZIN A   1      18.685   3.578   9.775  0.00  0.00     0.025 A 
ATOM     15 Cl20 ZIN A   1      17.658   4.993  11.841  0.00  0.00    -0.084 Cl
ATOM     16  C17 ZIN A   1      18.864   2.436   9.023  0.00  0.00     0.017 A 
ENDBRANCH   2   9
BRANCH   1  17
ATOM     17  O7  ZIN A   1      20.285  -0.490   9.927  0.00  0.00    -0.252 OA
BRANCH  17  18
ATOM     18  C6  ZIN A   1      20.378  -1.482  10.950  0.00  0.00     0.244 C 
BRANCH  18  19
ATOM     19  C5  ZIN A   1      19.794  -0.940  12.229  0.00  0.00    -0.010 A 
ATOM     20  C4  ZIN A   1      20.185   0.300  12.696  0.00  0.00     0.013 A 
ATOM     21  C3  ZIN A   1      19.651   0.798  13.870  0.00  0.00     0.024 A 
ATOM     22  C2  ZIN A   1      18.724   0.054  14.578  0.00  0.00     0.035 A 
ATOM     23 Cl1  ZIN A   1      18.053   0.680  16.051  0.00  0.00    -0.084 Cl
ATOM     24  C26 ZIN A   1      18.337  -1.190  14.114  0.00  0.00     0.048 A 
ATOM     25  C24 ZIN A   1      18.868  -1.685  12.937  0.00  0.00     0.044 A 
ATOM     26 Cl25 ZIN A   1      18.377  -3.245  12.351  0.00  0.00    -0.084 Cl
ENDBRANCH  18  19
ENDBRANCH  17  18
ENDBRANCH   1  17
TORSDOF 6
ENDMDL
MODEL 3
REMARK VINA RESULT:      -7.7      3.126      6.479
REMARK  6 active torsions:
REMARK  status: ('A' for Active; 'I' for Inactive)
REMARK    1  A    between atoms: C5_5  and  C6_6 
REMARK    2  A    between atoms: C6_6  and  O7_7 
REMARK    3  A    between atoms: O7_7  and  N8_8 
REMARK    4  A    between atoms: C9_9  and  C10_10 
REMARK    5  A    between atoms: C9_9  and  C16_16 
REMARK    6  A    between atoms: C10_10  and  N11_11 
ROOT
ATOM      1  N8  ZIN A   1      19.062   1.264  13.765  0.00  0.00    -0.136 NA
ATOM      2  C9  ZIN A   1      18.322   0.231  14.002  0.00  0.00     0.091 C 
ENDROOT
BRANCH   2   3
ATOM      3  C10 ZIN A   1      17.399   0.222  15.194  0.00  0.00     0.191 C 
BRANCH   3   4
ATOM      4  N11 ZIN A   1      18.194   0.237  16.426  0.00  0.00    -0.344 N 
ATOM      5  C15 ZIN A   1      18.860  -0.807  16.962  0.00  0.00     0.209 A 
ATOM      6  N14 ZIN A   1      19.451  -0.409  18.056  0.00  0.00    -0.255 NA
ATOM      7  C13 ZIN A   1      19.180   0.889  18.258  0.00  0.00     0.135 A 
ATOM      8  C12 ZIN A   1      18.395   1.312  17.249  0.00  0.00     0.111 A 
ENDBRANCH   3   4
ENDBRANCH   2   3
BRANCH   2   9
ATOM      9  C16 ZIN A   1      18.380  -0.940  13.106  0.00  0.00     0.014 A 
ATOM     10  C22 ZIN A   1      17.479  -1.059  12.044  0.00  0.00     0.048 A 
ATOM     11  C21 ZIN A   1      17.544  -2.155  11.208  0.00  0.00     0.048 A 
ATOM     12 Cl23 ZIN A   1      16.290   0.176  11.770  0.00  0.00    -0.083 Cl
ATOM     13  C19 ZIN A   1      18.491  -3.142  11.426  0.00  0.00     0.035 A 
ATOM     14  C18 ZIN A   1      19.383  -3.032  12.481  0.00  0.00     0.025 A 
ATOM     15 Cl20 ZIN A   1      18.562  -4.519  10.374  0.00  0.00    -0.084 Cl
ATOM     16  C17 ZIN A   1      19.332  -1.939  13.320  0.00  0.00     0.017 A 
ENDBRANCH   2   9
BRANCH   1  17
ATOM     17  O7  ZIN A   1      20.011   1.229  12.714  0.00  0.00    -0.252 OA
BRANCH  17  18
ATOM     18  C6  ZIN A   1      19.790   2.211  11.700  0.00  0.00     0.244 C 
BRANCH  18  19
ATOM     19  C5  ZIN A   1      19.565   1.524  10.377  0.00  0.00    -0.010 A 
ATOM     20  C4  ZIN A   1      20.074   0.257  10.162  0.00  0.00     0.013 A 
ATOM     21  C3  ZIN A   1      19.869  -0.374   8.948  0.00  0.00     0.024 A 
ATOM     22  C2  ZIN A   1      19.153   0.263   7.950  0.00  0.00     0.035 A 
ATOM     23 Cl1  ZIN A   1      18.895  -0.529   6.427  0.00  0.00    -0.084 Cl
ATOM     24  C26 ZIN A   1      18.650   1.534   8.164  0.00  0.00     0.048 A 
ATOM     25  C24 ZIN A   1      18.850   2.161   9.379  0.00  0.00     0.044 A 
ATOM     26 Cl25 ZIN A   1      18.212   3.754   9.650  0.00  0.00    -0.084 Cl
ENDBRANCH  18  19
ENDBRANCH  17  18
ENDBRANCH   1  17
TORSDOF 6
ENDMDL
MODEL 4
REMARK VINA RESULT:      -7.7      3.089      6.418
REMARK  6 active torsions:
REMARK  status: ('A' for Active; 'I' for Inactive)
REMARK    1  A    between atoms: C5_5  and  C6_6 
REMARK    2  A    between atoms: C6_6  and  O7_7 
REMARK    3  A    between atoms: O7_7  and  N8_8 
REMARK    4  A    between atoms: C9_9  and  C10_10 
REMARK    5  A    between atoms: C9_9  and  C16_16 
REMARK    6  A    between atoms: C10_10  and  N11_11 
ROOT
ATOM      1  N8  ZIN A   1      17.834  -0.331  12.928  0.00  0.00    -0.136 NA
ATOM      2  C9  ZIN A   1      18.649  -1.317  13.118  0.00  0.00     0.091 C 
ENDROOT
BRANCH   2   3
ATOM      3  C10 ZIN A   1      19.548  -1.330  14.328  0.00  0.00     0.191 C 
BRANCH   3   4
ATOM      4  N11 ZIN A   1      18.805  -0.841  15.493  0.00  0.00    -0.344 N 
ATOM      5  C15 ZIN A   1      17.904  -1.537  16.217  0.00  0.00     0.209 A 
ATOM      6  N14 ZIN A   1      17.455  -0.771  17.175  0.00  0.00    -0.255 NA
ATOM      7  C13 ZIN A   1      18.043   0.431  17.091  0.00  0.00     0.135 A 
ATOM      8  C12 ZIN A   1      18.891   0.408  16.045  0.00  0.00     0.111 A 
ENDBRANCH   3   4
ENDBRANCH   2   3
BRANCH   2   9
ATOM      9  C16 ZIN A   1      18.702  -2.429  12.149  0.00  0.00     0.014 A 
ATOM     10  C22 ZIN A   1      19.547  -2.353  11.038  0.00  0.00     0.048 A 
ATOM     11  C21 ZIN A   1      19.595  -3.400  10.139  0.00  0.00     0.048 A 
ATOM     12 Cl23 ZIN A   1      20.544  -0.952  10.796  0.00  0.00    -0.083 Cl
ATOM     13  C19 ZIN A   1      18.800  -4.517  10.330  0.00  0.00     0.035 A 
ATOM     14  C18 ZIN A   1      17.956  -4.594  11.426  0.00  0.00     0.025 A 
ATOM     15 Cl20 ZIN A   1      18.860  -5.826   9.192  0.00  0.00    -0.084 Cl
ATOM     16  C17 ZIN A   1      17.903  -3.558  12.334  0.00  0.00     0.017 A 
ENDBRANCH   2   9
BRANCH   1  17
ATOM     17  O7  ZIN A   1      17.073  -0.261  11.735  0.00  0.00    -0.252 OA
BRANCH  17  18
ATOM     18  C6  ZIN A   1      17.115   1.015  11.094  0.00  0.00     0.244 C 
BRANCH  18  19
ATOM     19  C5  ZIN A   1      17.674   0.859   9.703  0.00  0.00    -0.010 A 
ATOM     20  C4  ZIN A   1      17.259  -0.190   8.905  0.00  0.00     0.013 A 
ATOM     21  C3  ZIN A   1      17.772  -0.335   7.629  0.00  0.00     0.024 A 
ATOM     22  C2  ZIN A   1      18.699   0.573   7.150  0.00  0.00     0.035 A 
ATOM     23 Cl1  ZIN A   1      19.341   0.393   5.547  0.00  0.00    -0.084 Cl
ATOM     24  C26 ZIN A   1      19.118   1.621   7.950  0.00  0.00     0.048 A 
ATOM     25  C24 ZIN A   1      18.602   1.767   9.224  0.00  0.00     0.044 A 
ATOM     26 Cl25 ZIN A   1      19.123   3.086  10.226  0.00  0.00    -0.084 Cl
ENDBRANCH  18  19
ENDBRANCH  17  18
ENDBRANCH   1  17
TORSDOF 6
ENDMDL
MODEL 5
REMARK VINA RESULT:      -7.6      3.116      5.545
REMARK  6 active torsions:
REMARK  status: ('A' for Active; 'I' for Inactive)
REMARK    1  A    between atoms: C5_5  and  C6_6 
REMARK    2  A    between atoms: C6_6  and  O7_7 
REMARK    3  A    between atoms: O7_7  and  N8_8 
REMARK    4  A    between atoms: C9_9  and  C10_10 
REMARK    5  A    between atoms: C9_9  and  C16_16 
REMARK    6  A    between atoms: C10_10  and  N11_11 
ROOT
ATOM      1  N8  ZIN A   1      16.991   1.691  11.523  0.00  0.00    -0.136 NA
ATOM      2  C9  ZIN A   1      17.753   1.986  10.520  0.00  0.00     0.091 C 
ENDROOT
BRANCH   2   3
ATOM      3  C10 ZIN A   1      18.159   3.418  10.277  0.00  0.00     0.191 C 
BRANCH   3   4
ATOM      4  N11 ZIN A   1      18.410   4.078  11.561  0.00  0.00    -0.344 N 
ATOM      5  C15 ZIN A   1      19.576   4.088  12.242  0.00  0.00     0.209 A 
ATOM      6  N14 ZIN A   1      19.415   4.778  13.338  0.00  0.00    -0.255 NA
ATOM      7  C13 ZIN A   1      18.151   5.221  13.400  0.00  0.00     0.135 A 
ATOM      8  C12 ZIN A   1      17.506   4.794  12.297  0.00  0.00     0.111 A 
ENDBRANCH   3   4
ENDBRANCH   2   3
BRANCH   2   9
ATOM      9  C16 ZIN A   1      18.223   0.923   9.611  0.00  0.00     0.014 A 
ATOM     10  C22 ZIN A   1      19.465   0.318   9.820  0.00  0.00     0.048 A 
ATOM     11  C21 ZIN A   1      19.895  -0.680   8.969  0.00  0.00     0.048 A 
ATOM     12 Cl23 ZIN A   1      20.460   0.812  11.155  0.00  0.00    -0.083 Cl
ATOM     13  C19 ZIN A   1      19.103  -1.074   7.903  0.00  0.00     0.035 A 
ATOM     14  C18 ZIN A   1      17.873  -0.474   7.688  0.00  0.00     0.025 A 
ATOM     15 Cl20 ZIN A   1      19.654  -2.324   6.834  0.00  0.00    -0.084 Cl
ATOM     16  C17 ZIN A   1      17.430   0.520   8.534  0.00  0.00     0.017 A 
ENDBRANCH   2   9
BRANCH   1  17
ATOM     17  O7  ZIN A   1      16.516   0.367  11.685  0.00  0.00    -0.252 OA
BRANCH  17  18
ATOM     18  C6  ZIN A   1      17.161  -0.357  12.734  0.00  0.00     0.244 C 
BRANCH  18  19
ATOM     19  C5  ZIN A   1      17.849  -1.568  12.159  0.00  0.00    -0.010 A 
ATOM     20  C4  ZIN A   1      17.287  -2.240  11.090  0.00  0.00     0.013 A 
ATOM     21  C3  ZIN A   1      17.917  -3.352  10.563  0.00  0.00     0.024 A 
ATOM     22  C2  ZIN A   1      19.112  -3.791  11.104  0.00  0.00     0.035 A 
ATOM     23 Cl1  ZIN A   1      19.903  -5.187  10.440  0.00  0.00    -0.084 Cl
ATOM     24  C26 ZIN A   1      19.671  -3.123  12.178  0.00  0.00     0.048 A 
ATOM     25  C24 ZIN A   1      19.044  -2.008  12.701  0.00  0.00     0.044 A 
ATOM     26 Cl25 ZIN A   1      19.750  -1.164  14.045  0.00  0.00    -0.084 Cl
ENDBRANCH  18  19
ENDBRANCH  17  18
ENDBRANCH   1  17
TORSDOF 6
ENDMDL
MODEL 6
REMARK VINA RESULT:      -7.6      2.296      4.600
REMARK  6 active torsions:
REMARK  status: ('A' for Active; 'I' for Inactive)
REMARK    1  A    between atoms: C5_5  and  C6_6 
REMARK    2  A    between atoms: C6_6  and  O7_7 
REMARK    3  A    between atoms: O7_7  and  N8_8 
REMARK    4  A    between atoms: C9_9  and  C10_10 
REMARK    5  A    between atoms: C9_9  and  C16_16 
REMARK    6  A    between atoms: C10_10  and  N11_11 
ROOT
ATOM      1  N8  ZIN A   1      17.463   0.250   9.258  0.00  0.00    -0.136 NA
ATOM      2  C9  ZIN A   1      18.328   1.190   9.055  0.00  0.00     0.091 C 
ENDROOT
BRANCH   2   3
ATOM      3  C10 ZIN A   1      19.037   1.288   7.728  0.00  0.00     0.191 C 
BRANCH   3   4
ATOM      4  N11 ZIN A   1      18.634   0.166   6.875  0.00  0.00    -0.344 N 
ATOM      5  C15 ZIN A   1      17.687   0.192   5.912  0.00  0.00     0.209 A 
ATOM      6  N14 ZIN A   1      17.612  -0.992   5.369  0.00  0.00    -0.255 NA
ATOM      7  C13 ZIN A   1      18.492  -1.810   5.964  0.00  0.00     0.135 A 
ATOM      8  C12 ZIN A   1      19.141  -1.104   6.910  0.00  0.00     0.111 A 
ENDBRANCH   3   4
ENDBRANCH   2   3
BRANCH   2   9
ATOM      9  C16 ZIN A   1      18.625   2.165  10.122  0.00  0.00     0.014 A 
ATOM     10  C22 ZIN A   1      19.625   1.897  11.061  0.00  0.00     0.048 A 
ATOM     11  C21 ZIN A   1      19.900   2.816  12.053  0.00  0.00     0.048 A 
ATOM     12 Cl23 ZIN A   1      20.529   0.417  10.971  0.00  0.00    -0.083 Cl
ATOM     13  C19 ZIN A   1      19.179   3.996  12.126  0.00  0.00     0.035 A 
ATOM     14  C18 ZIN A   1      18.182   4.264  11.202  0.00  0.00     0.025 A 
ATOM     15 Cl20 ZIN A   1      19.526   5.144  13.380  0.00  0.00    -0.084 Cl
ATOM     16  C17 ZIN A   1      17.901   3.356  10.203  0.00  0.00     0.017 A 
ENDBRANCH   2   9
BRANCH   1  17
ATOM     17  O7  ZIN A   1      16.882   0.087  10.539  0.00  0.00    -0.252 OA
BRANCH  17  18
ATOM     18  C6  ZIN A   1      17.265  -1.119  11.201  0.00  0.00     0.244 C 
BRANCH  18  19
ATOM     19  C5  ZIN A   1      17.721  -0.801  12.602  0.00  0.00    -0.010 A 
ATOM     20  C4  ZIN A   1      17.197   0.291  13.267  0.00  0.00     0.013 A 
ATOM     21  C3  ZIN A   1      17.615   0.585  14.552  0.00  0.00     0.024 A 
ATOM     22  C2  ZIN A   1      18.557  -0.217  15.173  0.00  0.00     0.035 A 
ATOM     23 Cl1  ZIN A   1      19.080   0.151  16.787  0.00  0.00    -0.084 Cl
ATOM     24  C26 ZIN A   1      19.086  -1.306  14.505  0.00  0.00     0.048 A 
ATOM     25  C24 ZIN A   1      18.663  -1.602  13.222  0.00  0.00     0.044 A 
ATOM     26 Cl25 ZIN A   1      19.322  -2.974  12.385  0.00  0.00    -0.084 Cl
ENDBRANCH  18  19
ENDBRANCH  17  18
ENDBRANCH   1  17
TORSDOF 6
ENDMDL
MODEL 7
REMARK VINA RESULT:      -7.5      2.825      5.248
REMARK  6 active torsions:
REMARK  status: ('A' for Active; 'I' for Inactive)
REMARK    1  A    between atoms: C5_5  and  C6_6 
REMARK    2  A    between atoms: C6_6  and  O7_7 
REMARK    3  A    between atoms: O7_7  and  N8_8 
REMARK    4  A    between atoms: C9_9  and  C10_10 
REMARK    5  A    between atoms: C9_9  and  C16_16 
REMARK    6  A    between atoms: C10_10  and  N11_11 
ROOT
ATOM      1  N8  ZIN A   1      19.641   1.949  11.240  0.00  0.00    -0.136 NA
ATOM      2  C9  ZIN A   1      18.828   2.405  10.344  0.00  0.00     0.091 C 
ENDROOT
BRANCH   2   3
ATOM      3  C10 ZIN A   1      18.200   3.765  10.518  0.00  0.00     0.191 C 
BRANCH   3   4
ATOM      4  N11 ZIN A   1      18.325   4.184  11.917  0.00  0.00    -0.344 N 
ATOM      5  C15 ZIN A   1      19.407   4.756  12.488  0.00  0.00     0.209 A 
ATOM      6  N14 ZIN A   1      19.143   4.989  13.744  0.00  0.00    -0.255 NA
ATOM      7  C13 ZIN A   1      17.899   4.571  14.020  0.00  0.00     0.135 A 
ATOM      8  C12 ZIN A   1      17.370   4.065  12.889  0.00  0.00     0.111 A 
ENDBRANCH   3   4
ENDBRANCH   2   3
BRANCH   2   9
ATOM      9  C16 ZIN A   1      18.513   1.595   9.151  0.00  0.00     0.014 A 
ATOM     10  C22 ZIN A   1      17.591   0.548   9.237  0.00  0.00     0.048 A 
ATOM     11  C21 ZIN A   1      17.298  -0.201   8.115  0.00  0.00     0.048 A 
ATOM     12 Cl23 ZIN A   1      16.808   0.199  10.746  0.00  0.00    -0.083 Cl
ATOM     13  C19 ZIN A   1      17.923   0.075   6.911  0.00  0.00     0.035 A 
ATOM     14  C18 ZIN A   1      18.841   1.108   6.822  0.00  0.00     0.025 A 
ATOM     15 Cl20 ZIN A   1      17.554  -0.876   5.507  0.00  0.00    -0.084 Cl
ATOM     16  C17 ZIN A   1      19.139   1.868   7.934  0.00  0.00     0.017 A 
ENDBRANCH   2   9
BRANCH   1  17
ATOM     17  O7  ZIN A   1      20.141   0.628  11.135  0.00  0.00    -0.252 OA
BRANCH  17  18
ATOM     18  C6  ZIN A   1      20.828   0.173  12.302  0.00  0.00     0.244 C 
BRANCH  18  19
ATOM     19  C5  ZIN A   1      19.841  -0.004  13.428  0.00  0.00    -0.010 A 
ATOM     20  C4  ZIN A   1      19.601   1.036  14.306  0.00  0.00     0.013 A 
ATOM     21  C3  ZIN A   1      18.697   0.874  15.340  0.00  0.00     0.024 A 
ATOM     22  C2  ZIN A   1      18.031  -0.329  15.494  0.00  0.00     0.035 A 
ATOM     23 Cl1  ZIN A   1      16.895  -0.531  16.791  0.00  0.00    -0.084 Cl
ATOM     24  C26 ZIN A   1      18.276  -1.371  14.619  0.00  0.00     0.048 A 
ATOM     25  C24 ZIN A   1      19.176  -1.207  13.583  0.00  0.00     0.044 A 
ATOM     26 Cl25 ZIN A   1      19.478  -2.514  12.479  0.00  0.00    -0.084 Cl
ENDBRANCH  18  19
ENDBRANCH  17  18
ENDBRANCH   1  17
TORSDOF 6
ENDMDL
MODEL 8
REMARK VINA RESULT:      -7.5      2.747      5.703
REMARK  6 active torsions:
REMARK  status: ('A' for Active; 'I' for Inactive)
REMARK    1  A    between atoms: C5_5  and  C6_6 
REMARK    2  A    between atoms: C6_6  and  O7_7 
REMARK    3  A    between atoms: O7_7  and  N8_8 
REMARK    4  A    between atoms: C9_9  and  C10_10 
REMARK    5  A    between atoms: C9_9  and  C16_16 
REMARK    6  A    between atoms: C10_10  and  N11_11 
ROOT
ATOM      1  N8  ZIN A   1      19.791   1.744  11.099  0.00  0.00    -0.136 NA
ATOM      2  C9  ZIN A   1      18.923   2.229  10.272  0.00  0.00     0.091 C 
ENDROOT
BRANCH   2   3
ATOM      3  C10 ZIN A   1      18.282   3.565  10.548  0.00  0.00     0.191 C 
BRANCH   3   4
ATOM      4  N11 ZIN A   1      18.465   3.910  11.961  0.00  0.00    -0.344 N 
ATOM      5  C15 ZIN A   1      19.422   4.713  12.472  0.00  0.00     0.209 A 
ATOM      6  N14 ZIN A   1      19.263   4.783  13.765  0.00  0.00    -0.255 NA
ATOM      7  C13 ZIN A   1      18.214   4.029  14.123  0.00  0.00     0.135 A 
ATOM      8  C12 ZIN A   1      17.701   3.474  13.009  0.00  0.00     0.111 A 
ENDBRANCH   3   4
ENDBRANCH   2   3
BRANCH   2   9
ATOM      9  C16 ZIN A   1      18.558   1.474   9.057  0.00  0.00     0.014 A 
ATOM     10  C22 ZIN A   1      17.565   0.491   9.113  0.00  0.00     0.048 A 
ATOM     11  C21 ZIN A   1      17.225  -0.206   7.971  0.00  0.00     0.048 A 
ATOM     12 Cl23 ZIN A   1      16.751   0.159  10.610  0.00  0.00    -0.083 Cl
ATOM     13  C19 ZIN A   1      17.874   0.057   6.776  0.00  0.00     0.035 A 
ATOM     14  C18 ZIN A   1      18.863   1.025   6.717  0.00  0.00     0.025 A 
ATOM     15 Cl20 ZIN A   1      17.446  -0.830   5.347  0.00  0.00    -0.084 Cl
ATOM     16  C17 ZIN A   1      19.208   1.733   7.849  0.00  0.00     0.017 A 
ENDBRANCH   2   9
BRANCH   1  17
ATOM     17  O7  ZIN A   1      20.307   0.440  10.900  0.00  0.00    -0.252 OA
BRANCH  17  18
ATOM     18  C6  ZIN A   1      20.202  -0.407  12.045  0.00  0.00     0.244 C 
BRANCH  18  19
ATOM     19  C5  ZIN A   1      19.462  -1.666  11.672  0.00  0.00    -0.010 A 
ATOM     20  C4  ZIN A   1      19.602  -2.200  10.405  0.00  0.00     0.013 A 
ATOM     21  C3  ZIN A   1      18.922  -3.354  10.060  0.00  0.00     0.024 A 
ATOM     22  C2  ZIN A   1      18.104  -3.976  10.987  0.00  0.00     0.035 A 
ATOM     23 Cl1  ZIN A   1      17.253  -5.426  10.555  0.00  0.00    -0.084 Cl
ATOM     24  C26 ZIN A   1      17.960  -3.439  12.253  0.00  0.00     0.048 A 
ATOM     25  C24 ZIN A   1      18.643  -2.288  12.597  0.00  0.00     0.044 A 
ATOM     26 Cl25 ZIN A   1      18.467  -1.617  14.190  0.00  0.00    -0.084 Cl
ENDBRANCH  18  19
ENDBRANCH  17  18
ENDBRANCH   1  17
TORSDOF 6
ENDMDL
MODEL 9
REMARK VINA RESULT:      -7.4      2.984      4.924
REMARK  6 active torsions:
REMARK  status: ('A' for Active; 'I' for Inactive)
REMARK    1  A    between atoms: C5_5  and  C6_6 
REMARK    2  A    between atoms: C6_6  and  O7_7 
REMARK    3  A    between atoms: O7_7  and  N8_8 
REMARK    4  A    between atoms: C9_9  and  C10_10 
REMARK    5  A    between atoms: C9_9  and  C16_16 
REMARK    6  A    between atoms: C10_10  and  N11_11 
ROOT
ATOM      1  N8  ZIN A   1      17.965  -2.668  11.800  0.00  0.00    -0.136 NA
ATOM      2  C9  ZIN A   1      18.824  -2.828  10.847  0.00  0.00     0.091 C 
ENDROOT
BRANCH   2   3
ATOM      3  C10 ZIN A   1      19.783  -3.991  10.883  0.00  0.00     0.191 C 
BRANCH   3   4
ATOM      4  N11 ZIN A   1      19.360  -5.002   9.909  0.00  0.00    -0.344 N 
ATOM      5  C15 ZIN A   1      20.117  -5.531   8.924  0.00  0.00     0.209 A 
ATOM      6  N14 ZIN A   1      19.398  -6.398   8.265  0.00  0.00    -0.255 NA
ATOM      7  C13 ZIN A   1      18.168  -6.447   8.795  0.00  0.00     0.135 A 
ATOM      8  C12 ZIN A   1      18.123  -5.581   9.825  0.00  0.00     0.111 A 
ENDBRANCH   3   4
ENDBRANCH   2   3
BRANCH   2   9
ATOM      9  C16 ZIN A   1      18.869  -1.871   9.724  0.00  0.00     0.014 A 
ATOM     10  C22 ZIN A   1      19.791  -0.820   9.733  0.00  0.00     0.048 A 
ATOM     11  C21 ZIN A   1      19.830   0.067   8.676  0.00  0.00     0.048 A 
ATOM     12 Cl23 ZIN A   1      20.892  -0.640  11.063  0.00  0.00    -0.083 Cl
ATOM     13  C19 ZIN A   1      18.951  -0.075   7.615  0.00  0.00     0.035 A 
ATOM     14  C18 ZIN A   1      18.032  -1.112   7.605  0.00  0.00     0.025 A 
ATOM     15 Cl20 ZIN A   1      19.003   1.048   6.294  0.00  0.00    -0.084 Cl
ATOM     16  C17 ZIN A   1      17.986  -2.008   8.651  0.00  0.00     0.017 A 
ENDBRANCH   2   9
BRANCH   1  17
ATOM     17  O7  ZIN A   1      17.143  -1.515  11.826  0.00  0.00    -0.252 OA
BRANCH  17  18
ATOM     18  C6  ZIN A   1      17.445  -0.611  12.891  0.00  0.00     0.244 C 
BRANCH  18  19
ATOM     19  C5  ZIN A   1      17.553   0.790  12.345  0.00  0.00    -0.010 A 
ATOM     20  C4  ZIN A   1      17.355   1.023  10.997  0.00  0.00     0.013 A 
ATOM     21  C3  ZIN A   1      17.455   2.308  10.495  0.00  0.00     0.024 A 
ATOM     22  C2  ZIN A   1      17.751   3.360  11.344  0.00  0.00     0.035 A 
ATOM     23 Cl1  ZIN A   1      17.875   4.973  10.713  0.00  0.00    -0.084 Cl
ATOM     24  C26 ZIN A   1      17.955   3.126  12.691  0.00  0.00     0.048 A 
ATOM     25  C24 ZIN A   1      17.850   1.842  13.193  0.00  0.00     0.044 A 
ATOM     26 Cl25 ZIN A   1      18.099   1.548  14.887  0.00  0.00    -0.084 Cl
ENDBRANCH  18  19
ENDBRANCH  17  18
ENDBRANCH   1  17
TORSDOF 6
ENDMDL
