MODEL 1
REMARK VINA RESULT:      -9.2      0.000      0.000
REMARK  5 active torsions:
REMARK  status: ('A' for Active; 'I' for Inactive)
REMARK    1  A    between atoms: C11_8  and  O12_9 
REMARK    2  A    between atoms: C11_8  and  C13_10 
REMARK    3  A    between atoms: C13_10  and  C15_12 
REMARK    4  A    between atoms: C15_12  and  O16_13 
REMARK    5  A    between atoms: C20_17  and  O22_18 
ROOT
ATOM      1  C1  ZIN A   1      18.556  -4.487   7.784  0.00  0.00     0.015 C 
ATOM      2  C2  ZIN A   1      18.167  -3.140   8.397  0.00  0.00     0.012 C 
ATOM      3  C4  ZIN A   1      18.944  -2.920   9.698  0.00  0.00     0.014 C 
ATOM      4  C5  ZIN A   1      18.651  -1.520  10.242  0.00  0.00    -0.001 C 
ATOM      5  C7  ZIN A   1      19.365  -1.321  11.567  0.00  0.00     0.002 C 
ATOM      6  C9  ZIN A   1      18.926  -2.247  12.706  0.00  0.00     0.009 C 
ATOM      7  C10 ZIN A   1      19.344  -1.457  13.977  0.00  0.00     0.047 C 
ATOM      8  C11 ZIN A   1      19.406   0.034  13.563  0.00  0.00     0.128 C 
ATOM      9  C17 ZIN A   1      18.960   0.079  12.100  0.00  0.00     0.001 C 
ATOM     10  C18 ZIN A   1      17.438   0.216  12.026  0.00  0.00     0.019 C 
ATOM     11  C19 ZIN A   1      19.617   1.129  11.224  0.00  0.00     0.045 C 
ATOM     12  C20 ZIN A   1      19.021   0.982   9.815  0.00  0.00     0.124 C 
ATOM     13  C23 ZIN A   1      19.170  -0.465   9.252  0.00  0.00     0.035 C 
ATOM     14  C25 ZIN A   1      18.439  -0.564   7.910  0.00  0.00     0.004 A 
ATOM     15  C26 ZIN A   1      16.964  -0.240   8.159  0.00  0.00     0.025 C 
ATOM     16  C27 ZIN A   1      18.955   0.451   6.950  0.00  0.00    -0.009 A 
ATOM     17  C28 ZIN A   1      19.382   0.168   5.730  0.00  0.00     0.052 A 
ATOM     18  C29 ZIN A   1      19.372  -1.225   5.255  0.00  0.00     0.172 A 
ATOM     19  O30 ZIN A   1      19.718  -1.499   4.121  0.00  0.00    -0.289 OA
ATOM     20  C31 ZIN A   1      18.935  -2.280   6.182  0.00  0.00     0.059 A 
ATOM     21  C32 ZIN A   1      18.524  -2.019   7.438  0.00  0.00    -0.060 A 
ENDROOT
BRANCH   8  22
ATOM     22  O12 ZIN A   1      20.746   0.521  13.667  0.00  0.00    -0.381 OA
ATOM     23  H42 ZIN A   1      20.838   1.300  14.234  0.00  0.00     0.211 HD
ENDBRANCH   8  22
BRANCH   8  24
ATOM     24  C13 ZIN A   1      18.485   0.855  14.428  0.00  0.00     0.184 C 
ATOM     25  O14 ZIN A   1      17.624   0.312  15.078  0.00  0.00    -0.292 OA
BRANCH  24  26
ATOM     26  C15 ZIN A   1      18.637   2.353  14.481  0.00  0.00     0.245 C 
BRANCH  26  27
ATOM     27  O16 ZIN A   1      19.647   2.696  15.433  0.00  0.00    -0.393 OA
ATOM     28  H45 ZIN A   1      20.548   2.640  15.086  0.00  0.00     0.209 HD
ENDBRANCH  26  27
ENDBRANCH  24  26
ENDBRANCH   8  24
BRANCH  12  29
ATOM     29  O22 ZIN A   1      17.620   1.258   9.870  0.00  0.00    -0.395 OA
ATOM     30  H51 ZIN A   1      17.398   2.191   9.751  0.00  0.00     0.210 HD
ENDBRANCH  12  29
TORSDOF 5
ENDMDL
MODEL 2
REMARK VINA RESULT:      -8.8      2.003      7.710
REMARK  5 active torsions:
REMARK  status: ('A' for Active; 'I' for Inactive)
REMARK    1  A    between atoms: C11_8  and  O12_9 
REMARK    2  A    between atoms: C11_8  and  C13_10 
REMARK    3  A    between atoms: C13_10  and  C15_12 
REMARK    4  A    between atoms: C15_12  and  O16_13 
REMARK    5  A    between atoms: C20_17  and  O22_18 
ROOT
ATOM      1  C1  ZIN A   1      18.569   4.744  15.138  0.00  0.00     0.015 C 
ATOM      2  C2  ZIN A   1      18.171   3.394  14.537  0.00  0.00     0.012 C 
ATOM      3  C4  ZIN A   1      18.951   3.155  13.240  0.00  0.00     0.014 C 
ATOM      4  C5  ZIN A   1      18.649   1.752  12.710  0.00  0.00    -0.001 C 
ATOM      5  C7  ZIN A   1      19.366   1.534  11.390  0.00  0.00     0.002 C 
ATOM      6  C9  ZIN A   1      18.937   2.452  10.239  0.00  0.00     0.009 C 
ATOM      7  C10 ZIN A   1      19.354   1.646   8.978  0.00  0.00     0.047 C 
ATOM      8  C11 ZIN A   1      19.403   0.159   9.407  0.00  0.00     0.128 C 
ATOM      9  C17 ZIN A   1      18.952   0.132  10.869  0.00  0.00     0.001 C 
ATOM     10  C18 ZIN A   1      17.428   0.008  10.939  0.00  0.00     0.019 C 
ATOM     11  C19 ZIN A   1      19.597  -0.914  11.757  0.00  0.00     0.045 C 
ATOM     12  C20 ZIN A   1      18.998  -0.748  13.163  0.00  0.00     0.124 C 
ATOM     13  C23 ZIN A   1      19.157   0.703  13.712  0.00  0.00     0.035 C 
ATOM     14  C25 ZIN A   1      18.421   0.821  15.050  0.00  0.00     0.004 A 
ATOM     15  C26 ZIN A   1      16.945   0.506  14.800  0.00  0.00     0.025 C 
ATOM     16  C27 ZIN A   1      18.926  -0.188  16.022  0.00  0.00    -0.009 A 
ATOM     17  C28 ZIN A   1      19.352   0.104  17.241  0.00  0.00     0.052 A 
ATOM     18  C29 ZIN A   1      19.351   1.502  17.702  0.00  0.00     0.172 A 
ATOM     19  O30 ZIN A   1      19.695   1.784  18.834  0.00  0.00    -0.289 OA
ATOM     20  C31 ZIN A   1      18.926   2.551  16.763  0.00  0.00     0.059 A 
ATOM     21  C32 ZIN A   1      18.516   2.280  15.509  0.00  0.00    -0.060 A 
ENDROOT
BRANCH   8  22
ATOM     22  O12 ZIN A   1      20.739  -0.339   9.312  0.00  0.00    -0.381 OA
ATOM     23  H42 ZIN A   1      21.213  -0.045   8.522  0.00  0.00     0.211 HD
ENDBRANCH   8  22
BRANCH   8  24
ATOM     24  C13 ZIN A   1      18.478  -0.663   8.547  0.00  0.00     0.184 C 
ATOM     25  O14 ZIN A   1      17.622  -0.120   7.890  0.00  0.00    -0.292 OA
BRANCH  24  26
ATOM     26  C15 ZIN A   1      18.620  -2.163   8.507  0.00  0.00     0.245 C 
BRANCH  26  27
ATOM     27  O16 ZIN A   1      19.752  -2.512   7.707  0.00  0.00    -0.393 OA
ATOM     28  H45 ZIN A   1      19.667  -2.263   6.776  0.00  0.00     0.209 HD
ENDBRANCH  26  27
ENDBRANCH  24  26
ENDBRANCH   8  24
BRANCH  12  29
ATOM     29  O22 ZIN A   1      17.595  -1.014  13.106  0.00  0.00    -0.395 OA
ATOM     30  H51 ZIN A   1      17.277  -1.600  13.805  0.00  0.00     0.210 HD
ENDBRANCH  12  29
TORSDOF 5
ENDMDL
MODEL 3
REMARK VINA RESULT:      -8.8      2.345      4.235
REMARK  5 active torsions:
REMARK  status: ('A' for Active; 'I' for Inactive)
REMARK    1  A    between atoms: C11_8  and  O12_9 
REMARK    2  A    between atoms: C11_8  and  C13_10 
REMARK    3  A    between atoms: C13_10  and  C15_12 
REMARK    4  A    between atoms: C15_12  and  O16_13 
REMARK    5  A    between atoms: C20_17  and  O22_18 
ROOT
ATOM      1  C1  ZIN A   1      18.679  -3.139   6.620  0.00  0.00     0.015 C 
ATOM      2  C2  ZIN A   1      18.946  -2.621   8.034  0.00  0.00     0.012 C 
ATOM      3  C4  ZIN A   1      18.425  -1.186   8.166  0.00  0.00     0.014 C 
ATOM      4  C5  ZIN A   1      18.575  -0.715   9.614  0.00  0.00    -0.001 C 
ATOM      5  C7  ZIN A   1      18.123   0.729   9.736  0.00  0.00     0.002 C 
ATOM      6  C9  ZIN A   1      18.941   1.753   8.940  0.00  0.00     0.009 C 
ATOM      7  C10 ZIN A   1      18.660   3.082   9.693  0.00  0.00     0.047 C 
ATOM      8  C11 ZIN A   1      18.257   2.691  11.136  0.00  0.00     0.128 C 
ATOM      9  C17 ZIN A   1      18.380   1.167  11.203  0.00  0.00     0.001 C 
ATOM     10  C18 ZIN A   1      19.807   0.778  11.593  0.00  0.00     0.019 C 
ATOM     11  C19 ZIN A   1      17.386   0.447  12.094  0.00  0.00     0.045 C 
ATOM     12  C20 ZIN A   1      17.697  -1.056  12.000  0.00  0.00     0.124 C 
ATOM     13  C23 ZIN A   1      17.689  -1.575  10.529  0.00  0.00     0.035 C 
ATOM     14  C25 ZIN A   1      18.137  -3.040  10.507  0.00  0.00     0.004 A 
ATOM     15  C26 ZIN A   1      19.552  -3.102  11.086  0.00  0.00     0.025 C 
ATOM     16  C27 ZIN A   1      17.267  -3.872  11.385  0.00  0.00    -0.009 A 
ATOM     17  C28 ZIN A   1      16.655  -4.977  10.989  0.00  0.00     0.052 A 
ATOM     18  C29 ZIN A   1      16.809  -5.444   9.602  0.00  0.00     0.172 A 
ATOM     19  O30 ZIN A   1      16.292  -6.481   9.233  0.00  0.00    -0.289 OA
ATOM     20  C31 ZIN A   1      17.603  -4.628   8.671  0.00  0.00     0.059 A 
ATOM     21  C32 ZIN A   1      18.210  -3.485   9.043  0.00  0.00    -0.060 A 
ENDROOT
BRANCH   8  22
ATOM     22  O12 ZIN A   1      16.903   3.071  11.391  0.00  0.00    -0.381 OA
ATOM     23  H42 ZIN A   1      16.813   3.923  11.840  0.00  0.00     0.211 HD
ENDBRANCH   8  22
BRANCH   8  24
ATOM     24  C13 ZIN A   1      19.179   3.345  12.131  0.00  0.00     0.184 C 
ATOM     25  O14 ZIN A   1      20.279   3.706  11.788  0.00  0.00    -0.292 OA
BRANCH  24  26
ATOM     26  C15 ZIN A   1      18.728   3.549  13.555  0.00  0.00     0.245 C 
BRANCH  26  27
ATOM     27  O16 ZIN A   1      19.486   2.701  14.420  0.00  0.00    -0.393 OA
ATOM     28  H45 ZIN A   1      20.315   3.094  14.729  0.00  0.00     0.209 HD
ENDBRANCH  26  27
ENDBRANCH  24  26
ENDBRANCH   8  24
BRANCH  12  29
ATOM     29  O22 ZIN A   1      19.010  -1.293  12.512  0.00  0.00    -0.395 OA
ATOM     30  H51 ZIN A   1      19.664  -1.504  11.833  0.00  0.00     0.210 HD
ENDBRANCH  12  29
TORSDOF 5
ENDMDL
MODEL 4
REMARK VINA RESULT:      -8.6      2.698      6.687
REMARK  5 active torsions:
REMARK  status: ('A' for Active; 'I' for Inactive)
REMARK    1  A    between atoms: C11_8  and  O12_9 
REMARK    2  A    between atoms: C11_8  and  C13_10 
REMARK    3  A    between atoms: C13_10  and  C15_12 
REMARK    4  A    between atoms: C15_12  and  O16_13 
REMARK    5  A    between atoms: C20_17  and  O22_18 
ROOT
ATOM      1  C1  ZIN A   1      18.801  -0.853  14.951  0.00  0.00     0.015 C 
ATOM      2  C2  ZIN A   1      19.215  -1.213  13.523  0.00  0.00     0.012 C 
ATOM      3  C4  ZIN A   1      18.249  -2.255  12.951  0.00  0.00     0.014 C 
ATOM      4  C5  ZIN A   1      18.586  -2.518  11.482  0.00  0.00    -0.001 C 
ATOM      5  C7  ZIN A   1      17.676  -3.600  10.929  0.00  0.00     0.002 C 
ATOM      6  C9  ZIN A   1      17.810  -4.981  11.580  0.00  0.00     0.009 C 
ATOM      7  C10 ZIN A   1      17.261  -5.936  10.485  0.00  0.00     0.047 C 
ATOM      8  C11 ZIN A   1      17.427  -5.196   9.135  0.00  0.00     0.128 C 
ATOM      9  C17 ZIN A   1      18.125  -3.875   9.469  0.00  0.00     0.001 C 
ATOM     10  C18 ZIN A   1      19.643  -4.070   9.446  0.00  0.00     0.019 C 
ATOM     11  C19 ZIN A   1      17.746  -2.676   8.622  0.00  0.00     0.045 C 
ATOM     12  C20 ZIN A   1      18.560  -1.479   9.137  0.00  0.00     0.124 C 
ATOM     13  C23 ZIN A   1      18.362  -1.236  10.665  0.00  0.00     0.035 C 
ATOM     14  C25 ZIN A   1      19.303  -0.119  11.127  0.00  0.00     0.004 A 
ATOM     15  C26 ZIN A   1      20.736  -0.571  10.842  0.00  0.00     0.025 C 
ATOM     16  C27 ZIN A   1      19.072   1.125  10.341  0.00  0.00    -0.009 A 
ATOM     17  C28 ZIN A   1      18.838   2.311  10.882  0.00  0.00     0.052 A 
ATOM     18  C29 ZIN A   1      18.785   2.451  12.346  0.00  0.00     0.172 A 
ATOM     19  O30 ZIN A   1      18.617   3.540  12.862  0.00  0.00    -0.289 OA
ATOM     20  C31 ZIN A   1      18.940   1.244  13.173  0.00  0.00     0.059 A 
ATOM     21  C32 ZIN A   1      19.150   0.023  12.644  0.00  0.00    -0.060 A 
ENDROOT
BRANCH   8  22
ATOM     22  O12 ZIN A   1      16.149  -4.925   8.558  0.00  0.00    -0.381 OA
ATOM     23  H42 ZIN A   1      16.136  -4.973   7.592  0.00  0.00     0.211 HD
ENDBRANCH   8  22
BRANCH   8  24
ATOM     24  C13 ZIN A   1      18.264  -6.017   8.189  0.00  0.00     0.184 C 
ATOM     25  O14 ZIN A   1      19.009  -6.864   8.621  0.00  0.00    -0.292 OA
BRANCH  24  26
ATOM     26  C15 ZIN A   1      18.171  -5.782   6.703  0.00  0.00     0.245 C 
BRANCH  26  27
ATOM     27  O16 ZIN A   1      19.377  -6.222   6.075  0.00  0.00    -0.393 OA
ATOM     28  H45 ZIN A   1      19.460  -5.952   5.150  0.00  0.00     0.209 HD
ENDBRANCH  26  27
ENDBRANCH  24  26
ENDBRANCH   8  24
BRANCH  12  29
ATOM     29  O22 ZIN A   1      19.951  -1.743   8.941  0.00  0.00    -0.395 OA
ATOM     30  H51 ZIN A   1      20.531  -1.020   9.216  0.00  0.00     0.210 HD
ENDBRANCH  12  29
TORSDOF 5
ENDMDL
MODEL 5
REMARK VINA RESULT:      -8.4      1.980      6.921
REMARK  5 active torsions:
REMARK  status: ('A' for Active; 'I' for Inactive)
REMARK    1  A    between atoms: C11_8  and  O12_9 
REMARK    2  A    between atoms: C11_8  and  C13_10 
REMARK    3  A    between atoms: C13_10  and  C15_12 
REMARK    4  A    between atoms: C15_12  and  O16_13 
REMARK    5  A    between atoms: C20_17  and  O22_18 
ROOT
ATOM      1  C1  ZIN A   1      17.681   0.256  14.794  0.00  0.00     0.015 C 
ATOM      2  C2  ZIN A   1      18.398   0.573  13.480  0.00  0.00     0.012 C 
ATOM      3  C4  ZIN A   1      17.733  -0.189  12.330  0.00  0.00     0.014 C 
ATOM      4  C5  ZIN A   1      18.368   0.227  11.002  0.00  0.00    -0.001 C 
ATOM      5  C7  ZIN A   1      17.760  -0.575   9.865  0.00  0.00     0.002 C 
ATOM      6  C9  ZIN A   1      17.996  -2.088   9.917  0.00  0.00     0.009 C 
ATOM      7  C10 ZIN A   1      17.815  -2.519   8.435  0.00  0.00     0.047 C 
ATOM      8  C11 ZIN A   1      18.100  -1.262   7.577  0.00  0.00     0.128 C 
ATOM      9  C17 ZIN A   1      18.503  -0.166   8.566  0.00  0.00     0.001 C 
ATOM     10  C18 ZIN A   1      20.011  -0.224   8.819  0.00  0.00     0.019 C 
ATOM     11  C19 ZIN A   1      18.094   1.251   8.211  0.00  0.00     0.045 C 
ATOM     12  C20 ZIN A   1      18.597   2.166   9.338  0.00  0.00     0.124 C 
ATOM     13  C23 ZIN A   1      18.090   1.716  10.743  0.00  0.00     0.035 C 
ATOM     14  C25 ZIN A   1      18.738   2.591  11.820  0.00  0.00     0.004 A 
ATOM     15  C26 ZIN A   1      20.254   2.407  11.718  0.00  0.00     0.025 C 
ATOM     16  C27 ZIN A   1      18.455   4.032  11.572  0.00  0.00    -0.009 A 
ATOM     17  C28 ZIN A   1      17.938   4.852  12.474  0.00  0.00     0.052 A 
ATOM     18  C29 ZIN A   1      17.600   4.347  13.815  0.00  0.00     0.172 A 
ATOM     19  O30 ZIN A   1      17.167   5.095  14.671  0.00  0.00    -0.289 OA
ATOM     20  C31 ZIN A   1      17.797   2.917  14.097  0.00  0.00     0.059 A 
ATOM     21  C32 ZIN A   1      18.294   2.059  13.186  0.00  0.00    -0.060 A 
ENDROOT
BRANCH   8  22
ATOM     22  O12 ZIN A   1      16.920  -0.861   6.878  0.00  0.00    -0.381 OA
ATOM     23  H42 ZIN A   1      16.556  -0.016   7.175  0.00  0.00     0.211 HD
ENDBRANCH   8  22
BRANCH   8  24
ATOM     24  C13 ZIN A   1      19.216  -1.537   6.602  0.00  0.00     0.184 C 
ATOM     25  O14 ZIN A   1      19.958  -2.473   6.783  0.00  0.00    -0.292 OA
BRANCH  24  26
ATOM     26  C15 ZIN A   1      19.405  -0.646   5.402  0.00  0.00     0.245 C 
BRANCH  26  27
ATOM     27  O16 ZIN A   1      19.650  -1.450   4.246  0.00  0.00    -0.393 OA
ATOM     28  H45 ZIN A   1      19.642  -0.955   3.414  0.00  0.00     0.209 HD
ENDBRANCH  26  27
ENDBRANCH  24  26
ENDBRANCH   8  24
BRANCH  12  29
ATOM     29  O22 ZIN A   1      20.025   2.110   9.381  0.00  0.00    -0.395 OA
ATOM     30  H51 ZIN A   1      20.441   2.028   8.513  0.00  0.00     0.210 HD
ENDBRANCH  12  29
TORSDOF 5
ENDMDL
MODEL 6
REMARK VINA RESULT:      -8.4      2.369      6.526
REMARK  5 active torsions:
REMARK  status: ('A' for Active; 'I' for Inactive)
REMARK    1  A    between atoms: C11_8  and  O12_9 
REMARK    2  A    between atoms: C11_8  and  C13_10 
REMARK    3  A    between atoms: C13_10  and  C15_12 
REMARK    4  A    between atoms: C15_12  and  O16_13 
REMARK    5  A    between atoms: C20_17  and  O22_18 
ROOT
ATOM      1  C1  ZIN A   1      17.522   0.461  15.206  0.00  0.00     0.015 C 
ATOM      2  C2  ZIN A   1      18.439   0.073  14.045  0.00  0.00     0.012 C 
ATOM      3  C4  ZIN A   1      17.700  -0.875  13.095  0.00  0.00     0.014 C 
ATOM      4  C5  ZIN A   1      18.571  -1.159  11.870  0.00  0.00    -0.001 C 
ATOM      5  C7  ZIN A   1      17.873  -2.152  10.959  0.00  0.00     0.002 C 
ATOM      6  C9  ZIN A   1      17.626  -3.543  11.553  0.00  0.00     0.009 C 
ATOM      7  C10 ZIN A   1      17.482  -4.439  10.293  0.00  0.00     0.047 C 
ATOM      8  C11 ZIN A   1      18.231  -3.709   9.150  0.00  0.00     0.128 C 
ATOM      9  C17 ZIN A   1      18.842  -2.459   9.786  0.00  0.00     0.001 C 
ATOM     10  C18 ZIN A   1      20.222  -2.788  10.357  0.00  0.00     0.019 C 
ATOM     11  C19 ZIN A   1      18.928  -1.226   8.907  0.00  0.00     0.045 C 
ATOM     12  C20 ZIN A   1      19.563  -0.109   9.751  0.00  0.00     0.124 C 
ATOM     13  C23 ZIN A   1      18.794   0.142  11.084  0.00  0.00     0.035 C 
ATOM     14  C25 ZIN A   1      19.560   1.168  11.925  0.00  0.00     0.004 A 
ATOM     15  C26 ZIN A   1      20.947   0.590  12.213  0.00  0.00     0.025 C 
ATOM     16  C27 ZIN A   1      19.761   2.432  11.164  0.00  0.00    -0.009 A 
ATOM     17  C28 ZIN A   1      19.426   3.631  11.616  0.00  0.00     0.052 A 
ATOM     18  C29 ZIN A   1      18.808   3.767  12.944  0.00  0.00     0.172 A 
ATOM     19  O30 ZIN A   1      18.536   4.864  13.394  0.00  0.00    -0.289 OA
ATOM     20  C31 ZIN A   1      18.524   2.547  13.715  0.00  0.00     0.059 A 
ATOM     21  C32 ZIN A   1      18.828   1.315  13.263  0.00  0.00    -0.060 A 
ENDROOT
BRANCH   8  22
ATOM     22  O12 ZIN A   1      17.314  -3.322   8.125  0.00  0.00    -0.381 OA
ATOM     23  H42 ZIN A   1      16.398  -3.582   8.299  0.00  0.00     0.211 HD
ENDBRANCH   8  22
BRANCH   8  24
ATOM     24  C13 ZIN A   1      19.306  -4.597   8.579  0.00  0.00     0.184 C 
ATOM     25  O14 ZIN A   1      19.855  -5.409   9.284  0.00  0.00    -0.292 OA
BRANCH  24  26
ATOM     26  C15 ZIN A   1      19.695  -4.472   7.129  0.00  0.00     0.245 C 
BRANCH  26  27
ATOM     27  O16 ZIN A   1      21.108  -4.281   7.030  0.00  0.00    -0.393 OA
ATOM     28  H45 ZIN A   1      21.538  -4.087   7.875  0.00  0.00     0.209 HD
ENDBRANCH  26  27
ENDBRANCH  24  26
ENDBRANCH   8  24
BRANCH  12  29
ATOM     29  O22 ZIN A   1      20.891  -0.495  10.110  0.00  0.00    -0.395 OA
ATOM     30  H51 ZIN A   1      21.560   0.177   9.925  0.00  0.00     0.210 HD
ENDBRANCH  12  29
TORSDOF 5
ENDMDL
MODEL 7
REMARK VINA RESULT:      -8.3      2.906      4.974
REMARK  5 active torsions:
REMARK  status: ('A' for Active; 'I' for Inactive)
REMARK    1  A    between atoms: C11_8  and  O12_9 
REMARK    2  A    between atoms: C11_8  and  C13_10 
REMARK    3  A    between atoms: C13_10  and  C15_12 
REMARK    4  A    between atoms: C15_12  and  O16_13 
REMARK    5  A    between atoms: C20_17  and  O22_18 
ROOT
ATOM      1  C1  ZIN A   1      17.394  -1.141  12.248  0.00  0.00     0.015 C 
ATOM      2  C2  ZIN A   1      17.394   0.388  12.303  0.00  0.00     0.012 C 
ATOM      3  C4  ZIN A   1      18.249   0.864  13.481  0.00  0.00     0.014 C 
ATOM      4  C5  ZIN A   1      18.353   2.390  13.458  0.00  0.00    -0.001 C 
ATOM      5  C7  ZIN A   1      19.142   2.872  14.662  0.00  0.00     0.002 C 
ATOM      6  C9  ZIN A   1      18.519   2.576  16.030  0.00  0.00     0.009 C 
ATOM      7  C10 ZIN A   1      19.176   3.642  16.950  0.00  0.00     0.047 C 
ATOM      8  C11 ZIN A   1      19.610   4.807  16.027  0.00  0.00     0.128 C 
ATOM      9  C17 ZIN A   1      19.137   4.424  14.623  0.00  0.00     0.001 C 
ATOM     10  C18 ZIN A   1      17.702   4.909  14.408  0.00  0.00     0.019 C 
ATOM     11  C19 ZIN A   1      20.012   4.872  13.468  0.00  0.00     0.045 C 
ATOM     12  C20 ZIN A   1      19.348   4.375  12.174  0.00  0.00     0.124 C 
ATOM     13  C23 ZIN A   1      19.093   2.837  12.188  0.00  0.00     0.035 C 
ATOM     14  C25 ZIN A   1      18.311   2.442  10.930  0.00  0.00     0.004 A 
ATOM     15  C26 ZIN A   1      16.983   3.201  10.951  0.00  0.00     0.025 C 
ATOM     16  C27 ZIN A   1      19.039   2.865   9.701  0.00  0.00    -0.009 A 
ATOM     17  C28 ZIN A   1      19.331   2.053   8.697  0.00  0.00     0.052 A 
ATOM     18  C29 ZIN A   1      18.940   0.636   8.762  0.00  0.00     0.172 A 
ATOM     19  O30 ZIN A   1      19.161  -0.114   7.830  0.00  0.00    -0.289 OA
ATOM     20  C31 ZIN A   1      18.278   0.146   9.980  0.00  0.00     0.059 A 
ATOM     21  C32 ZIN A   1      17.996   0.946  11.026  0.00  0.00    -0.060 A 
ENDROOT
BRANCH   8  22
ATOM     22  O12 ZIN A   1      21.033   4.937  16.031  0.00  0.00    -0.381 OA
ATOM     23  H42 ZIN A   1      21.505   4.094  16.083  0.00  0.00     0.211 HD
ENDBRANCH   8  22
BRANCH   8  24
ATOM     24  C13 ZIN A   1      18.968   6.094  16.474  0.00  0.00     0.184 C 
ATOM     25  O14 ZIN A   1      19.261   7.134  15.934  0.00  0.00    -0.292 OA
BRANCH  24  26
ATOM     26  C15 ZIN A   1      17.959   6.084  17.594  0.00  0.00     0.245 C 
BRANCH  26  27
ATOM     27  O16 ZIN A   1      18.412   6.935  18.650  0.00  0.00    -0.393 OA
ATOM     28  H45 ZIN A   1      19.040   7.614  18.365  0.00  0.00     0.209 HD
ENDBRANCH  26  27
ENDBRANCH  24  26
ENDBRANCH   8  24
BRANCH  12  29
ATOM     29  O22 ZIN A   1      18.070   5.002  12.037  0.00  0.00    -0.395 OA
ATOM     30  H51 ZIN A   1      17.430   4.741  12.713  0.00  0.00     0.210 HD
ENDBRANCH  12  29
TORSDOF 5
ENDMDL
MODEL 8
REMARK VINA RESULT:      -8.1      2.295      4.446
REMARK  5 active torsions:
REMARK  status: ('A' for Active; 'I' for Inactive)
REMARK    1  A    between atoms: C11_8  and  O12_9 
REMARK    2  A    between atoms: C11_8  and  C13_10 
REMARK    3  A    between atoms: C13_10  and  C15_12 
REMARK    4  A    between atoms: C15_12  and  O16_13 
REMARK    5  A    between atoms: C20_17  and  O22_18 
ROOT
ATOM      1  C1  ZIN A   1      17.377  -0.371   7.860  0.00  0.00     0.015 C 
ATOM      2  C2  ZIN A   1      18.320   0.020   8.999  0.00  0.00     0.012 C 
ATOM      3  C4  ZIN A   1      17.618   1.006   9.937  0.00  0.00     0.014 C 
ATOM      4  C5  ZIN A   1      18.514   1.296  11.143  0.00  0.00    -0.001 C 
ATOM      5  C7  ZIN A   1      17.852   2.325  12.042  0.00  0.00     0.002 C 
ATOM      6  C9  ZIN A   1      17.630   3.708  11.420  0.00  0.00     0.009 C 
ATOM      7  C10 ZIN A   1      17.526   4.635  12.663  0.00  0.00     0.047 C 
ATOM      8  C11 ZIN A   1      18.274   3.913  13.810  0.00  0.00     0.128 C 
ATOM      9  C17 ZIN A   1      18.846   2.634  13.194  0.00  0.00     0.001 C 
ATOM     10  C18 ZIN A   1      20.225   2.918  12.596  0.00  0.00     0.019 C 
ATOM     11  C19 ZIN A   1      18.915   1.419  14.099  0.00  0.00     0.045 C 
ATOM     12  C20 ZIN A   1      19.511   0.269  13.272  0.00  0.00     0.124 C 
ATOM     13  C23 ZIN A   1      18.716   0.007  11.955  0.00  0.00     0.035 C 
ATOM     14  C25 ZIN A   1      19.445  -1.055  11.127  0.00  0.00     0.004 A 
ATOM     15  C26 ZIN A   1      20.841  -0.518  10.806  0.00  0.00     0.025 C 
ATOM     16  C27 ZIN A   1      19.627  -2.307  11.913  0.00  0.00    -0.009 A 
ATOM     17  C28 ZIN A   1      19.258  -3.506  11.493  0.00  0.00     0.052 A 
ATOM     18  C29 ZIN A   1      18.616  -3.657  10.177  0.00  0.00     0.172 A 
ATOM     19  O30 ZIN A   1      18.312  -4.756   9.755  0.00  0.00    -0.289 OA
ATOM     20  C31 ZIN A   1      18.351  -2.448   9.383  0.00  0.00     0.059 A 
ATOM     21  C32 ZIN A   1      18.691  -1.214   9.803  0.00  0.00    -0.060 A 
ENDROOT
BRANCH   8  22
ATOM     22  O12 ZIN A   1      17.363   3.571  14.856  0.00  0.00    -0.381 OA
ATOM     23  H42 ZIN A   1      17.765   3.071  15.580  0.00  0.00     0.211 HD
ENDBRANCH   8  22
BRANCH   8  24
ATOM     24  C13 ZIN A   1      19.378   4.787  14.346  0.00  0.00     0.184 C 
ATOM     25  O14 ZIN A   1      19.997   5.504  13.597  0.00  0.00    -0.292 OA
BRANCH  24  26
ATOM     26  C15 ZIN A   1      19.710   4.766  15.816  0.00  0.00     0.245 C 
BRANCH  26  27
ATOM     27  O16 ZIN A   1      21.130   4.740  15.983  0.00  0.00    -0.393 OA
ATOM     28  H45 ZIN A   1      21.419   4.375  16.831  0.00  0.00     0.209 HD
ENDBRANCH  26  27
ENDBRANCH  24  26
ENDBRANCH   8  24
BRANCH  12  29
ATOM     29  O22 ZIN A   1      20.843   0.615  12.885  0.00  0.00    -0.395 OA
ATOM     30  H51 ZIN A   1      21.508   0.438  13.563  0.00  0.00     0.210 HD
ENDBRANCH  12  29
TORSDOF 5
ENDMDL
MODEL 9
REMARK VINA RESULT:      -8.1      2.649      7.081
REMARK  5 active torsions:
REMARK  status: ('A' for Active; 'I' for Inactive)
REMARK    1  A    between atoms: C11_8  and  O12_9 
REMARK    2  A    between atoms: C11_8  and  C13_10 
REMARK    3  A    between atoms: C13_10  and  C15_12 
REMARK    4  A    between atoms: C15_12  and  O16_13 
REMARK    5  A    between atoms: C20_17  and  O22_18 
ROOT
ATOM      1  C1  ZIN A   1      18.956   3.835  16.740  0.00  0.00     0.015 C 
ATOM      2  C2  ZIN A   1      19.142   3.402  15.285  0.00  0.00     0.012 C 
ATOM      3  C4  ZIN A   1      18.642   1.965  15.105  0.00  0.00     0.014 C 
ATOM      4  C5  ZIN A   1      18.709   1.578  13.626  0.00  0.00    -0.001 C 
ATOM      5  C7  ZIN A   1      18.279   0.133  13.450  0.00  0.00     0.002 C 
ATOM      6  C9  ZIN A   1      19.164  -0.914  14.135  0.00  0.00     0.009 C 
ATOM      7  C10 ZIN A   1      18.862  -2.206  13.328  0.00  0.00     0.047 C 
ATOM      8  C11 ZIN A   1      18.361  -1.745  11.937  0.00  0.00     0.128 C 
ATOM      9  C17 ZIN A   1      18.451  -0.217  11.948  0.00  0.00     0.001 C 
ATOM     10  C18 ZIN A   1      19.843   0.225  11.493  0.00  0.00     0.019 C 
ATOM     11  C19 ZIN A   1      17.390   0.529  11.162  0.00  0.00     0.045 C 
ATOM     12  C20 ZIN A   1      17.677   2.031  11.322  0.00  0.00     0.124 C 
ATOM     13  C23 ZIN A   1      17.752   2.468  12.817  0.00  0.00     0.035 C 
ATOM     14  C25 ZIN A   1      18.172   3.939  12.894  0.00  0.00     0.004 A 
ATOM     15  C26 ZIN A   1      19.547   4.065  12.234  0.00  0.00     0.025 C 
ATOM     16  C27 ZIN A   1      17.234   4.798  12.120  0.00  0.00    -0.009 A 
ATOM     17  C28 ZIN A   1      16.627   5.866  12.615  0.00  0.00     0.052 A 
ATOM     18  C29 ZIN A   1      16.859   6.259  14.014  0.00  0.00     0.172 A 
ATOM     19  O30 ZIN A   1      16.346   7.262  14.472  0.00  0.00    -0.289 OA
ATOM     20  C31 ZIN A   1      17.725   5.410  14.847  0.00  0.00     0.059 A 
ATOM     21  C32 ZIN A   1      18.329   4.303  14.374  0.00  0.00    -0.060 A 
ENDROOT
BRANCH   8  22
ATOM     22  O12 ZIN A   1      17.002  -2.140  11.744  0.00  0.00    -0.381 OA
ATOM     23  H42 ZIN A   1      16.365  -1.419  11.845  0.00  0.00     0.211 HD
ENDBRANCH   8  22
BRANCH   8  24
ATOM     24  C13 ZIN A   1      19.231  -2.322  10.851  0.00  0.00     0.184 C 
ATOM     25  O14 ZIN A   1      20.336  -2.732  11.116  0.00  0.00    -0.292 OA
BRANCH  24  26
ATOM     26  C15 ZIN A   1      18.723  -2.388   9.433  0.00  0.00     0.245 C 
BRANCH  26  27
ATOM     27  O16 ZIN A   1      19.628  -1.696   8.570  0.00  0.00    -0.393 OA
ATOM     28  H45 ZIN A   1      19.193  -1.186   7.873  0.00  0.00     0.209 HD
ENDBRANCH  26  27
ENDBRANCH  24  26
ENDBRANCH   8  24
BRANCH  12  29
ATOM     29  O22 ZIN A   1      18.951   2.325  10.745  0.00  0.00    -0.395 OA
ATOM     30  H51 ZIN A   1      18.903   2.827   9.920  0.00  0.00     0.210 HD
ENDBRANCH  12  29
TORSDOF 5
ENDMDL
