MODEL 1
REMARK VINA RESULT:      -7.8      0.000      0.000
REMARK  10 active torsions:
REMARK  status: ('A' for Active; 'I' for Inactive)
REMARK    1  A    between atoms: C2_2  and  C4_3 
REMARK    2  A    between atoms: C2_2  and  N12_11 
REMARK    3  A    between atoms: C4_3  and  C5_4 
REMARK    4  A    between atoms: C5_4  and  C6_5 
REMARK    5  A    between atoms: N12_11  and  C15_14 
REMARK    6  A    between atoms: C15_14  and  C16_15 
REMARK    7  A    between atoms: C16_15  and  O18_16 
REMARK    8  A    between atoms: C16_15  and  C19_17 
REMARK    9  A    between atoms: C22_20  and  O23_21 
REMARK   10  A    between atoms: C24_22  and  C25_23 
REMARK       I    between atoms: C25_23  and  N26_24 
ROOT
ATOM      1  C16 ZIN A   1      20.248   0.303  12.181  0.00  0.00     0.176 C 
ENDROOT
BRANCH   1   2
ATOM      2  C15 ZIN A   1      19.953  -0.971  11.389  0.00  0.00     0.269 C 
BRANCH   2   3
ATOM      3  N12 ZIN A   1      19.004  -0.666  10.309  0.00  0.00    -0.069 N 
ATOM      4  H13 ZIN A   1      18.402  -1.461  10.155  0.00  0.00     0.277 HD
ATOM      5  H14 ZIN A   1      19.512  -0.460   9.463  0.00  0.00     0.277 HD
BRANCH   3   6
ATOM      6  C2  ZIN A   1      18.191   0.498  10.687  0.00  0.00     0.182 C 
ATOM      7  C1  ZIN A   1      16.817   0.027  11.166  0.00  0.00     0.040 C 
BRANCH   6   8
ATOM      8  C4  ZIN A   1      18.021   1.417   9.474  0.00  0.00     0.037 C 
BRANCH   8   9
ATOM      9  C5  ZIN A   1      18.979   2.603   9.596  0.00  0.00     0.040 C 
BRANCH   9  10
ATOM     10  C6  ZIN A   1      18.527   3.501  10.718  0.00  0.00    -0.058 A 
ATOM     11  C11 ZIN A   1      19.382   3.778  11.768  0.00  0.00     0.007 A 
ATOM     12  C10 ZIN A   1      18.970   4.605  12.797  0.00  0.00     0.001 A 
ATOM     13  C9  ZIN A   1      17.698   5.147  12.779  0.00  0.00     0.000 A 
ATOM     14  C8  ZIN A   1      16.841   4.866  11.732  0.00  0.00     0.001 A 
ATOM     15  C7  ZIN A   1      17.255   4.042  10.702  0.00  0.00     0.007 A 
ENDBRANCH   9  10
ENDBRANCH   8   9
ENDBRANCH   6   8
ENDBRANCH   3   6
ENDBRANCH   2   3
ENDBRANCH   1   2
BRANCH   1  16
ATOM     16  O18 ZIN A   1      21.658   0.538  12.198  0.00  0.00    -0.389 OA
ATOM     17  H43 ZIN A   1      22.009   0.766  13.070  0.00  0.00     0.210 HD
ENDBRANCH   1  16
BRANCH   1  18
ATOM     18  C19 ZIN A   1      19.750   0.142  13.595  0.00  0.00    -0.027 A 
ATOM     19  C28 ZIN A   1      19.587   1.252  14.395  0.00  0.00     0.029 A 
ATOM     20  C24 ZIN A   1      19.120   1.104  15.704  0.00  0.00     0.065 A 
ATOM     21  C22 ZIN A   1      18.832  -0.176  16.197  0.00  0.00     0.081 A 
ATOM     22  C21 ZIN A   1      19.007  -1.282  15.379  0.00  0.00     0.038 A 
ATOM     23  C20 ZIN A   1      19.465  -1.121  14.085  0.00  0.00     0.012 A 
BRANCH  20  24
ATOM     24  C25 ZIN A   1      18.938   2.289  16.564  0.00  0.00     0.252 C 
ATOM     25  N26 ZIN A   1      18.052   3.244  16.217  0.00  0.00    -0.366 N 
ATOM     26  H47 ZIN A   1      17.536   3.153  15.401  0.00  0.00     0.159 HD
ATOM     27  H48 ZIN A   1      17.932   4.023  16.782  0.00  0.00     0.159 HD
ATOM     28  O27 ZIN A   1      19.585   2.404  17.587  0.00  0.00    -0.268 OA
ENDBRANCH  20  24
BRANCH  21  29
ATOM     29  O23 ZIN A   1      18.384  -0.331  17.467  0.00  0.00    -0.360 OA
ATOM     30  H46 ZIN A   1      18.865   0.194  18.121  0.00  0.00     0.217 HD
ENDBRANCH  21  29
ENDBRANCH   1  18
TORSDOF 10
ENDMDL
MODEL 2
REMARK VINA RESULT:      -7.8      0.824      1.494
REMARK  10 active torsions:
REMARK  status: ('A' for Active; 'I' for Inactive)
REMARK    1  A    between atoms: C2_2  and  C4_3 
REMARK    2  A    between atoms: C2_2  and  N12_11 
REMARK    3  A    between atoms: C4_3  and  C5_4 
REMARK    4  A    between atoms: C5_4  and  C6_5 
REMARK    5  A    between atoms: N12_11  and  C15_14 
REMARK    6  A    between atoms: C15_14  and  C16_15 
REMARK    7  A    between atoms: C16_15  and  O18_16 
REMARK    8  A    between atoms: C16_15  and  C19_17 
REMARK    9  A    between atoms: C22_20  and  O23_21 
REMARK   10  A    between atoms: C24_22  and  C25_23 
REMARK       I    between atoms: C25_23  and  N26_24 
ROOT
ATOM      1  C16 ZIN A   1      20.317   0.794  12.210  0.00  0.00     0.176 C 
ENDROOT
BRANCH   1   2
ATOM      2  C15 ZIN A   1      19.665  -0.069  11.129  0.00  0.00     0.269 C 
BRANCH   2   3
ATOM      3  N12 ZIN A   1      20.031   0.449   9.804  0.00  0.00    -0.069 N 
ATOM      4  H13 ZIN A   1      20.538  -0.258   9.294  0.00  0.00     0.277 HD
ATOM      5  H14 ZIN A   1      20.610   1.268   9.910  0.00  0.00     0.277 HD
BRANCH   3   6
ATOM      6  C2  ZIN A   1      18.812   0.806   9.064  0.00  0.00     0.182 C 
ATOM      7  C1  ZIN A   1      19.194   1.487   7.749  0.00  0.00     0.040 C 
BRANCH   6   8
ATOM      8  C4  ZIN A   1      17.965   1.762   9.907  0.00  0.00     0.037 C 
BRANCH   8   9
ATOM      9  C5  ZIN A   1      18.520   3.182   9.779  0.00  0.00     0.040 C 
BRANCH   9  10
ATOM     10  C6  ZIN A   1      18.177   3.970  11.016  0.00  0.00    -0.058 A 
ATOM     11  C11 ZIN A   1      16.910   4.502  11.168  0.00  0.00     0.007 A 
ATOM     12  C10 ZIN A   1      16.593   5.222  12.304  0.00  0.00     0.001 A 
ATOM     13  C9  ZIN A   1      17.548   5.418  13.286  0.00  0.00     0.000 A 
ATOM     14  C8  ZIN A   1      18.816   4.892  13.131  0.00  0.00     0.001 A 
ATOM     15  C7  ZIN A   1      19.131   4.168  11.997  0.00  0.00     0.007 A 
ENDBRANCH   9  10
ENDBRANCH   8   9
ENDBRANCH   6   8
ENDBRANCH   3   6
ENDBRANCH   2   3
ENDBRANCH   1   2
BRANCH   1  16
ATOM     16  O18 ZIN A   1      21.733   0.594  12.191  0.00  0.00    -0.389 OA
ATOM     17  H43 ZIN A   1      22.164   0.746  13.043  0.00  0.00     0.210 HD
ENDBRANCH   1  16
BRANCH   1  18
ATOM     18  C19 ZIN A   1      19.774   0.402  13.561  0.00  0.00    -0.027 A 
ATOM     19  C28 ZIN A   1      19.588   1.364  14.530  0.00  0.00     0.029 A 
ATOM     20  C24 ZIN A   1      19.079   1.003  15.780  0.00  0.00     0.065 A 
ATOM     21  C22 ZIN A   1      18.773  -0.339  16.042  0.00  0.00     0.081 A 
ATOM     22  C21 ZIN A   1      18.971  -1.295  15.057  0.00  0.00     0.038 A 
ATOM     23  C20 ZIN A   1      19.470  -0.923  13.823  0.00  0.00     0.012 A 
BRANCH  20  24
ATOM     24  C25 ZIN A   1      18.872   2.029  16.821  0.00  0.00     0.252 C 
ATOM     25  N26 ZIN A   1      17.980   3.019  16.622  0.00  0.00    -0.366 N 
ATOM     26  H47 ZIN A   1      17.475   3.058  15.796  0.00  0.00     0.159 HD
ATOM     27  H48 ZIN A   1      17.844   3.693  17.307  0.00  0.00     0.159 HD
ATOM     28  O27 ZIN A   1      19.506   1.979  17.857  0.00  0.00    -0.268 OA
ENDBRANCH  20  24
BRANCH  21  29
ATOM     29  O23 ZIN A   1      18.283  -0.702  17.254  0.00  0.00    -0.360 OA
ATOM     30  H46 ZIN A   1      18.238   0.023  17.893  0.00  0.00     0.217 HD
ENDBRANCH  21  29
ENDBRANCH   1  18
TORSDOF 10
ENDMDL
MODEL 3
REMARK VINA RESULT:      -7.7      2.170      5.295
REMARK  10 active torsions:
REMARK  status: ('A' for Active; 'I' for Inactive)
REMARK    1  A    between atoms: C2_2  and  C4_3 
REMARK    2  A    between atoms: C2_2  and  N12_11 
REMARK    3  A    between atoms: C4_3  and  C5_4 
REMARK    4  A    between atoms: C5_4  and  C6_5 
REMARK    5  A    between atoms: N12_11  and  C15_14 
REMARK    6  A    between atoms: C15_14  and  C16_15 
REMARK    7  A    between atoms: C16_15  and  O18_16 
REMARK    8  A    between atoms: C16_15  and  C19_17 
REMARK    9  A    between atoms: C22_20  and  O23_21 
REMARK   10  A    between atoms: C24_22  and  C25_23 
REMARK       I    between atoms: C25_23  and  N26_24 
ROOT
ATOM      1  C16 ZIN A   1      20.475  -0.551  10.143  0.00  0.00     0.176 C 
ENDROOT
BRANCH   1   2
ATOM      2  C15 ZIN A   1      19.500  -1.639  10.595  0.00  0.00     0.269 C 
BRANCH   2   3
ATOM      3  N12 ZIN A   1      20.003  -2.264  11.826  0.00  0.00    -0.069 N 
ATOM      4  H13 ZIN A   1      20.859  -1.811  12.108  0.00  0.00     0.277 HD
ATOM      5  H14 ZIN A   1      20.179  -3.243  11.659  0.00  0.00     0.277 HD
BRANCH   3   6
ATOM      6  C2  ZIN A   1      19.000  -2.123  12.891  0.00  0.00     0.182 C 
ATOM      7  C1  ZIN A   1      17.708  -1.551  12.303  0.00  0.00     0.040 C 
BRANCH   6   8
ATOM      8  C4  ZIN A   1      19.531  -1.178  13.971  0.00  0.00     0.037 C 
BRANCH   8   9
ATOM      9  C5  ZIN A   1      18.746  -1.390  15.266  0.00  0.00     0.040 C 
BRANCH   9  10
ATOM     10  C6  ZIN A   1      18.891  -0.177  16.147  0.00  0.00    -0.058 A 
ATOM     11  C11 ZIN A   1      18.953   1.084  15.582  0.00  0.00     0.007 A 
ATOM     12  C10 ZIN A   1      19.082   2.198  16.390  0.00  0.00     0.001 A 
ATOM     13  C9  ZIN A   1      19.161   2.051  17.763  0.00  0.00     0.000 A 
ATOM     14  C8  ZIN A   1      19.106   0.790  18.327  0.00  0.00     0.001 A 
ATOM     15  C7  ZIN A   1      18.972  -0.324  17.520  0.00  0.00     0.007 A 
ENDBRANCH   9  10
ENDBRANCH   8   9
ENDBRANCH   6   8
ENDBRANCH   3   6
ENDBRANCH   2   3
ENDBRANCH   1   2
BRANCH   1  16
ATOM     16  O18 ZIN A   1      21.593  -0.512  11.032  0.00  0.00    -0.389 OA
ATOM     17  H43 ZIN A   1      22.232   0.187  10.833  0.00  0.00     0.210 HD
ENDBRANCH   1  16
BRANCH   1  18
ATOM     18  C19 ZIN A   1      19.778   0.786  10.156  0.00  0.00    -0.027 A 
ATOM     19  C28 ZIN A   1      19.613   1.461  11.346  0.00  0.00     0.029 A 
ATOM     20  C24 ZIN A   1      18.972   2.702  11.359  0.00  0.00     0.065 A 
ATOM     21  C22 ZIN A   1      18.491   3.246  10.161  0.00  0.00     0.081 A 
ATOM     22  C21 ZIN A   1      18.661   2.550   8.973  0.00  0.00     0.038 A 
ATOM     23  C20 ZIN A   1      19.301   1.326   8.974  0.00  0.00     0.012 A 
BRANCH  20  24
ATOM     24  C25 ZIN A   1      18.798   3.434  12.629  0.00  0.00     0.252 C 
ATOM     25  N26 ZIN A   1      19.849   4.054  13.199  0.00  0.00    -0.366 N 
ATOM     26  H47 ZIN A   1      20.721   4.020  12.775  0.00  0.00     0.159 HD
ATOM     27  H48 ZIN A   1      19.734   4.535  14.034  0.00  0.00     0.159 HD
ATOM     28  O27 ZIN A   1      17.705   3.477  13.161  0.00  0.00    -0.268 OA
ENDBRANCH  20  24
BRANCH  21  29
ATOM     29  O23 ZIN A   1      17.862   4.448  10.163  0.00  0.00    -0.360 OA
ATOM     30  H46 ZIN A   1      16.963   4.421  10.516  0.00  0.00     0.217 HD
ENDBRANCH  21  29
ENDBRANCH   1  18
TORSDOF 10
ENDMDL
MODEL 4
REMARK VINA RESULT:      -7.6      3.066      5.838
REMARK  10 active torsions:
REMARK  status: ('A' for Active; 'I' for Inactive)
REMARK    1  A    between atoms: C2_2  and  C4_3 
REMARK    2  A    between atoms: C2_2  and  N12_11 
REMARK    3  A    between atoms: C4_3  and  C5_4 
REMARK    4  A    between atoms: C5_4  and  C6_5 
REMARK    5  A    between atoms: N12_11  and  C15_14 
REMARK    6  A    between atoms: C15_14  and  C16_15 
REMARK    7  A    between atoms: C16_15  and  O18_16 
REMARK    8  A    between atoms: C16_15  and  C19_17 
REMARK    9  A    between atoms: C22_20  and  O23_21 
REMARK   10  A    between atoms: C24_22  and  C25_23 
REMARK       I    between atoms: C25_23  and  N26_24 
ROOT
ATOM      1  C16 ZIN A   1      20.237   0.632  12.703  0.00  0.00     0.176 C 
ENDROOT
BRANCH   1   2
ATOM      2  C15 ZIN A   1      19.532   1.962  12.429  0.00  0.00     0.269 C 
BRANCH   2   3
ATOM      3  N12 ZIN A   1      20.168   2.625  11.283  0.00  0.00    -0.069 N 
ATOM      4  H13 ZIN A   1      20.866   2.015  10.885  0.00  0.00     0.277 HD
ATOM      5  H14 ZIN A   1      20.605   3.481  11.589  0.00  0.00     0.277 HD
BRANCH   3   6
ATOM      6  C2  ZIN A   1      19.150   2.932  10.268  0.00  0.00     0.182 C 
ATOM      7  C1  ZIN A   1      17.766   2.570  10.809  0.00  0.00     0.040 C 
BRANCH   6   8
ATOM      8  C4  ZIN A   1      19.432   2.120   9.001  0.00  0.00     0.037 C 
BRANCH   8   9
ATOM      9  C5  ZIN A   1      18.369   1.031   8.847  0.00  0.00     0.040 C 
BRANCH   9  10
ATOM     10  C6  ZIN A   1      18.654   0.222   7.609  0.00  0.00    -0.058 A 
ATOM     11  C11 ZIN A   1      18.630   0.828   6.366  0.00  0.00     0.007 A 
ATOM     12  C10 ZIN A   1      18.895   0.088   5.230  0.00  0.00     0.001 A 
ATOM     13  C9  ZIN A   1      19.175  -1.263   5.335  0.00  0.00     0.000 A 
ATOM     14  C8  ZIN A   1      19.193  -1.870   6.576  0.00  0.00     0.001 A 
ATOM     15  C7  ZIN A   1      18.932  -1.128   7.713  0.00  0.00     0.007 A 
ENDBRANCH   9  10
ENDBRANCH   8   9
ENDBRANCH   6   8
ENDBRANCH   3   6
ENDBRANCH   2   3
ENDBRANCH   1   2
BRANCH   1  16
ATOM     16  O18 ZIN A   1      21.475   0.593  11.989  0.00  0.00    -0.389 OA
ATOM     17  H43 ZIN A   1      21.570  -0.174  11.407  0.00  0.00     0.210 HD
ENDBRANCH   1  16
BRANCH   1  18
ATOM     18  C19 ZIN A   1      19.359  -0.505  12.248  0.00  0.00    -0.027 A 
ATOM     19  C28 ZIN A   1      19.930  -1.642  11.718  0.00  0.00     0.029 A 
ATOM     20  C24 ZIN A   1      19.118  -2.700  11.301  0.00  0.00     0.065 A 
ATOM     21  C22 ZIN A   1      17.725  -2.591  11.416  0.00  0.00     0.081 A 
ATOM     22  C21 ZIN A   1      17.168  -1.437  11.947  0.00  0.00     0.038 A 
ATOM     23  C20 ZIN A   1      17.983  -0.401  12.360  0.00  0.00     0.012 A 
BRANCH  20  24
ATOM     24  C25 ZIN A   1      19.723  -3.922  10.738  0.00  0.00     0.252 C 
ATOM     25  N26 ZIN A   1      19.602  -4.189   9.423  0.00  0.00    -0.366 N 
ATOM     26  H47 ZIN A   1      19.117  -3.579   8.846  0.00  0.00     0.159 HD
ATOM     27  H48 ZIN A   1      20.000  -4.993   9.052  0.00  0.00     0.159 HD
ATOM     28  O27 ZIN A   1      20.332  -4.687  11.460  0.00  0.00    -0.268 OA
ENDBRANCH  20  24
BRANCH  21  29
ATOM     29  O23 ZIN A   1      16.927  -3.609  11.009  0.00  0.00    -0.360 OA
ATOM     30  H46 ZIN A   1      15.986  -3.462  11.176  0.00  0.00     0.217 HD
ENDBRANCH  21  29
ENDBRANCH   1  18
TORSDOF 10
ENDMDL
MODEL 5
REMARK VINA RESULT:      -7.6      4.817      7.959
REMARK  10 active torsions:
REMARK  status: ('A' for Active; 'I' for Inactive)
REMARK    1  A    between atoms: C2_2  and  C4_3 
REMARK    2  A    between atoms: C2_2  and  N12_11 
REMARK    3  A    between atoms: C4_3  and  C5_4 
REMARK    4  A    between atoms: C5_4  and  C6_5 
REMARK    5  A    between atoms: N12_11  and  C15_14 
REMARK    6  A    between atoms: C15_14  and  C16_15 
REMARK    7  A    between atoms: C16_15  and  O18_16 
REMARK    8  A    between atoms: C16_15  and  C19_17 
REMARK    9  A    between atoms: C22_20  and  O23_21 
REMARK   10  A    between atoms: C24_22  and  C25_23 
REMARK       I    between atoms: C25_23  and  N26_24 
ROOT
ATOM      1  C16 ZIN A   1      18.898  -1.538   5.875  0.00  0.00     0.176 C 
ENDROOT
BRANCH   1   2
ATOM      2  C15 ZIN A   1      19.118  -2.970   6.366  0.00  0.00     0.269 C 
BRANCH   2   3
ATOM      3  N12 ZIN A   1      17.837  -3.689   6.364  0.00  0.00    -0.069 N 
ATOM      4  H13 ZIN A   1      17.182  -3.208   5.766  0.00  0.00     0.277 HD
ATOM      5  H14 ZIN A   1      17.470  -3.727   7.302  0.00  0.00     0.277 HD
BRANCH   3   6
ATOM      6  C2  ZIN A   1      18.044  -5.055   5.864  0.00  0.00     0.182 C 
ATOM      7  C1  ZIN A   1      16.703  -5.792   5.824  0.00  0.00     0.040 C 
BRANCH   6   8
ATOM      8  C4  ZIN A   1      19.007  -5.798   6.792  0.00  0.00     0.037 C 
BRANCH   8   9
ATOM      9  C5  ZIN A   1      18.208  -6.593   7.826  0.00  0.00     0.040 C 
BRANCH   9  10
ATOM     10  C6  ZIN A   1      18.333  -5.932   9.175  0.00  0.00    -0.058 A 
ATOM     11  C11 ZIN A   1      19.451  -5.176   9.473  0.00  0.00     0.007 A 
ATOM     12  C10 ZIN A   1      19.565  -4.567  10.708  0.00  0.00     0.001 A 
ATOM     13  C9  ZIN A   1      18.564  -4.722  11.650  0.00  0.00     0.000 A 
ATOM     14  C8  ZIN A   1      17.449  -5.483  11.354  0.00  0.00     0.001 A 
ATOM     15  C7  ZIN A   1      17.333  -6.089  10.117  0.00  0.00     0.007 A 
ENDBRANCH   9  10
ENDBRANCH   8   9
ENDBRANCH   6   8
ENDBRANCH   3   6
ENDBRANCH   2   3
ENDBRANCH   1   2
BRANCH   1  16
ATOM     16  O18 ZIN A   1      19.822  -1.248   4.823  0.00  0.00    -0.389 OA
ATOM     17  H43 ZIN A   1      20.638  -0.822   5.122  0.00  0.00     0.210 HD
ENDBRANCH   1  16
BRANCH   1  18
ATOM     18  C19 ZIN A   1      19.119  -0.577   7.015  0.00  0.00    -0.027 A 
ATOM     19  C28 ZIN A   1      19.540  -1.051   8.239  0.00  0.00     0.029 A 
ATOM     20  C24 ZIN A   1      19.750  -0.160   9.295  0.00  0.00     0.065 A 
ATOM     21  C22 ZIN A   1      19.520   1.209   9.104  0.00  0.00     0.081 A 
ATOM     22  C21 ZIN A   1      19.092   1.667   7.866  0.00  0.00     0.038 A 
ATOM     23  C20 ZIN A   1      18.893   0.777   6.830  0.00  0.00     0.012 A 
BRANCH  20  24
ATOM     24  C25 ZIN A   1      20.206  -0.660  10.607  0.00  0.00     0.252 C 
ATOM     25  N26 ZIN A   1      21.505  -0.558  10.952  0.00  0.00    -0.366 N 
ATOM     26  H47 ZIN A   1      22.140  -0.158  10.339  0.00  0.00     0.159 HD
ATOM     27  H48 ZIN A   1      21.804  -0.887  11.815  0.00  0.00     0.159 HD
ATOM     28  O27 ZIN A   1      19.410  -1.161  11.377  0.00  0.00    -0.268 OA
ENDBRANCH  20  24
BRANCH  21  29
ATOM     29  O23 ZIN A   1      19.716   2.082  10.123  0.00  0.00    -0.360 OA
ATOM     30  H46 ZIN A   1      20.359   2.777   9.927  0.00  0.00     0.217 HD
ENDBRANCH  21  29
ENDBRANCH   1  18
TORSDOF 10
ENDMDL
MODEL 6
REMARK VINA RESULT:      -7.6      2.617      5.370
REMARK  10 active torsions:
REMARK  status: ('A' for Active; 'I' for Inactive)
REMARK    1  A    between atoms: C2_2  and  C4_3 
REMARK    2  A    between atoms: C2_2  and  N12_11 
REMARK    3  A    between atoms: C4_3  and  C5_4 
REMARK    4  A    between atoms: C5_4  and  C6_5 
REMARK    5  A    between atoms: N12_11  and  C15_14 
REMARK    6  A    between atoms: C15_14  and  C16_15 
REMARK    7  A    between atoms: C16_15  and  O18_16 
REMARK    8  A    between atoms: C16_15  and  C19_17 
REMARK    9  A    between atoms: C22_20  and  O23_21 
REMARK   10  A    between atoms: C24_22  and  C25_23 
REMARK       I    between atoms: C25_23  and  N26_24 
ROOT
ATOM      1  C16 ZIN A   1      20.437   0.841  11.270  0.00  0.00     0.176 C 
ENDROOT
BRANCH   1   2
ATOM      2  C15 ZIN A   1      19.693  -0.474  11.029  0.00  0.00     0.269 C 
BRANCH   2   3
ATOM      3  N12 ZIN A   1      20.293  -1.534  11.850  0.00  0.00    -0.069 N 
ATOM      4  H13 ZIN A   1      21.033  -1.144  12.414  0.00  0.00     0.277 HD
ATOM      5  H14 ZIN A   1      20.670  -2.251  11.250  0.00  0.00     0.277 HD
BRANCH   3   6
ATOM      6  C2  ZIN A   1      19.266  -2.116  12.725  0.00  0.00     0.182 C 
ATOM      7  C1  ZIN A   1      17.878  -1.780  12.175  0.00  0.00     0.040 C 
BRANCH   6   8
ATOM      8  C4  ZIN A   1      19.410  -1.540  14.135  0.00  0.00     0.037 C 
BRANCH   8   9
ATOM      9  C5  ZIN A   1      18.022  -1.306  14.734  0.00  0.00     0.040 C 
BRANCH   9  10
ATOM     10  C6  ZIN A   1      18.163  -0.694  16.104  0.00  0.00    -0.058 A 
ATOM     11  C11 ZIN A   1      19.244  -1.022  16.900  0.00  0.00     0.007 A 
ATOM     12  C10 ZIN A   1      19.375  -0.459  18.155  0.00  0.00     0.001 A 
ATOM     13  C9  ZIN A   1      18.419   0.427  18.618  0.00  0.00     0.000 A 
ATOM     14  C8  ZIN A   1      17.335   0.751  17.824  0.00  0.00     0.001 A 
ATOM     15  C7  ZIN A   1      17.206   0.190  16.568  0.00  0.00     0.007 A 
ENDBRANCH   9  10
ENDBRANCH   8   9
ENDBRANCH   6   8
ENDBRANCH   3   6
ENDBRANCH   2   3
ENDBRANCH   1   2
BRANCH   1  16
ATOM     16  O18 ZIN A   1      21.551   0.606  12.135  0.00  0.00    -0.389 OA
ATOM     17  H43 ZIN A   1      21.323   0.144  12.954  0.00  0.00     0.210 HD
ENDBRANCH   1  16
BRANCH   1  18
ATOM     18  C19 ZIN A   1      19.504   1.835  11.913  0.00  0.00    -0.027 A 
ATOM     19  C28 ZIN A   1      18.781   2.705  11.126  0.00  0.00     0.029 A 
ATOM     20  C24 ZIN A   1      17.912   3.623  11.720  0.00  0.00     0.065 A 
ATOM     21  C22 ZIN A   1      17.790   3.659  13.116  0.00  0.00     0.081 A 
ATOM     22  C21 ZIN A   1      18.529   2.779  13.893  0.00  0.00     0.038 A 
ATOM     23  C20 ZIN A   1      19.381   1.873  13.292  0.00  0.00     0.012 A 
BRANCH  20  24
ATOM     24  C25 ZIN A   1      17.131   4.554  10.883  0.00  0.00     0.252 C 
ATOM     25  N26 ZIN A   1      17.687   5.101   9.784  0.00  0.00    -0.366 N 
ATOM     26  H47 ZIN A   1      18.601   4.883   9.544  0.00  0.00     0.159 HD
ATOM     27  H48 ZIN A   1      17.173   5.713   9.234  0.00  0.00     0.159 HD
ATOM     28  O27 ZIN A   1      15.985   4.827  11.184  0.00  0.00    -0.268 OA
ENDBRANCH  20  24
BRANCH  21  29
ATOM     29  O23 ZIN A   1      16.953   4.550  13.704  0.00  0.00    -0.360 OA
ATOM     30  H46 ZIN A   1      16.035   4.479  13.411  0.00  0.00     0.217 HD
ENDBRANCH  21  29
ENDBRANCH   1  18
TORSDOF 10
ENDMDL
MODEL 7
REMARK VINA RESULT:      -7.5      3.499      7.694
REMARK  10 active torsions:
REMARK  status: ('A' for Active; 'I' for Inactive)
REMARK    1  A    between atoms: C2_2  and  C4_3 
REMARK    2  A    between atoms: C2_2  and  N12_11 
REMARK    3  A    between atoms: C4_3  and  C5_4 
REMARK    4  A    between atoms: C5_4  and  C6_5 
REMARK    5  A    between atoms: N12_11  and  C15_14 
REMARK    6  A    between atoms: C15_14  and  C16_15 
REMARK    7  A    between atoms: C16_15  and  O18_16 
REMARK    8  A    between atoms: C16_15  and  C19_17 
REMARK    9  A    between atoms: C22_20  and  O23_21 
REMARK   10  A    between atoms: C24_22  and  C25_23 
REMARK       I    between atoms: C25_23  and  N26_24 
ROOT
ATOM      1  C16 ZIN A   1      20.351  -0.337  10.823  0.00  0.00     0.176 C 
ENDROOT
BRANCH   1   2
ATOM      2  C15 ZIN A   1      20.006   0.855  11.718  0.00  0.00     0.269 C 
BRANCH   2   3
ATOM      3  N12 ZIN A   1      19.537   0.367  13.022  0.00  0.00    -0.069 N 
ATOM      4  H13 ZIN A   1      19.955   0.918  13.757  0.00  0.00     0.277 HD
ATOM      5  H14 ZIN A   1      19.801  -0.599  13.135  0.00  0.00     0.277 HD
BRANCH   3   6
ATOM      6  C2  ZIN A   1      18.074   0.486  13.092  0.00  0.00     0.182 C 
ATOM      7  C1  ZIN A   1      17.657   0.820  14.526  0.00  0.00     0.040 C 
BRANCH   6   8
ATOM      8  C4  ZIN A   1      17.434  -0.838  12.669  0.00  0.00     0.037 C 
BRANCH   8   9
ATOM      9  C5  ZIN A   1      18.326  -1.999  13.110  0.00  0.00     0.040 C 
BRANCH   9  10
ATOM     10  C6  ZIN A   1      18.478  -2.977  11.974  0.00  0.00    -0.058 A 
ATOM     11  C11 ZIN A   1      17.416  -3.212  11.119  0.00  0.00     0.007 A 
ATOM     12  C10 ZIN A   1      17.555  -4.106  10.074  0.00  0.00     0.001 A 
ATOM     13  C9  ZIN A   1      18.753  -4.773   9.890  0.00  0.00     0.000 A 
ATOM     14  C8  ZIN A   1      19.812  -4.542  10.748  0.00  0.00     0.001 A 
ATOM     15  C7  ZIN A   1      19.674  -3.645  11.790  0.00  0.00     0.007 A 
ENDBRANCH   9  10
ENDBRANCH   8   9
ENDBRANCH   6   8
ENDBRANCH   3   6
ENDBRANCH   2   3
ENDBRANCH   1   2
BRANCH   1  16
ATOM     16  O18 ZIN A   1      21.771  -0.497  10.769  0.00  0.00    -0.389 OA
ATOM     17  H43 ZIN A   1      22.157  -0.299   9.904  0.00  0.00     0.210 HD
ENDBRANCH   1  16
BRANCH   1  18
ATOM     18  C19 ZIN A   1      19.821  -0.093   9.434  0.00  0.00    -0.027 A 
ATOM     19  C28 ZIN A   1      19.644  -1.154   8.572  0.00  0.00     0.029 A 
ATOM     20  C24 ZIN A   1      19.146  -0.929   7.285  0.00  0.00     0.065 A 
ATOM     21  C22 ZIN A   1      18.841   0.376   6.878  0.00  0.00     0.081 A 
ATOM     22  C21 ZIN A   1      19.030   1.432   7.758  0.00  0.00     0.038 A 
ATOM     23  C20 ZIN A   1      19.518   1.196   9.028  0.00  0.00     0.012 A 
BRANCH  20  24
ATOM     24  C25 ZIN A   1      18.949  -2.061   6.359  0.00  0.00     0.252 C 
ATOM     25  N26 ZIN A   1      18.012  -2.993   6.623  0.00  0.00    -0.366 N 
ATOM     26  H47 ZIN A   1      17.468  -2.920   7.423  0.00  0.00     0.159 HD
ATOM     27  H48 ZIN A   1      17.883  -3.737   6.014  0.00  0.00     0.159 HD
ATOM     28  O27 ZIN A   1      19.631  -2.152   5.357  0.00  0.00    -0.268 OA
ENDBRANCH  20  24
BRANCH  21  29
ATOM     29  O23 ZIN A   1      18.363   0.606   5.630  0.00  0.00    -0.360 OA
ATOM     30  H46 ZIN A   1      17.437   0.883   5.609  0.00  0.00     0.217 HD
ENDBRANCH  21  29
ENDBRANCH   1  18
TORSDOF 10
ENDMDL
MODEL 8
REMARK VINA RESULT:      -7.5      3.766      6.793
REMARK  10 active torsions:
REMARK  status: ('A' for Active; 'I' for Inactive)
REMARK    1  A    between atoms: C2_2  and  C4_3 
REMARK    2  A    between atoms: C2_2  and  N12_11 
REMARK    3  A    between atoms: C4_3  and  C5_4 
REMARK    4  A    between atoms: C5_4  and  C6_5 
REMARK    5  A    between atoms: N12_11  and  C15_14 
REMARK    6  A    between atoms: C15_14  and  C16_15 
REMARK    7  A    between atoms: C16_15  and  O18_16 
REMARK    8  A    between atoms: C16_15  and  C19_17 
REMARK    9  A    between atoms: C22_20  and  O23_21 
REMARK   10  A    between atoms: C24_22  and  C25_23 
REMARK       I    between atoms: C25_23  and  N26_24 
ROOT
ATOM      1  C16 ZIN A   1      20.278  -0.786  11.581  0.00  0.00     0.176 C 
ENDROOT
BRANCH   1   2
ATOM      2  C15 ZIN A   1      19.277   0.312  11.217  0.00  0.00     0.269 C 
BRANCH   2   3
ATOM      3  N12 ZIN A   1      20.004   1.517  10.796  0.00  0.00    -0.069 N 
ATOM      4  H13 ZIN A   1      20.883   1.251  10.379  0.00  0.00     0.277 HD
ATOM      5  H14 ZIN A   1      20.176   2.104  11.597  0.00  0.00     0.277 HD
BRANCH   3   6
ATOM      6  C2  ZIN A   1      19.199   2.255   9.813  0.00  0.00     0.182 C 
ATOM      7  C1  ZIN A   1      18.054   2.974  10.528  0.00  0.00     0.040 C 
BRANCH   6   8
ATOM      8  C4  ZIN A   1      18.625   1.277   8.785  0.00  0.00     0.037 C 
BRANCH   8   9
ATOM      9  C5  ZIN A   1      19.134   1.645   7.391  0.00  0.00     0.040 C 
BRANCH   9  10
ATOM     10  C6  ZIN A   1      18.619   0.647   6.387  0.00  0.00    -0.058 A 
ATOM     11  C11 ZIN A   1      19.381   0.323   5.280  0.00  0.00     0.007 A 
ATOM     12  C10 ZIN A   1      18.910  -0.595   4.360  0.00  0.00     0.001 A 
ATOM     13  C9  ZIN A   1      17.671  -1.183   4.544  0.00  0.00     0.000 A 
ATOM     14  C8  ZIN A   1      16.907  -0.855   5.647  0.00  0.00     0.001 A 
ATOM     15  C7  ZIN A   1      17.379   0.060   6.569  0.00  0.00     0.007 A 
ENDBRANCH   9  10
ENDBRANCH   8   9
ENDBRANCH   6   8
ENDBRANCH   3   6
ENDBRANCH   2   3
ENDBRANCH   1   2
BRANCH   1  16
ATOM     16  O18 ZIN A   1      21.559  -0.462  11.035  0.00  0.00    -0.389 OA
ATOM     17  H43 ZIN A   1      22.042   0.211  11.535  0.00  0.00     0.210 HD
ENDBRANCH   1  16
BRANCH   1  18
ATOM     18  C19 ZIN A   1      19.809  -2.101  11.014  0.00  0.00    -0.027 A 
ATOM     19  C28 ZIN A   1      19.453  -2.187   9.685  0.00  0.00     0.029 A 
ATOM     20  C24 ZIN A   1      19.024  -3.407   9.157  0.00  0.00     0.065 A 
ATOM     21  C22 ZIN A   1      18.947  -4.533   9.988  0.00  0.00     0.081 A 
ATOM     22  C21 ZIN A   1      19.305  -4.427  11.324  0.00  0.00     0.038 A 
ATOM     23  C20 ZIN A   1      19.733  -3.216  11.832  0.00  0.00     0.012 A 
BRANCH  20  24
ATOM     24  C25 ZIN A   1      18.646  -3.507   7.734  0.00  0.00     0.252 C 
ATOM     25  N26 ZIN A   1      17.463  -4.051   7.387  0.00  0.00    -0.366 N 
ATOM     26  H47 ZIN A   1      16.860  -4.377   8.073  0.00  0.00     0.159 HD
ATOM     27  H48 ZIN A   1      17.215  -4.117   6.452  0.00  0.00     0.159 HD
ATOM     28  O27 ZIN A   1      19.403  -3.099   6.874  0.00  0.00    -0.268 OA
ENDBRANCH  20  24
BRANCH  21  29
ATOM     29  O23 ZIN A   1      18.527  -5.722   9.487  0.00  0.00    -0.360 OA
ATOM     30  H46 ZIN A   1      18.958  -5.974   8.660  0.00  0.00     0.217 HD
ENDBRANCH  21  29
ENDBRANCH   1  18
TORSDOF 10
ENDMDL
MODEL 9
REMARK VINA RESULT:      -7.3      2.632      3.896
REMARK  10 active torsions:
REMARK  status: ('A' for Active; 'I' for Inactive)
REMARK    1  A    between atoms: C2_2  and  C4_3 
REMARK    2  A    between atoms: C2_2  and  N12_11 
REMARK    3  A    between atoms: C4_3  and  C5_4 
REMARK    4  A    between atoms: C5_4  and  C6_5 
REMARK    5  A    between atoms: N12_11  and  C15_14 
REMARK    6  A    between atoms: C15_14  and  C16_15 
REMARK    7  A    between atoms: C16_15  and  O18_16 
REMARK    8  A    between atoms: C16_15  and  C19_17 
REMARK    9  A    between atoms: C22_20  and  O23_21 
REMARK   10  A    between atoms: C24_22  and  C25_23 
REMARK       I    between atoms: C25_23  and  N26_24 
ROOT
ATOM      1  C16 ZIN A   1      19.331  -3.400  11.069  0.00  0.00     0.176 C 
ENDROOT
BRANCH   1   2
ATOM      2  C15 ZIN A   1      18.522  -3.174   9.791  0.00  0.00     0.269 C 
BRANCH   2   3
ATOM      3  N12 ZIN A   1      19.320  -3.585   8.628  0.00  0.00    -0.069 N 
ATOM      4  H13 ZIN A   1      19.165  -4.564   8.442  0.00  0.00     0.277 HD
ATOM      5  H14 ZIN A   1      20.298  -3.429   8.818  0.00  0.00     0.277 HD
BRANCH   3   6
ATOM      6  C2  ZIN A   1      18.919  -2.795   7.455  0.00  0.00     0.182 C 
ATOM      7  C1  ZIN A   1      19.606  -3.352   6.206  0.00  0.00     0.040 C 
BRANCH   6   8
ATOM      8  C4  ZIN A   1      19.333  -1.335   7.657  0.00  0.00     0.037 C 
BRANCH   8   9
ATOM      9  C5  ZIN A   1      18.106  -0.433   7.513  0.00  0.00     0.040 C 
BRANCH   9  10
ATOM     10  C6  ZIN A   1      18.083   0.568   8.638  0.00  0.00    -0.058 A 
ATOM     11  C11 ZIN A   1      18.853   1.714   8.560  0.00  0.00     0.007 A 
ATOM     12  C10 ZIN A   1      18.829   2.635   9.590  0.00  0.00     0.001 A 
ATOM     13  C9  ZIN A   1      18.043   2.404  10.705  0.00  0.00     0.000 A 
ATOM     14  C8  ZIN A   1      17.278   1.256  10.786  0.00  0.00     0.001 A 
ATOM     15  C7  ZIN A   1      17.298   0.337   9.754  0.00  0.00     0.007 A 
ENDBRANCH   9  10
ENDBRANCH   8   9
ENDBRANCH   6   8
ENDBRANCH   3   6
ENDBRANCH   2   3
ENDBRANCH   1   2
BRANCH   1  16
ATOM     16  O18 ZIN A   1      18.652  -4.343  11.902  0.00  0.00    -0.389 OA
ATOM     17  H43 ZIN A   1      18.591  -5.231  11.523  0.00  0.00     0.210 HD
ENDBRANCH   1  16
BRANCH   1  18
ATOM     18  C19 ZIN A   1      19.480  -2.094  11.807  0.00  0.00    -0.027 A 
ATOM     19  C28 ZIN A   1      18.739  -1.863  12.945  0.00  0.00     0.029 A 
ATOM     20  C24 ZIN A   1      18.880  -0.655  13.634  0.00  0.00     0.065 A 
ATOM     21  C22 ZIN A   1      19.768   0.317  13.153  0.00  0.00     0.081 A 
ATOM     22  C21 ZIN A   1      20.502   0.069  12.003  0.00  0.00     0.038 A 
ATOM     23  C20 ZIN A   1      20.356  -1.132  11.335  0.00  0.00     0.012 A 
BRANCH  20  24
ATOM     24  C25 ZIN A   1      18.094  -0.402  14.857  0.00  0.00     0.252 C 
ATOM     25  N26 ZIN A   1      17.347   0.715  14.959  0.00  0.00    -0.366 N 
ATOM     26  H47 ZIN A   1      17.326   1.352  14.229  0.00  0.00     0.159 HD
ATOM     27  H48 ZIN A   1      16.830   0.880  15.763  0.00  0.00     0.159 HD
ATOM     28  O27 ZIN A   1      18.120  -1.202  15.772  0.00  0.00    -0.268 OA
ENDBRANCH  20  24
BRANCH  21  29
ATOM     29  O23 ZIN A   1      19.909   1.495  13.810  0.00  0.00    -0.360 OA
ATOM     30  H46 ZIN A   1      20.150   2.238  13.240  0.00  0.00     0.217 HD
ENDBRANCH  21  29
ENDBRANCH   1  18
TORSDOF 10
ENDMDL
