MODEL 1
REMARK VINA RESULT:      -9.5      0.000      0.000
REMARK  9 active torsions:
REMARK  status: ('A' for Active; 'I' for Inactive)
REMARK    1  A    between atoms: C2_2  and  O4_4 
REMARK    2  A    between atoms: C2_2  and  C5_5 
REMARK    3  A    between atoms: C5_5  and  N6_6 
REMARK    4  A    between atoms: N6_6  and  C7_7 
REMARK    5  A    between atoms: C9_9  and  N10_10 
REMARK    6  A    between atoms: N10_10  and  C11_11 
REMARK    7  A    between atoms: C15_15  and  C16_16 
REMARK    8  A    between atoms: C22_22  and  C23_23 
REMARK    9  A    between atoms: C27_27  and  C28_28 
ROOT
ATOM      1  C7  ZIN A   1      17.784  -3.476  10.584  0.00  0.00     0.740 A 
ATOM      2  N8  ZIN A   1      18.454  -3.255  11.709  0.00  0.00     0.130 NA
ATOM      3  C9  ZIN A   1      19.226  -2.179  11.823  0.00  0.00     0.745 A 
ATOM      4  N21 ZIN A   1      19.329  -1.325  10.810  0.00  0.00    -0.039 NA
ATOM      5  C22 ZIN A   1      18.659  -1.546   9.683  0.00  0.00     0.216 A 
ATOM      6  N33 ZIN A   1      17.891  -2.624   9.568  0.00  0.00    -0.040 NA
ENDROOT
BRANCH   3   7
ATOM      7  N10 ZIN A   1      19.922  -1.949  12.995  0.00  0.00    -0.188 N 
ATOM      8  H44 ZIN A   1      20.728  -2.454  13.187  0.00  0.00     0.184 HD
BRANCH   7   9
ATOM      9  C11 ZIN A   1      19.467  -0.991  13.900  0.00  0.00     0.052 A 
ATOM     10  C20 ZIN A   1      18.653  -1.351  14.973  0.00  0.00     0.066 A 
ATOM     11  C15 ZIN A   1      18.228  -0.374  15.848  0.00  0.00     0.142 A 
ATOM     12  N14 ZIN A   1      18.573   0.888  15.674  0.00  0.00    -0.256 NA
ATOM     13  C13 ZIN A   1      19.337   1.269  14.667  0.00  0.00     0.119 A 
ATOM     14  C12 ZIN A   1      19.809   0.352  13.751  0.00  0.00     0.049 A 
BRANCH  11  15
ATOM     15  C16 ZIN A   1      17.353  -0.750  17.016  0.00  0.00     0.434 C 
ATOM     16  F17 ZIN A   1      17.028  -2.109  16.937  0.00  0.00    -0.165 F 
ATOM     17  F18 ZIN A   1      18.039  -0.505  18.211  0.00  0.00    -0.165 F 
ATOM     18  F19 ZIN A   1      16.181   0.012  16.987  0.00  0.00    -0.165 F 
ENDBRANCH  11  15
ENDBRANCH   7   9
ENDBRANCH   3   7
BRANCH   1  19
ATOM     19  N6  ZIN A   1      16.983  -4.594  10.466  0.00  0.00    -0.219 N 
ATOM     20  H43 ZIN A   1      16.108  -4.609  10.884  0.00  0.00     0.178 HD
BRANCH  19  21
ATOM     21  C5  ZIN A   1      17.454  -5.758   9.712  0.00  0.00     0.175 C 
BRANCH  21  22
ATOM     22  C2  ZIN A   1      16.666  -5.874   8.407  0.00  0.00     0.067 C 
ATOM     23  C1  ZIN A   1      15.169  -5.743   8.701  0.00  0.00     0.047 C 
ATOM     24  C3  ZIN A   1      16.942  -7.234   7.763  0.00  0.00     0.047 C 
BRANCH  22  25
ATOM     25  O4  ZIN A   1      17.067  -4.833   7.514  0.00  0.00    -0.389 OA
ATOM     26  H40 ZIN A   1      17.784  -4.279   7.853  0.00  0.00     0.210 HD
ENDBRANCH  22  25
ENDBRANCH  21  22
ENDBRANCH  19  21
ENDBRANCH   1  19
BRANCH   5  27
ATOM     27  C23 ZIN A   1      18.774  -0.593   8.552  0.00  0.00     0.106 A 
ATOM     28  N32 ZIN A   1      18.639  -1.030   7.306  0.00  0.00    -0.240 NA
ATOM     29  C27 ZIN A   1      18.729  -0.216   6.276  0.00  0.00     0.141 A 
ATOM     30  C26 ZIN A   1      18.981   1.133   6.454  0.00  0.00     0.036 A 
ATOM     31  C25 ZIN A   1      19.134   1.631   7.739  0.00  0.00     0.005 A 
ATOM     32  C24 ZIN A   1      19.029   0.752   8.805  0.00  0.00     0.036 A 
BRANCH  29  33
ATOM     33  C28 ZIN A   1      18.562  -0.763   4.881  0.00  0.00     0.434 C 
ATOM     34  F29 ZIN A   1      18.862   0.236   3.949  0.00  0.00    -0.165 F 
ATOM     35  F30 ZIN A   1      19.426  -1.847   4.698  0.00  0.00    -0.165 F 
ATOM     36  F31 ZIN A   1      17.239  -1.185   4.702  0.00  0.00    -0.165 F 
ENDBRANCH  29  33
ENDBRANCH   5  27
TORSDOF 9
ENDMDL
MODEL 2
REMARK VINA RESULT:      -9.3      3.475      8.748
REMARK  9 active torsions:
REMARK  status: ('A' for Active; 'I' for Inactive)
REMARK    1  A    between atoms: C2_2  and  O4_4 
REMARK    2  A    between atoms: C2_2  and  C5_5 
REMARK    3  A    between atoms: C5_5  and  N6_6 
REMARK    4  A    between atoms: N6_6  and  C7_7 
REMARK    5  A    between atoms: C9_9  and  N10_10 
REMARK    6  A    between atoms: N10_10  and  C11_11 
REMARK    7  A    between atoms: C15_15  and  C16_16 
REMARK    8  A    between atoms: C22_22  and  C23_23 
REMARK    9  A    between atoms: C27_27  and  C28_28 
ROOT
ATOM      1  C7  ZIN A   1      20.035   1.402  12.045  0.00  0.00     0.740 A 
ATOM      2  N8  ZIN A   1      20.304   0.286  11.375  0.00  0.00     0.130 NA
ATOM      3  C9  ZIN A   1      20.045  -0.897  11.922  0.00  0.00     0.745 A 
ATOM      4  N21 ZIN A   1      19.518  -0.965  13.140  0.00  0.00    -0.039 NA
ATOM      5  C22 ZIN A   1      19.249   0.152  13.811  0.00  0.00     0.216 A 
ATOM      6  N33 ZIN A   1      19.512   1.334  13.265  0.00  0.00    -0.040 NA
ENDROOT
BRANCH   3   7
ATOM      7  N10 ZIN A   1      20.325  -2.057  11.225  0.00  0.00    -0.188 N 
ATOM      8  H44 ZIN A   1      21.197  -2.474  11.308  0.00  0.00     0.184 HD
BRANCH   7   9
ATOM      9  C11 ZIN A   1      19.355  -2.627  10.402  0.00  0.00     0.052 A 
ATOM     10  C20 ZIN A   1      18.490  -3.607  10.889  0.00  0.00     0.066 A 
ATOM     11  C15 ZIN A   1      17.541  -4.142  10.043  0.00  0.00     0.142 A 
ATOM     12  N14 ZIN A   1      17.453  -3.747   8.787  0.00  0.00    -0.256 NA
ATOM     13  C13 ZIN A   1      18.257  -2.827   8.288  0.00  0.00     0.119 A 
ATOM     14  C12 ZIN A   1      19.229  -2.238   9.070  0.00  0.00     0.049 A 
BRANCH  11  15
ATOM     15  C16 ZIN A   1      16.596  -5.198  10.559  0.00  0.00     0.434 C 
ATOM     16  F17 ZIN A   1      15.549  -5.372   9.648  0.00  0.00    -0.165 F 
ATOM     17  F18 ZIN A   1      17.286  -6.405  10.713  0.00  0.00    -0.165 F 
ATOM     18  F19 ZIN A   1      16.078  -4.796  11.795  0.00  0.00    -0.165 F 
ENDBRANCH  11  15
ENDBRANCH   7   9
ENDBRANCH   3   7
BRANCH   1  19
ATOM     19  N6  ZIN A   1      20.305   2.630  11.476  0.00  0.00    -0.219 N 
ATOM     20  H43 ZIN A   1      21.117   2.758  10.962  0.00  0.00     0.178 HD
BRANCH  19  21
ATOM     21  C5  ZIN A   1      19.365   3.740  11.648  0.00  0.00     0.175 C 
BRANCH  21  22
ATOM     22  C2  ZIN A   1      18.183   3.561  10.694  0.00  0.00     0.067 C 
ATOM     23  C1  ZIN A   1      18.671   2.923   9.391  0.00  0.00     0.047 C 
ATOM     24  C3  ZIN A   1      17.560   4.925  10.392  0.00  0.00     0.047 C 
BRANCH  22  25
ATOM     25  O4  ZIN A   1      17.205   2.715  11.301  0.00  0.00    -0.389 OA
ATOM     26  H40 ZIN A   1      17.575   1.929  11.728  0.00  0.00     0.210 HD
ENDBRANCH  22  25
ENDBRANCH  21  22
ENDBRANCH  19  21
ENDBRANCH   1  19
BRANCH   5  27
ATOM     27  C23 ZIN A   1      18.659   0.076  15.171  0.00  0.00     0.106 A 
ATOM     28  N32 ZIN A   1      18.730   1.127  15.978  0.00  0.00    -0.240 NA
ATOM     29  C27 ZIN A   1      18.216   1.103  17.189  0.00  0.00     0.141 A 
ATOM     30  C26 ZIN A   1      17.588  -0.031  17.673  0.00  0.00     0.036 A 
ATOM     31  C25 ZIN A   1      17.496  -1.154  16.864  0.00  0.00     0.005 A 
ATOM     32  C24 ZIN A   1      18.041  -1.098  15.592  0.00  0.00     0.036 A 
BRANCH  29  33
ATOM     33  C28 ZIN A   1      18.320   2.326  18.064  0.00  0.00     0.434 C 
ATOM     34  F29 ZIN A   1      19.449   2.219  18.882  0.00  0.00    -0.165 F 
ATOM     35  F30 ZIN A   1      18.431   3.466  17.261  0.00  0.00    -0.165 F 
ATOM     36  F31 ZIN A   1      17.174   2.426  18.861  0.00  0.00    -0.165 F 
ENDBRANCH  29  33
ENDBRANCH   5  27
TORSDOF 9
ENDMDL
MODEL 3
REMARK VINA RESULT:      -9.0      2.263      8.070
REMARK  9 active torsions:
REMARK  status: ('A' for Active; 'I' for Inactive)
REMARK    1  A    between atoms: C2_2  and  O4_4 
REMARK    2  A    between atoms: C2_2  and  C5_5 
REMARK    3  A    between atoms: C5_5  and  N6_6 
REMARK    4  A    between atoms: N6_6  and  C7_7 
REMARK    5  A    between atoms: C9_9  and  N10_10 
REMARK    6  A    between atoms: N10_10  and  C11_11 
REMARK    7  A    between atoms: C15_15  and  C16_16 
REMARK    8  A    between atoms: C22_22  and  C23_23 
REMARK    9  A    between atoms: C27_27  and  C28_28 
ROOT
ATOM      1  C7  ZIN A   1      18.351  -2.494  12.529  0.00  0.00     0.740 A 
ATOM      2  N8  ZIN A   1      17.777  -1.712  11.621  0.00  0.00     0.130 NA
ATOM      3  C9  ZIN A   1      17.487  -0.450  11.919  0.00  0.00     0.745 A 
ATOM      4  N21 ZIN A   1      17.772   0.031  13.124  0.00  0.00    -0.039 NA
ATOM      5  C22 ZIN A   1      18.346  -0.751  14.033  0.00  0.00     0.216 A 
ATOM      6  N33 ZIN A   1      18.631  -2.015  13.737  0.00  0.00    -0.040 NA
ENDROOT
BRANCH   3   7
ATOM      7  N10 ZIN A   1      16.891   0.363  10.974  0.00  0.00    -0.188 N 
ATOM      8  H44 ZIN A   1      15.963   0.629  11.079  0.00  0.00     0.184 HD
BRANCH   7   9
ATOM      9  C11 ZIN A   1      17.620   0.802   9.870  0.00  0.00     0.052 A 
ATOM     10  C20 ZIN A   1      17.553   0.126   8.653  0.00  0.00     0.066 A 
ATOM     11  C15 ZIN A   1      18.288   0.596   7.585  0.00  0.00     0.142 A 
ATOM     12  N14 ZIN A   1      19.054   1.663   7.706  0.00  0.00    -0.256 NA
ATOM     13  C13 ZIN A   1      19.148   2.327   8.843  0.00  0.00     0.119 A 
ATOM     14  C12 ZIN A   1      18.441   1.926   9.957  0.00  0.00     0.049 A 
BRANCH  11  15
ATOM     15  C16 ZIN A   1      18.220  -0.123   6.261  0.00  0.00     0.434 C 
ATOM     16  F17 ZIN A   1      18.941   0.596   5.302  0.00  0.00    -0.165 F 
ATOM     17  F18 ZIN A   1      18.772  -1.402   6.397  0.00  0.00    -0.165 F 
ATOM     18  F19 ZIN A   1      16.885  -0.232   5.858  0.00  0.00    -0.165 F 
ENDBRANCH  11  15
ENDBRANCH   7   9
ENDBRANCH   3   7
BRANCH   1  19
ATOM     19  N6  ZIN A   1      18.650  -3.806  12.220  0.00  0.00    -0.219 N 
ATOM     20  H43 ZIN A   1      18.177  -4.528  12.662  0.00  0.00     0.178 HD
BRANCH  19  21
ATOM     21  C5  ZIN A   1      19.681  -4.107  11.225  0.00  0.00     0.175 C 
BRANCH  21  22
ATOM     22  C2  ZIN A   1      19.025  -4.676   9.966  0.00  0.00     0.067 C 
ATOM     23  C1  ZIN A   1      17.829  -5.545  10.361  0.00  0.00     0.047 C 
ATOM     24  C3  ZIN A   1      20.041  -5.525   9.199  0.00  0.00     0.047 C 
BRANCH  22  25
ATOM     25  O4  ZIN A   1      18.578  -3.603   9.135  0.00  0.00    -0.389 OA
ATOM     26  H40 ZIN A   1      18.467  -2.763   9.603  0.00  0.00     0.210 HD
ENDBRANCH  22  25
ENDBRANCH  21  22
ENDBRANCH  19  21
ENDBRANCH   1  19
BRANCH   5  27
ATOM     27  C23 ZIN A   1      18.664  -0.215  15.380  0.00  0.00     0.106 A 
ATOM     28  N32 ZIN A   1      18.758   1.097  15.559  0.00  0.00    -0.240 NA
ATOM     29  C27 ZIN A   1      19.034   1.614  16.738  0.00  0.00     0.141 A 
ATOM     30  C26 ZIN A   1      19.247   0.802  17.839  0.00  0.00     0.036 A 
ATOM     31  C25 ZIN A   1      19.163  -0.574  17.694  0.00  0.00     0.005 A 
ATOM     32  C24 ZIN A   1      18.866  -1.090  16.443  0.00  0.00     0.036 A 
BRANCH  29  33
ATOM     33  C28 ZIN A   1      19.125   3.111  16.890  0.00  0.00     0.434 C 
ATOM     34  F29 ZIN A   1      18.123   3.718  16.125  0.00  0.00    -0.165 F 
ATOM     35  F30 ZIN A   1      18.958   3.455  18.235  0.00  0.00    -0.165 F 
ATOM     36  F31 ZIN A   1      20.378   3.548  16.448  0.00  0.00    -0.165 F 
ENDBRANCH  29  33
ENDBRANCH   5  27
TORSDOF 9
ENDMDL
MODEL 4
REMARK VINA RESULT:      -9.0      3.923      8.748
REMARK  9 active torsions:
REMARK  status: ('A' for Active; 'I' for Inactive)
REMARK    1  A    between atoms: C2_2  and  O4_4 
REMARK    2  A    between atoms: C2_2  and  C5_5 
REMARK    3  A    between atoms: C5_5  and  N6_6 
REMARK    4  A    between atoms: N6_6  and  C7_7 
REMARK    5  A    between atoms: C9_9  and  N10_10 
REMARK    6  A    between atoms: N10_10  and  C11_11 
REMARK    7  A    between atoms: C15_15  and  C16_16 
REMARK    8  A    between atoms: C22_22  and  C23_23 
REMARK    9  A    between atoms: C27_27  and  C28_28 
ROOT
ATOM      1  C7  ZIN A   1      19.249   0.493  13.889  0.00  0.00     0.740 A 
ATOM      2  N8  ZIN A   1      19.866  -0.148  12.902  0.00  0.00     0.130 NA
ATOM      3  C9  ZIN A   1      19.850   0.354  11.671  0.00  0.00     0.745 A 
ATOM      4  N21 ZIN A   1      19.218   1.497  11.428  0.00  0.00    -0.039 NA
ATOM      5  C22 ZIN A   1      18.600   2.139  12.415  0.00  0.00     0.216 A 
ATOM      6  N33 ZIN A   1      18.612   1.634  13.644  0.00  0.00    -0.040 NA
ENDROOT
BRANCH   3   7
ATOM      7  N10 ZIN A   1      20.493  -0.313  10.645  0.00  0.00    -0.188 N 
ATOM      8  H44 ZIN A   1      21.439  -0.515  10.716  0.00  0.00     0.184 HD
BRANCH   7   9
ATOM      9  C11 ZIN A   1      19.782  -0.695   9.509  0.00  0.00     0.052 A 
ATOM     10  C20 ZIN A   1      19.593   0.194   8.451  0.00  0.00     0.066 A 
ATOM     11  C15 ZIN A   1      18.887  -0.226   7.343  0.00  0.00     0.142 A 
ATOM     12  N14 ZIN A   1      18.385  -1.445   7.280  0.00  0.00    -0.256 NA
ATOM     13  C13 ZIN A   1      18.538  -2.312   8.263  0.00  0.00     0.119 A 
ATOM     14  C12 ZIN A   1      19.236  -1.973   9.404  0.00  0.00     0.049 A 
BRANCH  11  15
ATOM     15  C16 ZIN A   1      18.681   0.723   6.189  0.00  0.00     0.434 C 
ATOM     16  F17 ZIN A   1      19.580   0.412   5.163  0.00  0.00    -0.165 F 
ATOM     17  F18 ZIN A   1      17.371   0.601   5.714  0.00  0.00    -0.165 F 
ATOM     18  F19 ZIN A   1      18.901   2.035   6.619  0.00  0.00    -0.165 F 
ENDBRANCH  11  15
ENDBRANCH   7   9
ENDBRANCH   3   7
BRANCH   1  19
ATOM     19  N6  ZIN A   1      19.265  -0.029  15.166  0.00  0.00    -0.219 N 
ATOM     20  H43 ZIN A   1      19.384  -0.982  15.298  0.00  0.00     0.178 HD
BRANCH  19  21
ATOM     21  C5  ZIN A   1      19.099   0.855  16.322  0.00  0.00     0.175 C 
BRANCH  21  22
ATOM     22  C2  ZIN A   1      18.501   0.065  17.487  0.00  0.00     0.067 C 
ATOM     23  C1  ZIN A   1      17.524  -0.982  16.947  0.00  0.00     0.047 C 
ATOM     24  C3  ZIN A   1      17.759   1.020  18.424  0.00  0.00     0.047 C 
BRANCH  22  25
ATOM     25  O4  ZIN A   1      19.548  -0.589  18.206  0.00  0.00    -0.389 OA
ATOM     26  H40 ZIN A   1      19.270  -0.962  19.054  0.00  0.00     0.210 HD
ENDBRANCH  22  25
ENDBRANCH  21  22
ENDBRANCH  19  21
ENDBRANCH   1  19
BRANCH   5  27
ATOM     27  C23 ZIN A   1      17.894   3.415  12.143  0.00  0.00     0.106 A 
ATOM     28  N32 ZIN A   1      17.335   4.084  13.144  0.00  0.00    -0.240 NA
ATOM     29  C27 ZIN A   1      16.704   5.222  12.946  0.00  0.00     0.141 A 
ATOM     30  C26 ZIN A   1      16.590   5.761  11.676  0.00  0.00     0.036 A 
ATOM     31  C25 ZIN A   1      17.155   5.092  10.601  0.00  0.00     0.005 A 
ATOM     32  C24 ZIN A   1      17.818   3.899  10.840  0.00  0.00     0.036 A 
BRANCH  29  33
ATOM     33  C28 ZIN A   1      16.091   5.945  14.118  0.00  0.00     0.434 C 
ATOM     34  F29 ZIN A   1      16.549   5.372  15.310  0.00  0.00    -0.165 F 
ATOM     35  F30 ZIN A   1      16.458   7.294  14.078  0.00  0.00    -0.165 F 
ATOM     36  F31 ZIN A   1      14.697   5.837  14.054  0.00  0.00    -0.165 F 
ENDBRANCH  29  33
ENDBRANCH   5  27
TORSDOF 9
ENDMDL
MODEL 5
REMARK VINA RESULT:      -8.8      2.330      4.834
REMARK  9 active torsions:
REMARK  status: ('A' for Active; 'I' for Inactive)
REMARK    1  A    between atoms: C2_2  and  O4_4 
REMARK    2  A    between atoms: C2_2  and  C5_5 
REMARK    3  A    between atoms: C5_5  and  N6_6 
REMARK    4  A    between atoms: N6_6  and  C7_7 
REMARK    5  A    between atoms: C9_9  and  N10_10 
REMARK    6  A    between atoms: N10_10  and  C11_11 
REMARK    7  A    between atoms: C15_15  and  C16_16 
REMARK    8  A    between atoms: C22_22  and  C23_23 
REMARK    9  A    between atoms: C27_27  and  C28_28 
ROOT
ATOM      1  C7  ZIN A   1      18.526  -0.088   9.463  0.00  0.00     0.740 A 
ATOM      2  N8  ZIN A   1      19.241   0.419  10.461  0.00  0.00     0.130 NA
ATOM      3  C9  ZIN A   1      19.535  -0.332  11.517  0.00  0.00     0.745 A 
ATOM      4  N21 ZIN A   1      19.114  -1.591  11.575  0.00  0.00    -0.039 NA
ATOM      5  C22 ZIN A   1      18.399  -2.100  10.576  0.00  0.00     0.216 A 
ATOM      6  N33 ZIN A   1      18.101  -1.347   9.523  0.00  0.00    -0.040 NA
ENDROOT
BRANCH   3   7
ATOM      7  N10 ZIN A   1      20.279   0.196  12.555  0.00  0.00    -0.188 N 
ATOM      8  H44 ZIN A   1      21.239   0.299  12.460  0.00  0.00     0.184 HD
BRANCH   7   9
ATOM      9  C11 ZIN A   1      19.651   0.582  13.738  0.00  0.00     0.052 A 
ATOM     10  C20 ZIN A   1      19.487  -0.320  14.789  0.00  0.00     0.066 A 
ATOM     11  C15 ZIN A   1      18.864   0.104  15.944  0.00  0.00     0.142 A 
ATOM     12  N14 ZIN A   1      18.416   1.340  16.058  0.00  0.00    -0.256 NA
ATOM     13  C13 ZIN A   1      18.547   2.221  15.084  0.00  0.00     0.119 A 
ATOM     14  C12 ZIN A   1      19.164   1.879  13.899  0.00  0.00     0.049 A 
BRANCH  11  15
ATOM     15  C16 ZIN A   1      18.687  -0.860  17.089  0.00  0.00     0.434 C 
ATOM     16  F17 ZIN A   1      19.474  -1.996  16.870  0.00  0.00    -0.165 F 
ATOM     17  F18 ZIN A   1      19.080  -0.243  18.282  0.00  0.00    -0.165 F 
ATOM     18  F19 ZIN A   1      17.342  -1.234  17.180  0.00  0.00    -0.165 F 
ENDBRANCH  11  15
ENDBRANCH   7   9
ENDBRANCH   3   7
BRANCH   1  19
ATOM     19  N6  ZIN A   1      18.220   0.693   8.367  0.00  0.00    -0.219 N 
ATOM     20  H43 ZIN A   1      17.405   1.218   8.359  0.00  0.00     0.178 HD
BRANCH  19  21
ATOM     21  C5  ZIN A   1      19.125   0.727   7.216  0.00  0.00     0.175 C 
BRANCH  21  22
ATOM     22  C2  ZIN A   1      18.623  -0.240   6.143  0.00  0.00     0.067 C 
ATOM     23  C1  ZIN A   1      19.243   0.128   4.793  0.00  0.00     0.047 C 
ATOM     24  C3  ZIN A   1      17.099  -0.150   6.046  0.00  0.00     0.047 C 
BRANCH  22  25
ATOM     25  O4  ZIN A   1      19.001  -1.574   6.491  0.00  0.00    -0.389 OA
ATOM     26  H40 ZIN A   1      18.809  -2.228   5.805  0.00  0.00     0.210 HD
ENDBRANCH  22  25
ENDBRANCH  21  22
ENDBRANCH  19  21
ENDBRANCH   1  19
BRANCH   5  27
ATOM     27  C23 ZIN A   1      17.929  -3.506  10.641  0.00  0.00     0.106 A 
ATOM     28  N32 ZIN A   1      17.302  -4.038   9.599  0.00  0.00    -0.240 NA
ATOM     29  C27 ZIN A   1      16.874  -5.283   9.614  0.00  0.00     0.141 A 
ATOM     30  C26 ZIN A   1      17.053  -6.084  10.729  0.00  0.00     0.036 A 
ATOM     31  C25 ZIN A   1      17.699  -5.565  11.841  0.00  0.00     0.005 A 
ATOM     32  C24 ZIN A   1      18.144  -4.254  11.795  0.00  0.00     0.036 A 
BRANCH  29  33
ATOM     33  C28 ZIN A   1      16.173  -5.841   8.403  0.00  0.00     0.434 C 
ATOM     34  F29 ZIN A   1      16.291  -7.235   8.396  0.00  0.00    -0.165 F 
ATOM     35  F30 ZIN A   1      14.820  -5.488   8.442  0.00  0.00    -0.165 F 
ATOM     36  F31 ZIN A   1      16.758  -5.318   7.244  0.00  0.00    -0.165 F 
ENDBRANCH  29  33
ENDBRANCH   5  27
TORSDOF 9
ENDMDL
MODEL 6
REMARK VINA RESULT:      -8.7      4.521      7.417
REMARK  9 active torsions:
REMARK  status: ('A' for Active; 'I' for Inactive)
REMARK    1  A    between atoms: C2_2  and  O4_4 
REMARK    2  A    between atoms: C2_2  and  C5_5 
REMARK    3  A    between atoms: C5_5  and  N6_6 
REMARK    4  A    between atoms: N6_6  and  C7_7 
REMARK    5  A    between atoms: C9_9  and  N10_10 
REMARK    6  A    between atoms: N10_10  and  C11_11 
REMARK    7  A    between atoms: C15_15  and  C16_16 
REMARK    8  A    between atoms: C22_22  and  C23_23 
REMARK    9  A    between atoms: C27_27  and  C28_28 
ROOT
ATOM      1  C7  ZIN A   1      20.191  -1.636  11.755  0.00  0.00     0.740 A 
ATOM      2  N8  ZIN A   1      20.243  -0.564  10.972  0.00  0.00     0.130 NA
ATOM      3  C9  ZIN A   1      19.849   0.618  11.435  0.00  0.00     0.745 A 
ATOM      4  N21 ZIN A   1      19.404   0.728  12.682  0.00  0.00    -0.039 NA
ATOM      5  C22 ZIN A   1      19.352  -0.345  13.466  0.00  0.00     0.216 A 
ATOM      6  N33 ZIN A   1      19.741  -1.527  13.001  0.00  0.00    -0.040 NA
ENDROOT
BRANCH   3   7
ATOM      7  N10 ZIN A   1      19.904   1.733  10.620  0.00  0.00    -0.188 N 
ATOM      8  H44 ZIN A   1      20.464   1.727   9.828  0.00  0.00     0.184 HD
BRANCH   7   9
ATOM      9  C11 ZIN A   1      19.155   2.865  10.935  0.00  0.00     0.052 A 
ATOM     10  C20 ZIN A   1      19.337   3.528  12.148  0.00  0.00     0.066 A 
ATOM     11  C15 ZIN A   1      18.579   4.648  12.420  0.00  0.00     0.142 A 
ATOM     12  N14 ZIN A   1      17.684   5.086  11.554  0.00  0.00    -0.256 NA
ATOM     13  C13 ZIN A   1      17.479   4.483  10.399  0.00  0.00     0.119 A 
ATOM     14  C12 ZIN A   1      18.200   3.360  10.049  0.00  0.00     0.049 A 
BRANCH  11  15
ATOM     15  C16 ZIN A   1      18.770   5.377  13.725  0.00  0.00     0.434 C 
ATOM     16  F17 ZIN A   1      17.844   6.422  13.816  0.00  0.00    -0.165 F 
ATOM     17  F18 ZIN A   1      18.576   4.489  14.788  0.00  0.00    -0.165 F 
ATOM     18  F19 ZIN A   1      20.068   5.897  13.783  0.00  0.00    -0.165 F 
ENDBRANCH  11  15
ENDBRANCH   7   9
ENDBRANCH   3   7
BRANCH   1  19
ATOM     19  N6  ZIN A   1      20.598  -2.863  11.272  0.00  0.00    -0.219 N 
ATOM     20  H43 ZIN A   1      21.495  -2.972  10.920  0.00  0.00     0.178 HD
BRANCH  19  21
ATOM     21  C5  ZIN A   1      19.676  -4.001  11.291  0.00  0.00     0.175 C 
BRANCH  21  22
ATOM     22  C2  ZIN A   1      19.022  -4.150   9.916  0.00  0.00     0.067 C 
ATOM     23  C1  ZIN A   1      17.518  -3.891  10.036  0.00  0.00     0.047 C 
ATOM     24  C3  ZIN A   1      19.254  -5.568   9.391  0.00  0.00     0.047 C 
BRANCH  22  25
ATOM     25  O4  ZIN A   1      19.596  -3.207   9.011  0.00  0.00    -0.389 OA
ATOM     26  H40 ZIN A   1      20.547  -3.075   9.130  0.00  0.00     0.210 HD
ENDBRANCH  22  25
ENDBRANCH  21  22
ENDBRANCH  19  21
ENDBRANCH   1  19
BRANCH   5  27
ATOM     27  C23 ZIN A   1      18.854  -0.222  14.859  0.00  0.00     0.106 A 
ATOM     28  N32 ZIN A   1      19.116   0.876  15.556  0.00  0.00    -0.240 NA
ATOM     29  C27 ZIN A   1      18.689   1.027  16.793  0.00  0.00     0.141 A 
ATOM     30  C26 ZIN A   1      17.956   0.034  17.418  0.00  0.00     0.036 A 
ATOM     31  C25 ZIN A   1      17.665  -1.133  16.727  0.00  0.00     0.005 A 
ATOM     32  C24 ZIN A   1      18.122  -1.262  15.426  0.00  0.00     0.036 A 
BRANCH  29  33
ATOM     33  C28 ZIN A   1      19.009   2.297  17.539  0.00  0.00     0.434 C 
ATOM     34  F29 ZIN A   1      17.849   3.067  17.668  0.00  0.00    -0.165 F 
ATOM     35  F30 ZIN A   1      19.503   1.980  18.809  0.00  0.00    -0.165 F 
ATOM     36  F31 ZIN A   1      19.974   3.022  16.830  0.00  0.00    -0.165 F 
ENDBRANCH  29  33
ENDBRANCH   5  27
TORSDOF 9
ENDMDL
MODEL 7
REMARK VINA RESULT:      -8.5      3.698      6.352
REMARK  9 active torsions:
REMARK  status: ('A' for Active; 'I' for Inactive)
REMARK    1  A    between atoms: C2_2  and  O4_4 
REMARK    2  A    between atoms: C2_2  and  C5_5 
REMARK    3  A    between atoms: C5_5  and  N6_6 
REMARK    4  A    between atoms: N6_6  and  C7_7 
REMARK    5  A    between atoms: C9_9  and  N10_10 
REMARK    6  A    between atoms: N10_10  and  C11_11 
REMARK    7  A    between atoms: C15_15  and  C16_16 
REMARK    8  A    between atoms: C22_22  and  C23_23 
REMARK    9  A    between atoms: C27_27  and  C28_28 
ROOT
ATOM      1  C7  ZIN A   1      18.749  -1.602  13.279  0.00  0.00     0.740 A 
ATOM      2  N8  ZIN A   1      19.308  -0.511  12.768  0.00  0.00     0.130 NA
ATOM      3  C9  ZIN A   1      19.714  -0.502  11.503  0.00  0.00     0.745 A 
ATOM      4  N21 ZIN A   1      19.561  -1.585  10.748  0.00  0.00    -0.039 NA
ATOM      5  C22 ZIN A   1      19.002  -2.678  11.259  0.00  0.00     0.216 A 
ATOM      6  N33 ZIN A   1      18.600  -2.688  12.526  0.00  0.00    -0.040 NA
ENDROOT
BRANCH   3   7
ATOM      7  N10 ZIN A   1      20.295   0.634  10.971  0.00  0.00    -0.188 N 
ATOM      8  H44 ZIN A   1      21.184   0.589  10.586  0.00  0.00     0.184 HD
BRANCH   7   9
ATOM      9  C11 ZIN A   1      19.604   1.844  10.989  0.00  0.00     0.052 A 
ATOM     10  C20 ZIN A   1      19.672   2.690  12.095  0.00  0.00     0.066 A 
ATOM     11  C15 ZIN A   1      18.977   3.881  12.070  0.00  0.00     0.142 A 
ATOM     12  N14 ZIN A   1      18.247   4.218  11.024  0.00  0.00    -0.256 NA
ATOM     13  C13 ZIN A   1      18.153   3.442   9.961  0.00  0.00     0.119 A 
ATOM     14  C12 ZIN A   1      18.822   2.237   9.904  0.00  0.00     0.049 A 
BRANCH  11  15
ATOM     15  C16 ZIN A   1      19.046   4.808  13.257  0.00  0.00     0.434 C 
ATOM     16  F17 ZIN A   1      20.224   5.561  13.193  0.00  0.00    -0.165 F 
ATOM     17  F18 ZIN A   1      17.942   5.667  13.243  0.00  0.00    -0.165 F 
ATOM     18  F19 ZIN A   1      19.037   4.057  14.437  0.00  0.00    -0.165 F 
ENDBRANCH  11  15
ENDBRANCH   7   9
ENDBRANCH   3   7
BRANCH   1  19
ATOM     19  N6  ZIN A   1      18.329  -1.611  14.594  0.00  0.00    -0.219 N 
ATOM     20  H43 ZIN A   1      17.422  -1.877  14.811  0.00  0.00     0.178 HD
BRANCH  19  21
ATOM     21  C5  ZIN A   1      19.252  -1.217  15.661  0.00  0.00     0.175 C 
BRANCH  21  22
ATOM     22  C2  ZIN A   1      18.553  -0.236  16.603  0.00  0.00     0.067 C 
ATOM     23  C1  ZIN A   1      19.222  -0.284  17.979  0.00  0.00     0.047 C 
ATOM     24  C3  ZIN A   1      17.079  -0.620  16.740  0.00  0.00     0.047 C 
BRANCH  22  25
ATOM     25  O4  ZIN A   1      18.654   1.087  16.073  0.00  0.00    -0.389 OA
ATOM     26  H40 ZIN A   1      19.055   1.129  15.193  0.00  0.00     0.210 HD
ENDBRANCH  22  25
ENDBRANCH  21  22
ENDBRANCH  19  21
ENDBRANCH   1  19
BRANCH   5  27
ATOM     27  C23 ZIN A   1      18.831  -3.887  10.417  0.00  0.00     0.106 A 
ATOM     28  N32 ZIN A   1      19.529  -4.012   9.295  0.00  0.00    -0.240 NA
ATOM     29  C27 ZIN A   1      19.410  -5.071   8.522  0.00  0.00     0.141 A 
ATOM     30  C26 ZIN A   1      18.538  -6.095   8.848  0.00  0.00     0.036 A 
ATOM     31  C25 ZIN A   1      17.786  -6.003  10.009  0.00  0.00     0.005 A 
ATOM     32  C24 ZIN A   1      17.935  -4.880  10.806  0.00  0.00     0.036 A 
BRANCH  29  33
ATOM     33  C28 ZIN A   1      20.230  -5.165   7.261  0.00  0.00     0.434 C 
ATOM     34  F29 ZIN A   1      19.564  -5.969   6.331  0.00  0.00    -0.165 F 
ATOM     35  F30 ZIN A   1      20.412  -3.885   6.726  0.00  0.00    -0.165 F 
ATOM     36  F31 ZIN A   1      21.476  -5.729   7.558  0.00  0.00    -0.165 F 
ENDBRANCH  29  33
ENDBRANCH   5  27
TORSDOF 9
ENDMDL
MODEL 8
REMARK VINA RESULT:      -8.5      2.006      2.543
REMARK  9 active torsions:
REMARK  status: ('A' for Active; 'I' for Inactive)
REMARK    1  A    between atoms: C2_2  and  O4_4 
REMARK    2  A    between atoms: C2_2  and  C5_5 
REMARK    3  A    between atoms: C5_5  and  N6_6 
REMARK    4  A    between atoms: N6_6  and  C7_7 
REMARK    5  A    between atoms: C9_9  and  N10_10 
REMARK    6  A    between atoms: N10_10  and  C11_11 
REMARK    7  A    between atoms: C15_15  and  C16_16 
REMARK    8  A    between atoms: C22_22  and  C23_23 
REMARK    9  A    between atoms: C27_27  and  C28_28 
ROOT
ATOM      1  C7  ZIN A   1      19.256  -3.815  10.422  0.00  0.00     0.740 A 
ATOM      2  N8  ZIN A   1      19.518  -3.450  11.672  0.00  0.00     0.130 NA
ATOM      3  C9  ZIN A   1      19.678  -2.164  11.970  0.00  0.00     0.745 A 
ATOM      4  N21 ZIN A   1      19.576  -1.244  11.017  0.00  0.00    -0.039 NA
ATOM      5  C22 ZIN A   1      19.313  -1.609   9.766  0.00  0.00     0.216 A 
ATOM      6  N33 ZIN A   1      19.158  -2.894   9.468  0.00  0.00    -0.040 NA
ENDROOT
BRANCH   3   7
ATOM      7  N10 ZIN A   1      19.951  -1.785  13.271  0.00  0.00    -0.188 N 
ATOM      8  H44 ZIN A   1      20.641  -2.244  13.775  0.00  0.00     0.184 HD
BRANCH   7   9
ATOM      9  C11 ZIN A   1      19.236  -0.743  13.858  0.00  0.00     0.052 A 
ATOM     10  C20 ZIN A   1      19.372   0.567  13.399  0.00  0.00     0.066 A 
ATOM     11  C15 ZIN A   1      18.643   1.568  14.006  0.00  0.00     0.142 A 
ATOM     12  N14 ZIN A   1      17.833   1.301  15.013  0.00  0.00    -0.256 NA
ATOM     13  C13 ZIN A   1      17.680   0.076  15.479  0.00  0.00     0.119 A 
ATOM     14  C12 ZIN A   1      18.370  -0.982  14.924  0.00  0.00     0.049 A 
BRANCH  11  15
ATOM     15  C16 ZIN A   1      18.777   2.987  13.515  0.00  0.00     0.434 C 
ATOM     16  F17 ZIN A   1      19.230   3.801  14.559  0.00  0.00    -0.165 F 
ATOM     17  F18 ZIN A   1      19.694   3.030  12.459  0.00  0.00    -0.165 F 
ATOM     18  F19 ZIN A   1      17.533   3.447  13.071  0.00  0.00    -0.165 F 
ENDBRANCH  11  15
ENDBRANCH   7   9
ENDBRANCH   3   7
BRANCH   1  19
ATOM     19  N6  ZIN A   1      19.091  -5.150  10.114  0.00  0.00    -0.219 N 
ATOM     20  H43 ZIN A   1      19.259  -5.827  10.787  0.00  0.00     0.178 HD
BRANCH  19  21
ATOM     21  C5  ZIN A   1      18.664  -5.544   8.769  0.00  0.00     0.175 C 
BRANCH  21  22
ATOM     22  C2  ZIN A   1      17.173  -5.884   8.786  0.00  0.00     0.067 C 
ATOM     23  C1  ZIN A   1      16.643  -5.783  10.219  0.00  0.00     0.047 C 
ATOM     24  C3  ZIN A   1      16.967  -7.307   8.266  0.00  0.00     0.047 C 
BRANCH  22  25
ATOM     25  O4  ZIN A   1      16.466  -4.964   7.953  0.00  0.00    -0.389 OA
ATOM     26  H40 ZIN A   1      16.195  -4.152   8.403  0.00  0.00     0.210 HD
ENDBRANCH  22  25
ENDBRANCH  21  22
ENDBRANCH  19  21
ENDBRANCH   1  19
BRANCH   5  27
ATOM     27  C23 ZIN A   1      19.199  -0.581   8.702  0.00  0.00     0.106 A 
ATOM     28  N32 ZIN A   1      19.056  -0.956   7.437  0.00  0.00    -0.240 NA
ATOM     29  C27 ZIN A   1      18.946  -0.076   6.464  0.00  0.00     0.141 A 
ATOM     30  C26 ZIN A   1      18.987   1.282   6.725  0.00  0.00     0.036 A 
ATOM     31  C25 ZIN A   1      19.140   1.718   8.033  0.00  0.00     0.005 A 
ATOM     32  C24 ZIN A   1      19.247   0.770   9.037  0.00  0.00     0.036 A 
BRANCH  29  33
ATOM     33  C28 ZIN A   1      18.780  -0.556   5.045  0.00  0.00     0.434 C 
ATOM     34  F29 ZIN A   1      19.514  -1.733   4.862  0.00  0.00    -0.165 F 
ATOM     35  F30 ZIN A   1      17.428  -0.805   4.791  0.00  0.00    -0.165 F 
ATOM     36  F31 ZIN A   1      19.247   0.426   4.164  0.00  0.00    -0.165 F 
ENDBRANCH  29  33
ENDBRANCH   5  27
TORSDOF 9
ENDMDL
MODEL 9
REMARK VINA RESULT:      -8.4      2.377      5.033
REMARK  9 active torsions:
REMARK  status: ('A' for Active; 'I' for Inactive)
REMARK    1  A    between atoms: C2_2  and  O4_4 
REMARK    2  A    between atoms: C2_2  and  C5_5 
REMARK    3  A    between atoms: C5_5  and  N6_6 
REMARK    4  A    between atoms: N6_6  and  C7_7 
REMARK    5  A    between atoms: C9_9  and  N10_10 
REMARK    6  A    between atoms: N10_10  and  C11_11 
REMARK    7  A    between atoms: C15_15  and  C16_16 
REMARK    8  A    between atoms: C22_22  and  C23_23 
REMARK    9  A    between atoms: C27_27  and  C28_28 
ROOT
ATOM      1  C7  ZIN A   1      18.044  -0.842  10.006  0.00  0.00     0.740 A 
ATOM      2  N8  ZIN A   1      18.704  -0.800  11.159  0.00  0.00     0.130 NA
ATOM      3  C9  ZIN A   1      19.069  -1.930  11.757  0.00  0.00     0.745 A 
ATOM      4  N21 ZIN A   1      18.774  -3.101  11.203  0.00  0.00    -0.039 NA
ATOM      5  C22 ZIN A   1      18.113  -3.143  10.050  0.00  0.00     0.216 A 
ATOM      6  N33 ZIN A   1      17.745  -2.014   9.454  0.00  0.00    -0.040 NA
ENDROOT
BRANCH   3   7
ATOM      7  N10 ZIN A   1      19.756  -1.885  12.956  0.00  0.00    -0.188 N 
ATOM      8  H44 ZIN A   1      20.487  -2.501  13.119  0.00  0.00     0.184 HD
BRANCH   7   9
ATOM      9  C11 ZIN A   1      19.397  -0.956  13.931  0.00  0.00     0.052 A 
ATOM     10  C20 ZIN A   1      18.559  -1.313  14.986  0.00  0.00     0.066 A 
ATOM     11  C15 ZIN A   1      18.232  -0.365  15.932  0.00  0.00     0.142 A 
ATOM     12  N14 ZIN A   1      18.694   0.869  15.843  0.00  0.00    -0.256 NA
ATOM     13  C13 ZIN A   1      19.485   1.247  14.857  0.00  0.00     0.119 A 
ATOM     14  C12 ZIN A   1      19.863   0.357  13.873  0.00  0.00     0.049 A 
BRANCH  11  15
ATOM     15  C16 ZIN A   1      17.332  -0.740  17.082  0.00  0.00     0.434 C 
ATOM     16  F17 ZIN A   1      18.003  -0.524  18.291  0.00  0.00    -0.165 F 
ATOM     17  F18 ZIN A   1      16.176   0.047  17.044  0.00  0.00    -0.165 F 
ATOM     18  F19 ZIN A   1      16.980  -2.089  16.978  0.00  0.00    -0.165 F 
ENDBRANCH  11  15
ENDBRANCH   7   9
ENDBRANCH   3   7
BRANCH   1  19
ATOM     19  N6  ZIN A   1      17.665   0.330   9.386  0.00  0.00    -0.219 N 
ATOM     20  H43 ZIN A   1      17.484   0.338   8.433  0.00  0.00     0.178 HD
BRANCH  19  21
ATOM     21  C5  ZIN A   1      17.536   1.564  10.165  0.00  0.00     0.175 C 
BRANCH  21  22
ATOM     22  C2  ZIN A   1      18.673   2.520   9.798  0.00  0.00     0.067 C 
ATOM     23  C1  ZIN A   1      18.200   3.965   9.971  0.00  0.00     0.047 C 
ATOM     24  C3  ZIN A   1      19.084   2.289   8.343  0.00  0.00     0.047 C 
BRANCH  22  25
ATOM     25  O4  ZIN A   1      19.792   2.280  10.653  0.00  0.00    -0.389 OA
ATOM     26  H40 ZIN A   1      19.974   1.343  10.809  0.00  0.00     0.210 HD
ENDBRANCH  22  25
ENDBRANCH  21  22
ENDBRANCH  19  21
ENDBRANCH   1  19
BRANCH   5  27
ATOM     27  C23 ZIN A   1      17.784  -4.451   9.432  0.00  0.00     0.106 A 
ATOM     28  N32 ZIN A   1      17.785  -4.573   8.110  0.00  0.00    -0.240 NA
ATOM     29  C27 ZIN A   1      17.503  -5.716   7.522  0.00  0.00     0.141 A 
ATOM     30  C26 ZIN A   1      17.183  -6.839   8.265  0.00  0.00     0.036 A 
ATOM     31  C25 ZIN A   1      17.166  -6.754   9.649  0.00  0.00     0.005 A 
ATOM     32  C24 ZIN A   1      17.471  -5.540  10.241  0.00  0.00     0.036 A 
BRANCH  29  33
ATOM     33  C28 ZIN A   1      17.524  -5.802   6.017  0.00  0.00     0.434 C 
ATOM     34  F29 ZIN A   1      16.214  -5.734   5.529  0.00  0.00    -0.165 F 
ATOM     35  F30 ZIN A   1      18.271  -4.739   5.500  0.00  0.00    -0.165 F 
ATOM     36  F31 ZIN A   1      18.104  -7.014   5.628  0.00  0.00    -0.165 F 
ENDBRANCH  29  33
ENDBRANCH   5  27
TORSDOF 9
ENDMDL
