MODEL 1
REMARK VINA RESULT:      -8.1      0.000      0.000
REMARK  3 active torsions:
REMARK  status: ('A' for Active; 'I' for Inactive)
REMARK    1  A    between atoms: C4_4  and  C5_5 
REMARK    2  A    between atoms: C5_5  and  N6_6 
REMARK    3  A    between atoms: C14_14  and  O15_15 
ROOT
ATOM      1  N6  ZIN A   1      18.533  -1.069  12.632  0.00  0.00    -0.063 N 
ATOM      2  H7  ZIN A   1      18.240  -2.013  12.430  0.00  0.00     0.280 HD
ATOM      3  C8  ZIN A   1      17.380  -0.174  12.503  0.00  0.00     0.237 C 
ATOM      4  C9  ZIN A   1      16.844  -0.227  11.069  0.00  0.00     0.042 C 
ATOM      5  C10 ZIN A   1      17.965   0.265  10.134  0.00  0.00    -0.009 C 
ATOM      6  C11 ZIN A   1      17.472   0.328   8.686  0.00  0.00     0.021 C 
ATOM      7  C12 ZIN A   1      18.392   1.629  10.625  0.00  0.00    -0.040 A 
ATOM      8  C13 ZIN A   1      17.709   2.735  10.142  0.00  0.00     0.045 A 
ATOM      9  C14 ZIN A   1      18.049   4.009  10.568  0.00  0.00     0.066 A 
ATOM     10  C16 ZIN A   1      19.076   4.171  11.487  0.00  0.00     0.037 A 
ATOM     11  C17 ZIN A   1      19.755   3.069  11.960  0.00  0.00     0.010 A 
ATOM     12  C18 ZIN A   1      19.420   1.790  11.525  0.00  0.00    -0.049 A 
ATOM     13  C19 ZIN A   1      20.230   0.639  12.057  0.00  0.00     0.072 C 
ATOM     14  C20 ZIN A   1      19.606  -0.700  11.718  0.00  0.00     0.197 C 
ATOM     15  C22 ZIN A   1      19.141  -0.709  10.263  0.00  0.00     0.025 C 
ATOM     16  C24 ZIN A   1      20.285  -0.265   9.351  0.00  0.00     0.013 C 
ENDROOT
BRANCH   1  17
ATOM     17  C5  ZIN A   1      19.036  -1.007  14.010  0.00  0.00     0.263 C 
BRANCH  17  18
ATOM     18  C4  ZIN A   1      17.958  -0.471  14.915  0.00  0.00     0.003 C 
ATOM     19  C2  ZIN A   1      17.992  -0.727  16.199  0.00  0.00    -0.090 C 
ATOM     20  C1  ZIN A   1      19.109  -1.561  16.771  0.00  0.00     0.042 C 
ATOM     21  C3  ZIN A   1      16.912  -0.190  17.103  0.00  0.00     0.042 C 
ENDBRANCH  17  18
ENDBRANCH   1  17
BRANCH   9  22
ATOM     22  O15 ZIN A   1      17.380   5.091  10.092  0.00  0.00    -0.361 OA
ATOM     23  H42 ZIN A   1      17.918   5.672   9.536  0.00  0.00     0.217 HD
ENDBRANCH   9  22
TORSDOF 3
ENDMDL
MODEL 2
REMARK VINA RESULT:      -7.7      1.899      5.327
REMARK  3 active torsions:
REMARK  status: ('A' for Active; 'I' for Inactive)
REMARK    1  A    between atoms: C4_4  and  C5_5 
REMARK    2  A    between atoms: C5_5  and  N6_6 
REMARK    3  A    between atoms: C14_14  and  O15_15 
ROOT
ATOM      1  N6  ZIN A   1      18.888  -1.445   9.733  0.00  0.00    -0.063 N 
ATOM      2  H7  ZIN A   1      19.244  -2.372   9.914  0.00  0.00     0.280 HD
ATOM      3  C8  ZIN A   1      20.004  -0.497   9.726  0.00  0.00     0.237 C 
ATOM      4  C9  ZIN A   1      20.690  -0.500  11.096  0.00  0.00     0.042 C 
ATOM      5  C10 ZIN A   1      19.653  -0.043  12.138  0.00  0.00    -0.009 C 
ATOM      6  C11 ZIN A   1      20.292   0.068  13.525  0.00  0.00     0.021 C 
ATOM      7  C12 ZIN A   1      19.113   1.291  11.678  0.00  0.00    -0.040 A 
ATOM      8  C13 ZIN A   1      19.790   2.435  12.072  0.00  0.00     0.045 A 
ATOM      9  C14 ZIN A   1      19.347   3.685  11.668  0.00  0.00     0.066 A 
ATOM     10  C16 ZIN A   1      18.222   3.783  10.862  0.00  0.00     0.037 A 
ATOM     11  C17 ZIN A   1      17.550   2.643  10.477  0.00  0.00     0.010 A 
ATOM     12  C18 ZIN A   1      17.989   1.389  10.890  0.00  0.00    -0.049 A 
ATOM     13  C19 ZIN A   1      17.182   0.194  10.462  0.00  0.00     0.072 C 
ATOM     14  C20 ZIN A   1      17.901  -1.110  10.750  0.00  0.00     0.197 C 
ATOM     15  C22 ZIN A   1      18.517  -1.072  12.148  0.00  0.00     0.025 C 
ATOM     16  C24 ZIN A   1      17.456  -0.665  13.170  0.00  0.00     0.013 C 
ENDROOT
BRANCH   1  17
ATOM     17  C5  ZIN A   1      18.240  -1.431   8.414  0.00  0.00     0.263 C 
BRANCH  17  18
ATOM     18  C4  ZIN A   1      19.074  -0.625   7.453  0.00  0.00     0.003 C 
ATOM     19  C2  ZIN A   1      18.498   0.036   6.481  0.00  0.00    -0.090 C 
ATOM     20  C1  ZIN A   1      17.000  -0.010   6.322  0.00  0.00     0.042 C 
ATOM     21  C3  ZIN A   1      19.333   0.842   5.520  0.00  0.00     0.042 C 
ENDBRANCH  17  18
ENDBRANCH   1  17
BRANCH   9  22
ATOM     22  O15 ZIN A   1      20.010   4.804  12.057  0.00  0.00    -0.361 OA
ATOM     23  H42 ZIN A   1      20.838   4.629  12.525  0.00  0.00     0.217 HD
ENDBRANCH   9  22
TORSDOF 3
ENDMDL
MODEL 3
REMARK VINA RESULT:      -7.7      2.454      5.198
REMARK  3 active torsions:
REMARK  status: ('A' for Active; 'I' for Inactive)
REMARK    1  A    between atoms: C4_4  and  C5_5 
REMARK    2  A    between atoms: C5_5  and  N6_6 
REMARK    3  A    between atoms: C14_14  and  O15_15 
ROOT
ATOM      1  N6  ZIN A   1      19.231   0.630  10.021  0.00  0.00    -0.063 N 
ATOM      2  H7  ZIN A   1      19.675   0.370   9.153  0.00  0.00     0.280 HD
ATOM      3  C8  ZIN A   1      20.219   0.565  11.101  0.00  0.00     0.237 C 
ATOM      4  C9  ZIN A   1      20.748  -0.867  11.228  0.00  0.00     0.042 C 
ATOM      5  C10 ZIN A   1      19.557  -1.775  11.587  0.00  0.00    -0.009 C 
ATOM      6  C11 ZIN A   1      20.025  -3.213  11.822  0.00  0.00     0.021 C 
ATOM      7  C12 ZIN A   1      18.913  -1.200  12.827  0.00  0.00    -0.040 A 
ATOM      8  C13 ZIN A   1      19.401  -1.608  14.059  0.00  0.00     0.045 A 
ATOM      9  C14 ZIN A   1      18.857  -1.103  15.229  0.00  0.00     0.066 A 
ATOM     10  C16 ZIN A   1      17.822  -0.182  15.160  0.00  0.00     0.037 A 
ATOM     11  C17 ZIN A   1      17.338   0.217  13.934  0.00  0.00     0.010 A 
ATOM     12  C18 ZIN A   1      17.877  -0.297  12.758  0.00  0.00    -0.049 A 
ATOM     13  C19 ZIN A   1      17.271   0.157  11.458  0.00  0.00     0.072 C 
ATOM     14  C20 ZIN A   1      18.107  -0.264  10.264  0.00  0.00     0.197 C 
ATOM     15  C22 ZIN A   1      18.559  -1.714  10.425  0.00  0.00     0.025 C 
ATOM     16  C24 ZIN A   1      17.352  -2.602  10.730  0.00  0.00     0.013 C 
ENDROOT
BRANCH   1  17
ATOM     17  C5  ZIN A   1      18.732   2.007   9.910  0.00  0.00     0.263 C 
BRANCH  17  18
ATOM     18  C4  ZIN A   1      19.465   2.887  10.889  0.00  0.00     0.003 C 
ATOM     19  C2  ZIN A   1      18.822   3.831  11.530  0.00  0.00    -0.090 C 
ATOM     20  C1  ZIN A   1      17.349   4.039  11.287  0.00  0.00     0.042 C 
ATOM     21  C3  ZIN A   1      19.556   4.711  12.509  0.00  0.00     0.042 C 
ENDBRANCH  17  18
ENDBRANCH   1  17
BRANCH   9  22
ATOM     22  O15 ZIN A   1      19.335  -1.507  16.435  0.00  0.00    -0.361 OA
ATOM     23  H42 ZIN A   1      19.167  -2.438  16.634  0.00  0.00     0.217 HD
ENDBRANCH   9  22
TORSDOF 3
ENDMDL
MODEL 4
REMARK VINA RESULT:      -7.5      2.196      4.207
REMARK  3 active torsions:
REMARK  status: ('A' for Active; 'I' for Inactive)
REMARK    1  A    between atoms: C4_4  and  C5_5 
REMARK    2  A    between atoms: C5_5  and  N6_6 
REMARK    3  A    between atoms: C14_14  and  O15_15 
ROOT
ATOM      1  N6  ZIN A   1      19.187  -0.683  13.075  0.00  0.00    -0.063 N 
ATOM      2  H7  ZIN A   1      19.655  -0.458  13.940  0.00  0.00     0.280 HD
ATOM      3  C8  ZIN A   1      20.158  -0.630  11.979  0.00  0.00     0.237 C 
ATOM      4  C9  ZIN A   1      20.736   0.784  11.871  0.00  0.00     0.042 C 
ATOM      5  C10 ZIN A   1      19.573   1.741  11.553  0.00  0.00    -0.009 C 
ATOM      6  C11 ZIN A   1      20.088   3.166  11.339  0.00  0.00     0.021 C 
ATOM      7  C12 ZIN A   1      18.886   1.216  10.313  0.00  0.00    -0.040 A 
ATOM      8  C13 ZIN A   1      19.367   1.632   9.081  0.00  0.00     0.045 A 
ATOM      9  C14 ZIN A   1      18.785   1.172   7.911  0.00  0.00     0.066 A 
ATOM     10  C16 ZIN A   1      17.718   0.287   7.980  0.00  0.00     0.037 A 
ATOM     11  C17 ZIN A   1      17.242  -0.120   9.207  0.00  0.00     0.010 A 
ATOM     12  C18 ZIN A   1      17.820   0.349  10.383  0.00  0.00    -0.049 A 
ATOM     13  C19 ZIN A   1      17.221  -0.109  11.685  0.00  0.00     0.072 C 
ATOM     14  C20 ZIN A   1      18.092   0.256  12.871  0.00  0.00     0.197 C 
ATOM     15  C22 ZIN A   1      18.594   1.692  12.731  0.00  0.00     0.025 C 
ATOM     16  C24 ZIN A   1      17.415   2.628  12.466  0.00  0.00     0.013 C 
ENDROOT
BRANCH   1  17
ATOM     17  C5  ZIN A   1      18.641  -2.043  13.167  0.00  0.00     0.263 C 
BRANCH  17  18
ATOM     18  C4  ZIN A   1      19.416  -2.958  12.254  0.00  0.00     0.003 C 
ATOM     19  C2  ZIN A   1      18.780  -3.782  11.459  0.00  0.00    -0.090 C 
ATOM     20  C1  ZIN A   1      17.273  -3.817  11.458  0.00  0.00     0.042 C 
ATOM     21  C3  ZIN A   1      19.556  -4.697  10.546  0.00  0.00     0.042 C 
ENDBRANCH  17  18
ENDBRANCH   1  17
BRANCH   9  22
ATOM     22  O15 ZIN A   1      19.255   1.584   6.705  0.00  0.00    -0.361 OA
ATOM     23  H42 ZIN A   1      19.956   2.247   6.761  0.00  0.00     0.217 HD
ENDBRANCH   9  22
TORSDOF 3
ENDMDL
MODEL 5
REMARK VINA RESULT:      -7.5      2.421      5.806
REMARK  3 active torsions:
REMARK  status: ('A' for Active; 'I' for Inactive)
REMARK    1  A    between atoms: C4_4  and  C5_5 
REMARK    2  A    between atoms: C5_5  and  N6_6 
REMARK    3  A    between atoms: C14_14  and  O15_15 
ROOT
ATOM      1  N6  ZIN A   1      19.248  -0.947   8.898  0.00  0.00    -0.063 N 
ATOM      2  H7  ZIN A   1      19.467  -1.931   8.938  0.00  0.00     0.280 HD
ATOM      3  C8  ZIN A   1      20.373  -0.186   9.447  0.00  0.00     0.237 C 
ATOM      4  C9  ZIN A   1      20.598  -0.580  10.910  0.00  0.00     0.042 C 
ATOM      5  C10 ZIN A   1      19.322  -0.219  11.692  0.00  0.00    -0.009 C 
ATOM      6  C11 ZIN A   1      19.504  -0.501  13.185  0.00  0.00     0.021 C 
ATOM      7  C12 ZIN A   1      19.044   1.246  11.443  0.00  0.00    -0.040 A 
ATOM      8  C13 ZIN A   1      19.641   2.171  12.285  0.00  0.00     0.045 A 
ATOM      9  C14 ZIN A   1      19.432   3.528  12.094  0.00  0.00     0.066 A 
ATOM     10  C16 ZIN A   1      18.622   3.955  11.051  0.00  0.00     0.037 A 
ATOM     11  C17 ZIN A   1      18.028   3.031  10.221  0.00  0.00     0.010 A 
ATOM     12  C18 ZIN A   1      18.229   1.668  10.417  0.00  0.00    -0.049 A 
ATOM     13  C19 ZIN A   1      17.516   0.718   9.493  0.00  0.00     0.072 C 
ATOM     14  C20 ZIN A   1      18.019  -0.705   9.642  0.00  0.00     0.197 C 
ATOM     15  C22 ZIN A   1      18.172  -1.056  11.121  0.00  0.00     0.025 C 
ATOM     16  C24 ZIN A   1      16.876  -0.734  11.865  0.00  0.00     0.013 C 
ENDROOT
BRANCH   1  17
ATOM     17  C5  ZIN A   1      19.045  -0.558   7.497  0.00  0.00     0.263 C 
BRANCH  17  18
ATOM     18  C4  ZIN A   1      18.937  -1.795   6.643  0.00  0.00     0.003 C 
ATOM     19  C2  ZIN A   1      19.025  -1.701   5.340  0.00  0.00    -0.090 C 
ATOM     20  C1  ZIN A   1      19.232  -0.356   4.693  0.00  0.00     0.042 C 
ATOM     21  C3  ZIN A   1      18.917  -2.939   4.487  0.00  0.00     0.042 C 
ENDBRANCH  17  18
ENDBRANCH   1  17
BRANCH   9  22
ATOM     22  O15 ZIN A   1      20.016   4.432  12.922  0.00  0.00    -0.361 OA
ATOM     23  H42 ZIN A   1      19.392   5.033  13.352  0.00  0.00     0.217 HD
ENDBRANCH   9  22
TORSDOF 3
ENDMDL
MODEL 6
REMARK VINA RESULT:      -7.5      3.117      5.124
REMARK  3 active torsions:
REMARK  status: ('A' for Active; 'I' for Inactive)
REMARK    1  A    between atoms: C4_4  and  C5_5 
REMARK    2  A    between atoms: C5_5  and  N6_6 
REMARK    3  A    between atoms: C14_14  and  O15_15 
ROOT
ATOM      1  N6  ZIN A   1      18.638  -2.161  11.192  0.00  0.00    -0.063 N 
ATOM      2  H7  ZIN A   1      18.556  -1.935  10.212  0.00  0.00     0.280 HD
ATOM      3  C8  ZIN A   1      17.351  -1.919  11.848  0.00  0.00     0.237 C 
ATOM      4  C9  ZIN A   1      16.976  -0.440  11.714  0.00  0.00     0.042 C 
ATOM      5  C10 ZIN A   1      18.063   0.384  12.429  0.00  0.00    -0.009 C 
ATOM      6  C11 ZIN A   1      17.709   1.873  12.418  0.00  0.00     0.021 C 
ATOM      7  C12 ZIN A   1      18.166  -0.142  13.842  0.00  0.00    -0.040 A 
ATOM      8  C13 ZIN A   1      17.331   0.409  14.801  0.00  0.00     0.045 A 
ATOM      9  C14 ZIN A   1      17.373  -0.044  16.110  0.00  0.00     0.066 A 
ATOM     10  C16 ZIN A   1      18.256  -1.058  16.455  0.00  0.00     0.037 A 
ATOM     11  C17 ZIN A   1      19.088  -1.598  15.498  0.00  0.00     0.010 A 
ATOM     12  C18 ZIN A   1      19.053  -1.137  14.186  0.00  0.00    -0.049 A 
ATOM     13  C19 ZIN A   1      20.017  -1.749  13.206  0.00  0.00     0.072 C 
ATOM     14  C20 ZIN A   1      19.701  -1.355  11.776  0.00  0.00     0.197 C 
ATOM     15  C22 ZIN A   1      19.389   0.138  11.700  0.00  0.00     0.025 C 
ATOM     16  C24 ZIN A   1      20.506   0.936  12.372  0.00  0.00     0.013 C 
ENDROOT
BRANCH   1  17
ATOM     17  C5  ZIN A   1      18.985  -3.582  11.328  0.00  0.00     0.263 C 
BRANCH  17  18
ATOM     18  C4  ZIN A   1      18.260  -4.379  10.275  0.00  0.00     0.003 C 
ATOM     19  C2  ZIN A   1      17.522  -5.404  10.622  0.00  0.00    -0.090 C 
ATOM     20  C1  ZIN A   1      17.398  -5.787  12.074  0.00  0.00     0.042 C 
ATOM     21  C3  ZIN A   1      16.797  -6.201   9.568  0.00  0.00     0.042 C 
ENDBRANCH  17  18
ENDBRANCH   1  17
BRANCH   9  22
ATOM     22  O15 ZIN A   1      16.555   0.499  17.049  0.00  0.00    -0.361 OA
ATOM     23  H42 ZIN A   1      17.017   0.817  17.837  0.00  0.00     0.217 HD
ENDBRANCH   9  22
TORSDOF 3
ENDMDL
MODEL 7
REMARK VINA RESULT:      -7.3      2.733      4.456
REMARK  3 active torsions:
REMARK  status: ('A' for Active; 'I' for Inactive)
REMARK    1  A    between atoms: C4_4  and  C5_5 
REMARK    2  A    between atoms: C5_5  and  N6_6 
REMARK    3  A    between atoms: C14_14  and  O15_15 
ROOT
ATOM      1  N6  ZIN A   1      18.697   1.126  13.181  0.00  0.00    -0.063 N 
ATOM      2  H7  ZIN A   1      19.004   2.082  13.079  0.00  0.00     0.280 HD
ATOM      3  C8  ZIN A   1      19.854   0.237  13.050  0.00  0.00     0.237 C 
ATOM      4  C9  ZIN A   1      20.480   0.407  11.662  0.00  0.00     0.042 C 
ATOM      5  C10 ZIN A   1      19.421   0.004  10.620  0.00  0.00    -0.009 C 
ATOM      6  C11 ZIN A   1      20.004   0.061   9.206  0.00  0.00     0.021 C 
ATOM      7  C12 ZIN A   1      18.961  -1.393  10.966  0.00  0.00    -0.040 A 
ATOM      8  C13 ZIN A   1      19.672  -2.459  10.435  0.00  0.00     0.045 A 
ATOM      9  C14 ZIN A   1      19.303  -3.762  10.729  0.00  0.00     0.066 A 
ATOM     10  C16 ZIN A   1      18.219  -3.994  11.564  0.00  0.00     0.037 A 
ATOM     11  C17 ZIN A   1      17.514  -2.931  12.085  0.00  0.00     0.010 A 
ATOM     12  C18 ZIN A   1      17.877  -1.623  11.782  0.00  0.00    -0.049 A 
ATOM     13  C19 ZIN A   1      17.037  -0.515  12.358  0.00  0.00     0.072 C 
ATOM     14  C20 ZIN A   1      17.684   0.844  12.174  0.00  0.00     0.197 C 
ATOM     15  C22 ZIN A   1      18.241   0.973  10.757  0.00  0.00     0.025 C 
ATOM     16  C24 ZIN A   1      17.156   0.616   9.741  0.00  0.00     0.013 C 
ENDROOT
BRANCH   1  17
ATOM     17  C5  ZIN A   1      18.108   0.952  14.515  0.00  0.00     0.263 C 
BRANCH  17  18
ATOM     18  C4  ZIN A   1      18.943  -0.017  15.311  0.00  0.00     0.003 C 
ATOM     19  C2  ZIN A   1      18.414  -0.663  16.319  0.00  0.00    -0.090 C 
ATOM     20  C1  ZIN A   1      16.970  -0.437  16.686  0.00  0.00     0.042 C 
ATOM     21  C3  ZIN A   1      19.251  -1.632  17.115  0.00  0.00     0.042 C 
ENDBRANCH  17  18
ENDBRANCH   1  17
BRANCH   9  22
ATOM     22  O15 ZIN A   1      19.998  -4.804  10.205  0.00  0.00    -0.361 OA
ATOM     23  H42 ZIN A   1      20.694  -4.543   9.587  0.00  0.00     0.217 HD
ENDBRANCH   9  22
TORSDOF 3
ENDMDL
MODEL 8
REMARK VINA RESULT:      -7.2      2.659      4.196
REMARK  3 active torsions:
REMARK  status: ('A' for Active; 'I' for Inactive)
REMARK    1  A    between atoms: C4_4  and  C5_5 
REMARK    2  A    between atoms: C5_5  and  N6_6 
REMARK    3  A    between atoms: C14_14  and  O15_15 
ROOT
ATOM      1  N6  ZIN A   1      18.348   0.812  13.000  0.00  0.00    -0.063 N 
ATOM      2  H7  ZIN A   1      18.147   0.385  13.892  0.00  0.00     0.280 HD
ATOM      3  C8  ZIN A   1      17.152   0.740  12.157  0.00  0.00     0.237 C 
ATOM      4  C9  ZIN A   1      16.772  -0.726  11.926  0.00  0.00     0.042 C 
ATOM      5  C10 ZIN A   1      17.943  -1.401  11.190  0.00  0.00    -0.009 C 
ATOM      6  C11 ZIN A   1      17.599  -2.851  10.841  0.00  0.00     0.021 C 
ATOM      7  C12 ZIN A   1      18.216  -0.590   9.944  0.00  0.00    -0.040 A 
ATOM      8  C13 ZIN A   1      17.508  -0.908   8.796  0.00  0.00     0.045 A 
ATOM      9  C14 ZIN A   1      17.708  -0.188   7.628  0.00  0.00     0.066 A 
ATOM     10  C16 ZIN A   1      18.621   0.857   7.617  0.00  0.00     0.037 A 
ATOM     11  C17 ZIN A   1      19.325   1.165   8.760  0.00  0.00     0.010 A 
ATOM     12  C18 ZIN A   1      19.132   0.437   9.930  0.00  0.00    -0.049 A 
ATOM     13  C19 ZIN A   1      19.965   0.808  11.127  0.00  0.00     0.072 C 
ATOM     14  C20 ZIN A   1      19.479   0.127  12.391  0.00  0.00     0.197 C 
ATOM     15  C22 ZIN A   1      19.168  -1.342  12.109  0.00  0.00     0.025 C 
ATOM     16  C24 ZIN A   1      20.365  -2.002  11.423  0.00  0.00     0.013 C 
ENDROOT
BRANCH   1  17
ATOM     17  C5  ZIN A   1      18.700   2.222  13.213  0.00  0.00     0.263 C 
BRANCH  17  18
ATOM     18  C4  ZIN A   1      17.754   3.099  12.434  0.00  0.00     0.003 C 
ATOM     19  C2  ZIN A   1      18.160   4.258  11.978  0.00  0.00    -0.090 C 
ATOM     20  C1  ZIN A   1      19.573   4.715  12.234  0.00  0.00     0.042 C 
ATOM     21  C3  ZIN A   1      17.213   5.134  11.200  0.00  0.00     0.042 C 
ENDBRANCH  17  18
ENDBRANCH   1  17
BRANCH   9  22
ATOM     22  O15 ZIN A   1      17.015  -0.504   6.503  0.00  0.00    -0.361 OA
ATOM     23  H42 ZIN A   1      17.478  -1.113   5.913  0.00  0.00     0.217 HD
ENDBRANCH   9  22
TORSDOF 3
ENDMDL
MODEL 9
REMARK VINA RESULT:      -7.1      3.153      6.480
REMARK  3 active torsions:
REMARK  status: ('A' for Active; 'I' for Inactive)
REMARK    1  A    between atoms: C4_4  and  C5_5 
REMARK    2  A    between atoms: C5_5  and  N6_6 
REMARK    3  A    between atoms: C14_14  and  O15_15 
ROOT
ATOM      1  N6  ZIN A   1      18.466   1.077   9.696  0.00  0.00    -0.063 N 
ATOM      2  H7  ZIN A   1      18.149   2.013   9.897  0.00  0.00     0.280 HD
ATOM      3  C8  ZIN A   1      17.340   0.150   9.835  0.00  0.00     0.237 C 
ATOM      4  C9  ZIN A   1      16.813   0.192  11.272  0.00  0.00     0.042 C 
ATOM      5  C10 ZIN A   1      17.953  -0.266  12.201  0.00  0.00    -0.009 C 
ATOM      6  C11 ZIN A   1      17.473  -0.338  13.652  0.00  0.00     0.021 C 
ATOM      7  C12 ZIN A   1      18.414  -1.619  11.710  0.00  0.00    -0.040 A 
ATOM      8  C13 ZIN A   1      17.766  -2.741  12.200  0.00  0.00     0.045 A 
ATOM      9  C14 ZIN A   1      18.138  -4.007  11.775  0.00  0.00     0.066 A 
ATOM     10  C16 ZIN A   1      19.163  -4.142  10.849  0.00  0.00     0.037 A 
ATOM     11  C17 ZIN A   1      19.807  -3.023  10.369  0.00  0.00     0.010 A 
ATOM     12  C18 ZIN A   1      19.440  -1.753  10.803  0.00  0.00    -0.049 A 
ATOM     13  C19 ZIN A   1      20.214  -0.582  10.262  0.00  0.00     0.072 C 
ATOM     14  C20 ZIN A   1      19.555   0.741  10.603  0.00  0.00     0.197 C 
ATOM     15  C22 ZIN A   1      19.100   0.741  12.061  0.00  0.00     0.025 C 
ATOM     16  C24 ZIN A   1      20.263   0.331  12.965  0.00  0.00     0.013 C 
ENDROOT
BRANCH   1  17
ATOM     17  C5  ZIN A   1      18.961   1.026   8.314  0.00  0.00     0.263 C 
BRANCH  17  18
ATOM     18  C4  ZIN A   1      18.078   0.118   7.498  0.00  0.00     0.003 C 
ATOM     19  C2  ZIN A   1      18.269   0.006   6.207  0.00  0.00    -0.090 C 
ATOM     20  C1  ZIN A   1      19.371   0.786   5.537  0.00  0.00     0.042 C 
ATOM     21  C3  ZIN A   1      17.386  -0.902   5.391  0.00  0.00     0.042 C 
ENDBRANCH  17  18
ENDBRANCH   1  17
BRANCH   9  22
ATOM     22  O15 ZIN A   1      17.503  -5.105  12.259  0.00  0.00    -0.361 OA
ATOM     23  H42 ZIN A   1      16.687  -5.327  11.791  0.00  0.00     0.217 HD
ENDBRANCH   9  22
TORSDOF 3
ENDMDL
