MODEL 1
REMARK VINA RESULT:      -8.3      0.000      0.000
REMARK  5 active torsions:
REMARK  status: ('A' for Active; 'I' for Inactive)
REMARK    1  A    between atoms: C3_3  and  C4_4 
REMARK    2  A    between atoms: C4_4  and  C5_5 
REMARK    3  A    between atoms: C15_15  and  C16_16 
REMARK    4  A    between atoms: C16_16  and  C17_17 
REMARK    5  A    between atoms: C20_20  and  S21_21 
ROOT
ATOM      1  C1  ZIN A   1      18.685   1.345   6.205  0.00  0.00     0.049 C 
ATOM      2  C2  ZIN A   1      18.876   0.473   7.419  0.00  0.00    -0.043 A 
ATOM      3  C3  ZIN A   1      18.647  -0.852   7.476  0.00  0.00    -0.030 A 
ATOM      4  C8  ZIN A   1      18.946  -1.352   8.822  0.00  0.00    -0.015 A 
ATOM      5  C9  ZIN A   1      18.876  -2.624   9.394  0.00  0.00     0.055 A 
ATOM      6  C10 ZIN A   1      19.228  -2.801  10.719  0.00  0.00     0.117 A 
ATOM      7  F11 ZIN A   1      19.160  -4.033  11.270  0.00  0.00    -0.206 F 
ATOM      8  C12 ZIN A   1      19.651  -1.726  11.487  0.00  0.00     0.043 A 
ATOM      9  C13 ZIN A   1      19.725  -0.461  10.938  0.00  0.00     0.016 A 
ATOM     10  C14 ZIN A   1      19.377  -0.262   9.608  0.00  0.00    -0.014 A 
ATOM     11  C15 ZIN A   1      19.348   0.928   8.733  0.00  0.00    -0.018 A 
ENDROOT
BRANCH  11  12
ATOM     12  C16 ZIN A   1      19.692   2.203   9.079  0.00  0.00     0.024 C 
BRANCH  12  13
ATOM     13  C17 ZIN A   1      19.127   2.813  10.288  0.00  0.00    -0.035 A 
ATOM     14  C25 ZIN A   1      17.758   3.099  10.358  0.00  0.00     0.013 A 
ATOM     15  C24 ZIN A   1      17.234   3.666  11.499  0.00  0.00     0.022 A 
ATOM     16  C20 ZIN A   1      18.059   3.965  12.571  0.00  0.00     0.031 A 
ATOM     17  C19 ZIN A   1      19.414   3.691  12.507  0.00  0.00     0.022 A 
ATOM     18  C18 ZIN A   1      19.954   3.118  11.376  0.00  0.00     0.013 A 
BRANCH  16  19
ATOM     19  S21 ZIN A   1      17.380   4.698  14.022  0.00  0.00     0.045 S 
ATOM     20  C22 ZIN A   1      16.615   6.218  13.391  0.00  0.00     0.133 C 
ATOM     21  O23 ZIN A   1      18.533   5.030  14.782  0.00  0.00    -0.253 OA
ENDBRANCH  16  19
ENDBRANCH  12  13
ENDBRANCH  11  12
BRANCH   3  22
ATOM     22  C4  ZIN A   1      18.158  -1.696   6.328  0.00  0.00     0.153 C 
BRANCH  22  23
ATOM     23  C5  ZIN A   1      19.336  -2.195   5.532  0.00  0.00     0.177 C 
ATOM     24  O6  ZIN A   1      19.629  -1.659   4.477  0.00  0.00    -0.648 OA
ATOM     25  O7  ZIN A   1      19.996  -3.134   5.942  0.00  0.00    -0.648 OA
ENDBRANCH  22  23
ENDBRANCH   3  22
TORSDOF 5
ENDMDL
MODEL 2
REMARK VINA RESULT:      -8.2      4.159      8.786
REMARK  5 active torsions:
REMARK  status: ('A' for Active; 'I' for Inactive)
REMARK    1  A    between atoms: C3_3  and  C4_4 
REMARK    2  A    between atoms: C4_4  and  C5_5 
REMARK    3  A    between atoms: C15_15  and  C16_16 
REMARK    4  A    between atoms: C16_16  and  C17_17 
REMARK    5  A    between atoms: C20_20  and  S21_21 
ROOT
ATOM      1  C1  ZIN A   1      18.977  -1.570  16.478  0.00  0.00     0.049 C 
ATOM      2  C2  ZIN A   1      19.106  -0.521  15.404  0.00  0.00    -0.043 A 
ATOM      3  C3  ZIN A   1      18.757   0.772  15.526  0.00  0.00    -0.030 A 
ATOM      4  C8  ZIN A   1      19.031   1.484  14.273  0.00  0.00    -0.015 A 
ATOM      5  C9  ZIN A   1      18.854   2.813  13.883  0.00  0.00     0.055 A 
ATOM      6  C10 ZIN A   1      19.210   3.208  12.607  0.00  0.00     0.117 A 
ATOM      7  F11 ZIN A   1      19.037   4.494  12.232  0.00  0.00    -0.206 F 
ATOM      8  C12 ZIN A   1      19.743   2.294  11.709  0.00  0.00     0.043 A 
ATOM      9  C13 ZIN A   1      19.925   0.976  12.077  0.00  0.00     0.016 A 
ATOM     10  C14 ZIN A   1      19.574   0.560  13.355  0.00  0.00    -0.014 A 
ATOM     11  C15 ZIN A   1      19.641  -0.741  14.053  0.00  0.00    -0.018 A 
ENDROOT
BRANCH  11  12
ATOM     12  C16 ZIN A   1      20.107  -1.918  13.542  0.00  0.00     0.024 C 
BRANCH  12  13
ATOM     13  C17 ZIN A   1      19.379  -2.586  12.458  0.00  0.00    -0.035 A 
ATOM     14  C25 ZIN A   1      20.057  -3.432  11.571  0.00  0.00     0.013 A 
ATOM     15  C24 ZIN A   1      19.365  -4.060  10.559  0.00  0.00     0.022 A 
ATOM     16  C20 ZIN A   1      18.004  -3.849  10.409  0.00  0.00     0.031 A 
ATOM     17  C19 ZIN A   1      17.328  -3.010  11.278  0.00  0.00     0.022 A 
ATOM     18  C18 ZIN A   1      18.003  -2.378  12.299  0.00  0.00     0.013 A 
BRANCH  16  19
ATOM     19  S21 ZIN A   1      17.131  -4.651   9.107  0.00  0.00     0.045 S 
ATOM     20  C22 ZIN A   1      17.073  -6.379   9.656  0.00  0.00     0.133 C 
ATOM     21  O23 ZIN A   1      18.021  -4.534   8.005  0.00  0.00    -0.253 OA
ENDBRANCH  16  19
ENDBRANCH  12  13
ENDBRANCH  11  12
BRANCH   3  22
ATOM     22  C4  ZIN A   1      18.173   1.398  16.766  0.00  0.00     0.153 C 
BRANCH  22  23
ATOM     23  C5  ZIN A   1      19.283   1.957  17.619  0.00  0.00     0.177 C 
ATOM     24  O6  ZIN A   1      19.759   1.282  18.516  0.00  0.00    -0.648 OA
ATOM     25  O7  ZIN A   1      19.703   3.082  17.413  0.00  0.00    -0.648 OA
ENDBRANCH  22  23
ENDBRANCH   3  22
TORSDOF 5
ENDMDL
MODEL 3
REMARK VINA RESULT:      -8.2      3.744      7.328
REMARK  5 active torsions:
REMARK  status: ('A' for Active; 'I' for Inactive)
REMARK    1  A    between atoms: C3_3  and  C4_4 
REMARK    2  A    between atoms: C4_4  and  C5_5 
REMARK    3  A    between atoms: C15_15  and  C16_16 
REMARK    4  A    between atoms: C16_16  and  C17_17 
REMARK    5  A    between atoms: C20_20  and  S21_21 
ROOT
ATOM      1  C1  ZIN A   1      19.249   2.125  13.584  0.00  0.00     0.049 C 
ATOM      2  C2  ZIN A   1      19.240   1.734  12.129  0.00  0.00    -0.043 A 
ATOM      3  C3  ZIN A   1      19.092   2.577  11.092  0.00  0.00    -0.030 A 
ATOM      4  C8  ZIN A   1      19.138   1.830   9.831  0.00  0.00    -0.015 A 
ATOM      5  C9  ZIN A   1      19.035   2.223   8.495  0.00  0.00     0.055 A 
ATOM      6  C10 ZIN A   1      19.115   1.276   7.491  0.00  0.00     0.117 A 
ATOM      7  F11 ZIN A   1      19.015   1.660   6.200  0.00  0.00    -0.206 F 
ATOM      8  C12 ZIN A   1      19.297  -0.064   7.800  0.00  0.00     0.043 A 
ATOM      9  C13 ZIN A   1      19.401  -0.472   9.114  0.00  0.00     0.016 A 
ATOM     10  C14 ZIN A   1      19.323   0.465  10.137  0.00  0.00    -0.014 A 
ATOM     11  C15 ZIN A   1      19.399   0.369  11.610  0.00  0.00    -0.018 A 
ENDROOT
BRANCH  11  12
ATOM     12  C16 ZIN A   1      19.579  -0.768  12.345  0.00  0.00     0.024 C 
BRANCH  12  13
ATOM     13  C17 ZIN A   1      19.061  -2.049  11.853  0.00  0.00    -0.035 A 
ATOM     14  C25 ZIN A   1      19.945  -3.066  11.470  0.00  0.00     0.013 A 
ATOM     15  C24 ZIN A   1      19.450  -4.268  11.015  0.00  0.00     0.022 A 
ATOM     16  C20 ZIN A   1      18.083  -4.470  10.925  0.00  0.00     0.031 A 
ATOM     17  C19 ZIN A   1      17.203  -3.469  11.297  0.00  0.00     0.022 A 
ATOM     18  C18 ZIN A   1      17.680  -2.262  11.759  0.00  0.00     0.013 A 
BRANCH  16  19
ATOM     19  S21 ZIN A   1      17.461  -6.009  10.334  0.00  0.00     0.045 S 
ATOM     20  C22 ZIN A   1      18.548  -6.376   8.928  0.00  0.00     0.133 C 
ATOM     21  O23 ZIN A   1      16.167  -5.669   9.856  0.00  0.00    -0.253 OA
ENDBRANCH  16  19
ENDBRANCH  12  13
ENDBRANCH  11  12
BRANCH   3  22
ATOM     22  C4  ZIN A   1      18.909   4.068  11.208  0.00  0.00     0.153 C 
BRANCH  22  23
ATOM     23  C5  ZIN A   1      17.537   4.447  10.710  0.00  0.00     0.177 C 
ATOM     24  O6  ZIN A   1      16.551   3.889  11.160  0.00  0.00    -0.648 OA
ATOM     25  O7  ZIN A   1      17.414   5.312   9.860  0.00  0.00    -0.648 OA
ENDBRANCH  22  23
ENDBRANCH   3  22
TORSDOF 5
ENDMDL
MODEL 4
REMARK VINA RESULT:      -8.1      2.762      4.218
REMARK  5 active torsions:
REMARK  status: ('A' for Active; 'I' for Inactive)
REMARK    1  A    between atoms: C3_3  and  C4_4 
REMARK    2  A    between atoms: C4_4  and  C5_5 
REMARK    3  A    between atoms: C15_15  and  C16_16 
REMARK    4  A    between atoms: C16_16  and  C17_17 
REMARK    5  A    between atoms: C20_20  and  S21_21 
ROOT
ATOM      1  C1  ZIN A   1      19.761   0.653  13.362  0.00  0.00     0.049 C 
ATOM      2  C2  ZIN A   1      19.515   0.725  11.877  0.00  0.00    -0.043 A 
ATOM      3  C3  ZIN A   1      19.182  -0.312  11.087  0.00  0.00    -0.030 A 
ATOM      4  C8  ZIN A   1      19.025   0.146   9.703  0.00  0.00    -0.015 A 
ATOM      5  C9  ZIN A   1      18.693  -0.518   8.519  0.00  0.00     0.055 A 
ATOM      6  C10 ZIN A   1      18.619   0.188   7.334  0.00  0.00     0.117 A 
ATOM      7  F11 ZIN A   1      18.298  -0.457   6.190  0.00  0.00    -0.206 F 
ATOM      8  C12 ZIN A   1      18.871   1.552   7.307  0.00  0.00     0.043 A 
ATOM      9  C13 ZIN A   1      19.201   2.225   8.467  0.00  0.00     0.016 A 
ATOM     10  C14 ZIN A   1      19.280   1.534   9.669  0.00  0.00    -0.014 A 
ATOM     11  C15 ZIN A   1      19.594   1.940  11.055  0.00  0.00    -0.018 A 
ENDROOT
BRANCH  11  12
ATOM     12  C16 ZIN A   1      19.899   3.198  11.487  0.00  0.00     0.024 C 
BRANCH  12  13
ATOM     13  C17 ZIN A   1      18.905   3.980  12.231  0.00  0.00    -0.035 A 
ATOM     14  C25 ZIN A   1      17.636   4.208  11.685  0.00  0.00     0.013 A 
ATOM     15  C24 ZIN A   1      16.707   4.938  12.393  0.00  0.00     0.022 A 
ATOM     16  C20 ZIN A   1      17.028   5.456  13.637  0.00  0.00     0.031 A 
ATOM     17  C19 ZIN A   1      18.283   5.240  14.181  0.00  0.00     0.022 A 
ATOM     18  C18 ZIN A   1      19.222   4.508  13.489  0.00  0.00     0.013 A 
BRANCH  16  19
ATOM     19  S21 ZIN A   1      15.835   6.396  14.530  0.00  0.00     0.045 S 
ATOM     20  C22 ZIN A   1      16.318   6.133  16.258  0.00  0.00     0.133 C 
ATOM     21  O23 ZIN A   1      14.622   5.704  14.267  0.00  0.00    -0.253 OA
ENDBRANCH  16  19
ENDBRANCH  12  13
ENDBRANCH  11  12
BRANCH   3  22
ATOM     22  C4  ZIN A   1      18.996  -1.732  11.555  0.00  0.00     0.153 C 
BRANCH  22  23
ATOM     23  C5  ZIN A   1      17.524  -2.039  11.659  0.00  0.00     0.177 C 
ATOM     24  O6  ZIN A   1      16.741  -1.163  11.984  0.00  0.00    -0.648 OA
ATOM     25  O7  ZIN A   1      17.117  -3.163  11.419  0.00  0.00    -0.648 OA
ENDBRANCH  22  23
ENDBRANCH   3  22
TORSDOF 5
ENDMDL
MODEL 5
REMARK VINA RESULT:      -8.0      4.117      8.297
REMARK  5 active torsions:
REMARK  status: ('A' for Active; 'I' for Inactive)
REMARK    1  A    between atoms: C3_3  and  C4_4 
REMARK    2  A    between atoms: C4_4  and  C5_5 
REMARK    3  A    between atoms: C15_15  and  C16_16 
REMARK    4  A    between atoms: C16_16  and  C17_17 
REMARK    5  A    between atoms: C20_20  and  S21_21 
ROOT
ATOM      1  C1  ZIN A   1      18.376  -1.531  15.997  0.00  0.00     0.049 C 
ATOM      2  C2  ZIN A   1      18.565  -0.193  15.330  0.00  0.00    -0.043 A 
ATOM      3  C3  ZIN A   1      18.418   1.005  15.923  0.00  0.00    -0.030 A 
ATOM      4  C8  ZIN A   1      18.686   2.076  14.957  0.00  0.00    -0.015 A 
ATOM      5  C9  ZIN A   1      18.671   3.469  15.061  0.00  0.00     0.055 A 
ATOM      6  C10 ZIN A   1      18.973   4.243  13.957  0.00  0.00     0.117 A 
ATOM      7  F11 ZIN A   1      18.956   5.590  14.061  0.00  0.00    -0.206 F 
ATOM      8  C12 ZIN A   1      19.291   3.650  12.744  0.00  0.00     0.043 A 
ATOM      9  C13 ZIN A   1      19.311   2.275  12.622  0.00  0.00     0.016 A 
ATOM     10  C14 ZIN A   1      19.011   1.478  13.720  0.00  0.00    -0.014 A 
ATOM     11  C15 ZIN A   1      18.948   0.017  13.928  0.00  0.00    -0.018 A 
ENDROOT
BRANCH  11  12
ATOM     12  C16 ZIN A   1      19.195  -0.950  12.996  0.00  0.00     0.024 C 
BRANCH  12  13
ATOM     13  C17 ZIN A   1      18.959  -0.677  11.574  0.00  0.00    -0.035 A 
ATOM     14  C25 ZIN A   1      20.038  -0.583  10.686  0.00  0.00     0.013 A 
ATOM     15  C24 ZIN A   1      19.807  -0.331   9.352  0.00  0.00     0.022 A 
ATOM     16  C20 ZIN A   1      18.513  -0.161   8.888  0.00  0.00     0.031 A 
ATOM     17  C19 ZIN A   1      17.442  -0.248   9.760  0.00  0.00     0.022 A 
ATOM     18  C18 ZIN A   1      17.654  -0.503  11.097  0.00  0.00     0.013 A 
BRANCH  16  19
ATOM     19  S21 ZIN A   1      18.230   0.168   7.181  0.00  0.00     0.045 S 
ATOM     20  C22 ZIN A   1      19.140  -1.165   6.351  0.00  0.00     0.133 C 
ATOM     21  O23 ZIN A   1      18.906   1.401   6.976  0.00  0.00    -0.253 OA
ENDBRANCH  16  19
ENDBRANCH  12  13
ENDBRANCH  11  12
BRANCH   3  22
ATOM     22  C4  ZIN A   1      18.035   1.217  17.365  0.00  0.00     0.153 C 
BRANCH  22  23
ATOM     23  C5  ZIN A   1      19.280   1.394  18.195  0.00  0.00     0.177 C 
ATOM     24  O6  ZIN A   1      20.006   0.440  18.416  0.00  0.00    -0.648 OA
ATOM     25  O7  ZIN A   1      19.561   2.491  18.647  0.00  0.00    -0.648 OA
ENDBRANCH  22  23
ENDBRANCH   3  22
TORSDOF 5
ENDMDL
MODEL 6
REMARK VINA RESULT:      -7.9      2.706      3.245
REMARK  5 active torsions:
REMARK  status: ('A' for Active; 'I' for Inactive)
REMARK    1  A    between atoms: C3_3  and  C4_4 
REMARK    2  A    between atoms: C4_4  and  C5_5 
REMARK    3  A    between atoms: C15_15  and  C16_16 
REMARK    4  A    between atoms: C16_16  and  C17_17 
REMARK    5  A    between atoms: C20_20  and  S21_21 
ROOT
ATOM      1  C1  ZIN A   1      18.890   1.402   7.524  0.00  0.00     0.049 C 
ATOM      2  C2  ZIN A   1      18.923   0.016   8.114  0.00  0.00    -0.043 A 
ATOM      3  C3  ZIN A   1      18.586  -1.117   7.471  0.00  0.00    -0.030 A 
ATOM      4  C8  ZIN A   1      18.747  -2.266   8.368  0.00  0.00    -0.015 A 
ATOM      5  C9  ZIN A   1      18.536  -3.636   8.196  0.00  0.00     0.055 A 
ATOM      6  C10 ZIN A   1      18.777  -4.505   9.244  0.00  0.00     0.117 A 
ATOM      7  F11 ZIN A   1      18.571  -5.830   9.075  0.00  0.00    -0.206 F 
ATOM      8  C12 ZIN A   1      19.227  -4.028  10.467  0.00  0.00     0.043 A 
ATOM      9  C13 ZIN A   1      19.440  -2.677  10.655  0.00  0.00     0.016 A 
ATOM     10  C14 ZIN A   1      19.205  -1.788   9.614  0.00  0.00    -0.014 A 
ATOM     11  C15 ZIN A   1      19.334  -0.322   9.483  0.00  0.00    -0.018 A 
ENDROOT
BRANCH  11  12
ATOM     12  C16 ZIN A   1      19.753   0.550  10.447  0.00  0.00     0.024 C 
BRANCH  12  13
ATOM     13  C17 ZIN A   1      19.237   0.433  11.815  0.00  0.00    -0.035 A 
ATOM     14  C25 ZIN A   1      20.116   0.200  12.881  0.00  0.00     0.013 A 
ATOM     15  C24 ZIN A   1      19.624   0.097  14.164  0.00  0.00     0.022 A 
ATOM     16  C20 ZIN A   1      18.265   0.212  14.401  0.00  0.00     0.031 A 
ATOM     17  C19 ZIN A   1      17.389   0.436  13.352  0.00  0.00     0.022 A 
ATOM     18  C18 ZIN A   1      17.864   0.547  12.063  0.00  0.00     0.013 A 
BRANCH  16  19
ATOM     19  S21 ZIN A   1      17.646   0.070  16.044  0.00  0.00     0.045 S 
ATOM     20  C22 ZIN A   1      18.873   0.981  17.022  0.00  0.00     0.133 C 
ATOM     21  O23 ZIN A   1      17.766  -1.320  16.312  0.00  0.00    -0.253 OA
ENDBRANCH  16  19
ENDBRANCH  12  13
ENDBRANCH  11  12
BRANCH   3  22
ATOM     22  C4  ZIN A   1      18.116  -1.195   6.042  0.00  0.00     0.153 C 
BRANCH  22  23
ATOM     23  C5  ZIN A   1      19.276  -1.548   5.147  0.00  0.00     0.177 C 
ATOM     24  O6  ZIN A   1      19.534  -2.717   4.918  0.00  0.00    -0.648 OA
ATOM     25  O7  ZIN A   1      19.956  -0.665   4.653  0.00  0.00    -0.648 OA
ENDBRANCH  22  23
ENDBRANCH   3  22
TORSDOF 5
ENDMDL
MODEL 7
REMARK VINA RESULT:      -7.9      4.303      8.071
REMARK  5 active torsions:
REMARK  status: ('A' for Active; 'I' for Inactive)
REMARK    1  A    between atoms: C3_3  and  C4_4 
REMARK    2  A    between atoms: C4_4  and  C5_5 
REMARK    3  A    between atoms: C15_15  and  C16_16 
REMARK    4  A    between atoms: C16_16  and  C17_17 
REMARK    5  A    between atoms: C20_20  and  S21_21 
ROOT
ATOM      1  C1  ZIN A   1      19.067  -0.322  10.430  0.00  0.00     0.049 C 
ATOM      2  C2  ZIN A   1      18.764  -0.421  11.903  0.00  0.00    -0.043 A 
ATOM      3  C3  ZIN A   1      18.168   0.529  12.646  0.00  0.00    -0.030 A 
ATOM      4  C8  ZIN A   1      18.042   0.072  14.033  0.00  0.00    -0.015 A 
ATOM      5  C9  ZIN A   1      17.509   0.665  15.179  0.00  0.00     0.055 A 
ATOM      6  C10 ZIN A   1      17.528  -0.019  16.380  0.00  0.00     0.117 A 
ATOM      7  F11 ZIN A   1      17.012   0.558  17.487  0.00  0.00    -0.206 F 
ATOM      8  C12 ZIN A   1      18.073  -1.292  16.458  0.00  0.00     0.043 A 
ATOM      9  C13 ZIN A   1      18.606  -1.895  15.335  0.00  0.00     0.016 A 
ATOM     10  C14 ZIN A   1      18.595  -1.224  14.119  0.00  0.00    -0.014 A 
ATOM     11  C15 ZIN A   1      19.064  -1.574  12.762  0.00  0.00    -0.018 A 
ENDROOT
BRANCH  11  12
ATOM     12  C16 ZIN A   1      19.663  -2.741  12.382  0.00  0.00     0.024 C 
BRANCH  12  13
ATOM     13  C17 ZIN A   1      18.941  -3.692  11.530  0.00  0.00    -0.035 A 
ATOM     14  C25 ZIN A   1      19.629  -4.430  10.558  0.00  0.00     0.013 A 
ATOM     15  C24 ZIN A   1      18.944  -5.325   9.766  0.00  0.00     0.022 A 
ATOM     16  C20 ZIN A   1      17.578  -5.490   9.921  0.00  0.00     0.031 A 
ATOM     17  C19 ZIN A   1      16.890  -4.761  10.876  0.00  0.00     0.022 A 
ATOM     18  C18 ZIN A   1      17.559  -3.864  11.680  0.00  0.00     0.013 A 
BRANCH  16  19
ATOM     19  S21 ZIN A   1      16.711  -6.632   8.897  0.00  0.00     0.045 S 
ATOM     20  C22 ZIN A   1      17.791  -6.782   7.447  0.00  0.00     0.133 C 
ATOM     21  O23 ZIN A   1      15.537  -5.914   8.541  0.00  0.00    -0.253 OA
ENDBRANCH  16  19
ENDBRANCH  12  13
ENDBRANCH  11  12
BRANCH   3  22
ATOM     22  C4  ZIN A   1      17.699   1.864  12.129  0.00  0.00     0.153 C 
BRANCH  22  23
ATOM     23  C5  ZIN A   1      18.789   2.888  12.314  0.00  0.00     0.177 C 
ATOM     24  O6  ZIN A   1      18.876   3.501  13.364  0.00  0.00    -0.648 OA
ATOM     25  O7  ZIN A   1      19.583   3.103  11.414  0.00  0.00    -0.648 OA
ENDBRANCH  22  23
ENDBRANCH   3  22
TORSDOF 5
ENDMDL
MODEL 8
REMARK VINA RESULT:      -7.8      2.683      4.010
REMARK  5 active torsions:
REMARK  status: ('A' for Active; 'I' for Inactive)
REMARK    1  A    between atoms: C3_3  and  C4_4 
REMARK    2  A    between atoms: C4_4  and  C5_5 
REMARK    3  A    between atoms: C15_15  and  C16_16 
REMARK    4  A    between atoms: C16_16  and  C17_17 
REMARK    5  A    between atoms: C20_20  and  S21_21 
ROOT
ATOM      1  C1  ZIN A   1      17.210   0.901  12.370  0.00  0.00     0.049 C 
ATOM      2  C2  ZIN A   1      17.707   0.634  10.972  0.00  0.00    -0.043 A 
ATOM      3  C3  ZIN A   1      17.986  -0.577  10.457  0.00  0.00    -0.030 A 
ATOM      4  C8  ZIN A   1      18.443  -0.437   9.071  0.00  0.00    -0.015 A 
ATOM      5  C9  ZIN A   1      18.848  -1.366   8.111  0.00  0.00     0.055 A 
ATOM      6  C10 ZIN A   1      19.236  -0.934   6.857  0.00  0.00     0.117 A 
ATOM      7  F11 ZIN A   1      19.628  -1.835   5.930  0.00  0.00    -0.206 F 
ATOM      8  C12 ZIN A   1      19.226   0.418   6.542  0.00  0.00     0.043 A 
ATOM      9  C13 ZIN A   1      18.829   1.351   7.479  0.00  0.00     0.016 A 
ATOM     10  C14 ZIN A   1      18.435   0.936   8.745  0.00  0.00    -0.014 A 
ATOM     11  C15 ZIN A   1      17.961   1.654   9.946  0.00  0.00    -0.018 A 
ENDROOT
BRANCH  11  12
ATOM     12  C16 ZIN A   1      17.793   3.003  10.077  0.00  0.00     0.024 C 
BRANCH  12  13
ATOM     13  C17 ZIN A   1      18.368   3.705  11.230  0.00  0.00    -0.035 A 
ATOM     14  C25 ZIN A   1      17.555   4.501  12.047  0.00  0.00     0.013 A 
ATOM     15  C24 ZIN A   1      18.101   5.152  13.131  0.00  0.00     0.022 A 
ATOM     16  C20 ZIN A   1      19.453   5.031  13.409  0.00  0.00     0.031 A 
ATOM     17  C19 ZIN A   1      20.264   4.250  12.603  0.00  0.00     0.022 A 
ATOM     18  C18 ZIN A   1      19.733   3.588  11.518  0.00  0.00     0.013 A 
BRANCH  16  19
ATOM     19  S21 ZIN A   1      20.142   5.875  14.793  0.00  0.00     0.045 S 
ATOM     20  C22 ZIN A   1      19.881   4.706  16.155  0.00  0.00     0.133 C 
ATOM     21  O23 ZIN A   1      19.275   6.989  14.952  0.00  0.00    -0.253 OA
ENDBRANCH  16  19
ENDBRANCH  12  13
ENDBRANCH  11  12
BRANCH   3  22
ATOM     22  C4  ZIN A   1      17.848  -1.884  11.195  0.00  0.00     0.153 C 
BRANCH  22  23
ATOM     23  C5  ZIN A   1      19.107  -2.157  11.976  0.00  0.00     0.177 C 
ATOM     24  O6  ZIN A   1      19.117  -2.008  13.186  0.00  0.00    -0.648 OA
ATOM     25  O7  ZIN A   1      20.115  -2.528  11.400  0.00  0.00    -0.648 OA
ENDBRANCH  22  23
ENDBRANCH   3  22
TORSDOF 5
ENDMDL
MODEL 9
REMARK VINA RESULT:      -7.7      4.069      8.280
REMARK  5 active torsions:
REMARK  status: ('A' for Active; 'I' for Inactive)
REMARK    1  A    between atoms: C3_3  and  C4_4 
REMARK    2  A    between atoms: C4_4  and  C5_5 
REMARK    3  A    between atoms: C15_15  and  C16_16 
REMARK    4  A    between atoms: C16_16  and  C17_17 
REMARK    5  A    between atoms: C20_20  and  S21_21 
ROOT
ATOM      1  C1  ZIN A   1      18.573  -1.287  15.167  0.00  0.00     0.049 C 
ATOM      2  C2  ZIN A   1      18.676  -0.629  13.815  0.00  0.00    -0.043 A 
ATOM      3  C3  ZIN A   1      18.320   0.637  13.530  0.00  0.00    -0.030 A 
ATOM      4  C8  ZIN A   1      18.567   0.918  12.113  0.00  0.00    -0.015 A 
ATOM      5  C9  ZIN A   1      18.374   2.057  11.327  0.00  0.00     0.055 A 
ATOM      6  C10 ZIN A   1      18.705   2.030   9.986  0.00  0.00     0.117 A 
ATOM      7  F11 ZIN A   1      18.516   3.133   9.228  0.00  0.00    -0.206 F 
ATOM      8  C12 ZIN A   1      19.229   0.881   9.411  0.00  0.00     0.043 A 
ATOM      9  C13 ZIN A   1      19.426  -0.254  10.171  0.00  0.00     0.016 A 
ATOM     10  C14 ZIN A   1      19.100  -0.247  11.522  0.00  0.00    -0.014 A 
ATOM     11  C15 ZIN A   1      19.189  -1.262  12.593  0.00  0.00    -0.018 A 
ENDROOT
BRANCH  11  12
ATOM     12  C16 ZIN A   1      19.654  -2.539  12.469  0.00  0.00     0.024 C 
BRANCH  12  13
ATOM     13  C17 ZIN A   1      18.941  -3.501  11.622  0.00  0.00    -0.035 A 
ATOM     14  C25 ZIN A   1      17.576  -3.740  11.822  0.00  0.00     0.013 A 
ATOM     15  C24 ZIN A   1      16.912  -4.641  11.018  0.00  0.00     0.022 A 
ATOM     16  C20 ZIN A   1      17.594  -5.318  10.021  0.00  0.00     0.031 A 
ATOM     17  C19 ZIN A   1      18.945  -5.092   9.819  0.00  0.00     0.022 A 
ATOM     18  C18 ZIN A   1      19.623  -4.190  10.611  0.00  0.00     0.013 A 
BRANCH  16  19
ATOM     19  S21 ZIN A   1      16.738  -6.474   9.004  0.00  0.00     0.045 S 
ATOM     20  C22 ZIN A   1      17.820  -6.625   7.556  0.00  0.00     0.133 C 
ATOM     21  O23 ZIN A   1      15.558  -5.769   8.641  0.00  0.00    -0.253 OA
ENDBRANCH  16  19
ENDBRANCH  12  13
ENDBRANCH  11  12
BRANCH   3  22
ATOM     22  C4  ZIN A   1      17.753   1.620  14.521  0.00  0.00     0.153 C 
BRANCH  22  23
ATOM     23  C5  ZIN A   1      18.855   2.511  15.035  0.00  0.00     0.177 C 
ATOM     24  O6  ZIN A   1      19.026   3.612  14.542  0.00  0.00    -0.648 OA
ATOM     25  O7  ZIN A   1      19.573   2.130  15.943  0.00  0.00    -0.648 OA
ENDBRANCH  22  23
ENDBRANCH   3  22
TORSDOF 5
ENDMDL
