MODEL 1
REMARK VINA RESULT:      -5.4      0.000      0.000
REMARK  2 active torsions:
REMARK  status: ('A' for Active; 'I' for Inactive)
REMARK    1  A    between atoms: C2_2  and  N3_3 
REMARK    2  A    between atoms: N3_3  and  C6_6 
ROOT
ATOM      1  C6  ZIN A   1      19.051  -0.093   7.222  0.00  0.00     0.138 A 
ATOM      2  C7  ZIN A   1      18.900   0.725   6.118  0.00  0.00     0.037 A 
ATOM      3  C8  ZIN A   1      18.978   0.194   4.845  0.00  0.00     0.005 A 
ATOM      4  C9  ZIN A   1      19.205  -1.157   4.672  0.00  0.00     0.040 A 
ATOM      5  C10 ZIN A   1      19.357  -1.982   5.778  0.00  0.00     0.109 A 
ATOM      6  O11 ZIN A   1      19.582  -3.312   5.610  0.00  0.00    -0.192 OA
ATOM      7  C12 ZIN A   1      19.284  -1.445   7.055  0.00  0.00     0.077 A 
ENDROOT
BRANCH   1   8
ATOM      8  N3  ZIN A   1      18.971   0.448   8.509  0.00  0.00    -0.045 N 
ATOM      9  C4  ZIN A   1      19.918  -0.249   9.391  0.00  0.00     0.279 C 
ATOM     10  C5  ZIN A   1      17.607   0.282   9.027  0.00  0.00     0.279 C 
BRANCH   8  11
ATOM     11  C2  ZIN A   1      19.307   1.877   8.461  0.00  0.00     0.238 C 
ATOM     12  C1  ZIN A   1      18.651   2.595   9.642  0.00  0.00     0.035 C 
ENDBRANCH   8  11
ENDBRANCH   1   8
TORSDOF 2
ENDMDL
MODEL 2
REMARK VINA RESULT:      -5.3      2.431      4.575
REMARK  2 active torsions:
REMARK  status: ('A' for Active; 'I' for Inactive)
REMARK    1  A    between atoms: C2_2  and  N3_3 
REMARK    2  A    between atoms: N3_3  and  C6_6 
ROOT
ATOM      1  C6  ZIN A   1      18.313   0.718   8.211  0.00  0.00     0.138 A 
ATOM      2  C7  ZIN A   1      19.057   1.868   8.403  0.00  0.00     0.037 A 
ATOM      3  C8  ZIN A   1      18.966   2.563   9.595  0.00  0.00     0.005 A 
ATOM      4  C9  ZIN A   1      18.134   2.108  10.599  0.00  0.00     0.040 A 
ATOM      5  C10 ZIN A   1      17.387   0.954  10.410  0.00  0.00     0.109 A 
ATOM      6  O11 ZIN A   1      16.567   0.504  11.397  0.00  0.00    -0.192 OA
ATOM      7  C12 ZIN A   1      17.475   0.262   9.211  0.00  0.00     0.077 A 
ENDROOT
BRANCH   1   8
ATOM      8  N3  ZIN A   1      18.407   0.018   7.005  0.00  0.00    -0.045 N 
ATOM      9  C4  ZIN A   1      17.058  -0.232   6.479  0.00  0.00     0.279 C 
ATOM     10  C5  ZIN A   1      19.088  -1.263   7.234  0.00  0.00     0.279 C 
BRANCH   8  11
ATOM     11  C2  ZIN A   1      19.171   0.814   6.036  0.00  0.00     0.238 C 
ATOM     12  C1  ZIN A   1      19.230   0.070   4.700  0.00  0.00     0.035 C 
ENDBRANCH   8  11
ENDBRANCH   1   8
TORSDOF 2
ENDMDL
MODEL 3
REMARK VINA RESULT:      -5.2      7.274      9.451
REMARK  2 active torsions:
REMARK  status: ('A' for Active; 'I' for Inactive)
REMARK    1  A    between atoms: C2_2  and  N3_3 
REMARK    2  A    between atoms: N3_3  and  C6_6 
ROOT
ATOM      1  C6  ZIN A   1      18.876   0.322  15.470  0.00  0.00     0.138 A 
ATOM      2  C7  ZIN A   1      18.849  -0.999  15.876  0.00  0.00     0.037 A 
ATOM      3  C8  ZIN A   1      19.072  -1.322  17.202  0.00  0.00     0.005 A 
ATOM      4  C9  ZIN A   1      19.321  -0.325  18.124  0.00  0.00     0.040 A 
ATOM      5  C10 ZIN A   1      19.349   1.002  17.720  0.00  0.00     0.109 A 
ATOM      6  O11 ZIN A   1      19.594   1.986  18.625  0.00  0.00    -0.192 OA
ATOM      7  C12 ZIN A   1      19.130   1.324  16.388  0.00  0.00     0.077 A 
ENDROOT
BRANCH   1   8
ATOM      8  N3  ZIN A   1      18.649   0.645  14.128  0.00  0.00    -0.045 N 
ATOM      9  C4  ZIN A   1      19.919   0.588  13.391  0.00  0.00     0.279 C 
ATOM     10  C5  ZIN A   1      18.092   2.001  14.039  0.00  0.00     0.279 C 
BRANCH   8  11
ATOM     11  C2  ZIN A   1      17.702  -0.315  13.547  0.00  0.00     0.238 C 
ATOM     12  C1  ZIN A   1      17.052   0.299  12.305  0.00  0.00     0.035 C 
ENDBRANCH   8  11
ENDBRANCH   1   8
TORSDOF 2
ENDMDL
MODEL 4
REMARK VINA RESULT:      -5.1      1.282      1.895
REMARK  2 active torsions:
REMARK  status: ('A' for Active; 'I' for Inactive)
REMARK    1  A    between atoms: C2_2  and  N3_3 
REMARK    2  A    between atoms: N3_3  and  C6_6 
ROOT
ATOM      1  C6  ZIN A   1      18.921  -0.501   7.623  0.00  0.00     0.138 A 
ATOM      2  C7  ZIN A   1      18.817   0.830   7.264  0.00  0.00     0.037 A 
ATOM      3  C8  ZIN A   1      18.983   1.208   5.945  0.00  0.00     0.005 A 
ATOM      4  C9  ZIN A   1      19.251   0.257   4.981  0.00  0.00     0.040 A 
ATOM      5  C10 ZIN A   1      19.356  -1.080   5.337  0.00  0.00     0.109 A 
ATOM      6  O11 ZIN A   1      19.621  -2.019   4.391  0.00  0.00    -0.192 OA
ATOM      7  C12 ZIN A   1      19.195  -1.457   6.662  0.00  0.00     0.077 A 
ENDROOT
BRANCH   1   8
ATOM      8  N3  ZIN A   1      18.753  -0.880   8.958  0.00  0.00    -0.045 N 
ATOM      9  C4  ZIN A   1      19.951  -0.513   9.725  0.00  0.00     0.279 C 
ATOM     10  C5  ZIN A   1      18.550  -2.333   9.032  0.00  0.00     0.279 C 
BRANCH   8  11
ATOM     11  C2  ZIN A   1      17.583  -0.192   9.518  0.00  0.00     0.238 C 
ATOM     12  C1  ZIN A   1      17.306  -0.721  10.927  0.00  0.00     0.035 C 
ENDBRANCH   8  11
ENDBRANCH   1   8
TORSDOF 2
ENDMDL
MODEL 5
REMARK VINA RESULT:      -4.9      3.700      4.995
REMARK  2 active torsions:
REMARK  status: ('A' for Active; 'I' for Inactive)
REMARK    1  A    between atoms: C2_2  and  N3_3 
REMARK    2  A    between atoms: N3_3  and  C6_6 
ROOT
ATOM      1  C6  ZIN A   1      18.526   0.080  10.160  0.00  0.00     0.138 A 
ATOM      2  C7  ZIN A   1      19.323   0.481   9.103  0.00  0.00     0.037 A 
ATOM      3  C8  ZIN A   1      19.353   1.810   8.722  0.00  0.00     0.005 A 
ATOM      4  C9  ZIN A   1      18.589   2.741   9.398  0.00  0.00     0.040 A 
ATOM      5  C10 ZIN A   1      17.789   2.341  10.459  0.00  0.00     0.109 A 
ATOM      6  O11 ZIN A   1      17.035   3.255  11.126  0.00  0.00    -0.192 OA
ATOM      7  C12 ZIN A   1      17.755   1.007  10.836  0.00  0.00     0.077 A 
ENDROOT
BRANCH   1   8
ATOM      8  N3  ZIN A   1      18.498  -1.265  10.542  0.00  0.00    -0.045 N 
ATOM      9  C4  ZIN A   1      18.170  -2.097   9.377  0.00  0.00     0.279 C 
ATOM     10  C5  ZIN A   1      17.479  -1.456  11.583  0.00  0.00     0.279 C 
BRANCH   8  11
ATOM     11  C2  ZIN A   1      19.814  -1.652  11.066  0.00  0.00     0.238 C 
ATOM     12  C1  ZIN A   1      19.710  -3.021  11.742  0.00  0.00     0.035 C 
ENDBRANCH   8  11
ENDBRANCH   1   8
TORSDOF 2
ENDMDL
MODEL 6
REMARK VINA RESULT:      -4.9      3.108      4.293
REMARK  2 active torsions:
REMARK  status: ('A' for Active; 'I' for Inactive)
REMARK    1  A    between atoms: C2_2  and  N3_3 
REMARK    2  A    between atoms: N3_3  and  C6_6 
ROOT
ATOM      1  C6  ZIN A   1      18.988   2.224  10.487  0.00  0.00     0.138 A 
ATOM      2  C7  ZIN A   1      18.936   2.313   9.108  0.00  0.00     0.037 A 
ATOM      3  C8  ZIN A   1      19.330   1.243   8.328  0.00  0.00     0.005 A 
ATOM      4  C9  ZIN A   1      19.777   0.080   8.924  0.00  0.00     0.040 A 
ATOM      5  C10 ZIN A   1      19.831  -0.013  10.307  0.00  0.00     0.109 A 
ATOM      6  O11 ZIN A   1      20.271  -1.157  10.897  0.00  0.00    -0.192 OA
ATOM      7  C12 ZIN A   1      19.440   1.064  11.088  0.00  0.00     0.077 A 
ENDROOT
BRANCH   1   8
ATOM      8  N3  ZIN A   1      18.588   3.309  11.273  0.00  0.00    -0.045 N 
ATOM      9  C4  ZIN A   1      19.768   3.916  11.904  0.00  0.00     0.279 C 
ATOM     10  C5  ZIN A   1      17.661   2.844  12.313  0.00  0.00     0.279 C 
BRANCH   8  11
ATOM     11  C2  ZIN A   1      17.918   4.305  10.428  0.00  0.00     0.238 C 
ATOM     12  C1  ZIN A   1      16.740   4.912  11.192  0.00  0.00     0.035 C 
ENDBRANCH   8  11
ENDBRANCH   1   8
TORSDOF 2
ENDMDL
MODEL 7
REMARK VINA RESULT:      -4.8      3.765      4.996
REMARK  2 active torsions:
REMARK  status: ('A' for Active; 'I' for Inactive)
REMARK    1  A    between atoms: C2_2  and  N3_3 
REMARK    2  A    between atoms: N3_3  and  C6_6 
ROOT
ATOM      1  C6  ZIN A   1      18.114   2.267  10.995  0.00  0.00     0.138 A 
ATOM      2  C7  ZIN A   1      18.375   2.087   9.649  0.00  0.00     0.037 A 
ATOM      3  C8  ZIN A   1      18.036   0.899   9.028  0.00  0.00     0.005 A 
ATOM      4  C9  ZIN A   1      17.433  -0.111   9.751  0.00  0.00     0.040 A 
ATOM      5  C10 ZIN A   1      17.169   0.066  11.102  0.00  0.00     0.109 A 
ATOM      6  O11 ZIN A   1      16.576  -0.927  11.816  0.00  0.00    -0.192 OA
ATOM      7  C12 ZIN A   1      17.516   1.256  11.724  0.00  0.00     0.077 A 
ENDROOT
BRANCH   1   8
ATOM      8  N3  ZIN A   1      18.458   3.469  11.619  0.00  0.00    -0.045 N 
ATOM      9  C4  ZIN A   1      19.919   3.550  11.751  0.00  0.00     0.279 C 
ATOM     10  C5  ZIN A   1      17.843   3.523  12.952  0.00  0.00     0.279 C 
BRANCH   8  11
ATOM     11  C2  ZIN A   1      17.976   4.596  10.810  0.00  0.00     0.238 C 
ATOM     12  C1  ZIN A   1      16.587   5.015  11.296  0.00  0.00     0.035 C 
ENDBRANCH   8  11
ENDBRANCH   1   8
TORSDOF 2
ENDMDL
MODEL 8
REMARK VINA RESULT:      -4.8      2.224      3.072
REMARK  2 active torsions:
REMARK  status: ('A' for Active; 'I' for Inactive)
REMARK    1  A    between atoms: C2_2  and  N3_3 
REMARK    2  A    between atoms: N3_3  and  C6_6 
ROOT
ATOM      1  C6  ZIN A   1      18.433   1.169   9.373  0.00  0.00     0.138 A 
ATOM      2  C7  ZIN A   1      17.538   0.117   9.298  0.00  0.00     0.037 A 
ATOM      3  C8  ZIN A   1      17.310  -0.515   8.091  0.00  0.00     0.005 A 
ATOM      4  C9  ZIN A   1      17.978  -0.100   6.955  0.00  0.00     0.040 A 
ATOM      5  C10 ZIN A   1      18.877   0.954   7.027  0.00  0.00     0.109 A 
ATOM      6  O11 ZIN A   1      19.535   1.366   5.911  0.00  0.00    -0.192 OA
ATOM      7  C12 ZIN A   1      19.100   1.592   8.239  0.00  0.00     0.077 A 
ENDROOT
BRANCH   1   8
ATOM      8  N3  ZIN A   1      18.661   1.806  10.596  0.00  0.00    -0.045 N 
ATOM      9  C4  ZIN A   1      19.851   1.227  11.235  0.00  0.00     0.279 C 
ATOM     10  C5  ZIN A   1      17.496   1.620  11.471  0.00  0.00     0.279 C 
BRANCH   8  11
ATOM     11  C2  ZIN A   1      18.878   3.241  10.367  0.00  0.00     0.238 C 
ATOM     12  C1  ZIN A   1      17.603   4.011  10.718  0.00  0.00     0.035 C 
ENDBRANCH   8  11
ENDBRANCH   1   8
TORSDOF 2
ENDMDL
MODEL 9
REMARK VINA RESULT:      -4.8      4.121      5.367
REMARK  2 active torsions:
REMARK  status: ('A' for Active; 'I' for Inactive)
REMARK    1  A    between atoms: C2_2  and  N3_3 
REMARK    2  A    between atoms: N3_3  and  C6_6 
ROOT
ATOM      1  C6  ZIN A   1      18.589   0.562  10.762  0.00  0.00     0.138 A 
ATOM      2  C7  ZIN A   1      19.342   0.813   9.630  0.00  0.00     0.037 A 
ATOM      3  C8  ZIN A   1      19.266   2.043   9.005  0.00  0.00     0.005 A 
ATOM      4  C9  ZIN A   1      18.438   3.026   9.510  0.00  0.00     0.040 A 
ATOM      5  C10 ZIN A   1      17.680   2.778  10.646  0.00  0.00     0.109 A 
ATOM      6  O11 ZIN A   1      16.864   3.743  11.145  0.00  0.00    -0.192 OA
ATOM      7  C12 ZIN A   1      17.754   1.541  11.269  0.00  0.00     0.077 A 
ENDROOT
BRANCH   1   8
ATOM      8  N3  ZIN A   1      18.668  -0.683  11.393  0.00  0.00    -0.045 N 
ATOM      9  C4  ZIN A   1      18.570  -0.502  12.847  0.00  0.00     0.279 C 
ATOM     10  C5  ZIN A   1      19.952  -1.318  11.064  0.00  0.00     0.279 C 
BRANCH   8  11
ATOM     11  C2  ZIN A   1      17.566  -1.537  10.930  0.00  0.00     0.238 C 
ATOM     12  C1  ZIN A   1      17.678  -2.914  11.587  0.00  0.00     0.035 C 
ENDBRANCH   8  11
ENDBRANCH   1   8
TORSDOF 2
ENDMDL
