MODEL 1
REMARK VINA RESULT:      -6.6      0.000      0.000
REMARK  8 active torsions:
REMARK  status: ('A' for Active; 'I' for Inactive)
REMARK    1  A    between atoms: O1_1  and  C2_2 
REMARK    2  A    between atoms: C2_2  and  C3_3 
REMARK    3  A    between atoms: C6_5  and  O8_6 
REMARK    4  A    between atoms: O8_6  and  C9_7 
REMARK    5  A    between atoms: C12_10  and  O13_11 
REMARK    6  A    between atoms: C16_14  and  O18_15 
REMARK    7  A    between atoms: C19_16  and  O21_17 
REMARK    8  A    between atoms: C22_18  and  O24_19 
ROOT
ATOM      1  C3  ZIN A   1      19.345   0.946  10.844  0.00  0.00     0.179 C 
ATOM      2  O5  ZIN A   1      18.434   0.876  11.944  0.00  0.00    -0.348 OA
ATOM      3  C6  ZIN A   1      18.969   0.235  13.104  0.00  0.00     0.298 C 
ATOM      4  C16 ZIN A   1      19.340  -1.210  12.762  0.00  0.00     0.205 C 
ATOM      5  C19 ZIN A   1      20.344  -1.211  11.605  0.00  0.00     0.183 C 
ATOM      6  C22 ZIN A   1      19.731  -0.470  10.411  0.00  0.00     0.180 C 
ENDROOT
BRANCH   3   7
ATOM      7  O8  ZIN A   1      17.991   0.242  14.146  0.00  0.00    -0.318 OA
BRANCH   7   8
ATOM      8  C9  ZIN A   1      18.385   0.716  15.359  0.00  0.00     0.072 A 
ATOM      9  C15 ZIN A   1      18.280  -0.088  16.484  0.00  0.00     0.039 A 
ATOM     10  C14 ZIN A   1      18.683   0.392  17.716  0.00  0.00     0.039 A 
ATOM     11  C12 ZIN A   1      19.184   1.680  17.827  0.00  0.00     0.065 A 
ATOM     12  C11 ZIN A   1      19.284   2.486  16.703  0.00  0.00     0.039 A 
ATOM     13  C10 ZIN A   1      18.884   2.005  15.471  0.00  0.00     0.039 A 
BRANCH  11  14
ATOM     14  O13 ZIN A   1      19.578   2.154  19.040  0.00  0.00    -0.361 OA
ATOM     15  H30 ZIN A   1      20.090   1.522  19.561  0.00  0.00     0.217 HD
ENDBRANCH  11  14
ENDBRANCH   7   8
ENDBRANCH   3   7
BRANCH   4  16
ATOM     16  O18 ZIN A   1      19.927  -1.835  13.905  0.00  0.00    -0.388 OA
ATOM     17  H33 ZIN A   1      20.619  -2.477  13.691  0.00  0.00     0.210 HD
ENDBRANCH   4  16
BRANCH   1  18
ATOM     18  C2  ZIN A   1      18.677   1.673   9.676  0.00  0.00     0.198 C 
BRANCH  18  19
ATOM     19  O1  ZIN A   1      19.673   2.078   8.734  0.00  0.00    -0.398 OA
ATOM     20  H25 ZIN A   1      20.579   1.896   9.018  0.00  0.00     0.209 HD
ENDBRANCH  18  19
ENDBRANCH   1  18
BRANCH   5  21
ATOM     21  O21 ZIN A   1      20.641  -2.557  11.231  0.00  0.00    -0.390 OA
ATOM     22  H34 ZIN A   1      20.820  -3.144  11.980  0.00  0.00     0.210 HD
ENDBRANCH   5  21
BRANCH   6  23
ATOM     23  O24 ZIN A   1      20.686  -0.403   9.350  0.00  0.00    -0.390 OA
ATOM     24  H35 ZIN A   1      20.716   0.453   8.902  0.00  0.00     0.210 HD
ENDBRANCH   6  23
TORSDOF 8
ENDMDL
MODEL 2
REMARK VINA RESULT:      -6.5      1.037      1.736
REMARK  8 active torsions:
REMARK  status: ('A' for Active; 'I' for Inactive)
REMARK    1  A    between atoms: O1_1  and  C2_2 
REMARK    2  A    between atoms: C2_2  and  C3_3 
REMARK    3  A    between atoms: C6_5  and  O8_6 
REMARK    4  A    between atoms: O8_6  and  C9_7 
REMARK    5  A    between atoms: C12_10  and  O13_11 
REMARK    6  A    between atoms: C16_14  and  O18_15 
REMARK    7  A    between atoms: C19_16  and  O21_17 
REMARK    8  A    between atoms: C22_18  and  O24_19 
ROOT
ATOM      1  C3  ZIN A   1      18.884   2.065  10.974  0.00  0.00     0.179 C 
ATOM      2  O5  ZIN A   1      18.169   1.548  12.099  0.00  0.00    -0.348 OA
ATOM      3  C6  ZIN A   1      18.911   0.609  12.880  0.00  0.00     0.298 C 
ATOM      4  C16 ZIN A   1      19.277  -0.598  12.013  0.00  0.00     0.205 C 
ATOM      5  C19 ZIN A   1      20.076  -0.121  10.797  0.00  0.00     0.183 C 
ATOM      6  C22 ZIN A   1      19.248   0.916  10.030  0.00  0.00     0.180 C 
ENDROOT
BRANCH   3   7
ATOM      7  O8  ZIN A   1      18.118   0.178  13.988  0.00  0.00    -0.318 OA
BRANCH   7   8
ATOM      8  C9  ZIN A   1      18.495   0.609  15.221  0.00  0.00     0.072 A 
ATOM      9  C15 ZIN A   1      18.822   1.943  15.419  0.00  0.00     0.039 A 
ATOM     10  C14 ZIN A   1      19.202   2.381  16.673  0.00  0.00     0.039 A 
ATOM     11  C12 ZIN A   1      19.265   1.488  17.731  0.00  0.00     0.065 A 
ATOM     12  C11 ZIN A   1      18.944   0.153  17.532  0.00  0.00     0.039 A 
ATOM     13  C10 ZIN A   1      18.560  -0.286  16.279  0.00  0.00     0.039 A 
BRANCH  11  14
ATOM     14  O13 ZIN A   1      19.643   1.919  18.964  0.00  0.00    -0.361 OA
ATOM     15  H30 ZIN A   1      19.633   1.230  19.642  0.00  0.00     0.217 HD
ENDBRANCH  11  14
ENDBRANCH   7   8
ENDBRANCH   3   7
BRANCH   4  16
ATOM     16  O18 ZIN A   1      20.067  -1.512  12.776  0.00  0.00    -0.388 OA
ATOM     17  H33 ZIN A   1      20.617  -1.090  13.451  0.00  0.00     0.210 HD
ENDBRANCH   4  16
BRANCH   1  18
ATOM     18  C2  ZIN A   1      18.006   3.075  10.233  0.00  0.00     0.198 C 
BRANCH  18  19
ATOM     19  O1  ZIN A   1      16.929   3.483  11.079  0.00  0.00    -0.398 OA
ATOM     20  H25 ZIN A   1      16.734   4.429  11.039  0.00  0.00     0.209 HD
ENDBRANCH  18  19
ENDBRANCH   1  18
BRANCH   5  21
ATOM     21  O21 ZIN A   1      20.360  -1.232   9.945  0.00  0.00    -0.390 OA
ATOM     22  H34 ZIN A   1      19.585  -1.767   9.723  0.00  0.00     0.210 HD
ENDBRANCH   5  21
BRANCH   6  23
ATOM     23  O24 ZIN A   1      20.013   1.420   8.933  0.00  0.00    -0.390 OA
ATOM     24  H35 ZIN A   1      19.996   0.855   8.150  0.00  0.00     0.210 HD
ENDBRANCH   6  23
TORSDOF 8
ENDMDL
MODEL 3
REMARK VINA RESULT:      -6.5      2.970      7.817
REMARK  8 active torsions:
REMARK  status: ('A' for Active; 'I' for Inactive)
REMARK    1  A    between atoms: O1_1  and  C2_2 
REMARK    2  A    between atoms: C2_2  and  C3_3 
REMARK    3  A    between atoms: C6_5  and  O8_6 
REMARK    4  A    between atoms: O8_6  and  C9_7 
REMARK    5  A    between atoms: C12_10  and  O13_11 
REMARK    6  A    between atoms: C16_14  and  O18_15 
REMARK    7  A    between atoms: C19_16  and  O21_17 
REMARK    8  A    between atoms: C22_18  and  O24_19 
ROOT
ATOM      1  C3  ZIN A   1      19.385  -0.647  12.060  0.00  0.00     0.179 C 
ATOM      2  O5  ZIN A   1      18.481  -0.581  10.955  0.00  0.00    -0.348 OA
ATOM      3  C6  ZIN A   1      18.908   0.287   9.903  0.00  0.00     0.298 C 
ATOM      4  C16 ZIN A   1      19.033   1.715  10.440  0.00  0.00     0.205 C 
ATOM      5  C19 ZIN A   1      20.016   1.727  11.615  0.00  0.00     0.183 C 
ATOM      6  C22 ZIN A   1      19.529   0.743  12.684  0.00  0.00     0.180 C 
ENDROOT
BRANCH   3   7
ATOM      7  O8  ZIN A   1      17.949   0.259   8.843  0.00  0.00    -0.318 OA
BRANCH   7   8
ATOM      8  C9  ZIN A   1      18.365  -0.242   7.649  0.00  0.00     0.072 A 
ATOM      9  C15 ZIN A   1      18.362   0.565   6.520  0.00  0.00     0.039 A 
ATOM     10  C14 ZIN A   1      18.787   0.058   5.307  0.00  0.00     0.039 A 
ATOM     11  C12 ZIN A   1      19.210  -1.260   5.217  0.00  0.00     0.065 A 
ATOM     12  C11 ZIN A   1      19.208  -2.068   6.344  0.00  0.00     0.039 A 
ATOM     13  C10 ZIN A   1      18.786  -1.560   7.558  0.00  0.00     0.039 A 
BRANCH  11  14
ATOM     14  O13 ZIN A   1      19.625  -1.760   4.022  0.00  0.00    -0.361 OA
ATOM     15  H30 ZIN A   1      20.491  -2.188   4.055  0.00  0.00     0.217 HD
ENDBRANCH  11  14
ENDBRANCH   7   8
ENDBRANCH   3   7
BRANCH   4  16
ATOM     16  O18 ZIN A   1      19.514   2.575   9.405  0.00  0.00    -0.388 OA
ATOM     17  H33 ZIN A   1      18.925   2.637   8.639  0.00  0.00     0.210 HD
ENDBRANCH   4  16
BRANCH   1  18
ATOM     18  C2  ZIN A   1      18.841  -1.622  13.106  0.00  0.00     0.198 C 
BRANCH  18  19
ATOM     19  O1  ZIN A   1      19.884  -1.974  14.017  0.00  0.00    -0.398 OA
ATOM     20  H25 ZIN A   1      19.669  -1.806  14.945  0.00  0.00     0.209 HD
ENDBRANCH  18  19
ENDBRANCH   1  18
BRANCH   5  21
ATOM     21  O21 ZIN A   1      20.085   3.042  12.168  0.00  0.00    -0.390 OA
ATOM     22  H34 ZIN A   1      20.864   3.545  11.892  0.00  0.00     0.210 HD
ENDBRANCH   5  21
BRANCH   6  23
ATOM     23  O24 ZIN A   1      20.477   0.693  13.753  0.00  0.00    -0.390 OA
ATOM     24  H35 ZIN A   1      20.205   1.179  14.542  0.00  0.00     0.210 HD
ENDBRANCH   6  23
TORSDOF 8
ENDMDL
MODEL 4
REMARK VINA RESULT:      -6.3      3.074      7.237
REMARK  8 active torsions:
REMARK  status: ('A' for Active; 'I' for Inactive)
REMARK    1  A    between atoms: O1_1  and  C2_2 
REMARK    2  A    between atoms: C2_2  and  C3_3 
REMARK    3  A    between atoms: C6_5  and  O8_6 
REMARK    4  A    between atoms: O8_6  and  C9_7 
REMARK    5  A    between atoms: C12_10  and  O13_11 
REMARK    6  A    between atoms: C16_14  and  O18_15 
REMARK    7  A    between atoms: C19_16  and  O21_17 
REMARK    8  A    between atoms: C22_18  and  O24_19 
ROOT
ATOM      1  C3  ZIN A   1      17.399   3.876  12.165  0.00  0.00     0.179 C 
ATOM      2  O5  ZIN A   1      18.168   3.608  10.991  0.00  0.00    -0.348 OA
ATOM      3  C6  ZIN A   1      18.643   2.263  10.898  0.00  0.00     0.298 C 
ATOM      4  C16 ZIN A   1      19.558   1.963  12.088  0.00  0.00     0.205 C 
ATOM      5  C19 ZIN A   1      18.786   2.200  13.389  0.00  0.00     0.183 C 
ATOM      6  C22 ZIN A   1      18.263   3.641  13.406  0.00  0.00     0.180 C 
ENDROOT
BRANCH   3   7
ATOM      7  O8  ZIN A   1      19.374   2.098   9.681  0.00  0.00    -0.318 OA
BRANCH   7   8
ATOM      8  C9  ZIN A   1      18.774   1.379   8.694  0.00  0.00     0.072 A 
ATOM      9  C15 ZIN A   1      19.152   1.568   7.373  0.00  0.00     0.039 A 
ATOM     10  C14 ZIN A   1      18.546   0.836   6.370  0.00  0.00     0.039 A 
ATOM     11  C12 ZIN A   1      17.555  -0.082   6.685  0.00  0.00     0.065 A 
ATOM     12  C11 ZIN A   1      17.174  -0.267   8.005  0.00  0.00     0.039 A 
ATOM     13  C10 ZIN A   1      17.782   0.463   9.008  0.00  0.00     0.039 A 
BRANCH  11  14
ATOM     14  O13 ZIN A   1      16.956  -0.801   5.697  0.00  0.00    -0.361 OA
ATOM     15  H30 ZIN A   1      17.035  -1.758   5.805  0.00  0.00     0.217 HD
ENDBRANCH  11  14
ENDBRANCH   7   8
ENDBRANCH   3   7
BRANCH   4  16
ATOM     16  O18 ZIN A   1      19.989   0.602  12.028  0.00  0.00    -0.388 OA
ATOM     17  H33 ZIN A   1      20.809   0.471  11.533  0.00  0.00     0.210 HD
ENDBRANCH   4  16
BRANCH   1  18
ATOM     18  C2  ZIN A   1      16.923   5.330  12.143  0.00  0.00     0.198 C 
BRANCH  18  19
ATOM     19  O1  ZIN A   1      15.839   5.491  13.060  0.00  0.00    -0.398 OA
ATOM     20  H25 ZIN A   1      15.926   6.259  13.640  0.00  0.00     0.209 HD
ENDBRANCH  18  19
ENDBRANCH   1  18
BRANCH   5  21
ATOM     21  O21 ZIN A   1      19.653   1.992  14.505  0.00  0.00    -0.390 OA
ATOM     22  H34 ZIN A   1      20.237   1.226  14.412  0.00  0.00     0.210 HD
ENDBRANCH   5  21
BRANCH   6  23
ATOM     23  O24 ZIN A   1      17.481   3.851  14.583  0.00  0.00    -0.390 OA
ATOM     24  H35 ZIN A   1      16.527   3.834  14.428  0.00  0.00     0.210 HD
ENDBRANCH   6  23
TORSDOF 8
ENDMDL
MODEL 5
REMARK VINA RESULT:      -6.3      2.738      3.972
REMARK  8 active torsions:
REMARK  status: ('A' for Active; 'I' for Inactive)
REMARK    1  A    between atoms: O1_1  and  C2_2 
REMARK    2  A    between atoms: C2_2  and  C3_3 
REMARK    3  A    between atoms: C6_5  and  O8_6 
REMARK    4  A    between atoms: O8_6  and  C9_7 
REMARK    5  A    between atoms: C12_10  and  O13_11 
REMARK    6  A    between atoms: C16_14  and  O18_15 
REMARK    7  A    between atoms: C19_16  and  O21_17 
REMARK    8  A    between atoms: C22_18  and  O24_19 
ROOT
ATOM      1  C3  ZIN A   1      17.378  -3.606  10.932  0.00  0.00     0.179 C 
ATOM      2  O5  ZIN A   1      18.163  -3.360  12.101  0.00  0.00    -0.348 OA
ATOM      3  C6  ZIN A   1      18.705  -2.040  12.173  0.00  0.00     0.298 C 
ATOM      4  C16 ZIN A   1      19.631  -1.805  10.977  0.00  0.00     0.205 C 
ATOM      5  C19 ZIN A   1      18.845  -2.021   9.680  0.00  0.00     0.183 C 
ATOM      6  C22 ZIN A   1      18.250  -3.433   9.686  0.00  0.00     0.180 C 
ENDROOT
BRANCH   3   7
ATOM      7  O8  ZIN A   1      19.447  -1.894  13.386  0.00  0.00    -0.318 OA
BRANCH   7   8
ATOM      8  C9  ZIN A   1      18.837  -1.231  14.405  0.00  0.00     0.072 A 
ATOM      9  C15 ZIN A   1      18.007  -0.154  14.132  0.00  0.00     0.039 A 
ATOM     10  C14 ZIN A   1      17.385   0.518  15.166  0.00  0.00     0.039 A 
ATOM     11  C12 ZIN A   1      17.597   0.120  16.478  0.00  0.00     0.065 A 
ATOM     12  C11 ZIN A   1      18.431  -0.953  16.751  0.00  0.00     0.039 A 
ATOM     13  C10 ZIN A   1      19.051  -1.628  15.716  0.00  0.00     0.039 A 
BRANCH  11  14
ATOM     14  O13 ZIN A   1      16.987   0.784  17.497  0.00  0.00    -0.361 OA
ATOM     15  H30 ZIN A   1      16.969   1.743  17.385  0.00  0.00     0.217 HD
ENDBRANCH  11  14
ENDBRANCH   7   8
ENDBRANCH   3   7
BRANCH   4  16
ATOM     16  O18 ZIN A   1      20.131  -0.466  11.015  0.00  0.00    -0.388 OA
ATOM     17  H33 ZIN A   1      20.620  -0.252  11.822  0.00  0.00     0.210 HD
ENDBRANCH   4  16
BRANCH   1  18
ATOM     18  C2  ZIN A   1      16.829  -5.033  10.977  0.00  0.00     0.198 C 
BRANCH  18  19
ATOM     19  O1  ZIN A   1      15.782  -5.173  10.014  0.00  0.00    -0.398 OA
ATOM     20  H25 ZIN A   1      14.893  -5.077  10.382  0.00  0.00     0.209 HD
ENDBRANCH  18  19
ENDBRANCH   1  18
BRANCH   5  21
ATOM     21  O21 ZIN A   1      19.719  -1.873   8.560  0.00  0.00    -0.390 OA
ATOM     22  H34 ZIN A   1      19.397  -1.257   7.888  0.00  0.00     0.210 HD
ENDBRANCH   5  21
BRANCH   6  23
ATOM     23  O24 ZIN A   1      17.455  -3.621   8.514  0.00  0.00    -0.390 OA
ATOM     24  H35 ZIN A   1      16.961  -2.835   8.245  0.00  0.00     0.210 HD
ENDBRANCH   6  23
TORSDOF 8
ENDMDL
MODEL 6
REMARK VINA RESULT:      -6.2      4.553      6.650
REMARK  8 active torsions:
REMARK  status: ('A' for Active; 'I' for Inactive)
REMARK    1  A    between atoms: O1_1  and  C2_2 
REMARK    2  A    between atoms: C2_2  and  C3_3 
REMARK    3  A    between atoms: C6_5  and  O8_6 
REMARK    4  A    between atoms: O8_6  and  C9_7 
REMARK    5  A    between atoms: C12_10  and  O13_11 
REMARK    6  A    between atoms: C16_14  and  O18_15 
REMARK    7  A    between atoms: C19_16  and  O21_17 
REMARK    8  A    between atoms: C22_18  and  O24_19 
ROOT
ATOM      1  C3  ZIN A   1      18.909  -2.995   7.129  0.00  0.00     0.179 C 
ATOM      2  O5  ZIN A   1      19.588  -1.910   7.765  0.00  0.00    -0.348 OA
ATOM      3  C6  ZIN A   1      18.965  -0.638   7.572  0.00  0.00     0.298 C 
ATOM      4  C16 ZIN A   1      18.934  -0.308   6.077  0.00  0.00     0.205 C 
ATOM      5  C19 ZIN A   1      18.190  -1.419   5.331  0.00  0.00     0.183 C 
ATOM      6  C22 ZIN A   1      18.875  -2.760   5.617  0.00  0.00     0.180 C 
ENDROOT
BRANCH   3   7
ATOM      7  O8  ZIN A   1      19.708   0.367   8.266  0.00  0.00    -0.318 OA
BRANCH   7   8
ATOM      8  C9  ZIN A   1      19.012   1.170   9.115  0.00  0.00     0.072 A 
ATOM      9  C15 ZIN A   1      18.230   0.610  10.115  0.00  0.00     0.039 A 
ATOM     10  C14 ZIN A   1      17.526   1.425  10.979  0.00  0.00     0.039 A 
ATOM     11  C12 ZIN A   1      17.595   2.803  10.843  0.00  0.00     0.065 A 
ATOM     12  C11 ZIN A   1      18.373   3.363   9.841  0.00  0.00     0.039 A 
ATOM     13  C10 ZIN A   1      19.080   2.548   8.978  0.00  0.00     0.039 A 
BRANCH  11  14
ATOM     14  O13 ZIN A   1      16.899   3.606  11.692  0.00  0.00    -0.361 OA
ATOM     15  H30 ZIN A   1      17.428   3.964  12.418  0.00  0.00     0.217 HD
ENDBRANCH  11  14
ENDBRANCH   7   8
ENDBRANCH   3   7
BRANCH   4  16
ATOM     16  O18 ZIN A   1      18.262   0.937   5.877  0.00  0.00    -0.388 OA
ATOM     17  H33 ZIN A   1      18.079   1.422   6.694  0.00  0.00     0.210 HD
ENDBRANCH   4  16
BRANCH   1  18
ATOM     18  C2  ZIN A   1      19.646  -4.302   7.426  0.00  0.00     0.198 C 
BRANCH  18  19
ATOM     19  O1  ZIN A   1      20.900  -4.309   6.741  0.00  0.00    -0.398 OA
ATOM     20  H25 ZIN A   1      21.667  -4.363   7.326  0.00  0.00     0.209 HD
ENDBRANCH  18  19
ENDBRANCH   1  18
BRANCH   5  21
ATOM     21  O21 ZIN A   1      18.218  -1.156   3.928  0.00  0.00    -0.390 OA
ATOM     22  H34 ZIN A   1      17.356  -0.926   3.552  0.00  0.00     0.210 HD
ENDBRANCH   5  21
BRANCH   6  23
ATOM     23  O24 ZIN A   1      18.146  -3.813   4.984  0.00  0.00    -0.390 OA
ATOM     24  H35 ZIN A   1      18.696  -4.554   4.698  0.00  0.00     0.210 HD
ENDBRANCH   6  23
TORSDOF 8
ENDMDL
MODEL 7
REMARK VINA RESULT:      -6.1      3.498      5.822
REMARK  8 active torsions:
REMARK  status: ('A' for Active; 'I' for Inactive)
REMARK    1  A    between atoms: O1_1  and  C2_2 
REMARK    2  A    between atoms: C2_2  and  C3_3 
REMARK    3  A    between atoms: C6_5  and  O8_6 
REMARK    4  A    between atoms: O8_6  and  C9_7 
REMARK    5  A    between atoms: C12_10  and  O13_11 
REMARK    6  A    between atoms: C16_14  and  O18_15 
REMARK    7  A    between atoms: C19_16  and  O21_17 
REMARK    8  A    between atoms: C22_18  and  O24_19 
ROOT
ATOM      1  C3  ZIN A   1      18.263   0.536   9.992  0.00  0.00     0.179 C 
ATOM      2  O5  ZIN A   1      18.901  -0.696  10.336  0.00  0.00    -0.348 OA
ATOM      3  C6  ZIN A   1      19.368  -0.755  11.685  0.00  0.00     0.298 C 
ATOM      4  C16 ZIN A   1      20.408   0.345  11.912  0.00  0.00     0.205 C 
ATOM      5  C19 ZIN A   1      19.781   1.705  11.592  0.00  0.00     0.183 C 
ATOM      6  C22 ZIN A   1      19.258   1.687  10.151  0.00  0.00     0.180 C 
ENDROOT
BRANCH   3   7
ATOM      7  O8  ZIN A   1      19.963  -2.031  11.929  0.00  0.00    -0.318 OA
BRANCH   7   8
ATOM      8  C9  ZIN A   1      19.257  -3.126  11.538  0.00  0.00     0.072 A 
ATOM      9  C15 ZIN A   1      19.816  -4.027  10.643  0.00  0.00     0.039 A 
ATOM     10  C14 ZIN A   1      19.100  -5.141  10.248  0.00  0.00     0.039 A 
ATOM     11  C12 ZIN A   1      17.821  -5.353  10.738  0.00  0.00     0.065 A 
ATOM     12  C11 ZIN A   1      17.260  -4.448  11.628  0.00  0.00     0.039 A 
ATOM     13  C10 ZIN A   1      17.977  -3.337  12.027  0.00  0.00     0.039 A 
BRANCH  11  14
ATOM     14  O13 ZIN A   1      17.115  -6.447  10.346  0.00  0.00    -0.361 OA
ATOM     15  H30 ZIN A   1      17.665  -7.198  10.087  0.00  0.00     0.217 HD
ENDBRANCH  11  14
ENDBRANCH   7   8
ENDBRANCH   3   7
BRANCH   4  16
ATOM     16  O18 ZIN A   1      20.835   0.325  13.276  0.00  0.00    -0.388 OA
ATOM     17  H33 ZIN A   1      20.160   0.013  13.895  0.00  0.00     0.210 HD
ENDBRANCH   4  16
BRANCH   1  18
ATOM     18  C2  ZIN A   1      17.782   0.473   8.541  0.00  0.00     0.198 C 
BRANCH  18  19
ATOM     19  O1  ZIN A   1      18.794   0.999   7.680  0.00  0.00    -0.398 OA
ATOM     20  H25 ZIN A   1      19.035   1.916   7.870  0.00  0.00     0.209 HD
ENDBRANCH  18  19
ENDBRANCH   1  18
BRANCH   5  21
ATOM     21  O21 ZIN A   1      20.765   2.731  11.732  0.00  0.00    -0.390 OA
ATOM     22  H34 ZIN A   1      20.829   3.323  10.970  0.00  0.00     0.210 HD
ENDBRANCH   5  21
BRANCH   6  23
ATOM     23  O24 ZIN A   1      18.607   2.927   9.865  0.00  0.00    -0.390 OA
ATOM     24  H35 ZIN A   1      18.862   3.318   9.019  0.00  0.00     0.210 HD
ENDBRANCH   6  23
TORSDOF 8
ENDMDL
MODEL 8
REMARK VINA RESULT:      -6.1      3.963      4.992
REMARK  8 active torsions:
REMARK  status: ('A' for Active; 'I' for Inactive)
REMARK    1  A    between atoms: O1_1  and  C2_2 
REMARK    2  A    between atoms: C2_2  and  C3_3 
REMARK    3  A    between atoms: C6_5  and  O8_6 
REMARK    4  A    between atoms: O8_6  and  C9_7 
REMARK    5  A    between atoms: C12_10  and  O13_11 
REMARK    6  A    between atoms: C16_14  and  O18_15 
REMARK    7  A    between atoms: C19_16  and  O21_17 
REMARK    8  A    between atoms: C22_18  and  O24_19 
ROOT
ATOM      1  C3  ZIN A   1      19.091  -0.502   6.723  0.00  0.00     0.179 C 
ATOM      2  O5  ZIN A   1      18.282   0.320   7.567  0.00  0.00    -0.348 OA
ATOM      3  C6  ZIN A   1      18.384   0.007   8.958  0.00  0.00     0.298 C 
ATOM      4  C16 ZIN A   1      17.920  -1.433   9.190  0.00  0.00     0.205 C 
ATOM      5  C19 ZIN A   1      18.769  -2.380   8.336  0.00  0.00     0.183 C 
ATOM      6  C22 ZIN A   1      18.656  -1.963   6.866  0.00  0.00     0.180 C 
ENDROOT
BRANCH   3   7
ATOM      7  O8  ZIN A   1      17.559   0.900   9.709  0.00  0.00    -0.318 OA
BRANCH   7   8
ATOM      8  C9  ZIN A   1      18.193   1.851  10.447  0.00  0.00     0.072 A 
ATOM      9  C15 ZIN A   1      17.708   3.151  10.466  0.00  0.00     0.039 A 
ATOM     10  C14 ZIN A   1      18.350   4.116  11.217  0.00  0.00     0.039 A 
ATOM     11  C12 ZIN A   1      19.482   3.788  11.947  0.00  0.00     0.065 A 
ATOM     12  C11 ZIN A   1      19.970   2.490  11.924  0.00  0.00     0.039 A 
ATOM     13  C10 ZIN A   1      19.326   1.523  11.175  0.00  0.00     0.039 A 
BRANCH  11  14
ATOM     14  O13 ZIN A   1      20.116   4.739  12.684  0.00  0.00    -0.361 OA
ATOM     15  H30 ZIN A   1      19.938   4.685  13.632  0.00  0.00     0.217 HD
ENDBRANCH  11  14
ENDBRANCH   7   8
ENDBRANCH   3   7
BRANCH   4  16
ATOM     16  O18 ZIN A   1      18.074  -1.767  10.571  0.00  0.00    -0.388 OA
ATOM     17  H33 ZIN A   1      17.434  -1.336  11.155  0.00  0.00     0.210 HD
ENDBRANCH   4  16
BRANCH   1  18
ATOM     18  C2  ZIN A   1      18.924  -0.060   5.268  0.00  0.00     0.198 C 
BRANCH  18  19
ATOM     19  O1  ZIN A   1      20.020  -0.548   4.492  0.00  0.00    -0.398 OA
ATOM     20  H25 ZIN A   1      20.861  -0.112   4.681  0.00  0.00     0.209 HD
ENDBRANCH  18  19
ENDBRANCH   1  18
BRANCH   5  21
ATOM     21  O21 ZIN A   1      18.297  -3.719   8.493  0.00  0.00    -0.390 OA
ATOM     22  H34 ZIN A   1      18.544  -4.128   9.333  0.00  0.00     0.210 HD
ENDBRANCH   5  21
BRANCH   6  23
ATOM     23  O24 ZIN A   1      19.501  -2.795   6.068  0.00  0.00    -0.390 OA
ATOM     24  H35 ZIN A   1      19.037  -3.262   5.361  0.00  0.00     0.210 HD
ENDBRANCH   6  23
TORSDOF 8
ENDMDL
MODEL 9
REMARK VINA RESULT:      -6.1      1.762      6.462
REMARK  8 active torsions:
REMARK  status: ('A' for Active; 'I' for Inactive)
REMARK    1  A    between atoms: O1_1  and  C2_2 
REMARK    2  A    between atoms: C2_2  and  C3_3 
REMARK    3  A    between atoms: C6_5  and  O8_6 
REMARK    4  A    between atoms: O8_6  and  C9_7 
REMARK    5  A    between atoms: C12_10  and  O13_11 
REMARK    6  A    between atoms: C16_14  and  O18_15 
REMARK    7  A    between atoms: C19_16  and  O21_17 
REMARK    8  A    between atoms: C22_18  and  O24_19 
ROOT
ATOM      1  C3  ZIN A   1      18.543   2.185  16.703  0.00  0.00     0.179 C 
ATOM      2  O5  ZIN A   1      19.503   1.852  15.697  0.00  0.00    -0.348 OA
ATOM      3  C6  ZIN A   1      18.980   1.058  14.630  0.00  0.00     0.298 C 
ATOM      4  C16 ZIN A   1      18.465  -0.270  15.189  0.00  0.00     0.205 C 
ATOM      5  C19 ZIN A   1      17.403   0.010  16.257  0.00  0.00     0.183 C 
ATOM      6  C22 ZIN A   1      18.011   0.901  17.345  0.00  0.00     0.180 C 
ENDROOT
BRANCH   3   7
ATOM      7  O8  ZIN A   1      20.010   0.806  13.673  0.00  0.00    -0.318 OA
BRANCH   7   8
ATOM      8  C9  ZIN A   1      19.763   1.177  12.388  0.00  0.00     0.072 A 
ATOM      9  C15 ZIN A   1      19.765   0.225  11.379  0.00  0.00     0.039 A 
ATOM     10  C14 ZIN A   1      19.511   0.601  10.075  0.00  0.00     0.039 A 
ATOM     11  C12 ZIN A   1      19.262   1.931   9.772  0.00  0.00     0.065 A 
ATOM     12  C11 ZIN A   1      19.265   2.884  10.780  0.00  0.00     0.039 A 
ATOM     13  C10 ZIN A   1      19.516   2.508  12.086  0.00  0.00     0.039 A 
BRANCH  11  14
ATOM     14  O13 ZIN A   1      19.015   2.302   8.487  0.00  0.00    -0.361 OA
ATOM     15  H30 ZIN A   1      18.123   2.090   8.182  0.00  0.00     0.217 HD
ENDBRANCH  11  14
ENDBRANCH   7   8
ENDBRANCH   3   7
BRANCH   4  16
ATOM     16  O18 ZIN A   1      17.890  -1.042  14.133  0.00  0.00    -0.388 OA
ATOM     17  H33 ZIN A   1      18.497  -1.683  13.738  0.00  0.00     0.210 HD
ENDBRANCH   4  16
BRANCH   1  18
ATOM     18  C2  ZIN A   1      19.207   3.054  17.773  0.00  0.00     0.198 C 
BRANCH  18  19
ATOM     19  O1  ZIN A   1      19.608   2.234  18.872  0.00  0.00    -0.398 OA
ATOM     20  H25 ZIN A   1      19.393   1.298  18.764  0.00  0.00     0.209 HD
ENDBRANCH  18  19
ENDBRANCH   1  18
BRANCH   5  21
ATOM     21  O21 ZIN A   1      16.969  -1.223  16.835  0.00  0.00    -0.390 OA
ATOM     22  H34 ZIN A   1      17.200  -2.005  16.314  0.00  0.00     0.210 HD
ENDBRANCH   5  21
BRANCH   6  23
ATOM     23  O24 ZIN A   1      17.009   1.228  18.310  0.00  0.00    -0.390 OA
ATOM     24  H35 ZIN A   1      17.246   1.966  18.887  0.00  0.00     0.210 HD
ENDBRANCH   6  23
TORSDOF 8
ENDMDL
