MODEL 1
REMARK VINA RESULT:      -6.3      0.000      0.000
REMARK  7 active torsions:
REMARK  status: ('A' for Active; 'I' for Inactive)
REMARK    1  A    between atoms: P2_2  and  O4_4 
REMARK    2  A    between atoms: P2_2  and  C5_5 
REMARK    3  A    between atoms: C5_5  and  O6_6 
REMARK    4  A    between atoms: C5_5  and  C7_7 
REMARK    5  A    between atoms: C5_5  and  P14_14 
REMARK    6  A    between atoms: C7_7  and  C8_8 
REMARK    7  A    between atoms: P14_14  and  O17_17 
ROOT
ATOM      1  C5  ZIN A   1      19.179   1.325  11.123  0.00  0.00     0.272 C 
ENDROOT
BRANCH   1   2
ATOM      2  P2  ZIN A   1      20.110   0.394  12.383  0.00  0.00     0.296 P 
ATOM      3  O1  ZIN A   1      19.784  -1.111  12.258  0.00  0.00    -0.644 OA
ATOM      4  O3  ZIN A   1      19.712   0.891  13.791  0.00  0.00    -0.644 OA
BRANCH   2   5
ATOM      5  O4  ZIN A   1      21.689   0.621  12.160  0.00  0.00    -0.320 OA
ATOM      6  H18 ZIN A   1      22.248   0.018  12.669  0.00  0.00     0.221 HD
ENDBRANCH   2   5
ENDBRANCH   1   2
BRANCH   1   7
ATOM      7  O6  ZIN A   1      17.788   1.307  11.449  0.00  0.00    -0.366 OA
ATOM      8  H19 ZIN A   1      17.204   1.246  10.680  0.00  0.00     0.212 HD
ENDBRANCH   1   7
BRANCH   1   9
ATOM      9  C7  ZIN A   1      19.677   2.771  11.085  0.00  0.00     0.105 C 
BRANCH   9  10
ATOM     10  C8  ZIN A   1      18.549   3.699  11.458  0.00  0.00    -0.036 A 
ATOM     11  C13 ZIN A   1      18.334   4.044  12.780  0.00  0.00     0.123 A 
ATOM     12  N12 ZIN A   1      17.353   4.859  13.113  0.00  0.00    -0.273 NA
ATOM     13  C11 ZIN A   1      16.536   5.367  12.209  0.00  0.00     0.116 A 
ATOM     14  C10 ZIN A   1      16.687   5.063  10.871  0.00  0.00     0.020 A 
ATOM     15  C9  ZIN A   1      17.711   4.213  10.481  0.00  0.00     0.010 A 
ENDBRANCH   9  10
ENDBRANCH   1   9
BRANCH   1  16
ATOM     16  P14 ZIN A   1      19.430   0.554   9.490  0.00  0.00     0.296 P 
ATOM     17  O15 ZIN A   1      18.206  -0.322   9.140  0.00  0.00    -0.644 OA
ATOM     18  O16 ZIN A   1      19.595   1.656   8.419  0.00  0.00    -0.644 OA
BRANCH  16  19
ATOM     19  O17 ZIN A   1      20.753  -0.362   9.526  0.00  0.00    -0.320 OA
ATOM     20  H26 ZIN A   1      21.324  -0.260   8.753  0.00  0.00     0.221 HD
ENDBRANCH  16  19
ENDBRANCH   1  16
TORSDOF 7
ENDMDL
MODEL 2
REMARK VINA RESULT:      -6.2      3.464      4.719
REMARK  7 active torsions:
REMARK  status: ('A' for Active; 'I' for Inactive)
REMARK    1  A    between atoms: P2_2  and  O4_4 
REMARK    2  A    between atoms: P2_2  and  C5_5 
REMARK    3  A    between atoms: C5_5  and  O6_6 
REMARK    4  A    between atoms: C5_5  and  C7_7 
REMARK    5  A    between atoms: C5_5  and  P14_14 
REMARK    6  A    between atoms: C7_7  and  C8_8 
REMARK    7  A    between atoms: P14_14  and  O17_17 
ROOT
ATOM      1  C5  ZIN A   1      19.507  -0.076  10.654  0.00  0.00     0.272 C 
ENDROOT
BRANCH   1   2
ATOM      2  P2  ZIN A   1      19.042  -1.721  11.284  0.00  0.00     0.296 P 
ATOM      3  O1  ZIN A   1      19.231  -2.773  10.168  0.00  0.00    -0.644 OA
ATOM      4  O3  ZIN A   1      17.562  -1.704  11.729  0.00  0.00    -0.644 OA
BRANCH   2   5
ATOM      5  O4  ZIN A   1      19.976  -2.099  12.541  0.00  0.00    -0.320 OA
ATOM      6  H18 ZIN A   1      19.484  -2.345  13.336  0.00  0.00     0.221 HD
ENDBRANCH   2   5
ENDBRANCH   1   2
BRANCH   1   7
ATOM      7  O6  ZIN A   1      20.482  -0.221   9.618  0.00  0.00    -0.366 OA
ATOM      8  H19 ZIN A   1      20.105  -0.404   8.746  0.00  0.00     0.212 HD
ENDBRANCH   1   7
BRANCH   1   9
ATOM      9  C7  ZIN A   1      18.268   0.626  10.094  0.00  0.00     0.105 C 
BRANCH   9  10
ATOM     10  C8  ZIN A   1      18.282   0.545   8.590  0.00  0.00    -0.036 A 
ATOM     11  C13 ZIN A   1      17.570  -0.443   7.935  0.00  0.00     0.123 A 
ATOM     12  N12 ZIN A   1      17.574  -0.517   6.619  0.00  0.00    -0.273 NA
ATOM     13  C11 ZIN A   1      18.259   0.334   5.878  0.00  0.00     0.116 A 
ATOM     14  C10 ZIN A   1      18.997   1.344   6.462  0.00  0.00     0.020 A 
ATOM     15  C9  ZIN A   1      19.014   1.456   7.845  0.00  0.00     0.010 A 
ENDBRANCH   9  10
ENDBRANCH   1   9
BRANCH   1  16
ATOM     16  P14 ZIN A   1      20.208   0.918  12.012  0.00  0.00     0.296 P 
ATOM     17  O15 ZIN A   1      20.060   2.420  11.680  0.00  0.00    -0.644 OA
ATOM     18  O16 ZIN A   1      19.453   0.605  13.324  0.00  0.00    -0.644 OA
BRANCH  16  19
ATOM     19  O17 ZIN A   1      21.767   0.560  12.191  0.00  0.00    -0.320 OA
ATOM     20  H26 ZIN A   1      22.155   0.891  13.012  0.00  0.00     0.221 HD
ENDBRANCH  16  19
ENDBRANCH   1  16
TORSDOF 7
ENDMDL
MODEL 3
REMARK VINA RESULT:      -6.1      3.379      4.643
REMARK  7 active torsions:
REMARK  status: ('A' for Active; 'I' for Inactive)
REMARK    1  A    between atoms: P2_2  and  O4_4 
REMARK    2  A    between atoms: P2_2  and  C5_5 
REMARK    3  A    between atoms: C5_5  and  O6_6 
REMARK    4  A    between atoms: C5_5  and  C7_7 
REMARK    5  A    between atoms: C5_5  and  P14_14 
REMARK    6  A    between atoms: C7_7  and  C8_8 
REMARK    7  A    between atoms: P14_14  and  O17_17 
ROOT
ATOM      1  C5  ZIN A   1      19.349   0.340  12.379  0.00  0.00     0.272 C 
ENDROOT
BRANCH   1   2
ATOM      2  P2  ZIN A   1      18.927   1.925  11.585  0.00  0.00     0.296 P 
ATOM      3  O1  ZIN A   1      19.207   3.084  12.567  0.00  0.00    -0.644 OA
ATOM      4  O3  ZIN A   1      17.430   1.927  11.202  0.00  0.00    -0.644 OA
BRANCH   2   5
ATOM      5  O4  ZIN A   1      19.821   2.117  10.260  0.00  0.00    -0.320 OA
ATOM      6  H18 ZIN A   1      19.686   2.964   9.814  0.00  0.00     0.221 HD
ENDBRANCH   2   5
ENDBRANCH   1   2
BRANCH   1   7
ATOM      7  O6  ZIN A   1      20.348   0.558  13.377  0.00  0.00    -0.366 OA
ATOM      8  H19 ZIN A   1      20.526  -0.214  13.932  0.00  0.00     0.212 HD
ENDBRANCH   1   7
BRANCH   1   9
ATOM      9  C7  ZIN A   1      18.099  -0.256  13.029  0.00  0.00     0.105 C 
BRANCH   9  10
ATOM     10  C8  ZIN A   1      18.276  -0.281  14.526  0.00  0.00    -0.036 A 
ATOM     11  C13 ZIN A   1      17.928   0.816  15.291  0.00  0.00     0.123 A 
ATOM     12  N12 ZIN A   1      18.076   0.798  16.601  0.00  0.00    -0.273 NA
ATOM     13  C11 ZIN A   1      18.567  -0.253  17.230  0.00  0.00     0.116 A 
ATOM     14  C10 ZIN A   1      18.941  -1.383  16.531  0.00  0.00     0.020 A 
ATOM     15  C9  ZIN A   1      18.795  -1.404  15.151  0.00  0.00     0.010 A 
ENDBRANCH   9  10
ENDBRANCH   1   9
BRANCH   1  16
ATOM     16  P14 ZIN A   1      19.989  -0.816  11.123  0.00  0.00     0.296 P 
ATOM     17  O15 ZIN A   1      19.846  -2.267  11.636  0.00  0.00    -0.644 OA
ATOM     18  O16 ZIN A   1      19.185  -0.653   9.813  0.00  0.00    -0.644 OA
BRANCH  16  19
ATOM     19  O17 ZIN A   1      21.542  -0.498  10.842  0.00  0.00    -0.320 OA
ATOM     20  H26 ZIN A   1      22.147  -0.892  11.485  0.00  0.00     0.221 HD
ENDBRANCH  16  19
ENDBRANCH   1  16
TORSDOF 7
ENDMDL
MODEL 4
REMARK VINA RESULT:      -6.0      4.024      5.237
REMARK  7 active torsions:
REMARK  status: ('A' for Active; 'I' for Inactive)
REMARK    1  A    between atoms: P2_2  and  O4_4 
REMARK    2  A    between atoms: P2_2  and  C5_5 
REMARK    3  A    between atoms: C5_5  and  O6_6 
REMARK    4  A    between atoms: C5_5  and  C7_7 
REMARK    5  A    between atoms: C5_5  and  P14_14 
REMARK    6  A    between atoms: C7_7  and  C8_8 
REMARK    7  A    between atoms: P14_14  and  O17_17 
ROOT
ATOM      1  C5  ZIN A   1      19.235   0.755   9.676  0.00  0.00     0.272 C 
ENDROOT
BRANCH   1   2
ATOM      2  P2  ZIN A   1      19.875  -0.417  10.916  0.00  0.00     0.296 P 
ATOM      3  O1  ZIN A   1      19.233  -1.805  10.693  0.00  0.00    -0.644 OA
ATOM      4  O3  ZIN A   1      19.525   0.089  12.333  0.00  0.00    -0.644 OA
BRANCH   2   5
ATOM      5  O4  ZIN A   1      21.474  -0.536  10.768  0.00  0.00    -0.320 OA
ATOM      6  H18 ZIN A   1      21.772  -1.368  10.376  0.00  0.00     0.221 HD
ENDBRANCH   2   5
ENDBRANCH   1   2
BRANCH   1   7
ATOM      7  O6  ZIN A   1      20.284   1.113   8.774  0.00  0.00    -0.366 OA
ATOM      8  H19 ZIN A   1      20.352   2.063   8.606  0.00  0.00     0.212 HD
ENDBRANCH   1   7
BRANCH   1   9
ATOM      9  C7  ZIN A   1      18.093   0.100   8.896  0.00  0.00     0.105 C 
BRANCH   9  10
ATOM     10  C8  ZIN A   1      18.554  -0.205   7.494  0.00  0.00    -0.036 A 
ATOM     11  C13 ZIN A   1      19.151  -1.417   7.202  0.00  0.00     0.123 A 
ATOM     12  N12 ZIN A   1      19.551  -1.693   5.976  0.00  0.00    -0.273 NA
ATOM     13  C11 ZIN A   1      19.410  -0.829   4.989  0.00  0.00     0.116 A 
ATOM     14  C10 ZIN A   1      18.827   0.403   5.207  0.00  0.00     0.020 A 
ATOM     15  C9  ZIN A   1      18.388   0.727   6.482  0.00  0.00     0.010 A 
ENDBRANCH   9  10
ENDBRANCH   1   9
BRANCH   1  16
ATOM     16  P14 ZIN A   1      18.619   2.251  10.515  0.00  0.00     0.296 P 
ATOM     17  O15 ZIN A   1      18.457   3.391   9.484  0.00  0.00    -0.644 OA
ATOM     18  O16 ZIN A   1      17.250   1.950  11.167  0.00  0.00    -0.644 OA
BRANCH  16  19
ATOM     19  O17 ZIN A   1      19.667   2.700  11.651  0.00  0.00    -0.320 OA
ATOM     20  H26 ZIN A   1      20.323   3.342  11.349  0.00  0.00     0.221 HD
ENDBRANCH  16  19
ENDBRANCH   1  16
TORSDOF 7
ENDMDL
MODEL 5
REMARK VINA RESULT:      -6.0      3.912      5.645
REMARK  7 active torsions:
REMARK  status: ('A' for Active; 'I' for Inactive)
REMARK    1  A    between atoms: P2_2  and  O4_4 
REMARK    2  A    between atoms: P2_2  and  C5_5 
REMARK    3  A    between atoms: C5_5  and  O6_6 
REMARK    4  A    between atoms: C5_5  and  C7_7 
REMARK    5  A    between atoms: C5_5  and  P14_14 
REMARK    6  A    between atoms: C7_7  and  C8_8 
REMARK    7  A    between atoms: P14_14  and  O17_17 
ROOT
ATOM      1  C5  ZIN A   1      18.817  -2.301   7.968  0.00  0.00     0.272 C 
ENDROOT
BRANCH   1   2
ATOM      2  P2  ZIN A   1      19.402  -3.020   6.399  0.00  0.00     0.296 P 
ATOM      3  O1  ZIN A   1      19.735  -1.885   5.404  0.00  0.00    -0.644 OA
ATOM      4  O3  ZIN A   1      18.297  -3.920   5.800  0.00  0.00    -0.644 OA
BRANCH   2   5
ATOM      5  O4  ZIN A   1      20.723  -3.900   6.670  0.00  0.00    -0.320 OA
ATOM      6  H18 ZIN A   1      20.602  -4.847   6.518  0.00  0.00     0.221 HD
ENDBRANCH   2   5
ENDBRANCH   1   2
BRANCH   1   7
ATOM      7  O6  ZIN A   1      19.905  -1.647   8.626  0.00  0.00    -0.366 OA
ATOM      8  H19 ZIN A   1      20.138  -0.790   8.244  0.00  0.00     0.212 HD
ENDBRANCH   1   7
BRANCH   1   9
ATOM      9  C7  ZIN A   1      17.708  -1.286   7.683  0.00  0.00     0.105 C 
BRANCH   9  10
ATOM     10  C8  ZIN A   1      18.042   0.022   8.353  0.00  0.00    -0.036 A 
ATOM     11  C13 ZIN A   1      17.526   0.322   9.600  0.00  0.00     0.123 A 
ATOM     12  N12 ZIN A   1      17.818   1.462  10.194  0.00  0.00    -0.273 NA
ATOM     13  C11 ZIN A   1      18.599   2.361   9.626  0.00  0.00     0.116 A 
ATOM     14  C10 ZIN A   1      19.147   2.133   8.379  0.00  0.00     0.020 A 
ATOM     15  C9  ZIN A   1      18.866   0.942   7.725  0.00  0.00     0.010 A 
ENDBRANCH   9  10
ENDBRANCH   1   9
BRANCH   1  16
ATOM     16  P14 ZIN A   1      18.168  -3.625   9.038  0.00  0.00     0.296 P 
ATOM     17  O15 ZIN A   1      19.266  -4.688   9.268  0.00  0.00    -0.644 OA
ATOM     18  O16 ZIN A   1      17.740  -3.027  10.398  0.00  0.00    -0.644 OA
BRANCH  16  19
ATOM     19  O17 ZIN A   1      16.896  -4.313   8.330  0.00  0.00    -0.320 OA
ATOM     20  H26 ZIN A   1      16.044  -3.996   8.658  0.00  0.00     0.221 HD
ENDBRANCH  16  19
ENDBRANCH   1  16
TORSDOF 7
ENDMDL
MODEL 6
REMARK VINA RESULT:      -6.0      3.352      4.484
REMARK  7 active torsions:
REMARK  status: ('A' for Active; 'I' for Inactive)
REMARK    1  A    between atoms: P2_2  and  O4_4 
REMARK    2  A    between atoms: P2_2  and  C5_5 
REMARK    3  A    between atoms: C5_5  and  O6_6 
REMARK    4  A    between atoms: C5_5  and  C7_7 
REMARK    5  A    between atoms: C5_5  and  P14_14 
REMARK    6  A    between atoms: C7_7  and  C8_8 
REMARK    7  A    between atoms: P14_14  and  O17_17 
ROOT
ATOM      1  C5  ZIN A   1      19.120   0.172  12.141  0.00  0.00     0.272 C 
ENDROOT
BRANCH   1   2
ATOM      2  P2  ZIN A   1      19.965  -0.958  10.988  0.00  0.00     0.296 P 
ATOM      3  O1  ZIN A   1      19.281  -0.888   9.604  0.00  0.00    -0.644 OA
ATOM      4  O3  ZIN A   1      19.884  -2.403  11.529  0.00  0.00    -0.644 OA
BRANCH   2   5
ATOM      5  O4  ZIN A   1      21.509  -0.523  10.846  0.00  0.00    -0.320 OA
ATOM      6  H18 ZIN A   1      21.735  -0.151   9.982  0.00  0.00     0.221 HD
ENDBRANCH   2   5
ENDBRANCH   1   2
BRANCH   1   7
ATOM      7  O6  ZIN A   1      17.856  -0.383  12.512  0.00  0.00    -0.366 OA
ATOM      8  H19 ZIN A   1      17.279  -0.584  11.762  0.00  0.00     0.212 HD
ENDBRANCH   1   7
BRANCH   1   9
ATOM      9  C7  ZIN A   1      19.980   0.363  13.392  0.00  0.00     0.105 C 
BRANCH   9  10
ATOM     10  C8  ZIN A   1      19.180  -0.009  14.613  0.00  0.00    -0.036 A 
ATOM     11  C13 ZIN A   1      18.426   0.943  15.274  0.00  0.00     0.123 A 
ATOM     12  N12 ZIN A   1      17.719   0.623  16.339  0.00  0.00    -0.273 NA
ATOM     13  C11 ZIN A   1      17.708  -0.604  16.822  0.00  0.00     0.116 A 
ATOM     14  C10 ZIN A   1      18.441  -1.607  16.218  0.00  0.00     0.020 A 
ATOM     15  C9  ZIN A   1      19.193  -1.310  15.091  0.00  0.00     0.010 A 
ENDBRANCH   9  10
ENDBRANCH   1   9
BRANCH   1  16
ATOM     16  P14 ZIN A   1      18.860   1.784  11.331  0.00  0.00     0.296 P 
ATOM     17  O15 ZIN A   1      17.373   1.930  10.937  0.00  0.00    -0.644 OA
ATOM     18  O16 ZIN A   1      19.246   2.920  12.306  0.00  0.00    -0.644 OA
BRANCH  16  19
ATOM     19  O17 ZIN A   1      19.776   1.876  10.011  0.00  0.00    -0.320 OA
ATOM     20  H26 ZIN A   1      20.065   1.018   9.672  0.00  0.00     0.221 HD
ENDBRANCH  16  19
ENDBRANCH   1  16
TORSDOF 7
ENDMDL
MODEL 7
REMARK VINA RESULT:      -5.8      3.797      4.624
REMARK  7 active torsions:
REMARK  status: ('A' for Active; 'I' for Inactive)
REMARK    1  A    between atoms: P2_2  and  O4_4 
REMARK    2  A    between atoms: P2_2  and  C5_5 
REMARK    3  A    between atoms: C5_5  and  O6_6 
REMARK    4  A    between atoms: C5_5  and  C7_7 
REMARK    5  A    between atoms: C5_5  and  P14_14 
REMARK    6  A    between atoms: C7_7  and  C8_8 
REMARK    7  A    between atoms: P14_14  and  O17_17 
ROOT
ATOM      1  C5  ZIN A   1      19.299  -0.188  10.899  0.00  0.00     0.272 C 
ENDROOT
BRANCH   1   2
ATOM      2  P2  ZIN A   1      20.096   0.964  12.064  0.00  0.00     0.296 P 
ATOM      3  O1  ZIN A   1      19.421   0.846  13.449  0.00  0.00    -0.644 OA
ATOM      4  O3  ZIN A   1      19.949   2.410  11.542  0.00  0.00    -0.644 OA
BRANCH   2   5
ATOM      5  O4  ZIN A   1      21.659   0.598  12.197  0.00  0.00    -0.320 OA
ATOM      6  H18 ZIN A   1      22.028   0.162  11.418  0.00  0.00     0.221 HD
ENDBRANCH   2   5
ENDBRANCH   1   2
BRANCH   1   7
ATOM      7  O6  ZIN A   1      18.053   0.360  10.465  0.00  0.00    -0.366 OA
ATOM      8  H19 ZIN A   1      17.291  -0.214  10.629  0.00  0.00     0.212 HD
ENDBRANCH   1   7
BRANCH   1   9
ATOM      9  C7  ZIN A   1      20.211  -0.404   9.689  0.00  0.00     0.105 C 
BRANCH   9  10
ATOM     10  C8  ZIN A   1      19.445  -0.109   8.425  0.00  0.00    -0.036 A 
ATOM     11  C13 ZIN A   1      18.781  -1.121   7.758  0.00  0.00     0.123 A 
ATOM     12  N12 ZIN A   1      18.104  -0.870   6.655  0.00  0.00    -0.273 NA
ATOM     13  C11 ZIN A   1      18.042   0.343   6.140  0.00  0.00     0.116 A 
ATOM     14  C10 ZIN A   1      18.685   1.403   6.749  0.00  0.00     0.020 A 
ATOM     15  C9  ZIN A   1      19.402   1.178   7.915  0.00  0.00     0.010 A 
ENDBRANCH   9  10
ENDBRANCH   1   9
BRANCH   1  16
ATOM     16  P14 ZIN A   1      19.004  -1.784  11.729  0.00  0.00     0.296 P 
ATOM     17  O15 ZIN A   1      17.528  -1.866  12.180  0.00  0.00    -0.644 OA
ATOM     18  O16 ZIN A   1      19.306  -2.940  10.747  0.00  0.00    -0.644 OA
BRANCH  16  19
ATOM     19  O17 ZIN A   1      19.965  -1.907  13.014  0.00  0.00    -0.320 OA
ATOM     20  H26 ZIN A   1      20.078  -1.080  13.502  0.00  0.00     0.221 HD
ENDBRANCH  16  19
ENDBRANCH   1  16
TORSDOF 7
ENDMDL
MODEL 8
REMARK VINA RESULT:      -5.6      4.122      5.482
REMARK  7 active torsions:
REMARK  status: ('A' for Active; 'I' for Inactive)
REMARK    1  A    between atoms: P2_2  and  O4_4 
REMARK    2  A    between atoms: P2_2  and  C5_5 
REMARK    3  A    between atoms: C5_5  and  O6_6 
REMARK    4  A    between atoms: C5_5  and  C7_7 
REMARK    5  A    between atoms: C5_5  and  P14_14 
REMARK    6  A    between atoms: C7_7  and  C8_8 
REMARK    7  A    between atoms: P14_14  and  O17_17 
ROOT
ATOM      1  C5  ZIN A   1      18.745   0.205   9.735  0.00  0.00     0.272 C 
ENDROOT
BRANCH   1   2
ATOM      2  P2  ZIN A   1      18.590  -1.108  10.990  0.00  0.00     0.296 P 
ATOM      3  O1  ZIN A   1      19.524  -0.795  12.181  0.00  0.00    -0.644 OA
ATOM      4  O3  ZIN A   1      18.987  -2.466  10.369  0.00  0.00    -0.644 OA
BRANCH   2   5
ATOM      5  O4  ZIN A   1      17.067  -1.178  11.507  0.00  0.00    -0.320 OA
ATOM      6  H18 ZIN A   1      16.652  -2.044  11.391  0.00  0.00     0.221 HD
ENDBRANCH   2   5
ENDBRANCH   1   2
BRANCH   1   7
ATOM      7  O6  ZIN A   1      20.046   0.148   9.145  0.00  0.00    -0.366 OA
ATOM      8  H19 ZIN A   1      20.400   1.011   8.888  0.00  0.00     0.212 HD
ENDBRANCH   1   7
BRANCH   1   9
ATOM      9  C7  ZIN A   1      17.684   0.003   8.651  0.00  0.00     0.105 C 
BRANCH   9  10
ATOM     10  C8  ZIN A   1      18.360  -0.225   7.324  0.00  0.00    -0.036 A 
ATOM     11  C13 ZIN A   1      18.801  -1.487   6.971  0.00  0.00     0.123 A 
ATOM     12  N12 ZIN A   1      19.388  -1.695   5.809  0.00  0.00    -0.273 NA
ATOM     13  C11 ZIN A   1      19.587  -0.717   4.947  0.00  0.00     0.116 A 
ATOM     14  C10 ZIN A   1      19.178   0.571   5.233  0.00  0.00     0.020 A 
ATOM     15  C9  ZIN A   1      18.551   0.828   6.443  0.00  0.00     0.010 A 
ENDBRANCH   9  10
ENDBRANCH   1   9
BRANCH   1  16
ATOM     16  P14 ZIN A   1      18.508   1.831  10.524  0.00  0.00     0.296 P 
ATOM     17  O15 ZIN A   1      18.553   2.938   9.447  0.00  0.00    -0.644 OA
ATOM     18  O16 ZIN A   1      17.136   1.863  11.237  0.00  0.00    -0.644 OA
BRANCH  16  19
ATOM     19  O17 ZIN A   1      19.678   2.081  11.601  0.00  0.00    -0.320 OA
ATOM     20  H26 ZIN A   1      20.285   1.336  11.703  0.00  0.00     0.221 HD
ENDBRANCH  16  19
ENDBRANCH   1  16
TORSDOF 7
ENDMDL
MODEL 9
REMARK VINA RESULT:      -5.6      3.845      5.705
REMARK  7 active torsions:
REMARK  status: ('A' for Active; 'I' for Inactive)
REMARK    1  A    between atoms: P2_2  and  O4_4 
REMARK    2  A    between atoms: P2_2  and  C5_5 
REMARK    3  A    between atoms: C5_5  and  O6_6 
REMARK    4  A    between atoms: C5_5  and  C7_7 
REMARK    5  A    between atoms: C5_5  and  P14_14 
REMARK    6  A    between atoms: C7_7  and  C8_8 
REMARK    7  A    between atoms: P14_14  and  O17_17 
ROOT
ATOM      1  C5  ZIN A   1      19.276  -0.076  10.837  0.00  0.00     0.272 C 
ENDROOT
BRANCH   1   2
ATOM      2  P2  ZIN A   1      20.081   0.751  12.247  0.00  0.00     0.296 P 
ATOM      3  O1  ZIN A   1      19.632   0.079  13.564  0.00  0.00    -0.644 OA
ATOM      4  O3  ZIN A   1      19.680   2.243  12.268  0.00  0.00    -0.644 OA
BRANCH   2   5
ATOM      5  O4  ZIN A   1      21.680   0.627  12.100  0.00  0.00    -0.320 OA
ATOM      6  H18 ZIN A   1      22.172   1.319  12.562  0.00  0.00     0.221 HD
ENDBRANCH   2   5
ENDBRANCH   1   2
BRANCH   1   7
ATOM      7  O6  ZIN A   1      20.270  -0.694  10.016  0.00  0.00    -0.366 OA
ATOM      8  H19 ZIN A   1      20.767  -1.394  10.460  0.00  0.00     0.212 HD
ENDBRANCH   1   7
BRANCH   1   9
ATOM      9  C7  ZIN A   1      18.307  -1.141  11.354  0.00  0.00     0.105 C 
BRANCH   9  10
ATOM     10  C8  ZIN A   1      18.771  -2.502  10.903  0.00  0.00    -0.036 A 
ATOM     11  C13 ZIN A   1      18.336  -3.027   9.701  0.00  0.00     0.123 A 
ATOM     12  N12 ZIN A   1      18.742  -4.215   9.297  0.00  0.00    -0.273 NA
ATOM     13  C11 ZIN A   1      19.563  -4.950  10.022  0.00  0.00     0.116 A 
ATOM     14  C10 ZIN A   1      20.035  -4.493  11.237  0.00  0.00     0.020 A 
ATOM     15  C9  ZIN A   1      19.635  -3.246  11.692  0.00  0.00     0.010 A 
ENDBRANCH   9  10
ENDBRANCH   1   9
BRANCH   1  16
ATOM     16  P14 ZIN A   1      18.357   1.155   9.855  0.00  0.00     0.296 P 
ATOM     17  O15 ZIN A   1      19.354   2.125   9.181  0.00  0.00    -0.644 OA
ATOM     18  O16 ZIN A   1      17.528   0.433   8.768  0.00  0.00    -0.644 OA
BRANCH  16  19
ATOM     19  O17 ZIN A   1      17.371   1.984  10.820  0.00  0.00    -0.320 OA
ATOM     20  H26 ZIN A   1      17.483   2.943  10.767  0.00  0.00     0.221 HD
ENDBRANCH  16  19
ENDBRANCH   1  16
TORSDOF 7
ENDMDL
