MODEL 1
REMARK VINA RESULT:      -8.1      0.000      0.000
REMARK  6 active torsions:
REMARK  status: ('A' for Active; 'I' for Inactive)
REMARK    1  A    between atoms: C7_7  and  O9_8 
REMARK    2  A    between atoms: O9_8  and  C10_9 
REMARK    3  A    between atoms: C10_9  and  C12_11 
REMARK    4  A    between atoms: C12_11  and  O13_12 
REMARK    5  A    between atoms: C12_11  and  C14_13 
REMARK    6  A    between atoms: C12_11  and  C20_19 
ROOT
ATOM      1  C12 ZIN A   1      19.977   0.623  11.973  0.00  0.00     0.201 C 
ENDROOT
BRANCH   1   2
ATOM      2  C10 ZIN A   1      19.757  -0.351  10.844  0.00  0.00     0.303 C 
ATOM      3  O11 ZIN A   1      20.653  -0.593  10.072  0.00  0.00    -0.261 OA
BRANCH   2   4
ATOM      4  O9  ZIN A   1      18.565  -0.951  10.698  0.00  0.00    -0.311 OA
BRANCH   4   5
ATOM      5  C7  ZIN A   1      18.554  -2.403  10.694  0.00  0.00     0.158 C 
ATOM      6  C6  ZIN A   1      17.618  -2.910  11.794  0.00  0.00     0.036 C 
ATOM      7  C5  ZIN A   1      17.554  -4.439  11.732  0.00  0.00     0.030 C 
ATOM      8  C4  ZIN A   1      17.094  -4.867  10.337  0.00  0.00     0.236 C 
ATOM      9  N2  ZIN A   1      18.043  -4.375   9.332  0.00  0.00    -0.072 N 
ATOM     10  C1  ZIN A   1      19.388  -4.877   9.643  0.00  0.00     0.272 C 
ATOM     11  C26 ZIN A   1      18.057  -2.907   9.337  0.00  0.00     0.268 C 
ATOM     12  C3  ZIN A   1      17.638  -4.854   8.004  0.00  0.00     0.272 C 
ENDBRANCH   4   5
ENDBRANCH   2   4
ENDBRANCH   1   2
BRANCH   1  13
ATOM     13  O13 ZIN A   1      21.378   0.751  12.226  0.00  0.00    -0.371 OA
ATOM     14  H39 ZIN A   1      21.687   0.246  12.992  0.00  0.00     0.212 HD
ENDBRANCH   1  13
BRANCH   1  15
ATOM     15  C14 ZIN A   1      19.411   1.967  11.594  0.00  0.00    -0.009 A 
ATOM     16  C19 ZIN A   1      18.640   2.096  10.454  0.00  0.00     0.011 A 
ATOM     17  C18 ZIN A   1      18.117   3.329  10.109  0.00  0.00     0.001 A 
ATOM     18  C17 ZIN A   1      18.372   4.434  10.899  0.00  0.00     0.000 A 
ATOM     19  C16 ZIN A   1      19.147   4.305  12.036  0.00  0.00     0.001 A 
ATOM     20  C15 ZIN A   1      19.667   3.072  12.384  0.00  0.00     0.011 A 
ENDBRANCH   1  15
BRANCH   1  21
ATOM     21  C20 ZIN A   1      19.287   0.119  13.213  0.00  0.00    -0.009 A 
ATOM     22  C25 ZIN A   1      19.856  -0.896  13.958  0.00  0.00     0.011 A 
ATOM     23  C24 ZIN A   1      19.224  -1.355  15.100  0.00  0.00     0.001 A 
ATOM     24  C23 ZIN A   1      18.018  -0.804  15.491  0.00  0.00     0.000 A 
ATOM     25  C22 ZIN A   1      17.446   0.208  14.743  0.00  0.00     0.001 A 
ATOM     26  C21 ZIN A   1      18.080   0.670  13.605  0.00  0.00     0.011 A 
ENDBRANCH   1  21
TORSDOF 6
ENDMDL
MODEL 2
REMARK VINA RESULT:      -8.1      2.790      5.478
REMARK  6 active torsions:
REMARK  status: ('A' for Active; 'I' for Inactive)
REMARK    1  A    between atoms: C7_7  and  O9_8 
REMARK    2  A    between atoms: O9_8  and  C10_9 
REMARK    3  A    between atoms: C10_9  and  C12_11 
REMARK    4  A    between atoms: C12_11  and  O13_12 
REMARK    5  A    between atoms: C12_11  and  C14_13 
REMARK    6  A    between atoms: C12_11  and  C20_19 
ROOT
ATOM      1  C12 ZIN A   1      17.603  -0.071  11.208  0.00  0.00     0.201 C 
ENDROOT
BRANCH   1   2
ATOM      2  C10 ZIN A   1      18.087   0.814  12.328  0.00  0.00     0.303 C 
ATOM      3  O11 ZIN A   1      17.614   1.915  12.475  0.00  0.00    -0.261 OA
BRANCH   2   4
ATOM      4  O9  ZIN A   1      19.045   0.379  13.162  0.00  0.00    -0.311 OA
BRANCH   4   5
ATOM      5  C7  ZIN A   1      18.626  -0.030  14.491  0.00  0.00     0.158 C 
ATOM      6  C6  ZIN A   1      19.256  -1.384  14.831  0.00  0.00     0.036 C 
ATOM      7  C5  ZIN A   1      18.871  -1.770  16.261  0.00  0.00     0.030 C 
ATOM      8  C4  ZIN A   1      19.319  -0.664  17.220  0.00  0.00     0.236 C 
ATOM      9  N2  ZIN A   1      18.662   0.597  16.859  0.00  0.00    -0.072 N 
ATOM     10  C1  ZIN A   1      17.205   0.413  16.879  0.00  0.00     0.272 C 
ATOM     11  C26 ZIN A   1      19.082   1.011  15.515  0.00  0.00     0.268 C 
ATOM     12  C3  ZIN A   1      19.035   1.636  17.828  0.00  0.00     0.272 C 
ENDBRANCH   4   5
ENDBRANCH   2   4
ENDBRANCH   1   2
BRANCH   1  13
ATOM     13  O13 ZIN A   1      16.176  -0.133  11.233  0.00  0.00    -0.371 OA
ATOM     14  H39 ZIN A   1      15.773   0.362  11.961  0.00  0.00     0.212 HD
ENDBRANCH   1  13
BRANCH   1  15
ATOM     15  C14 ZIN A   1      18.058   0.496   9.887  0.00  0.00    -0.009 A 
ATOM     16  C19 ZIN A   1      17.588  -0.045   8.705  0.00  0.00     0.011 A 
ATOM     17  C18 ZIN A   1      18.001   0.478   7.494  0.00  0.00     0.001 A 
ATOM     18  C17 ZIN A   1      18.891   1.535   7.465  0.00  0.00     0.000 A 
ATOM     19  C16 ZIN A   1      19.365   2.072   8.647  0.00  0.00     0.001 A 
ATOM     20  C15 ZIN A   1      18.948   1.553   9.859  0.00  0.00     0.011 A 
ENDBRANCH   1  15
BRANCH   1  21
ATOM     21  C20 ZIN A   1      18.170  -1.456  11.382  0.00  0.00    -0.009 A 
ATOM     22  C25 ZIN A   1      17.348  -2.495  11.775  0.00  0.00     0.011 A 
ATOM     23  C24 ZIN A   1      17.868  -3.767  11.929  0.00  0.00     0.001 A 
ATOM     24  C23 ZIN A   1      19.211  -3.998  11.699  0.00  0.00     0.000 A 
ATOM     25  C22 ZIN A   1      20.034  -2.957  11.310  0.00  0.00     0.001 A 
ATOM     26  C21 ZIN A   1      19.514  -1.686  11.151  0.00  0.00     0.011 A 
ENDBRANCH   1  21
TORSDOF 6
ENDMDL
MODEL 3
REMARK VINA RESULT:      -8.1      2.739      6.892
REMARK  6 active torsions:
REMARK  status: ('A' for Active; 'I' for Inactive)
REMARK    1  A    between atoms: C7_7  and  O9_8 
REMARK    2  A    between atoms: O9_8  and  C10_9 
REMARK    3  A    between atoms: C10_9  and  C12_11 
REMARK    4  A    between atoms: C12_11  and  O13_12 
REMARK    5  A    between atoms: C12_11  and  C14_13 
REMARK    6  A    between atoms: C12_11  and  C20_19 
ROOT
ATOM      1  C12 ZIN A   1      19.824  -0.683  10.798  0.00  0.00     0.201 C 
ENDROOT
BRANCH   1   2
ATOM      2  C10 ZIN A   1      19.432   0.277  11.892  0.00  0.00     0.303 C 
ATOM      3  O11 ZIN A   1      20.152   0.427  12.850  0.00  0.00    -0.261 OA
BRANCH   2   4
ATOM      4  O9  ZIN A   1      18.283   0.965  11.802  0.00  0.00    -0.311 OA
BRANCH   4   5
ATOM      5  C7  ZIN A   1      18.379   2.414  11.824  0.00  0.00     0.158 C 
ATOM      6  C6  ZIN A   1      17.614   2.995  10.632  0.00  0.00     0.036 C 
ATOM      7  C5  ZIN A   1      17.656   4.523  10.706  0.00  0.00     0.030 C 
ATOM      8  C4  ZIN A   1      17.075   4.979  12.046  0.00  0.00     0.236 C 
ATOM      9  N2  ZIN A   1      17.866   4.413  13.145  0.00  0.00    -0.072 N 
ATOM     10  C1  ZIN A   1      19.271   4.813  12.993  0.00  0.00     0.272 C 
ATOM     11  C26 ZIN A   1      17.772   2.948  13.123  0.00  0.00     0.268 C 
ATOM     12  C3  ZIN A   1      17.351   4.915  14.425  0.00  0.00     0.272 C 
ENDBRANCH   4   5
ENDBRANCH   2   4
ENDBRANCH   1   2
BRANCH   1  13
ATOM     13  O13 ZIN A   1      21.248  -0.720  10.684  0.00  0.00    -0.371 OA
ATOM     14  H39 ZIN A   1      21.648  -1.534  11.024  0.00  0.00     0.212 HD
ENDBRANCH   1  13
BRANCH   1  15
ATOM     15  C14 ZIN A   1      19.310  -2.061  11.130  0.00  0.00    -0.009 A 
ATOM     16  C19 ZIN A   1      20.155  -3.151  11.047  0.00  0.00     0.011 A 
ATOM     17  C18 ZIN A   1      19.685  -4.415  11.356  0.00  0.00     0.001 A 
ATOM     18  C17 ZIN A   1      18.369  -4.588  11.739  0.00  0.00     0.000 A 
ATOM     19  C16 ZIN A   1      17.523  -3.497  11.816  0.00  0.00     0.001 A 
ATOM     20  C15 ZIN A   1      17.993  -2.233  11.512  0.00  0.00     0.011 A 
ENDBRANCH   1  15
BRANCH   1  21
ATOM     21  C20 ZIN A   1      19.227  -0.226   9.492  0.00  0.00    -0.009 A 
ATOM     22  C25 ZIN A   1      19.775   0.851   8.821  0.00  0.00     0.011 A 
ATOM     23  C24 ZIN A   1      19.229   1.266   7.620  0.00  0.00     0.001 A 
ATOM     24  C23 ZIN A   1      18.132   0.610   7.095  0.00  0.00     0.000 A 
ATOM     25  C22 ZIN A   1      17.582  -0.464   7.769  0.00  0.00     0.001 A 
ATOM     26  C21 ZIN A   1      18.129  -0.882   8.967  0.00  0.00     0.011 A 
ENDBRANCH   1  21
TORSDOF 6
ENDMDL
MODEL 4
REMARK VINA RESULT:      -8.0      2.422      6.239
REMARK  6 active torsions:
REMARK  status: ('A' for Active; 'I' for Inactive)
REMARK    1  A    between atoms: C7_7  and  O9_8 
REMARK    2  A    between atoms: O9_8  and  C10_9 
REMARK    3  A    between atoms: C10_9  and  C12_11 
REMARK    4  A    between atoms: C12_11  and  O13_12 
REMARK    5  A    between atoms: C12_11  and  C14_13 
REMARK    6  A    between atoms: C12_11  and  C20_19 
ROOT
ATOM      1  C12 ZIN A   1      18.061  -0.758  12.753  0.00  0.00     0.201 C 
ENDROOT
BRANCH   1   2
ATOM      2  C10 ZIN A   1      18.991   0.290  12.199  0.00  0.00     0.303 C 
ATOM      3  O11 ZIN A   1      20.068   0.474  12.712  0.00  0.00    -0.261 OA
BRANCH   2   4
ATOM      4  O9  ZIN A   1      18.622   1.020  11.134  0.00  0.00    -0.311 OA
BRANCH   4   5
ATOM      5  C7  ZIN A   1      18.622   2.463  11.291  0.00  0.00     0.158 C 
ATOM      6  C6  ZIN A   1      17.911   3.107  10.097  0.00  0.00     0.036 C 
ATOM      7  C5  ZIN A   1      17.850   4.622  10.309  0.00  0.00     0.030 C 
ATOM      8  C4  ZIN A   1      17.142   4.917  11.633  0.00  0.00     0.236 C 
ATOM      9  N2  ZIN A   1      17.884   4.298  12.737  0.00  0.00    -0.072 N 
ATOM     10  C1  ZIN A   1      19.268   4.791  12.734  0.00  0.00     0.272 C 
ATOM     11  C26 ZIN A   1      17.887   2.838  12.579  0.00  0.00     0.268 C 
ATOM     12  C3  ZIN A   1      17.244   4.648  14.011  0.00  0.00     0.272 C 
ENDBRANCH   4   5
ENDBRANCH   2   4
ENDBRANCH   1   2
BRANCH   1  13
ATOM     13  O13 ZIN A   1      16.724  -0.480  12.333  0.00  0.00    -0.371 OA
ATOM     14  H39 ZIN A   1      16.305   0.249  12.813  0.00  0.00     0.212 HD
ENDBRANCH   1  13
BRANCH   1  15
ATOM     15  C14 ZIN A   1      18.474  -2.116  12.245  0.00  0.00    -0.009 A 
ATOM     16  C19 ZIN A   1      17.524  -3.102  12.058  0.00  0.00     0.011 A 
ATOM     17  C18 ZIN A   1      17.903  -4.346  11.588  0.00  0.00     0.001 A 
ATOM     18  C17 ZIN A   1      19.232  -4.606  11.312  0.00  0.00     0.000 A 
ATOM     19  C16 ZIN A   1      20.182  -3.621  11.504  0.00  0.00     0.001 A 
ATOM     20  C15 ZIN A   1      19.804  -2.375  11.970  0.00  0.00     0.011 A 
ENDBRANCH   1  15
BRANCH   1  21
ATOM     21  C20 ZIN A   1      18.128  -0.744  14.258  0.00  0.00    -0.009 A 
ATOM     22  C25 ZIN A   1      17.340   0.134  14.977  0.00  0.00     0.011 A 
ATOM     23  C24 ZIN A   1      17.398   0.143  16.359  0.00  0.00     0.001 A 
ATOM     24  C23 ZIN A   1      18.252  -0.720  17.020  0.00  0.00     0.000 A 
ATOM     25  C22 ZIN A   1      19.044  -1.596  16.301  0.00  0.00     0.001 A 
ATOM     26  C21 ZIN A   1      18.982  -1.607  14.919  0.00  0.00     0.011 A 
ENDBRANCH   1  21
TORSDOF 6
ENDMDL
MODEL 5
REMARK VINA RESULT:      -7.9      2.685      6.535
REMARK  6 active torsions:
REMARK  status: ('A' for Active; 'I' for Inactive)
REMARK    1  A    between atoms: C7_7  and  O9_8 
REMARK    2  A    between atoms: O9_8  and  C10_9 
REMARK    3  A    between atoms: C10_9  and  C12_11 
REMARK    4  A    between atoms: C12_11  and  O13_12 
REMARK    5  A    between atoms: C12_11  and  C14_13 
REMARK    6  A    between atoms: C12_11  and  C20_19 
ROOT
ATOM      1  C12 ZIN A   1      19.398  -0.556  11.348  0.00  0.00     0.201 C 
ENDROOT
BRANCH   1   2
ATOM      2  C10 ZIN A   1      18.570   0.230  12.332  0.00  0.00     0.303 C 
ATOM      3  O11 ZIN A   1      17.402   0.438  12.107  0.00  0.00    -0.261 OA
BRANCH   2   4
ATOM      4  O9  ZIN A   1      19.130   0.698  13.458  0.00  0.00    -0.311 OA
BRANCH   4   5
ATOM      5  C7  ZIN A   1      18.661   0.135  14.712  0.00  0.00     0.158 C 
ATOM      6  C6  ZIN A   1      19.303  -1.239  14.926  0.00  0.00     0.036 C 
ATOM      7  C5  ZIN A   1      18.861  -1.791  16.284  0.00  0.00     0.030 C 
ATOM      8  C4  ZIN A   1      19.243  -0.794  17.381  0.00  0.00     0.236 C 
ATOM      9  N2  ZIN A   1      18.578   0.490  17.135  0.00  0.00    -0.072 N 
ATOM     10  C1  ZIN A   1      17.125   0.282  17.065  0.00  0.00     0.272 C 
ATOM     11  C26 ZIN A   1      19.050   1.060  15.866  0.00  0.00     0.268 C 
ATOM     12  C3  ZIN A   1      18.887   1.417  18.230  0.00  0.00     0.272 C 
ENDBRANCH   4   5
ENDBRANCH   2   4
ENDBRANCH   1   2
BRANCH   1  13
ATOM     13  O13 ZIN A   1      20.783  -0.412  11.669  0.00  0.00    -0.371 OA
ATOM     14  H39 ZIN A   1      21.345  -0.215  10.906  0.00  0.00     0.212 HD
ENDBRANCH   1  13
BRANCH   1  15
ATOM     15  C14 ZIN A   1      19.016  -2.012  11.420  0.00  0.00    -0.009 A 
ATOM     16  C19 ZIN A   1      19.995  -2.987  11.369  0.00  0.00     0.011 A 
ATOM     17  C18 ZIN A   1      19.644  -4.323  11.439  0.00  0.00     0.001 A 
ATOM     18  C17 ZIN A   1      18.314  -4.683  11.551  0.00  0.00     0.000 A 
ATOM     19  C16 ZIN A   1      17.336  -3.709  11.596  0.00  0.00     0.001 A 
ATOM     20  C15 ZIN A   1      17.686  -2.372  11.531  0.00  0.00     0.011 A 
ENDBRANCH   1  15
BRANCH   1  21
ATOM     21  C20 ZIN A   1      19.148  -0.040   9.955  0.00  0.00    -0.009 A 
ATOM     22  C25 ZIN A   1      18.658  -0.889   8.981  0.00  0.00     0.011 A 
ATOM     23  C24 ZIN A   1      18.425  -0.413   7.703  0.00  0.00     0.001 A 
ATOM     24  C23 ZIN A   1      18.690   0.909   7.399  0.00  0.00     0.000 A 
ATOM     25  C22 ZIN A   1      19.184   1.757   8.372  0.00  0.00     0.001 A 
ATOM     26  C21 ZIN A   1      19.414   1.283   9.650  0.00  0.00     0.011 A 
ENDBRANCH   1  21
TORSDOF 6
ENDMDL
MODEL 6
REMARK VINA RESULT:      -7.9      2.163      4.962
REMARK  6 active torsions:
REMARK  status: ('A' for Active; 'I' for Inactive)
REMARK    1  A    between atoms: C7_7  and  O9_8 
REMARK    2  A    between atoms: O9_8  and  C10_9 
REMARK    3  A    between atoms: C10_9  and  C12_11 
REMARK    4  A    between atoms: C12_11  and  O13_12 
REMARK    5  A    between atoms: C12_11  and  C14_13 
REMARK    6  A    between atoms: C12_11  and  C20_19 
ROOT
ATOM      1  C12 ZIN A   1      19.144  -0.870  12.587  0.00  0.00     0.201 C 
ENDROOT
BRANCH   1   2
ATOM      2  C10 ZIN A   1      18.317   0.078  11.757  0.00  0.00     0.303 C 
ATOM      3  O11 ZIN A   1      17.112   0.052  11.833  0.00  0.00    -0.261 OA
BRANCH   2   4
ATOM      4  O9  ZIN A   1      18.920   0.951  10.935  0.00  0.00    -0.311 OA
BRANCH   4   5
ATOM      5  C7  ZIN A   1      18.534   0.913   9.536  0.00  0.00     0.158 C 
ATOM      6  C6  ZIN A   1      19.144   2.113   8.805  0.00  0.00     0.036 C 
ATOM      7  C5  ZIN A   1      18.795   2.023   7.317  0.00  0.00     0.030 C 
ATOM      8  C4  ZIN A   1      19.297   0.688   6.762  0.00  0.00     0.236 C 
ATOM      9  N2  ZIN A   1      18.658  -0.418   7.483  0.00  0.00    -0.072 N 
ATOM     10  C1  ZIN A   1      17.198  -0.295   7.373  0.00  0.00     0.272 C 
ATOM     11  C26 ZIN A   1      19.046  -0.380   8.898  0.00  0.00     0.268 C 
ATOM     12  C3  ZIN A   1      19.085  -1.694   6.895  0.00  0.00     0.272 C 
ENDBRANCH   4   5
ENDBRANCH   2   4
ENDBRANCH   1   2
BRANCH   1  13
ATOM     13  O13 ZIN A   1      20.527  -0.531  12.462  0.00  0.00    -0.371 OA
ATOM     14  H39 ZIN A   1      21.129  -1.196  12.825  0.00  0.00     0.212 HD
ENDBRANCH   1  13
BRANCH   1  15
ATOM     15  C14 ZIN A   1      18.731  -0.763  14.033  0.00  0.00    -0.009 A 
ATOM     16  C19 ZIN A   1      19.312  -1.586  14.980  0.00  0.00     0.011 A 
ATOM     17  C18 ZIN A   1      18.936  -1.485  16.307  0.00  0.00     0.001 A 
ATOM     18  C17 ZIN A   1      17.974  -0.568  16.685  0.00  0.00     0.000 A 
ATOM     19  C16 ZIN A   1      17.390   0.250  15.737  0.00  0.00     0.001 A 
ATOM     20  C15 ZIN A   1      17.768   0.153  14.411  0.00  0.00     0.011 A 
ENDBRANCH   1  15
BRANCH   1  21
ATOM     21  C20 ZIN A   1      18.926  -2.281  12.106  0.00  0.00    -0.009 A 
ATOM     22  C25 ZIN A   1      17.644  -2.790  12.016  0.00  0.00     0.011 A 
ATOM     23  C24 ZIN A   1      17.444  -4.084  11.570  0.00  0.00     0.001 A 
ATOM     24  C23 ZIN A   1      18.527  -4.870  11.222  0.00  0.00     0.000 A 
ATOM     25  C22 ZIN A   1      19.809  -4.362  11.316  0.00  0.00     0.001 A 
ATOM     26  C21 ZIN A   1      20.009  -3.067  11.758  0.00  0.00     0.011 A 
ENDBRANCH   1  21
TORSDOF 6
ENDMDL
MODEL 7
REMARK VINA RESULT:      -7.8      1.128      3.887
REMARK  6 active torsions:
REMARK  status: ('A' for Active; 'I' for Inactive)
REMARK    1  A    between atoms: C7_7  and  O9_8 
REMARK    2  A    between atoms: O9_8  and  C10_9 
REMARK    3  A    between atoms: C10_9  and  C12_11 
REMARK    4  A    between atoms: C12_11  and  O13_12 
REMARK    5  A    between atoms: C12_11  and  C14_13 
REMARK    6  A    between atoms: C12_11  and  C20_19 
ROOT
ATOM      1  C12 ZIN A   1      17.629   0.177  11.874  0.00  0.00     0.201 C 
ENDROOT
BRANCH   1   2
ATOM      2  C10 ZIN A   1      18.307  -0.678  10.835  0.00  0.00     0.303 C 
ATOM      3  O11 ZIN A   1      19.470  -0.496  10.569  0.00  0.00    -0.261 OA
BRANCH   2   4
ATOM      4  O9  ZIN A   1      17.617  -1.642  10.204  0.00  0.00    -0.311 OA
BRANCH   4   5
ATOM      5  C7  ZIN A   1      18.065  -3.009  10.400  0.00  0.00     0.158 C 
ATOM      6  C6  ZIN A   1      17.338  -3.617  11.603  0.00  0.00     0.036 C 
ATOM      7  C5  ZIN A   1      17.760  -5.081  11.755  0.00  0.00     0.030 C 
ATOM      8  C4  ZIN A   1      17.458  -5.830  10.455  0.00  0.00     0.236 C 
ATOM      9  N2  ZIN A   1      18.202  -5.218   9.348  0.00  0.00    -0.072 N 
ATOM     10  C1  ZIN A   1      19.637  -5.223   9.662  0.00  0.00     0.272 C 
ATOM     11  C26 ZIN A   1      17.752  -3.835   9.151  0.00  0.00     0.268 C 
ATOM     12  C3  ZIN A   1      17.968  -5.987   8.120  0.00  0.00     0.272 C 
ENDBRANCH   4   5
ENDBRANCH   2   4
ENDBRANCH   1   2
BRANCH   1  13
ATOM     13  O13 ZIN A   1      16.211   0.052  11.744  0.00  0.00    -0.371 OA
ATOM     14  H39 ZIN A   1      15.710   0.619  12.347  0.00  0.00     0.212 HD
ENDBRANCH   1  13
BRANCH   1  15
ATOM     15  C14 ZIN A   1      18.048  -0.278  13.250  0.00  0.00    -0.009 A 
ATOM     16  C19 ZIN A   1      19.157  -1.088  13.401  0.00  0.00     0.011 A 
ATOM     17  C18 ZIN A   1      19.544  -1.501  14.663  0.00  0.00     0.001 A 
ATOM     18  C17 ZIN A   1      18.816  -1.110  15.771  0.00  0.00     0.000 A 
ATOM     19  C16 ZIN A   1      17.704  -0.304  15.619  0.00  0.00     0.001 A 
ATOM     20  C15 ZIN A   1      17.319   0.113  14.358  0.00  0.00     0.011 A 
ENDBRANCH   1  15
BRANCH   1  21
ATOM     21  C20 ZIN A   1      18.027   1.616  11.679  0.00  0.00    -0.009 A 
ATOM     22  C25 ZIN A   1      17.580   2.313  10.572  0.00  0.00     0.011 A 
ATOM     23  C24 ZIN A   1      17.941   3.636  10.396  0.00  0.00     0.001 A 
ATOM     24  C23 ZIN A   1      18.757   4.259  11.321  0.00  0.00     0.000 A 
ATOM     25  C22 ZIN A   1      19.208   3.561  12.426  0.00  0.00     0.001 A 
ATOM     26  C21 ZIN A   1      18.842   2.240  12.605  0.00  0.00     0.011 A 
ENDBRANCH   1  21
TORSDOF 6
ENDMDL
MODEL 8
REMARK VINA RESULT:      -7.4      2.371      6.265
REMARK  6 active torsions:
REMARK  status: ('A' for Active; 'I' for Inactive)
REMARK    1  A    between atoms: C7_7  and  O9_8 
REMARK    2  A    between atoms: O9_8  and  C10_9 
REMARK    3  A    between atoms: C10_9  and  C12_11 
REMARK    4  A    between atoms: C12_11  and  O13_12 
REMARK    5  A    between atoms: C12_11  and  C14_13 
REMARK    6  A    between atoms: C12_11  and  C20_19 
ROOT
ATOM      1  C12 ZIN A   1      19.131  -0.798  12.733  0.00  0.00     0.201 C 
ENDROOT
BRANCH   1   2
ATOM      2  C10 ZIN A   1      18.284   0.171  11.947  0.00  0.00     0.303 C 
ATOM      3  O11 ZIN A   1      17.094   0.229  12.143  0.00  0.00    -0.261 OA
BRANCH   2   4
ATOM      4  O9  ZIN A   1      18.854   0.969  11.030  0.00  0.00    -0.311 OA
BRANCH   4   5
ATOM      5  C7  ZIN A   1      18.792   2.399  11.271  0.00  0.00     0.158 C 
ATOM      6  C6  ZIN A   1      17.788   3.037  10.307  0.00  0.00     0.036 C 
ATOM      7  C5  ZIN A   1      17.674   4.531  10.619  0.00  0.00     0.030 C 
ATOM      8  C4  ZIN A   1      17.265   4.710  12.083  0.00  0.00     0.236 C 
ATOM      9  N2  ZIN A   1      18.277   4.103  12.955  0.00  0.00    -0.072 N 
ATOM     10  C1  ZIN A   1      19.588   4.704  12.675  0.00  0.00     0.272 C 
ATOM     11  C26 ZIN A   1      18.342   2.657  12.711  0.00  0.00     0.268 C 
ATOM     12  C3  ZIN A   1      17.919   4.345  14.358  0.00  0.00     0.272 C 
ENDBRANCH   4   5
ENDBRANCH   2   4
ENDBRANCH   1   2
BRANCH   1  13
ATOM     13  O13 ZIN A   1      20.505  -0.421  12.632  0.00  0.00    -0.371 OA
ATOM     14  H39 ZIN A   1      21.113  -1.169  12.549  0.00  0.00     0.212 HD
ENDBRANCH   1  13
BRANCH   1  15
ATOM     15  C14 ZIN A   1      18.709  -0.774  14.180  0.00  0.00    -0.009 A 
ATOM     16  C19 ZIN A   1      17.660   0.031  14.582  0.00  0.00     0.011 A 
ATOM     17  C18 ZIN A   1      17.271   0.049  15.908  0.00  0.00     0.001 A 
ATOM     18  C17 ZIN A   1      17.937  -0.731  16.835  0.00  0.00     0.000 A 
ATOM     19  C16 ZIN A   1      18.989  -1.532  16.434  0.00  0.00     0.001 A 
ATOM     20  C15 ZIN A   1      19.376  -1.554  15.106  0.00  0.00     0.011 A 
ENDBRANCH   1  15
BRANCH   1  21
ATOM     21  C20 ZIN A   1      18.949  -2.187  12.180  0.00  0.00    -0.009 A 
ATOM     22  C25 ZIN A   1      17.679  -2.716  12.044  0.00  0.00     0.011 A 
ATOM     23  C24 ZIN A   1      17.512  -3.990  11.532  0.00  0.00     0.001 A 
ATOM     24  C23 ZIN A   1      18.615  -4.738  11.165  0.00  0.00     0.000 A 
ATOM     25  C22 ZIN A   1      19.885  -4.211  11.306  0.00  0.00     0.001 A 
ATOM     26  C21 ZIN A   1      20.052  -2.935  11.814  0.00  0.00     0.011 A 
ENDBRANCH   1  21
TORSDOF 6
ENDMDL
MODEL 9
REMARK VINA RESULT:      -7.3      3.307      7.100
REMARK  6 active torsions:
REMARK  status: ('A' for Active; 'I' for Inactive)
REMARK    1  A    between atoms: C7_7  and  O9_8 
REMARK    2  A    between atoms: O9_8  and  C10_9 
REMARK    3  A    between atoms: C10_9  and  C12_11 
REMARK    4  A    between atoms: C12_11  and  O13_12 
REMARK    5  A    between atoms: C12_11  and  C14_13 
REMARK    6  A    between atoms: C12_11  and  C20_19 
ROOT
ATOM      1  C12 ZIN A   1      19.930   1.127  11.920  0.00  0.00     0.201 C 
ENDROOT
BRANCH   1   2
ATOM      2  C10 ZIN A   1      19.488   2.559  12.075  0.00  0.00     0.303 C 
ATOM      3  O11 ZIN A   1      20.213   3.457  11.719  0.00  0.00    -0.261 OA
BRANCH   2   4
ATOM      4  O9  ZIN A   1      18.287   2.837  12.607  0.00  0.00    -0.311 OA
BRANCH   4   5
ATOM      5  C7  ZIN A   1      18.097   4.172  13.146  0.00  0.00     0.158 C 
ATOM      6  C6  ZIN A   1      16.878   4.821  12.486  0.00  0.00     0.036 C 
ATOM      7  C5  ZIN A   1      16.641   6.197  13.115  0.00  0.00     0.030 C 
ATOM      8  C4  ZIN A   1      16.465   6.036  14.626  0.00  0.00     0.236 C 
ATOM      9  N2  ZIN A   1      17.673   5.435  15.202  0.00  0.00    -0.072 N 
ATOM     10  C1  ZIN A   1      18.838   6.267  14.872  0.00  0.00     0.272 C 
ATOM     11  C26 ZIN A   1      17.868   4.086  14.656  0.00  0.00     0.268 C 
ATOM     12  C3  ZIN A   1      17.529   5.354  16.661  0.00  0.00     0.272 C 
ENDBRANCH   4   5
ENDBRANCH   2   4
ENDBRANCH   1   2
BRANCH   1  13
ATOM     13  O13 ZIN A   1      21.357   1.072  11.874  0.00  0.00    -0.371 OA
ATOM     14  H39 ZIN A   1      21.742   0.375  12.425  0.00  0.00     0.212 HD
ENDBRANCH   1  13
BRANCH   1  15
ATOM     15  C14 ZIN A   1      19.434   0.319  13.092  0.00  0.00    -0.009 A 
ATOM     16  C19 ZIN A   1      18.902  -0.940  12.886  0.00  0.00     0.011 A 
ATOM     17  C18 ZIN A   1      18.451  -1.684  13.962  0.00  0.00     0.001 A 
ATOM     18  C17 ZIN A   1      18.525  -1.165  15.241  0.00  0.00     0.000 A 
ATOM     19  C16 ZIN A   1      19.053   0.096  15.445  0.00  0.00     0.001 A 
ATOM     20  C15 ZIN A   1      19.508   0.839  14.370  0.00  0.00     0.011 A 
ENDBRANCH   1  15
BRANCH   1  21
ATOM     21  C20 ZIN A   1      19.364   0.561  10.644  0.00  0.00    -0.009 A 
ATOM     22  C25 ZIN A   1      20.141  -0.255   9.845  0.00  0.00     0.011 A 
ATOM     23  C24 ZIN A   1      19.619  -0.779   8.676  0.00  0.00     0.001 A 
ATOM     24  C23 ZIN A   1      18.322  -0.478   8.303  0.00  0.00     0.000 A 
ATOM     25  C22 ZIN A   1      17.546   0.342   9.100  0.00  0.00     0.001 A 
ATOM     26  C21 ZIN A   1      18.067   0.862  10.271  0.00  0.00     0.011 A 
ENDBRANCH   1  21
TORSDOF 6
ENDMDL
