MODEL 1
REMARK VINA RESULT:      -6.4      0.000      0.000
REMARK  5 active torsions:
REMARK  status: ('A' for Active; 'I' for Inactive)
REMARK    1  A    between atoms: N11_11  and  C12_12 
REMARK    2  A    between atoms: C12_12  and  C13_13 
REMARK    3  A    between atoms: C13_13  and  O15_14 
REMARK    4  A    between atoms: C13_13  and  C16_15 
REMARK    5  A    between atoms: C16_15  and  O17_16 
ROOT
ATOM      1  C1  ZIN A   1      18.525  -4.849   5.883  0.00  0.00     0.163 C 
ATOM      2  N2  ZIN A   1      18.722  -3.478   6.359  0.00  0.00    -0.286 N 
ATOM      3  C3  ZIN A   1      18.679  -3.205   7.717  0.00  0.00     0.167 A 
ATOM      4  C4  ZIN A   1      18.870  -1.897   8.144  0.00  0.00     0.151 A 
ATOM      5  C5  ZIN A   1      19.101  -0.886   7.185  0.00  0.00     0.282 A 
ATOM      6  O6  ZIN A   1      19.272   0.267   7.535  0.00  0.00    -0.265 OA
ATOM      7  N7  ZIN A   1      19.132  -1.216   5.876  0.00  0.00    -0.269 N 
ATOM      8  C8  ZIN A   1      19.372  -0.173   4.876  0.00  0.00     0.164 C 
ATOM      9  C9  ZIN A   1      18.952  -2.487   5.477  0.00  0.00     0.332 A 
ATOM     10  O10 ZIN A   1      18.986  -2.746   4.290  0.00  0.00    -0.246 OA
ATOM     11  N11 ZIN A   1      18.775  -1.921   9.521  0.00  0.00    -0.331 N 
ATOM     12  C18 ZIN A   1      18.538  -3.200   9.876  0.00  0.00     0.212 A 
ATOM     13  N19 ZIN A   1      18.483  -3.952   8.807  0.00  0.00    -0.223 NA
ENDROOT
BRANCH  11  14
ATOM     14  C12 ZIN A   1      18.907  -0.776  10.425  0.00  0.00     0.164 C 
BRANCH  14  15
ATOM     15  C13 ZIN A   1      20.342  -0.706  10.952  0.00  0.00     0.160 C 
BRANCH  15  16
ATOM     16  O15 ZIN A   1      21.223  -0.337   9.889  0.00  0.00    -0.392 OA
ATOM     17  H28 ZIN A   1      20.814   0.226   9.218  0.00  0.00     0.210 HD
ENDBRANCH  15  16
BRANCH  15  18
ATOM     18  C16 ZIN A   1      20.424   0.338  12.068  0.00  0.00     0.197 C 
BRANCH  18  19
ATOM     19  O17 ZIN A   1      21.791   0.695  12.286  0.00  0.00    -0.398 OA
ATOM     20  H31 ZIN A   1      22.340  -0.031  12.613  0.00  0.00     0.209 HD
ENDBRANCH  18  19
ENDBRANCH  15  18
ENDBRANCH  14  15
ENDBRANCH  11  14
TORSDOF 5
ENDMDL
MODEL 2
REMARK VINA RESULT:      -6.3      1.806      3.223
REMARK  5 active torsions:
REMARK  status: ('A' for Active; 'I' for Inactive)
REMARK    1  A    between atoms: N11_11  and  C12_12 
REMARK    2  A    between atoms: C12_12  and  C13_13 
REMARK    3  A    between atoms: C13_13  and  O15_14 
REMARK    4  A    between atoms: C13_13  and  C16_15 
REMARK    5  A    between atoms: C16_15  and  O17_16 
ROOT
ATOM      1  C1  ZIN A   1      19.289  -0.113   4.808  0.00  0.00     0.163 C 
ATOM      2  N2  ZIN A   1      19.228  -0.622   6.181  0.00  0.00    -0.286 N 
ATOM      3  C3  ZIN A   1      19.089   0.260   7.240  0.00  0.00     0.167 A 
ATOM      4  C4  ZIN A   1      19.034  -0.247   8.532  0.00  0.00     0.151 A 
ATOM      5  C5  ZIN A   1      19.121  -1.643   8.728  0.00  0.00     0.282 A 
ATOM      6  O6  ZIN A   1      19.073  -2.112   9.851  0.00  0.00    -0.265 OA
ATOM      7  N7  ZIN A   1      19.254  -2.451   7.655  0.00  0.00    -0.269 N 
ATOM      8  C8  ZIN A   1      19.344  -3.900   7.850  0.00  0.00     0.164 C 
ATOM      9  C9  ZIN A   1      19.301  -1.947   6.410  0.00  0.00     0.332 A 
ATOM     10  O10 ZIN A   1      19.423  -2.706   5.467  0.00  0.00    -0.246 OA
ATOM     11  N11 ZIN A   1      18.896   0.841   9.370  0.00  0.00    -0.331 N 
ATOM     12  C18 ZIN A   1      18.873   1.939   8.587  0.00  0.00     0.212 A 
ATOM     13  N19 ZIN A   1      18.987   1.589   7.332  0.00  0.00    -0.223 NA
ENDROOT
BRANCH  11  14
ATOM     14  C12 ZIN A   1      18.795   0.810  10.831  0.00  0.00     0.164 C 
BRANCH  14  15
ATOM     15  C13 ZIN A   1      20.113   1.291  11.443  0.00  0.00     0.160 C 
BRANCH  15  16
ATOM     16  O15 ZIN A   1      19.840   2.235  12.480  0.00  0.00    -0.392 OA
ATOM     17  H28 ZIN A   1      19.792   1.845  13.363  0.00  0.00     0.210 HD
ENDBRANCH  15  16
BRANCH  15  18
ATOM     18  C16 ZIN A   1      20.869   0.095  12.027  0.00  0.00     0.197 C 
BRANCH  18  19
ATOM     19  O17 ZIN A   1      21.618  -0.545  10.991  0.00  0.00    -0.398 OA
ATOM     20  H31 ZIN A   1      22.330  -1.115  11.316  0.00  0.00     0.209 HD
ENDBRANCH  18  19
ENDBRANCH  15  18
ENDBRANCH  14  15
ENDBRANCH  11  14
TORSDOF 5
ENDMDL
MODEL 3
REMARK VINA RESULT:      -6.2      5.160      9.215
REMARK  5 active torsions:
REMARK  status: ('A' for Active; 'I' for Inactive)
REMARK    1  A    between atoms: N11_11  and  C12_12 
REMARK    2  A    between atoms: C12_12  and  C13_13 
REMARK    3  A    between atoms: C13_13  and  O15_14 
REMARK    4  A    between atoms: C13_13  and  C16_15 
REMARK    5  A    between atoms: C16_15  and  O17_16 
ROOT
ATOM      1  C1  ZIN A   1      19.227   4.492  16.859  0.00  0.00     0.163 C 
ATOM      2  N2  ZIN A   1      19.135   3.076  16.493  0.00  0.00    -0.286 N 
ATOM      3  C3  ZIN A   1      18.945   2.714  15.169  0.00  0.00     0.167 A 
ATOM      4  C4  ZIN A   1      18.861   1.366  14.847  0.00  0.00     0.151 A 
ATOM      5  C5  ZIN A   1      18.972   0.405  15.876  0.00  0.00     0.282 A 
ATOM      6  O6  ZIN A   1      18.902  -0.783  15.619  0.00  0.00    -0.265 OA
ATOM      7  N7  ZIN A   1      19.157   0.820  17.147  0.00  0.00    -0.269 N 
ATOM      8  C8  ZIN A   1      19.273  -0.172  18.219  0.00  0.00     0.164 C 
ATOM      9  C9  ZIN A   1      19.242   2.128  17.443  0.00  0.00     0.332 A 
ATOM     10  O10 ZIN A   1      19.408   2.464  18.600  0.00  0.00    -0.246 OA
ATOM     11  N11 ZIN A   1      18.674   1.305  13.481  0.00  0.00    -0.331 N 
ATOM     12  C18 ZIN A   1      18.650   2.575  13.030  0.00  0.00     0.212 A 
ATOM     13  N19 ZIN A   1      18.811   3.402  14.031  0.00  0.00    -0.223 NA
ENDROOT
BRANCH  11  14
ATOM     14  C12 ZIN A   1      18.528   0.091  12.674  0.00  0.00     0.164 C 
BRANCH  14  15
ATOM     15  C13 ZIN A   1      19.899  -0.560  12.482  0.00  0.00     0.160 C 
BRANCH  15  16
ATOM     16  O15 ZIN A   1      19.842  -1.925  12.902  0.00  0.00    -0.392 OA
ATOM     17  H28 ZIN A   1      18.947  -2.244  13.080  0.00  0.00     0.210 HD
ENDBRANCH  15  16
BRANCH  15  18
ATOM     18  C16 ZIN A   1      20.290  -0.498  11.003  0.00  0.00     0.197 C 
BRANCH  18  19
ATOM     19  O17 ZIN A   1      21.708  -0.634  10.880  0.00  0.00    -0.398 OA
ATOM     20  H31 ZIN A   1      22.041  -1.508  11.124  0.00  0.00     0.209 HD
ENDBRANCH  18  19
ENDBRANCH  15  18
ENDBRANCH  14  15
ENDBRANCH  11  14
TORSDOF 5
ENDMDL
MODEL 4
REMARK VINA RESULT:      -6.1      5.614      8.639
REMARK  5 active torsions:
REMARK  status: ('A' for Active; 'I' for Inactive)
REMARK    1  A    between atoms: N11_11  and  C12_12 
REMARK    2  A    between atoms: C12_12  and  C13_13 
REMARK    3  A    between atoms: C13_13  and  O15_14 
REMARK    4  A    between atoms: C13_13  and  C16_15 
REMARK    5  A    between atoms: C16_15  and  O17_16 
ROOT
ATOM      1  C1  ZIN A   1      19.240  -0.432  17.937  0.00  0.00     0.163 C 
ATOM      2  N2  ZIN A   1      19.154   0.623  16.924  0.00  0.00    -0.286 N 
ATOM      3  C3  ZIN A   1      18.860   0.298  15.610  0.00  0.00     0.167 A 
ATOM      4  C4  ZIN A   1      18.783   1.316  14.668  0.00  0.00     0.151 A 
ATOM      5  C5  ZIN A   1      19.008   2.649  15.076  0.00  0.00     0.282 A 
ATOM      6  O6  ZIN A   1      18.946   3.559  14.269  0.00  0.00    -0.265 OA
ATOM      7  N7  ZIN A   1      19.290   2.902  16.371  0.00  0.00    -0.269 N 
ATOM      8  C8  ZIN A   1      19.523   4.283  16.801  0.00  0.00     0.164 C 
ATOM      9  C9  ZIN A   1      19.355   1.908  17.273  0.00  0.00     0.332 A 
ATOM     10  O10 ZIN A   1      19.613   2.174  18.431  0.00  0.00    -0.246 OA
ATOM     11  N11 ZIN A   1      18.481   0.709  13.465  0.00  0.00    -0.331 N 
ATOM     12  C18 ZIN A   1      18.386  -0.615  13.706  0.00  0.00     0.212 A 
ATOM     13  N19 ZIN A   1      18.610  -0.850  14.973  0.00  0.00    -0.223 NA
ENDROOT
BRANCH  11  14
ATOM     14  C12 ZIN A   1      18.298   1.375  12.174  0.00  0.00     0.164 C 
BRANCH  14  15
ATOM     15  C13 ZIN A   1      19.642   1.451  11.445  0.00  0.00     0.160 C 
BRANCH  15  16
ATOM     16  O15 ZIN A   1      20.363   2.601  11.893  0.00  0.00    -0.392 OA
ATOM     17  H28 ZIN A   1      19.807   3.277  12.304  0.00  0.00     0.210 HD
ENDBRANCH  15  16
BRANCH  15  18
ATOM     18  C16 ZIN A   1      20.456   0.190  11.746  0.00  0.00     0.197 C 
BRANCH  18  19
ATOM     19  O17 ZIN A   1      21.753   0.562  12.216  0.00  0.00    -0.398 OA
ATOM     20  H31 ZIN A   1      22.460  -0.032  11.929  0.00  0.00     0.209 HD
ENDBRANCH  18  19
ENDBRANCH  15  18
ENDBRANCH  14  15
ENDBRANCH  11  14
TORSDOF 5
ENDMDL
MODEL 5
REMARK VINA RESULT:      -6.0      2.200      3.282
REMARK  5 active torsions:
REMARK  status: ('A' for Active; 'I' for Inactive)
REMARK    1  A    between atoms: N11_11  and  C12_12 
REMARK    2  A    between atoms: C12_12  and  C13_13 
REMARK    3  A    between atoms: C13_13  and  O15_14 
REMARK    4  A    between atoms: C13_13  and  C16_15 
REMARK    5  A    between atoms: C16_15  and  O17_16 
ROOT
ATOM      1  C1  ZIN A   1      18.934   0.847   5.888  0.00  0.00     0.163 C 
ATOM      2  N2  ZIN A   1      18.902  -0.356   6.723  0.00  0.00    -0.286 N 
ATOM      3  C3  ZIN A   1      18.407  -0.289   8.015  0.00  0.00     0.167 A 
ATOM      4  C4  ZIN A   1      18.387  -1.444   8.786  0.00  0.00     0.151 A 
ATOM      5  C5  ZIN A   1      18.871  -2.650   8.233  0.00  0.00     0.282 A 
ATOM      6  O6  ZIN A   1      18.863  -3.675   8.890  0.00  0.00    -0.265 OA
ATOM      7  N7  ZIN A   1      19.341  -2.651   6.968  0.00  0.00    -0.269 N 
ATOM      8  C8  ZIN A   1      19.844  -3.898   6.387  0.00  0.00     0.164 C 
ATOM      9  C9  ZIN A   1      19.349  -1.528   6.230  0.00  0.00     0.332 A 
ATOM     10  O10 ZIN A   1      19.781  -1.567   5.094  0.00  0.00    -0.246 OA
ATOM     11  N11 ZIN A   1      17.851  -1.085  10.007  0.00  0.00    -0.331 N 
ATOM     12  C18 ZIN A   1      17.571   0.232   9.941  0.00  0.00     0.212 A 
ATOM     13  N19 ZIN A   1      17.902   0.695   8.763  0.00  0.00    -0.223 NA
ENDROOT
BRANCH  11  14
ATOM     14  C12 ZIN A   1      17.629  -1.967  11.155  0.00  0.00     0.164 C 
BRANCH  14  15
ATOM     15  C13 ZIN A   1      18.807  -1.848  12.124  0.00  0.00     0.160 C 
BRANCH  15  16
ATOM     16  O15 ZIN A   1      18.315  -1.630  13.448  0.00  0.00    -0.392 OA
ATOM     17  H28 ZIN A   1      18.812  -0.968  13.948  0.00  0.00     0.210 HD
ENDBRANCH  15  16
BRANCH  15  18
ATOM     18  C16 ZIN A   1      19.626  -3.140  12.091  0.00  0.00     0.197 C 
BRANCH  18  19
ATOM     19  O17 ZIN A   1      20.775  -2.953  11.260  0.00  0.00    -0.398 OA
ATOM     20  H31 ZIN A   1      21.294  -2.168  11.479  0.00  0.00     0.209 HD
ENDBRANCH  18  19
ENDBRANCH  15  18
ENDBRANCH  14  15
ENDBRANCH  11  14
TORSDOF 5
ENDMDL
MODEL 6
REMARK VINA RESULT:      -5.8      1.669      2.189
REMARK  5 active torsions:
REMARK  status: ('A' for Active; 'I' for Inactive)
REMARK    1  A    between atoms: N11_11  and  C12_12 
REMARK    2  A    between atoms: C12_12  and  C13_13 
REMARK    3  A    between atoms: C13_13  and  O15_14 
REMARK    4  A    between atoms: C13_13  and  C16_15 
REMARK    5  A    between atoms: C16_15  and  O17_16 
ROOT
ATOM      1  C1  ZIN A   1      16.854  -6.235   8.676  0.00  0.00     0.163 C 
ATOM      2  N2  ZIN A   1      17.511  -4.945   8.450  0.00  0.00    -0.286 N 
ATOM      3  C3  ZIN A   1      17.587  -4.018   9.477  0.00  0.00     0.167 A 
ATOM      4  C4  ZIN A   1      18.215  -2.803   9.239  0.00  0.00     0.151 A 
ATOM      5  C5  ZIN A   1      18.756  -2.547   7.960  0.00  0.00     0.282 A 
ATOM      6  O6  ZIN A   1      19.312  -1.488   7.727  0.00  0.00    -0.265 OA
ATOM      7  N7  ZIN A   1      18.651  -3.489   7.000  0.00  0.00    -0.269 N 
ATOM      8  C8  ZIN A   1      19.210  -3.231   5.671  0.00  0.00     0.164 C 
ATOM      9  C9  ZIN A   1      18.045  -4.664   7.246  0.00  0.00     0.332 A 
ATOM     10  O10 ZIN A   1      17.969  -5.489   6.357  0.00  0.00    -0.246 OA
ATOM     11  N11 ZIN A   1      18.143  -2.091  10.420  0.00  0.00    -0.331 N 
ATOM     12  C18 ZIN A   1      17.495  -2.870  11.309  0.00  0.00     0.212 A 
ATOM     13  N19 ZIN A   1      17.170  -4.006  10.746  0.00  0.00    -0.223 NA
ENDROOT
BRANCH  11  14
ATOM     14  C12 ZIN A   1      18.669  -0.746  10.661  0.00  0.00     0.164 C 
BRANCH  14  15
ATOM     15  C13 ZIN A   1      19.855  -0.828  11.625  0.00  0.00     0.160 C 
BRANCH  15  16
ATOM     16  O15 ZIN A   1      20.940  -1.506  10.988  0.00  0.00    -0.392 OA
ATOM     17  H28 ZIN A   1      21.811  -1.249  11.319  0.00  0.00     0.210 HD
ENDBRANCH  15  16
BRANCH  15  18
ATOM     18  C16 ZIN A   1      20.294   0.586  12.013  0.00  0.00     0.197 C 
BRANCH  18  19
ATOM     19  O17 ZIN A   1      21.716   0.618  12.162  0.00  0.00    -0.398 OA
ATOM     20  H31 ZIN A   1      22.149   1.312  11.645  0.00  0.00     0.209 HD
ENDBRANCH  18  19
ENDBRANCH  15  18
ENDBRANCH  14  15
ENDBRANCH  11  14
TORSDOF 5
ENDMDL
MODEL 7
REMARK VINA RESULT:      -5.8      5.946      7.959
REMARK  5 active torsions:
REMARK  status: ('A' for Active; 'I' for Inactive)
REMARK    1  A    between atoms: N11_11  and  C12_12 
REMARK    2  A    between atoms: C12_12  and  C13_13 
REMARK    3  A    between atoms: C13_13  and  O15_14 
REMARK    4  A    between atoms: C13_13  and  C16_15 
REMARK    5  A    between atoms: C16_15  and  O17_16 
ROOT
ATOM      1  C1  ZIN A   1      18.321   1.712  10.523  0.00  0.00     0.163 C 
ATOM      2  N2  ZIN A   1      18.135   2.448  11.776  0.00  0.00    -0.286 N 
ATOM      3  C3  ZIN A   1      18.640   1.936  12.961  0.00  0.00     0.167 A 
ATOM      4  C4  ZIN A   1      18.451   2.653  14.135  0.00  0.00     0.151 A 
ATOM      5  C5  ZIN A   1      17.751   3.879  14.088  0.00  0.00     0.282 A 
ATOM      6  O6  ZIN A   1      17.574   4.526  15.105  0.00  0.00    -0.265 OA
ATOM      7  N7  ZIN A   1      17.284   4.325  12.904  0.00  0.00    -0.269 N 
ATOM      8  C8  ZIN A   1      16.557   5.596  12.847  0.00  0.00     0.164 C 
ATOM      9  C9  ZIN A   1      17.478   3.624  11.773  0.00  0.00     0.332 A 
ATOM     10  O10 ZIN A   1      17.042   4.057  10.725  0.00  0.00    -0.246 OA
ATOM     11  N11 ZIN A   1      19.049   1.917  15.138  0.00  0.00    -0.331 N 
ATOM     12  C18 ZIN A   1      19.565   0.813  14.562  0.00  0.00     0.212 A 
ATOM     13  N19 ZIN A   1      19.320   0.831  13.277  0.00  0.00    -0.223 NA
ENDROOT
BRANCH  11  14
ATOM     14  C12 ZIN A   1      19.111   2.268  16.559  0.00  0.00     0.164 C 
BRANCH  14  15
ATOM     15  C13 ZIN A   1      19.000   0.997  17.403  0.00  0.00     0.160 C 
BRANCH  15  16
ATOM     16  O15 ZIN A   1      19.928   1.061  18.487  0.00  0.00    -0.392 OA
ATOM     17  H28 ZIN A   1      19.766   1.791  19.100  0.00  0.00     0.210 HD
ENDBRANCH  15  16
BRANCH  15  18
ATOM     18  C16 ZIN A   1      17.578   0.875  17.956  0.00  0.00     0.197 C 
BRANCH  18  19
ATOM     19  O17 ZIN A   1      16.755   0.193  17.007  0.00  0.00    -0.398 OA
ATOM     20  H31 ZIN A   1      15.818   0.169  17.245  0.00  0.00     0.209 HD
ENDBRANCH  18  19
ENDBRANCH  15  18
ENDBRANCH  14  15
ENDBRANCH  11  14
TORSDOF 5
ENDMDL
MODEL 8
REMARK VINA RESULT:      -5.8      2.320      3.810
REMARK  5 active torsions:
REMARK  status: ('A' for Active; 'I' for Inactive)
REMARK    1  A    between atoms: N11_11  and  C12_12 
REMARK    2  A    between atoms: C12_12  and  C13_13 
REMARK    3  A    between atoms: C13_13  and  O15_14 
REMARK    4  A    between atoms: C13_13  and  C16_15 
REMARK    5  A    between atoms: C16_15  and  O17_16 
ROOT
ATOM      1  C1  ZIN A   1      19.171  -2.471   6.829  0.00  0.00     0.163 C 
ATOM      2  N2  ZIN A   1      18.682  -2.249   8.192  0.00  0.00    -0.286 N 
ATOM      3  C3  ZIN A   1      18.818  -1.003   8.782  0.00  0.00     0.167 A 
ATOM      4  C4  ZIN A   1      18.346  -0.818  10.074  0.00  0.00     0.151 A 
ATOM      5  C5  ZIN A   1      17.744  -1.903  10.749  0.00  0.00     0.282 A 
ATOM      6  O6  ZIN A   1      17.322  -1.764  11.883  0.00  0.00    -0.265 OA
ATOM      7  N7  ZIN A   1      17.640  -3.092  10.121  0.00  0.00    -0.269 N 
ATOM      8  C8  ZIN A   1      17.016  -4.222  10.815  0.00  0.00     0.164 C 
ATOM      9  C9  ZIN A   1      18.096  -3.256   8.867  0.00  0.00     0.332 A 
ATOM     10  O10 ZIN A   1      17.986  -4.343   8.334  0.00  0.00    -0.246 OA
ATOM     11  N11 ZIN A   1      18.611   0.498  10.399  0.00  0.00    -0.331 N 
ATOM     12  C18 ZIN A   1      19.215   1.052   9.329  0.00  0.00     0.212 A 
ATOM     13  N19 ZIN A   1      19.334   0.161   8.378  0.00  0.00    -0.223 NA
ENDROOT
BRANCH  11  14
ATOM     14  C12 ZIN A   1      18.296   1.164  11.665  0.00  0.00     0.164 C 
BRANCH  14  15
ATOM     15  C13 ZIN A   1      19.585   1.698  12.293  0.00  0.00     0.160 C 
BRANCH  15  16
ATOM     16  O15 ZIN A   1      19.261   2.546  13.397  0.00  0.00    -0.392 OA
ATOM     17  H28 ZIN A   1      18.565   2.198  13.969  0.00  0.00     0.210 HD
ENDBRANCH  15  16
BRANCH  15  18
ATOM     18  C16 ZIN A   1      20.436   0.525  12.784  0.00  0.00     0.197 C 
BRANCH  18  19
ATOM     19  O17 ZIN A   1      21.736   0.601  12.196  0.00  0.00    -0.398 OA
ATOM     20  H31 ZIN A   1      22.168  -0.257  12.085  0.00  0.00     0.209 HD
ENDBRANCH  18  19
ENDBRANCH  15  18
ENDBRANCH  14  15
ENDBRANCH  11  14
TORSDOF 5
ENDMDL
MODEL 9
REMARK VINA RESULT:      -5.7      3.148      4.588
REMARK  5 active torsions:
REMARK  status: ('A' for Active; 'I' for Inactive)
REMARK    1  A    between atoms: N11_11  and  C12_12 
REMARK    2  A    between atoms: C12_12  and  C13_13 
REMARK    3  A    between atoms: C13_13  and  O15_14 
REMARK    4  A    between atoms: C13_13  and  C16_15 
REMARK    5  A    between atoms: C16_15  and  O17_16 
ROOT
ATOM      1  C1  ZIN A   1      19.159  -2.434   6.962  0.00  0.00     0.163 C 
ATOM      2  N2  ZIN A   1      19.120  -1.767   8.266  0.00  0.00    -0.286 N 
ATOM      3  C3  ZIN A   1      19.175  -0.385   8.338  0.00  0.00     0.167 A 
ATOM      4  C4  ZIN A   1      19.136   0.224   9.585  0.00  0.00     0.151 A 
ATOM      5  C5  ZIN A   1      19.043  -0.582  10.742  0.00  0.00     0.282 A 
ATOM      6  O6  ZIN A   1      19.007  -0.071  11.847  0.00  0.00    -0.265 OA
ATOM      7  N7  ZIN A   1      18.993  -1.923  10.606  0.00  0.00    -0.269 N 
ATOM      8  C8  ZIN A   1      18.895  -2.765  11.801  0.00  0.00     0.164 C 
ATOM      9  C9  ZIN A   1      19.025  -2.499   9.392  0.00  0.00     0.332 A 
ATOM     10  O10 ZIN A   1      18.978  -3.711   9.310  0.00  0.00    -0.246 OA
ATOM     11  N11 ZIN A   1      19.206   1.584   9.355  0.00  0.00    -0.331 N 
ATOM     12  C18 ZIN A   1      19.282   1.753   8.020  0.00  0.00     0.212 A 
ATOM     13  N19 ZIN A   1      19.263   0.587   7.426  0.00  0.00    -0.223 NA
ENDROOT
BRANCH  11  14
ATOM     14  C12 ZIN A   1      19.199   2.641  10.369  0.00  0.00     0.164 C 
BRANCH  14  15
ATOM     15  C13 ZIN A   1      17.774   3.174  10.539  0.00  0.00     0.160 C 
BRANCH  15  16
ATOM     16  O15 ZIN A   1      17.082   2.383  11.507  0.00  0.00    -0.392 OA
ATOM     17  H28 ZIN A   1      16.414   2.872  12.008  0.00  0.00     0.210 HD
ENDBRANCH  15  16
BRANCH  15  18
ATOM     18  C16 ZIN A   1      17.828   4.629  11.011  0.00  0.00     0.197 C 
BRANCH  18  19
ATOM     19  O17 ZIN A   1      17.429   5.491   9.944  0.00  0.00    -0.398 OA
ATOM     20  H31 ZIN A   1      17.471   5.080   9.069  0.00  0.00     0.209 HD
ENDBRANCH  18  19
ENDBRANCH  15  18
ENDBRANCH  14  15
ENDBRANCH  11  14
TORSDOF 5
ENDMDL
