MODEL 1
REMARK VINA RESULT:      -8.0      0.000      0.000
REMARK  5 active torsions:
REMARK  status: ('A' for Active; 'I' for Inactive)
REMARK    1  A    between atoms: N2_2  and  C4_4 
REMARK    2  A    between atoms: C7_7  and  O8_8 
REMARK    3  A    between atoms: C17_15  and  N19_16 
REMARK    4  A    between atoms: C24_21  and  C25_22 
REMARK       I    between atoms: C25_22  and  N26_23 
REMARK    5  A    between atoms: C30_27  and  O31_28 
ROOT
ATOM      1  C4  ZIN A   1      17.850   2.417  11.784  0.00  0.00     0.017 A 
ATOM      2  C5  ZIN A   1      17.980   3.184  12.938  0.00  0.00     0.027 A 
ATOM      3  C6  ZIN A   1      18.427   2.610  14.111  0.00  0.00     0.039 A 
ATOM      4  C7  ZIN A   1      18.744   1.261  14.152  0.00  0.00     0.079 A 
ATOM      5  C9  ZIN A   1      18.603   0.480  12.998  0.00  0.00     0.042 A 
ATOM      6  C10 ZIN A   1      18.160   1.069  11.809  0.00  0.00    -0.020 A 
ATOM      7  C11 ZIN A   1      18.053   0.237  10.559  0.00  0.00     0.051 C 
ATOM      8  C12 ZIN A   1      17.608  -1.181  10.914  0.00  0.00     0.030 C 
ATOM      9  C14 ZIN A   1      17.661  -2.061   9.661  0.00  0.00     0.021 C 
ATOM     10  C15 ZIN A   1      17.319  -3.495  10.060  0.00  0.00     0.077 C 
ATOM     11  C17 ZIN A   1      17.023  -4.339   8.835  0.00  0.00     0.304 C 
ATOM     12  C22 ZIN A   1      18.286  -4.687   8.100  0.00  0.00     0.201 C 
ATOM     13  O23 ZIN A   1      18.273  -4.817   6.894  0.00  0.00    -0.290 OA
ATOM     14  C24 ZIN A   1      19.530  -4.867   8.842  0.00  0.00     0.115 C 
ATOM     15  C28 ZIN A   1      19.584  -4.568  10.181  0.00  0.00     0.146 C 
ATOM     16  O29 ZIN A   1      20.749  -4.727  10.828  0.00  0.00    -0.192 OA
ATOM     17  C30 ZIN A   1      18.408  -4.081  10.928  0.00  0.00     0.181 C 
ATOM     18  C32 ZIN A   1      18.841  -3.092  11.970  0.00  0.00     0.200 C 
ATOM     19  O33 ZIN A   1      19.564  -3.481  12.866  0.00  0.00    -0.289 OA
ATOM     20  C34 ZIN A   1      18.510  -1.767  11.966  0.00  0.00     0.033 C 
ATOM     21  C35 ZIN A   1      18.929  -0.954  13.013  0.00  0.00     0.131 C 
ATOM     22  O36 ZIN A   1      19.606  -1.482  14.056  0.00  0.00    -0.190 OA
ENDROOT
BRANCH  14  23
ATOM     23  C25 ZIN A   1      20.730  -5.371   8.155  0.00  0.00     0.255 C 
ATOM     24  N26 ZIN A   1      21.259  -4.678   7.128  0.00  0.00    -0.366 N 
ATOM     25  H56 ZIN A   1      20.893  -3.811   6.888  0.00  0.00     0.159 HD
ATOM     26  H57 ZIN A   1      22.004  -5.043   6.627  0.00  0.00     0.159 HD
ATOM     27  O27 ZIN A   1      21.245  -6.414   8.513  0.00  0.00    -0.268 OA
ENDBRANCH  14  23
BRANCH  11  28
ATOM     28  N19 ZIN A   1      16.354  -5.578   9.254  0.00  0.00     0.092 N 
ATOM     29  C20 ZIN A   1      14.978  -5.631   8.744  0.00  0.00     0.310 C 
ATOM     30  C21 ZIN A   1      17.119  -6.759   8.829  0.00  0.00     0.310 C 
ENDBRANCH  11  28
BRANCH  17  31
ATOM     31  O31 ZIN A   1      17.846  -5.195  11.623  0.00  0.00    -0.374 OA
ATOM     32  H58 ZIN A   1      18.459  -5.630  12.230  0.00  0.00     0.211 HD
ENDBRANCH  17  31
BRANCH   4  33
ATOM     33  O8  ZIN A   1      19.190   0.699  15.305  0.00  0.00    -0.360 OA
ATOM     34  H45 ZIN A   1      19.055  -0.256  15.355  0.00  0.00     0.217 HD
ENDBRANCH   4  33
BRANCH   1  35
ATOM     35  N2  ZIN A   1      17.399   3.008  10.598  0.00  0.00    -0.291 NA
ATOM     36  C1  ZIN A   1      16.775   4.311  10.864  0.00  0.00     0.116 C 
ATOM     37  C3  ZIN A   1      18.493   3.136   9.626  0.00  0.00     0.116 C 
ENDBRANCH   1  35
TORSDOF 5
ENDMDL
MODEL 2
REMARK VINA RESULT:      -7.4      3.962      9.217
REMARK  5 active torsions:
REMARK  status: ('A' for Active; 'I' for Inactive)
REMARK    1  A    between atoms: N2_2  and  C4_4 
REMARK    2  A    between atoms: C7_7  and  O8_8 
REMARK    3  A    between atoms: C17_15  and  N19_16 
REMARK    4  A    between atoms: C24_21  and  C25_22 
REMARK       I    between atoms: C25_22  and  N26_23 
REMARK    5  A    between atoms: C30_27  and  O31_28 
ROOT
ATOM      1  C4  ZIN A   1      17.939  -1.502  10.859  0.00  0.00     0.017 A 
ATOM      2  C5  ZIN A   1      17.836  -2.035   9.577  0.00  0.00     0.027 A 
ATOM      3  C6  ZIN A   1      17.931  -1.215   8.471  0.00  0.00     0.039 A 
ATOM      4  C7  ZIN A   1      18.124   0.150   8.628  0.00  0.00     0.079 A 
ATOM      5  C9  ZIN A   1      18.215   0.694   9.914  0.00  0.00     0.042 A 
ATOM      6  C10 ZIN A   1      18.129  -0.143  11.032  0.00  0.00    -0.020 A 
ATOM      7  C11 ZIN A   1      18.273   0.439  12.413  0.00  0.00     0.051 C 
ATOM      8  C12 ZIN A   1      17.645   1.831  12.459  0.00  0.00     0.030 C 
ATOM      9  C14 ZIN A   1      17.941   2.479  13.815  0.00  0.00     0.021 C 
ATOM     10  C15 ZIN A   1      17.400   3.908  13.799  0.00  0.00     0.077 C 
ATOM     11  C17 ZIN A   1      17.355   4.483  15.202  0.00  0.00     0.304 C 
ATOM     12  C22 ZIN A   1      18.731   4.849  15.681  0.00  0.00     0.201 C 
ATOM     13  O23 ZIN A   1      19.008   4.764  16.860  0.00  0.00    -0.290 OA
ATOM     14  C24 ZIN A   1      19.733   5.308  14.724  0.00  0.00     0.115 C 
ATOM     15  C28 ZIN A   1      19.475   5.255  13.377  0.00  0.00     0.146 C 
ATOM     16  O29 ZIN A   1      20.426   5.666  12.524  0.00  0.00    -0.192 OA
ATOM     17  C30 ZIN A   1      18.191   4.766  12.839  0.00  0.00     0.181 C 
ATOM     18  C32 ZIN A   1      18.425   4.034  11.550  0.00  0.00     0.200 C 
ATOM     19  O33 ZIN A   1      18.870   4.659  10.607  0.00  0.00    -0.289 OA
ATOM     20  C34 ZIN A   1      18.209   2.699  11.366  0.00  0.00     0.033 C 
ATOM     21  C35 ZIN A   1      18.416   2.138  10.111  0.00  0.00     0.131 C 
ATOM     22  O36 ZIN A   1      18.768   2.919   9.067  0.00  0.00    -0.190 OA
ENDROOT
BRANCH  14  23
ATOM     23  C25 ZIN A   1      21.024   5.827  15.203  0.00  0.00     0.255 C 
ATOM     24  N26 ZIN A   1      21.806   5.065  15.992  0.00  0.00    -0.366 N 
ATOM     25  H56 ZIN A   1      21.553   4.149  16.185  0.00  0.00     0.159 HD
ATOM     26  H57 ZIN A   1      22.621   5.432  16.369  0.00  0.00     0.159 HD
ATOM     27  O27 ZIN A   1      21.386   6.946  14.887  0.00  0.00    -0.268 OA
ENDBRANCH  14  23
BRANCH  11  28
ATOM     28  N19 ZIN A   1      16.510   5.684  15.203  0.00  0.00     0.092 N 
ATOM     29  C20 ZIN A   1      15.293   5.471  14.409  0.00  0.00     0.310 C 
ATOM     30  C21 ZIN A   1      16.178   6.093  16.576  0.00  0.00     0.310 C 
ENDBRANCH  11  28
BRANCH  17  31
ATOM     31  O31 ZIN A   1      17.390   5.906  12.527  0.00  0.00    -0.374 OA
ATOM     32  H58 ZIN A   1      16.586   5.699  12.032  0.00  0.00     0.211 HD
ENDBRANCH  17  31
BRANCH   4  33
ATOM     33  O8  ZIN A   1      18.224   0.954   7.538  0.00  0.00    -0.360 OA
ATOM     34  H45 ZIN A   1      18.953   1.587   7.582  0.00  0.00     0.217 HD
ENDBRANCH   4  33
BRANCH   1  35
ATOM     35  N2  ZIN A   1      17.845  -2.342  11.974  0.00  0.00    -0.291 NA
ATOM     36  C1  ZIN A   1      17.242  -3.632  11.614  0.00  0.00     0.116 C 
ATOM     37  C3  ZIN A   1      19.160  -2.533  12.602  0.00  0.00     0.116 C 
ENDBRANCH   1  35
TORSDOF 5
ENDMDL
MODEL 3
REMARK VINA RESULT:      -6.9      4.139      6.628
REMARK  5 active torsions:
REMARK  status: ('A' for Active; 'I' for Inactive)
REMARK    1  A    between atoms: N2_2  and  C4_4 
REMARK    2  A    between atoms: C7_7  and  O8_8 
REMARK    3  A    between atoms: C17_15  and  N19_16 
REMARK    4  A    between atoms: C24_21  and  C25_22 
REMARK       I    between atoms: C25_22  and  N26_23 
REMARK    5  A    between atoms: C30_27  and  O31_28 
ROOT
ATOM      1  C4  ZIN A   1      18.624  -2.181  10.152  0.00  0.00     0.017 A 
ATOM      2  C5  ZIN A   1      19.304  -0.982   9.962  0.00  0.00     0.027 A 
ATOM      3  C6  ZIN A   1      19.600  -0.542   8.687  0.00  0.00     0.039 A 
ATOM      4  C7  ZIN A   1      19.226  -1.295   7.585  0.00  0.00     0.079 A 
ATOM      5  C9  ZIN A   1      18.553  -2.509   7.769  0.00  0.00     0.042 A 
ATOM      6  C10 ZIN A   1      18.247  -2.945   9.063  0.00  0.00    -0.020 A 
ATOM      7  C11 ZIN A   1      17.483  -4.228   9.256  0.00  0.00     0.051 C 
ATOM      8  C12 ZIN A   1      17.893  -5.244   8.192  0.00  0.00     0.030 C 
ATOM      9  C14 ZIN A   1      16.996  -6.481   8.295  0.00  0.00     0.021 C 
ATOM     10  C15 ZIN A   1      17.350  -7.434   7.154  0.00  0.00     0.077 C 
ATOM     11  C17 ZIN A   1      16.748  -8.806   7.393  0.00  0.00     0.304 C 
ATOM     12  C22 ZIN A   1      15.269  -8.801   7.129  0.00  0.00     0.201 C 
ATOM     13  O23 ZIN A   1      14.535  -9.529   7.764  0.00  0.00    -0.290 OA
ATOM     14  C24 ZIN A   1      14.718  -7.917   6.105  0.00  0.00     0.115 C 
ATOM     15  C28 ZIN A   1      15.519  -6.983   5.498  0.00  0.00     0.146 C 
ATOM     16  O29 ZIN A   1      14.977  -6.174   4.576  0.00  0.00    -0.192 OA
ATOM     17  C30 ZIN A   1      16.952  -6.842   5.822  0.00  0.00     0.181 C 
ATOM     18  C32 ZIN A   1      17.351  -5.397   5.748  0.00  0.00     0.200 C 
ATOM     19  O33 ZIN A   1      17.281  -4.836   4.672  0.00  0.00    -0.289 OA
ATOM     20  C34 ZIN A   1      17.754  -4.649   6.816  0.00  0.00     0.033 C 
ATOM     21  C35 ZIN A   1      18.147  -3.330   6.618  0.00  0.00     0.131 C 
ATOM     22  O36 ZIN A   1      18.188  -2.812   5.371  0.00  0.00    -0.190 OA
ENDROOT
BRANCH  14  23
ATOM     23  C25 ZIN A   1      13.302  -8.028   5.725  0.00  0.00     0.255 C 
ATOM     24  N26 ZIN A   1      12.967  -8.428   4.483  0.00  0.00    -0.366 N 
ATOM     25  H56 ZIN A   1      13.656  -8.713   3.863  0.00  0.00     0.159 HD
ATOM     26  H57 ZIN A   1      12.037  -8.431   4.207  0.00  0.00     0.159 HD
ATOM     27  O27 ZIN A   1      12.431  -7.757   6.531  0.00  0.00    -0.268 OA
ENDBRANCH  14  23
BRANCH  11  28
ATOM     28  N19 ZIN A   1      17.393  -9.776   6.498  0.00  0.00     0.092 N 
ATOM     29  C20 ZIN A   1      18.327 -10.635   7.239  0.00  0.00     0.310 C 
ATOM     30  C21 ZIN A   1      16.392 -10.581   5.784  0.00  0.00     0.310 C 
ENDBRANCH  11  28
BRANCH  17  31
ATOM     31  O31 ZIN A   1      17.694  -7.528   4.813  0.00  0.00    -0.374 OA
ATOM     32  H58 ZIN A   1      18.307  -6.964   4.324  0.00  0.00     0.211 HD
ENDBRANCH  17  31
BRANCH   4  33
ATOM     33  O8  ZIN A   1      19.512  -0.858   6.331  0.00  0.00    -0.360 OA
ATOM     34  H45 ZIN A   1      20.448  -0.913   6.098  0.00  0.00     0.217 HD
ENDBRANCH   4  33
BRANCH   1  35
ATOM     35  N2  ZIN A   1      18.326  -2.617  11.448  0.00  0.00    -0.291 NA
ATOM     36  C1  ZIN A   1      19.534  -3.091  12.136  0.00  0.00     0.116 C 
ATOM     37  C3  ZIN A   1      17.661  -1.559  12.220  0.00  0.00     0.116 C 
ENDBRANCH   1  35
TORSDOF 5
ENDMDL
MODEL 4
REMARK VINA RESULT:      -6.6      4.636      7.643
REMARK  5 active torsions:
REMARK  status: ('A' for Active; 'I' for Inactive)
REMARK    1  A    between atoms: N2_2  and  C4_4 
REMARK    2  A    between atoms: C7_7  and  O8_8 
REMARK    3  A    between atoms: C17_15  and  N19_16 
REMARK    4  A    between atoms: C24_21  and  C25_22 
REMARK       I    between atoms: C25_22  and  N26_23 
REMARK    5  A    between atoms: C30_27  and  O31_28 
ROOT
ATOM      1  C4  ZIN A   1      18.863  -3.304   9.490  0.00  0.00     0.017 A 
ATOM      2  C5  ZIN A   1      19.351  -2.120  10.035  0.00  0.00     0.027 A 
ATOM      3  C6  ZIN A   1      19.430  -0.978   9.264  0.00  0.00     0.039 A 
ATOM      4  C7  ZIN A   1      19.029  -1.002   7.937  0.00  0.00     0.079 A 
ATOM      5  C9  ZIN A   1      18.549  -2.192   7.378  0.00  0.00     0.042 A 
ATOM      6  C10 ZIN A   1      18.461  -3.345   8.167  0.00  0.00    -0.020 A 
ATOM      7  C11 ZIN A   1      17.902  -4.612   7.577  0.00  0.00     0.051 C 
ATOM      8  C12 ZIN A   1      18.311  -4.728   6.110  0.00  0.00     0.030 C 
ATOM      9  C14 ZIN A   1      17.604  -5.930   5.476  0.00  0.00     0.021 C 
ATOM     10  C15 ZIN A   1      17.941  -5.961   3.986  0.00  0.00     0.077 C 
ATOM     11  C17 ZIN A   1      17.559  -7.297   3.376  0.00  0.00     0.304 C 
ATOM     12  C22 ZIN A   1      16.071  -7.402   3.194  0.00  0.00     0.201 C 
ATOM     13  O23 ZIN A   1      15.522  -8.480   3.288  0.00  0.00    -0.290 OA
ATOM     14  C24 ZIN A   1      15.289  -6.204   2.905  0.00  0.00     0.115 C 
ATOM     15  C28 ZIN A   1      15.881  -4.966   2.955  0.00  0.00     0.146 C 
ATOM     16  O29 ZIN A   1      15.129  -3.884   2.703  0.00  0.00    -0.192 OA
ATOM     17  C30 ZIN A   1      17.311  -4.788   3.272  0.00  0.00     0.181 C 
ATOM     18  C32 ZIN A   1      17.504  -3.527   4.062  0.00  0.00     0.200 C 
ATOM     19  O33 ZIN A   1      17.232  -2.468   3.529  0.00  0.00    -0.289 OA
ATOM     20  C34 ZIN A   1      17.931  -3.481   5.358  0.00  0.00     0.033 C 
ATOM     21  C35 ZIN A   1      18.119  -2.248   5.973  0.00  0.00     0.131 C 
ATOM     22  O36 ZIN A   1      17.941  -1.105   5.275  0.00  0.00    -0.190 OA
ENDROOT
BRANCH  14  23
ATOM     23  C25 ZIN A   1      13.864  -6.322   2.560  0.00  0.00     0.255 C 
ATOM     24  N26 ZIN A   1      13.445  -6.020   1.316  0.00  0.00    -0.366 N 
ATOM     25  H56 ZIN A   1      14.090  -5.796   0.627  0.00  0.00     0.159 HD
ATOM     26  H57 ZIN A   1      12.497  -6.027   1.107  0.00  0.00     0.159 HD
ATOM     27  O27 ZIN A   1      13.063  -6.691   3.398  0.00  0.00    -0.268 OA
ENDBRANCH  14  23
BRANCH  11  28
ATOM     28  N19 ZIN A   1      18.214  -7.433   2.068  0.00  0.00     0.092 N 
ATOM     29  C20 ZIN A   1      19.263  -8.460   2.109  0.00  0.00     0.310 C 
ATOM     30  C21 ZIN A   1      17.231  -7.726   1.015  0.00  0.00     0.310 C 
ENDBRANCH  11  28
BRANCH  17  31
ATOM     31  O31 ZIN A   1      18.010  -4.614   2.039  0.00  0.00    -0.374 OA
ATOM     32  H58 ZIN A   1      18.957  -4.457   2.142  0.00  0.00     0.211 HD
ENDBRANCH  17  31
BRANCH   4  33
ATOM     33  O8  ZIN A   1      19.101   0.125   7.182  0.00  0.00    -0.360 OA
ATOM     34  H45 ZIN A   1      18.342   0.715   7.283  0.00  0.00     0.217 HD
ENDBRANCH   4  33
BRANCH   1  35
ATOM     35  N2  ZIN A   1      18.783  -4.456  10.280  0.00  0.00    -0.291 NA
ATOM     36  C1  ZIN A   1      20.006  -4.637  11.073  0.00  0.00     0.116 C 
ATOM     37  C3  ZIN A   1      17.595  -4.421  11.144  0.00  0.00     0.116 C 
ENDBRANCH   1  35
TORSDOF 5
ENDMDL
MODEL 5
REMARK VINA RESULT:      -6.6      2.513      7.966
REMARK  5 active torsions:
REMARK  status: ('A' for Active; 'I' for Inactive)
REMARK    1  A    between atoms: N2_2  and  C4_4 
REMARK    2  A    between atoms: C7_7  and  O8_8 
REMARK    3  A    between atoms: C17_15  and  N19_16 
REMARK    4  A    between atoms: C24_21  and  C25_22 
REMARK       I    between atoms: C25_22  and  N26_23 
REMARK    5  A    between atoms: C30_27  and  O31_28 
ROOT
ATOM      1  C4  ZIN A   1      14.502  -7.636   7.820  0.00  0.00     0.017 A 
ATOM      2  C5  ZIN A   1      14.613  -8.906   7.264  0.00  0.00     0.027 A 
ATOM      3  C6  ZIN A   1      15.855  -9.479   7.074  0.00  0.00     0.039 A 
ATOM      4  C7  ZIN A   1      17.003  -8.789   7.431  0.00  0.00     0.079 A 
ATOM      5  C9  ZIN A   1      16.900  -7.505   7.979  0.00  0.00     0.042 A 
ATOM      6  C10 ZIN A   1      15.638  -6.934   8.179  0.00  0.00    -0.020 A 
ATOM      7  C11 ZIN A   1      15.528  -5.572   8.811  0.00  0.00     0.051 C 
ATOM      8  C12 ZIN A   1      16.694  -4.693   8.362  0.00  0.00     0.030 C 
ATOM      9  C14 ZIN A   1      16.664  -3.371   9.135  0.00  0.00     0.021 C 
ATOM     10  C15 ZIN A   1      17.898  -2.556   8.752  0.00  0.00     0.077 C 
ATOM     11  C17 ZIN A   1      17.757  -1.117   9.211  0.00  0.00     0.304 C 
ATOM     12  C22 ZIN A   1      17.958  -1.002  10.696  0.00  0.00     0.201 C 
ATOM     13  O23 ZIN A   1      17.360  -0.155  11.327  0.00  0.00    -0.290 OA
ATOM     14  C24 ZIN A   1      18.875  -1.912  11.376  0.00  0.00     0.115 C 
ATOM     15  C28 ZIN A   1      19.430  -2.967  10.696  0.00  0.00     0.146 C 
ATOM     16  O29 ZIN A   1      20.254  -3.795  11.356  0.00  0.00    -0.192 OA
ATOM     17  C30 ZIN A   1      19.154  -3.217   9.268  0.00  0.00     0.181 C 
ATOM     18  C32 ZIN A   1      19.117  -4.695   9.008  0.00  0.00     0.200 C 
ATOM     19  O33 ZIN A   1      20.135  -5.335   9.183  0.00  0.00    -0.289 OA
ATOM     20  C34 ZIN A   1      18.004  -5.386   8.623  0.00  0.00     0.033 C 
ATOM     21  C35 ZIN A   1      18.101  -6.749   8.364  0.00  0.00     0.131 C 
ATOM     22  O36 ZIN A   1      19.298  -7.371   8.433  0.00  0.00    -0.190 OA
ENDROOT
BRANCH  14  23
ATOM     23  C25 ZIN A   1      19.205  -1.698  12.794  0.00  0.00     0.255 C 
ATOM     24  N26 ZIN A   1      20.211  -0.869  13.134  0.00  0.00    -0.366 N 
ATOM     25  H56 ZIN A   1      20.670  -0.356  12.450  0.00  0.00     0.159 HD
ATOM     26  H57 ZIN A   1      20.477  -0.783  14.063  0.00  0.00     0.159 HD
ATOM     27  O27 ZIN A   1      18.570  -2.270  13.660  0.00  0.00    -0.268 OA
ENDBRANCH  14  23
BRANCH  11  28
ATOM     28  N19 ZIN A   1      18.760  -0.292   8.525  0.00  0.00     0.092 N 
ATOM     29  C20 ZIN A   1      18.457  -0.180   7.092  0.00  0.00     0.310 C 
ATOM     30  C21 ZIN A   1      18.865   1.035   9.146  0.00  0.00     0.310 C 
ENDBRANCH  11  28
BRANCH  17  31
ATOM     31  O31 ZIN A   1      20.251  -2.694   8.517  0.00  0.00    -0.374 OA
ATOM     32  H58 ZIN A   1      20.053  -1.868   8.055  0.00  0.00     0.211 HD
ENDBRANCH  17  31
BRANCH   4  33
ATOM     33  O8  ZIN A   1      18.224  -9.356   7.250  0.00  0.00    -0.360 OA
ATOM     34  H45 ZIN A   1      18.831  -8.823   6.720  0.00  0.00     0.217 HD
ENDBRANCH   4  33
BRANCH   1  35
ATOM     35  N2  ZIN A   1      13.238  -7.065   8.012  0.00  0.00    -0.291 NA
ATOM     36  C1  ZIN A   1      12.830  -6.282   6.839  0.00  0.00     0.116 C 
ATOM     37  C3  ZIN A   1      12.240  -8.094   8.334  0.00  0.00     0.116 C 
ENDBRANCH   1  35
TORSDOF 5
ENDMDL
MODEL 6
REMARK VINA RESULT:      -6.6      5.192     10.596
REMARK  5 active torsions:
REMARK  status: ('A' for Active; 'I' for Inactive)
REMARK    1  A    between atoms: N2_2  and  C4_4 
REMARK    2  A    between atoms: C7_7  and  O8_8 
REMARK    3  A    between atoms: C17_15  and  N19_16 
REMARK    4  A    between atoms: C24_21  and  C25_22 
REMARK       I    between atoms: C25_22  and  N26_23 
REMARK    5  A    between atoms: C30_27  and  O31_28 
ROOT
ATOM      1  C4  ZIN A   1      18.476  -0.741  14.365  0.00  0.00     0.017 A 
ATOM      2  C5  ZIN A   1      19.072  -1.879  14.901  0.00  0.00     0.027 A 
ATOM      3  C6  ZIN A   1      19.520  -1.883  16.206  0.00  0.00     0.039 A 
ATOM      4  C7  ZIN A   1      19.386  -0.750  16.994  0.00  0.00     0.079 A 
ATOM      5  C9  ZIN A   1      18.799   0.403  16.458  0.00  0.00     0.042 A 
ATOM      6  C10 ZIN A   1      18.337   0.398  15.137  0.00  0.00    -0.020 A 
ATOM      7  C11 ZIN A   1      17.665   1.623  14.577  0.00  0.00     0.051 C 
ATOM      8  C12 ZIN A   1      18.319   2.881  15.146  0.00  0.00     0.030 C 
ATOM      9  C14 ZIN A   1      17.526   4.114  14.702  0.00  0.00     0.021 C 
ATOM     10  C15 ZIN A   1      18.132   5.348  15.370  0.00  0.00     0.077 C 
ATOM     11  C17 ZIN A   1      17.621   6.619  14.718  0.00  0.00     0.304 C 
ATOM     12  C22 ZIN A   1      16.204   6.906  15.129  0.00  0.00     0.201 C 
ATOM     13  O23 ZIN A   1      15.447   7.459  14.359  0.00  0.00    -0.290 OA
ATOM     14  C24 ZIN A   1      15.743   6.517  16.459  0.00  0.00     0.115 C 
ATOM     15  C28 ZIN A   1      16.544   5.754  17.271  0.00  0.00     0.146 C 
ATOM     16  O29 ZIN A   1      16.081   5.397  18.479  0.00  0.00    -0.192 OA
ATOM     17  C30 ZIN A   1      17.893   5.316  16.862  0.00  0.00     0.181 C 
ATOM     18  C32 ZIN A   1      18.173   3.948  17.411  0.00  0.00     0.200 C 
ATOM     19  O33 ZIN A   1      18.221   3.812  18.618  0.00  0.00    -0.289 OA
ATOM     20  C34 ZIN A   1      18.342   2.827  16.650  0.00  0.00     0.033 C 
ATOM     21  C35 ZIN A   1      18.646   1.620  17.269  0.00  0.00     0.131 C 
ATOM     22  O36 ZIN A   1      18.832   1.568  18.606  0.00  0.00    -0.190 OA
ENDROOT
BRANCH  14  23
ATOM     23  C25 ZIN A   1      14.416   6.943  16.929  0.00  0.00     0.255 C 
ATOM     24  N26 ZIN A   1      14.307   7.947  17.821  0.00  0.00    -0.366 N 
ATOM     25  H56 ZIN A   1      15.097   8.438  18.098  0.00  0.00     0.159 HD
ATOM     26  H57 ZIN A   1      13.440   8.181  18.187  0.00  0.00     0.159 HD
ATOM     27  O27 ZIN A   1      13.415   6.389  16.514  0.00  0.00    -0.268 OA
ENDBRANCH  14  23
BRANCH  11  28
ATOM     28  N19 ZIN A   1      18.476   7.743  15.120  0.00  0.00     0.092 N 
ATOM     29  C20 ZIN A   1      19.810   7.632  14.515  0.00  0.00     0.310 C 
ATOM     30  C21 ZIN A   1      17.849   9.029  14.781  0.00  0.00     0.310 C 
ENDBRANCH  11  28
BRANCH  17  31
ATOM     31  O31 ZIN A   1      18.836   6.204  17.463  0.00  0.00    -0.374 OA
ATOM     32  H58 ZIN A   1      19.280   5.839  18.240  0.00  0.00     0.211 HD
ENDBRANCH  17  31
BRANCH   4  33
ATOM     33  O8  ZIN A   1      19.821  -0.758  18.281  0.00  0.00    -0.360 OA
ATOM     34  H45 ZIN A   1      20.132  -1.620  18.586  0.00  0.00     0.217 HD
ENDBRANCH   4  33
BRANCH   1  35
ATOM     35  N2  ZIN A   1      18.022  -0.748  13.041  0.00  0.00    -0.291 NA
ATOM     36  C1  ZIN A   1      18.982  -0.083  12.151  0.00  0.00     0.116 C 
ATOM     37  C3  ZIN A   1      17.743  -2.117  12.587  0.00  0.00     0.116 C 
ENDBRANCH   1  35
TORSDOF 5
ENDMDL
MODEL 7
REMARK VINA RESULT:      -6.5      1.912      7.551
REMARK  5 active torsions:
REMARK  status: ('A' for Active; 'I' for Inactive)
REMARK    1  A    between atoms: N2_2  and  C4_4 
REMARK    2  A    between atoms: C7_7  and  O8_8 
REMARK    3  A    between atoms: C17_15  and  N19_16 
REMARK    4  A    between atoms: C24_21  and  C25_22 
REMARK       I    between atoms: C25_22  and  N26_23 
REMARK    5  A    between atoms: C30_27  and  O31_28 
ROOT
ATOM      1  C4  ZIN A   1      16.641  -5.935   7.956  0.00  0.00     0.017 A 
ATOM      2  C5  ZIN A   1      17.138  -7.179   7.578  0.00  0.00     0.027 A 
ATOM      3  C6  ZIN A   1      18.400  -7.576   7.972  0.00  0.00     0.039 A 
ATOM      4  C7  ZIN A   1      19.187  -6.735   8.744  0.00  0.00     0.079 A 
ATOM      5  C9  ZIN A   1      18.699  -5.477   9.118  0.00  0.00     0.042 A 
ATOM      6  C10 ZIN A   1      17.415  -5.084   8.725  0.00  0.00    -0.020 A 
ATOM      7  C11 ZIN A   1      16.875  -3.750   9.166  0.00  0.00     0.051 C 
ATOM      8  C12 ZIN A   1      18.002  -2.720   9.208  0.00  0.00     0.030 C 
ATOM      9  C14 ZIN A   1      17.479  -1.414   9.814  0.00  0.00     0.021 C 
ATOM     10  C15 ZIN A   1      18.646  -0.438   9.948  0.00  0.00     0.077 C 
ATOM     11  C17 ZIN A   1      18.144   0.968  10.216  0.00  0.00     0.304 C 
ATOM     12  C22 ZIN A   1      17.668   1.110  11.634  0.00  0.00     0.201 C 
ATOM     13  O23 ZIN A   1      16.756   1.867  11.897  0.00  0.00    -0.290 OA
ATOM     14  C24 ZIN A   1      18.306   0.335  12.694  0.00  0.00     0.115 C 
ATOM     15  C28 ZIN A   1      19.226  -0.634  12.381  0.00  0.00     0.146 C 
ATOM     16  O29 ZIN A   1      19.778  -1.342  13.379  0.00  0.00    -0.192 OA
ATOM     17  C30 ZIN A   1      19.627  -0.920  10.991  0.00  0.00     0.181 C 
ATOM     18  C32 ZIN A   1      19.888  -2.389  10.828  0.00  0.00     0.200 C 
ATOM     19  O33 ZIN A   1      20.802  -2.884  11.459  0.00  0.00    -0.289 OA
ATOM     20  C34 ZIN A   1      19.146  -3.227  10.046  0.00  0.00     0.033 C 
ATOM     21  C35 ZIN A   1      19.512  -4.563   9.934  0.00  0.00     0.131 C 
ATOM     22  O36 ZIN A   1      20.628  -5.016  10.546  0.00  0.00    -0.190 OA
ENDROOT
BRANCH  14  23
ATOM     23  C25 ZIN A   1      17.962   0.592  14.101  0.00  0.00     0.255 C 
ATOM     24  N26 ZIN A   1      18.182   1.808  14.638  0.00  0.00    -0.366 N 
ATOM     25  H56 ZIN A   1      18.500   2.535  14.079  0.00  0.00     0.159 HD
ATOM     26  H57 ZIN A   1      18.024   1.959  15.583  0.00  0.00     0.159 HD
ATOM     27  O27 ZIN A   1      17.477  -0.293  14.782  0.00  0.00    -0.268 OA
ENDBRANCH  14  23
BRANCH  11  28
ATOM     28  N19 ZIN A   1      19.235   1.922   9.977  0.00  0.00     0.092 N 
ATOM     29  C20 ZIN A   1      19.483   2.088   8.540  0.00  0.00     0.310 C 
ATOM     30  C21 ZIN A   1      18.952   3.216  10.616  0.00  0.00     0.310 C 
ENDBRANCH  11  28
BRANCH  17  31
ATOM     31  O31 ZIN A   1      20.866  -0.252  10.751  0.00  0.00    -0.374 OA
ATOM     32  H58 ZIN A   1      21.117  -0.209   9.819  0.00  0.00     0.211 HD
ENDBRANCH  17  31
BRANCH   4  33
ATOM     33  O8  ZIN A   1      20.426  -7.130   9.137  0.00  0.00    -0.360 OA
ATOM     34  H45 ZIN A   1      20.791  -6.611   9.866  0.00  0.00     0.217 HD
ENDBRANCH   4  33
BRANCH   1  35
ATOM     35  N2  ZIN A   1      15.359  -5.543   7.555  0.00  0.00    -0.291 NA
ATOM     36  C1  ZIN A   1      15.089  -5.962   6.173  0.00  0.00     0.116 C 
ATOM     37  C3  ZIN A   1      14.338  -6.064   8.473  0.00  0.00     0.116 C 
ENDBRANCH   1  35
TORSDOF 5
ENDMDL
MODEL 8
REMARK VINA RESULT:      -6.3      2.539      4.208
REMARK  5 active torsions:
REMARK  status: ('A' for Active; 'I' for Inactive)
REMARK    1  A    between atoms: N2_2  and  C4_4 
REMARK    2  A    between atoms: C7_7  and  O8_8 
REMARK    3  A    between atoms: C17_15  and  N19_16 
REMARK    4  A    between atoms: C24_21  and  C25_22 
REMARK       I    between atoms: C25_22  and  N26_23 
REMARK    5  A    between atoms: C30_27  and  O31_28 
ROOT
ATOM      1  C4  ZIN A   1      18.577  -0.209  15.127  0.00  0.00     0.017 A 
ATOM      2  C5  ZIN A   1      18.724   1.118  15.519  0.00  0.00     0.027 A 
ATOM      3  C6  ZIN A   1      18.850   2.116  14.573  0.00  0.00     0.039 A 
ATOM      4  C7  ZIN A   1      18.837   1.803  13.223  0.00  0.00     0.079 A 
ATOM      5  C9  ZIN A   1      18.702   0.469  12.821  0.00  0.00     0.042 A 
ATOM      6  C10 ZIN A   1      18.564  -0.538  13.783  0.00  0.00    -0.020 A 
ATOM      7  C11 ZIN A   1      18.373  -1.966  13.347  0.00  0.00     0.051 C 
ATOM      8  C12 ZIN A   1      19.182  -2.236  12.080  0.00  0.00     0.030 C 
ATOM      9  C14 ZIN A   1      18.853  -3.636  11.553  0.00  0.00     0.021 C 
ATOM     10  C15 ZIN A   1      19.587  -3.843  10.229  0.00  0.00     0.077 C 
ATOM     11  C17 ZIN A   1      19.580  -5.306   9.832  0.00  0.00     0.304 C 
ATOM     12  C22 ZIN A   1      18.230  -5.721   9.320  0.00  0.00     0.201 C 
ATOM     13  O23 ZIN A   1      17.834  -6.854   9.496  0.00  0.00    -0.290 OA
ATOM     14  C24 ZIN A   1      17.397  -4.755   8.609  0.00  0.00     0.115 C 
ATOM     15  C28 ZIN A   1      17.771  -3.436   8.547  0.00  0.00     0.146 C 
ATOM     16  O29 ZIN A   1      16.972  -2.571   7.903  0.00  0.00    -0.192 OA
ATOM     17  C30 ZIN A   1      19.019  -2.941   9.159  0.00  0.00     0.181 C 
ATOM     18  C32 ZIN A   1      18.807  -1.555   9.696  0.00  0.00     0.200 C 
ATOM     19  O33 ZIN A   1      18.545  -0.668   8.908  0.00  0.00    -0.289 OA
ATOM     20  C34 ZIN A   1      18.850  -1.221  11.019  0.00  0.00     0.033 C 
ATOM     21  C35 ZIN A   1      18.687   0.107  11.395  0.00  0.00     0.131 C 
ATOM     22  O36 ZIN A   1      18.547   1.068  10.456  0.00  0.00    -0.190 OA
ENDROOT
BRANCH  14  23
ATOM     23  C25 ZIN A   1      16.152  -5.196   7.960  0.00  0.00     0.255 C 
ATOM     24  N26 ZIN A   1      16.117  -5.378   6.625  0.00  0.00    -0.366 N 
ATOM     25  H56 ZIN A   1      16.929  -5.290   6.102  0.00  0.00     0.159 HD
ATOM     26  H57 ZIN A   1      15.280  -5.598   6.187  0.00  0.00     0.159 HD
ATOM     27  O27 ZIN A   1      15.155  -5.396   8.627  0.00  0.00    -0.268 OA
ENDBRANCH  14  23
BRANCH  11  28
ATOM     28  N19 ZIN A   1      20.582  -5.524   8.780  0.00  0.00     0.092 N 
ATOM     29  C20 ZIN A   1      21.551  -6.552   9.181  0.00  0.00     0.310 C 
ATOM     30  C21 ZIN A   1      19.938  -5.876   7.506  0.00  0.00     0.310 C 
ENDBRANCH  11  28
BRANCH  17  31
ATOM     31  O31 ZIN A   1      19.998  -2.838   8.125  0.00  0.00    -0.374 OA
ATOM     32  H58 ZIN A   1      19.639  -2.934   7.232  0.00  0.00     0.211 HD
ENDBRANCH  17  31
BRANCH   4  33
ATOM     33  O8  ZIN A   1      18.953   2.786  12.293  0.00  0.00    -0.360 OA
ATOM     34  H45 ZIN A   1      19.216   3.642  12.657  0.00  0.00     0.217 HD
ENDBRANCH   4  33
BRANCH   1  35
ATOM     35  N2  ZIN A   1      18.446  -1.213  16.093  0.00  0.00    -0.291 NA
ATOM     36  C1  ZIN A   1      19.547  -1.156  17.064  0.00  0.00     0.116 C 
ATOM     37  C3  ZIN A   1      17.144  -1.129  16.767  0.00  0.00     0.116 C 
ENDBRANCH   1  35
TORSDOF 5
ENDMDL
MODEL 9
REMARK VINA RESULT:      -6.3      2.563      4.511
REMARK  5 active torsions:
REMARK  status: ('A' for Active; 'I' for Inactive)
REMARK    1  A    between atoms: N2_2  and  C4_4 
REMARK    2  A    between atoms: C7_7  and  O8_8 
REMARK    3  A    between atoms: C17_15  and  N19_16 
REMARK    4  A    between atoms: C24_21  and  C25_22 
REMARK       I    between atoms: C25_22  and  N26_23 
REMARK    5  A    between atoms: C30_27  and  O31_28 
ROOT
ATOM      1  C4  ZIN A   1      18.007  -1.477  11.601  0.00  0.00     0.017 A 
ATOM      2  C5  ZIN A   1      18.901  -1.211  12.634  0.00  0.00     0.027 A 
ATOM      3  C6  ZIN A   1      19.990  -2.033  12.845  0.00  0.00     0.039 A 
ATOM      4  C7  ZIN A   1      20.199  -3.136  12.031  0.00  0.00     0.079 A 
ATOM      5  C9  ZIN A   1      19.297  -3.418  10.998  0.00  0.00     0.042 A 
ATOM      6  C10 ZIN A   1      18.201  -2.575  10.782  0.00  0.00    -0.020 A 
ATOM      7  C11 ZIN A   1      17.258  -2.854   9.642  0.00  0.00     0.051 C 
ATOM      8  C12 ZIN A   1      17.103  -4.362   9.453  0.00  0.00     0.030 C 
ATOM      9  C14 ZIN A   1      16.276  -4.635   8.192  0.00  0.00     0.021 C 
ATOM     10  C15 ZIN A   1      16.227  -6.145   7.961  0.00  0.00     0.077 C 
ATOM     11  C17 ZIN A   1      15.159  -6.500   6.944  0.00  0.00     0.304 C 
ATOM     12  C22 ZIN A   1      15.601  -6.150   5.551  0.00  0.00     0.201 C 
ATOM     13  O23 ZIN A   1      14.785  -5.804   4.722  0.00  0.00    -0.290 OA
ATOM     14  C24 ZIN A   1      17.016  -6.228   5.199  0.00  0.00     0.115 C 
ATOM     15  C28 ZIN A   1      17.956  -6.464   6.171  0.00  0.00     0.146 C 
ATOM     16  O29 ZIN A   1      19.249  -6.510   5.816  0.00  0.00    -0.192 OA
ATOM     17  C30 ZIN A   1      17.593  -6.671   7.586  0.00  0.00     0.181 C 
ATOM     18  C32 ZIN A   1      18.647  -6.078   8.474  0.00  0.00     0.200 C 
ATOM     19  O33 ZIN A   1      19.767  -6.551   8.431  0.00  0.00    -0.289 OA
ATOM     20  C34 ZIN A   1      18.451  -5.015   9.307  0.00  0.00     0.033 C 
ATOM     21  C35 ZIN A   1      19.492  -4.582  10.121  0.00  0.00     0.131 C 
ATOM     22  O36 ZIN A   1      20.668  -5.247  10.133  0.00  0.00    -0.190 OA
ENDROOT
BRANCH  14  23
ATOM     23  C25 ZIN A   1      17.436  -6.052   3.800  0.00  0.00     0.255 C 
ATOM     24  N26 ZIN A   1      18.121  -4.951   3.436  0.00  0.00    -0.366 N 
ATOM     25  H56 ZIN A   1      18.401  -4.309   4.107  0.00  0.00     0.159 HD
ATOM     26  H57 ZIN A   1      18.335  -4.798   2.502  0.00  0.00     0.159 HD
ATOM     27  O27 ZIN A   1      17.164  -6.900   2.971  0.00  0.00    -0.268 OA
ENDBRANCH  14  23
BRANCH  11  28
ATOM     28  N19 ZIN A   1      14.887  -7.941   7.015  0.00  0.00     0.092 N 
ATOM     29  C20 ZIN A   1      13.634  -8.205   7.733  0.00  0.00     0.310 C 
ATOM     30  C21 ZIN A   1      14.860  -8.538   5.672  0.00  0.00     0.310 C 
ENDBRANCH  11  28
BRANCH  17  31
ATOM     31  O31 ZIN A   1      17.589  -8.078   7.831  0.00  0.00    -0.374 OA
ATOM     32  H58 ZIN A   1      16.910  -8.561   7.342  0.00  0.00     0.211 HD
ENDBRANCH  17  31
BRANCH   4  33
ATOM     33  O8  ZIN A   1      21.274  -3.940  12.235  0.00  0.00    -0.360 OA
ATOM     34  H45 ZIN A   1      22.124  -3.509  12.071  0.00  0.00     0.217 HD
ENDBRANCH   4  33
BRANCH   1  35
ATOM     35  N2  ZIN A   1      16.908  -0.636  11.394  0.00  0.00    -0.291 NA
ATOM     36  C1  ZIN A   1      16.627   0.168  12.590  0.00  0.00     0.116 C 
ATOM     37  C3  ZIN A   1      17.116   0.221  10.219  0.00  0.00     0.116 C 
ENDBRANCH   1  35
TORSDOF 5
ENDMDL
