MODEL 1
REMARK VINA RESULT:      -6.9      0.000      0.000
REMARK  5 active torsions:
REMARK  status: ('A' for Active; 'I' for Inactive)
REMARK    1  A    between atoms: O1_1  and  C2_2 
REMARK    2  A    between atoms: C2_2  and  C3_3 
REMARK    3  A    between atoms: C6_5  and  N8_6 
REMARK    4  A    between atoms: C18_16  and  O20_17 
REMARK    5  A    between atoms: C22_19  and  O24_20 
ROOT
ATOM      1  N8  ZIN A   1      18.342   2.369  14.757  0.00  0.00    -0.300 N 
ATOM      2  C9  ZIN A   1      18.281   3.607  15.319  0.00  0.00     0.187 A 
ATOM      3  N10 ZIN A   1      18.359   3.482  16.612  0.00  0.00    -0.350 N 
ATOM      4  H11 ZIN A   1      18.337   4.214  17.248  0.00  0.00     0.166 HD
ATOM      5  C12 ZIN A   1      18.476   2.178  16.934  0.00  0.00     0.085 A 
ATOM      6  C13 ZIN A   1      18.439   1.469  15.788  0.00  0.00     0.137 A 
ATOM      7  N14 ZIN A   1      18.463   0.081  15.651  0.00  0.00    -0.335 N 
ATOM      8  C15 ZIN A   1      17.743  -0.699  16.525  0.00  0.00     0.202 C 
ATOM      9  N16 ZIN A   1      18.010  -0.653  17.773  0.00  0.00    -0.282 NA
ATOM     10  C17 ZIN A   1      19.043   0.195  18.341  0.00  0.00     0.188 C 
ATOM     11  C18 ZIN A   1      18.640   1.661  18.341  0.00  0.00     0.191 C 
ATOM     12  H29 ZIN A   1      18.985  -0.331  14.945  0.00  0.00     0.168 HD
ENDROOT
BRANCH   1  13
ATOM     13  C6  ZIN A   1      18.305   2.058  13.327  0.00  0.00     0.233 C 
ATOM     14  O5  ZIN A   1      19.117   0.898  13.043  0.00  0.00    -0.356 OA
ATOM     15  C3  ZIN A   1      19.411   0.975  11.631  0.00  0.00     0.176 C 
ATOM     16  C22 ZIN A   1      19.692   2.470  11.365  0.00  0.00     0.153 C 
ATOM     17  C21 ZIN A   1      18.949   3.200  12.509  0.00  0.00     0.088 C 
BRANCH  15  18
ATOM     18  C2  ZIN A   1      20.645   0.134  11.297  0.00  0.00     0.198 C 
BRANCH  18  19
ATOM     19  O1  ZIN A   1      21.742   0.551  12.112  0.00  0.00    -0.398 OA
ATOM     20  H25 ZIN A   1      22.435  -0.116  12.209  0.00  0.00     0.209 HD
ENDBRANCH  18  19
ENDBRANCH  15  18
BRANCH  16  21
ATOM     21  O24 ZIN A   1      19.169   2.867  10.096  0.00  0.00    -0.393 OA
ATOM     22  H36 ZIN A   1      18.629   3.669  10.126  0.00  0.00     0.210 HD
ENDBRANCH  16  21
ENDBRANCH   1  13
BRANCH  11  23
ATOM     23  O20 ZIN A   1      19.650   2.426  19.000  0.00  0.00    -0.388 OA
ATOM     24  H33 ZIN A   1      19.625   3.371  18.796  0.00  0.00     0.210 HD
ENDBRANCH  11  23
TORSDOF 5
ENDMDL
MODEL 2
REMARK VINA RESULT:      -6.8      4.918      6.626
REMARK  5 active torsions:
REMARK  status: ('A' for Active; 'I' for Inactive)
REMARK    1  A    between atoms: O1_1  and  C2_2 
REMARK    2  A    between atoms: C2_2  and  C3_3 
REMARK    3  A    between atoms: C6_5  and  N8_6 
REMARK    4  A    between atoms: C18_16  and  O20_17 
REMARK    5  A    between atoms: C22_19  and  O24_20 
ROOT
ATOM      1  N8  ZIN A   1      18.811   0.435   8.385  0.00  0.00    -0.300 N 
ATOM      2  C9  ZIN A   1      19.404   1.660   8.403  0.00  0.00     0.187 A 
ATOM      3  N10 ZIN A   1      19.776   1.924   9.623  0.00  0.00    -0.350 N 
ATOM      4  H11 ZIN A   1      20.222   2.738   9.908  0.00  0.00     0.166 HD
ATOM      5  C12 ZIN A   1      19.448   0.894  10.428  0.00  0.00     0.085 A 
ATOM      6  C13 ZIN A   1      18.820  -0.030   9.675  0.00  0.00     0.137 A 
ATOM      7  N14 ZIN A   1      18.252  -1.229  10.107  0.00  0.00    -0.335 N 
ATOM      8  C15 ZIN A   1      17.550  -1.259  11.289  0.00  0.00     0.202 C 
ATOM      9  N16 ZIN A   1      18.144  -0.957  12.379  0.00  0.00    -0.282 NA
ATOM     10  C17 ZIN A   1      19.540  -0.568  12.449  0.00  0.00     0.188 C 
ATOM     11  C18 ZIN A   1      19.770   0.831  11.900  0.00  0.00     0.191 C 
ATOM     12  H29 ZIN A   1      18.352  -2.035   9.578  0.00  0.00     0.168 HD
ENDROOT
BRANCH   1  13
ATOM     13  C6  ZIN A   1      18.264  -0.252   7.212  0.00  0.00     0.233 C 
ATOM     14  O5  ZIN A   1      18.604  -1.655   7.247  0.00  0.00    -0.356 OA
ATOM     15  C3  ZIN A   1      18.472  -2.112   5.883  0.00  0.00     0.176 C 
ATOM     16  C22 ZIN A   1      19.058  -0.971   5.023  0.00  0.00     0.153 C 
ATOM     17  C21 ZIN A   1      18.920   0.282   5.920  0.00  0.00     0.088 C 
BRANCH  15  18
ATOM     18  C2  ZIN A   1      19.269  -3.401   5.674  0.00  0.00     0.198 C 
BRANCH  18  19
ATOM     19  O1  ZIN A   1      20.357  -3.444   6.599  0.00  0.00    -0.398 OA
ATOM     20  H25 ZIN A   1      21.229  -3.408   6.182  0.00  0.00     0.209 HD
ENDBRANCH  18  19
ENDBRANCH  15  18
BRANCH  16  21
ATOM     21  O24 ZIN A   1      18.309  -0.808   3.817  0.00  0.00    -0.393 OA
ATOM     22  H36 ZIN A   1      17.580  -1.436   3.718  0.00  0.00     0.210 HD
ENDBRANCH  16  21
ENDBRANCH   1  13
BRANCH  11  23
ATOM     23  O20 ZIN A   1      21.140   1.190  12.089  0.00  0.00    -0.388 OA
ATOM     24  H33 ZIN A   1      21.754   0.444  12.033  0.00  0.00     0.210 HD
ENDBRANCH  11  23
TORSDOF 5
ENDMDL
MODEL 3
REMARK VINA RESULT:      -6.8      2.099      6.241
REMARK  5 active torsions:
REMARK  status: ('A' for Active; 'I' for Inactive)
REMARK    1  A    between atoms: O1_1  and  C2_2 
REMARK    2  A    between atoms: C2_2  and  C3_3 
REMARK    3  A    between atoms: C6_5  and  N8_6 
REMARK    4  A    between atoms: C18_16  and  O20_17 
REMARK    5  A    between atoms: C22_19  and  O24_20 
ROOT
ATOM      1  N8  ZIN A   1      18.911  -0.353  14.663  0.00  0.00    -0.300 N 
ATOM      2  C9  ZIN A   1      19.558  -1.542  14.523  0.00  0.00     0.187 A 
ATOM      3  N10 ZIN A   1      20.006  -1.630  13.303  0.00  0.00    -0.350 N 
ATOM      4  H11 ZIN A   1      20.502  -2.382  12.942  0.00  0.00     0.166 HD
ATOM      5  C12 ZIN A   1      19.676  -0.517  12.619  0.00  0.00     0.085 A 
ATOM      6  C13 ZIN A   1      18.968   0.277  13.447  0.00  0.00     0.137 A 
ATOM      7  N14 ZIN A   1      18.371   1.500  13.139  0.00  0.00    -0.335 N 
ATOM      8  C15 ZIN A   1      17.733   1.659  11.932  0.00  0.00     0.202 C 
ATOM      9  N16 ZIN A   1      18.397   1.524  10.849  0.00  0.00    -0.282 NA
ATOM     10  C17 ZIN A   1      19.811   1.200  10.812  0.00  0.00     0.188 C 
ATOM     11  C18 ZIN A   1      20.074  -0.249  11.189  0.00  0.00     0.191 C 
ATOM     12  H29 ZIN A   1      18.407   2.233  13.773  0.00  0.00     0.168 HD
ENDROOT
BRANCH   1  13
ATOM     13  C6  ZIN A   1      18.272   0.153  15.880  0.00  0.00     0.233 C 
ATOM     14  O5  ZIN A   1      18.572   1.554  16.061  0.00  0.00    -0.356 OA
ATOM     15  C3  ZIN A   1      18.342   1.815  17.463  0.00  0.00     0.176 C 
ATOM     16  C22 ZIN A   1      18.905   0.577  18.195  0.00  0.00     0.153 C 
ATOM     17  C21 ZIN A   1      18.861  -0.542  17.128  0.00  0.00     0.088 C 
BRANCH  15  18
ATOM     18  C2  ZIN A   1      19.086   3.078  17.899  0.00  0.00     0.198 C 
BRANCH  18  19
ATOM     19  O1  ZIN A   1      19.565   2.912  19.235  0.00  0.00    -0.398 OA
ATOM     20  H25 ZIN A   1      19.806   2.002  19.456  0.00  0.00     0.209 HD
ENDBRANCH  18  19
ENDBRANCH  15  18
BRANCH  16  21
ATOM     21  O24 ZIN A   1      18.087   0.234  19.315  0.00  0.00    -0.393 OA
ATOM     22  H36 ZIN A   1      17.561   0.969  19.658  0.00  0.00     0.210 HD
ENDBRANCH  16  21
ENDBRANCH   1  13
BRANCH  11  23
ATOM     23  O20 ZIN A   1      21.466  -0.529  11.036  0.00  0.00    -0.388 OA
ATOM     24  H33 ZIN A   1      21.880  -0.073  10.289  0.00  0.00     0.210 HD
ENDBRANCH  11  23
TORSDOF 5
ENDMDL
MODEL 4
REMARK VINA RESULT:      -6.8      1.617      2.062
REMARK  5 active torsions:
REMARK  status: ('A' for Active; 'I' for Inactive)
REMARK    1  A    between atoms: O1_1  and  C2_2 
REMARK    2  A    between atoms: C2_2  and  C3_3 
REMARK    3  A    between atoms: C6_5  and  N8_6 
REMARK    4  A    between atoms: C18_16  and  O20_17 
REMARK    5  A    between atoms: C22_19  and  O24_20 
ROOT
ATOM      1  N8  ZIN A   1      18.666   1.409  13.787  0.00  0.00    -0.300 N 
ATOM      2  C9  ZIN A   1      18.246   2.688  13.991  0.00  0.00     0.187 A 
ATOM      3  N10 ZIN A   1      18.213   2.915  15.273  0.00  0.00    -0.350 N 
ATOM      4  H11 ZIN A   1      17.946   3.752  15.687  0.00  0.00     0.166 HD
ATOM      5  C12 ZIN A   1      18.609   1.812  15.938  0.00  0.00     0.085 A 
ATOM      6  C13 ZIN A   1      18.868   0.855  15.025  0.00  0.00     0.137 A 
ATOM      7  N14 ZIN A   1      19.244  -0.467  15.269  0.00  0.00    -0.335 N 
ATOM      8  C15 ZIN A   1      18.646  -1.164  16.292  0.00  0.00     0.202 C 
ATOM      9  N16 ZIN A   1      18.759  -0.738  17.491  0.00  0.00    -0.282 NA
ATOM     10  C17 ZIN A   1      19.488   0.466  17.848  0.00  0.00     0.188 C 
ATOM     11  C18 ZIN A   1      18.742   1.726  17.438  0.00  0.00     0.191 C 
ATOM     12  H29 ZIN A   1      19.922  -0.890  14.720  0.00  0.00     0.168 HD
ENDROOT
BRANCH   1  13
ATOM     13  C6  ZIN A   1      18.859   0.751  12.493  0.00  0.00     0.233 C 
ATOM     14  O5  ZIN A   1      18.583  -0.662  12.600  0.00  0.00    -0.356 OA
ATOM     15  C3  ZIN A   1      19.257  -1.268  11.475  0.00  0.00     0.176 C 
ATOM     16  C22 ZIN A   1      20.607  -0.526  11.374  0.00  0.00     0.153 C 
ATOM     17  C21 ZIN A   1      20.340   0.833  12.062  0.00  0.00     0.088 C 
BRANCH  15  18
ATOM     18  C2  ZIN A   1      19.484  -2.759  11.730  0.00  0.00     0.198 C 
BRANCH  18  19
ATOM     19  O1  ZIN A   1      20.838  -3.095  11.420  0.00  0.00    -0.398 OA
ATOM     20  H25 ZIN A   1      21.239  -3.721  12.039  0.00  0.00     0.209 HD
ENDBRANCH  18  19
ENDBRANCH  15  18
BRANCH  16  21
ATOM     21  O24 ZIN A   1      20.979  -0.332  10.008  0.00  0.00    -0.393 OA
ATOM     22  H36 ZIN A   1      21.123   0.594   9.767  0.00  0.00     0.210 HD
ENDBRANCH  16  21
ENDBRANCH   1  13
BRANCH  11  23
ATOM     23  O20 ZIN A   1      19.460   2.869  17.905  0.00  0.00    -0.388 OA
ATOM     24  H33 ZIN A   1      19.247   3.124  18.813  0.00  0.00     0.210 HD
ENDBRANCH  11  23
TORSDOF 5
ENDMDL
MODEL 5
REMARK VINA RESULT:      -6.8      5.097      8.529
REMARK  5 active torsions:
REMARK  status: ('A' for Active; 'I' for Inactive)
REMARK    1  A    between atoms: O1_1  and  C2_2 
REMARK    2  A    between atoms: C2_2  and  C3_3 
REMARK    3  A    between atoms: C6_5  and  N8_6 
REMARK    4  A    between atoms: C18_16  and  O20_17 
REMARK    5  A    between atoms: C22_19  and  O24_20 
ROOT
ATOM      1  N8  ZIN A   1      18.628  -1.401   9.288  0.00  0.00    -0.300 N 
ATOM      2  C9  ZIN A   1      18.136  -2.658   9.116  0.00  0.00     0.187 A 
ATOM      3  N10 ZIN A   1      18.108  -2.922   7.841  0.00  0.00    -0.350 N 
ATOM      4  H11 ZIN A   1      17.797  -3.754   7.448  0.00  0.00     0.166 HD
ATOM      5  C12 ZIN A   1      18.578  -1.865   7.150  0.00  0.00     0.085 A 
ATOM      6  C13 ZIN A   1      18.880  -0.897   8.038  0.00  0.00     0.137 A 
ATOM      7  N14 ZIN A   1      19.337   0.392   7.761  0.00  0.00    -0.335 N 
ATOM      8  C15 ZIN A   1      18.796   1.091   6.708  0.00  0.00     0.202 C 
ATOM      9  N16 ZIN A   1      18.901   0.622   5.524  0.00  0.00    -0.282 NA
ATOM     10  C17 ZIN A   1      19.562  -0.632   5.215  0.00  0.00     0.188 C 
ATOM     11  C18 ZIN A   1      18.737  -1.833   5.651  0.00  0.00     0.191 C 
ATOM     12  H29 ZIN A   1      20.031   0.791   8.308  0.00  0.00     0.168 HD
ENDROOT
BRANCH   1  13
ATOM     13  C6  ZIN A   1      18.841  -0.716  10.565  0.00  0.00     0.233 C 
ATOM     14  O5  ZIN A   1      18.614   0.703  10.420  0.00  0.00    -0.356 OA
ATOM     15  C3  ZIN A   1      19.306   1.315  11.531  0.00  0.00     0.176 C 
ATOM     16  C22 ZIN A   1      20.630   0.530  11.655  0.00  0.00     0.153 C 
ATOM     17  C21 ZIN A   1      20.318  -0.837  11.002  0.00  0.00     0.088 C 
BRANCH  15  18
ATOM     18  C2  ZIN A   1      19.585   2.790  11.237  0.00  0.00     0.198 C 
BRANCH  18  19
ATOM     19  O1  ZIN A   1      20.901   3.124  11.682  0.00  0.00    -0.398 OA
ATOM     20  H25 ZIN A   1      21.566   2.451  11.485  0.00  0.00     0.209 HD
ENDBRANCH  18  19
ENDBRANCH  15  18
BRANCH  16  21
ATOM     21  O24 ZIN A   1      20.992   0.359  13.027  0.00  0.00    -0.393 OA
ATOM     22  H36 ZIN A   1      21.930   0.169  13.166  0.00  0.00     0.210 HD
ENDBRANCH  16  21
ENDBRANCH   1  13
BRANCH  11  23
ATOM     23  O20 ZIN A   1      19.393  -3.030   5.230  0.00  0.00    -0.388 OA
ATOM     24  H33 ZIN A   1      19.111  -3.823   5.708  0.00  0.00     0.210 HD
ENDBRANCH  11  23
TORSDOF 5
ENDMDL
MODEL 6
REMARK VINA RESULT:      -6.7      6.077      9.016
REMARK  5 active torsions:
REMARK  status: ('A' for Active; 'I' for Inactive)
REMARK    1  A    between atoms: O1_1  and  C2_2 
REMARK    2  A    between atoms: C2_2  and  C3_3 
REMARK    3  A    between atoms: C6_5  and  N8_6 
REMARK    4  A    between atoms: C18_16  and  O20_17 
REMARK    5  A    between atoms: C22_19  and  O24_20 
ROOT
ATOM      1  N8  ZIN A   1      18.924   0.059   8.060  0.00  0.00    -0.300 N 
ATOM      2  C9  ZIN A   1      19.052   1.201   7.331  0.00  0.00     0.187 A 
ATOM      3  N10 ZIN A   1      19.142   0.883   6.072  0.00  0.00    -0.350 N 
ATOM      4  H11 ZIN A   1      19.244   1.513   5.341  0.00  0.00     0.166 HD
ATOM      5  C12 ZIN A   1      19.072  -0.457   5.938  0.00  0.00     0.085 A 
ATOM      6  C13 ZIN A   1      18.964  -0.986   7.173  0.00  0.00     0.137 A 
ATOM      7  N14 ZIN A   1      18.927  -2.338   7.513  0.00  0.00    -0.335 N 
ATOM      8  C15 ZIN A   1      19.756  -3.224   6.866  0.00  0.00     0.202 C 
ATOM      9  N16 ZIN A   1      19.652  -3.369   5.601  0.00  0.00    -0.282 NA
ATOM     10  C17 ZIN A   1      18.698  -2.640   4.786  0.00  0.00     0.188 C 
ATOM     11  C18 ZIN A   1      19.093  -1.181   4.616  0.00  0.00     0.191 C 
ATOM     12  H29 ZIN A   1      18.319  -2.652   8.202  0.00  0.00     0.168 HD
ENDROOT
BRANCH   1  13
ATOM     13  C6  ZIN A   1      18.776  -0.034   9.515  0.00  0.00     0.233 C 
ATOM     14  O5  ZIN A   1      19.628  -1.075  10.041  0.00  0.00    -0.356 OA
ATOM     15  C3  ZIN A   1      19.064  -1.414  11.327  0.00  0.00     0.176 C 
ATOM     16  C22 ZIN A   1      17.536  -1.400  11.107  0.00  0.00     0.153 C 
ATOM     17  C21 ZIN A   1      17.342  -0.472   9.885  0.00  0.00     0.088 C 
BRANCH  15  18
ATOM     18  C2  ZIN A   1      19.528  -2.805  11.762  0.00  0.00     0.198 C 
BRANCH  18  19
ATOM     19  O1  ZIN A   1      20.845  -3.046  11.264  0.00  0.00    -0.398 OA
ATOM     20  H25 ZIN A   1      20.962  -2.815  10.333  0.00  0.00     0.209 HD
ENDBRANCH  18  19
ENDBRANCH  15  18
BRANCH  16  21
ATOM     21  O24 ZIN A   1      16.863  -0.868  12.251  0.00  0.00    -0.393 OA
ATOM     22  H36 ZIN A   1      17.431  -0.347  12.834  0.00  0.00     0.210 HD
ENDBRANCH  16  21
ENDBRANCH   1  13
BRANCH  11  23
ATOM     23  O20 ZIN A   1      18.173  -0.547   3.727  0.00  0.00    -0.388 OA
ATOM     24  H33 ZIN A   1      18.585  -0.171   2.935  0.00  0.00     0.210 HD
ENDBRANCH  11  23
TORSDOF 5
ENDMDL
MODEL 7
REMARK VINA RESULT:      -6.6      5.032      6.691
REMARK  5 active torsions:
REMARK  status: ('A' for Active; 'I' for Inactive)
REMARK    1  A    between atoms: O1_1  and  C2_2 
REMARK    2  A    between atoms: C2_2  and  C3_3 
REMARK    3  A    between atoms: C6_5  and  N8_6 
REMARK    4  A    between atoms: C18_16  and  O20_17 
REMARK    5  A    between atoms: C22_19  and  O24_20 
ROOT
ATOM      1  N8  ZIN A   1      18.892  -1.417   9.547  0.00  0.00    -0.300 N 
ATOM      2  C9  ZIN A   1      19.764  -0.621   8.870  0.00  0.00     0.187 A 
ATOM      3  N10 ZIN A   1      20.337   0.184   9.718  0.00  0.00    -0.350 N 
ATOM      4  H11 ZIN A   1      21.000   0.856   9.492  0.00  0.00     0.166 HD
ATOM      5  C12 ZIN A   1      19.870  -0.059  10.959  0.00  0.00     0.085 A 
ATOM      6  C13 ZIN A   1      18.947  -1.037  10.863  0.00  0.00     0.137 A 
ATOM      7  N14 ZIN A   1      18.161  -1.561  11.890  0.00  0.00    -0.335 N 
ATOM      8  C15 ZIN A   1      17.626  -0.715  12.833  0.00  0.00     0.202 C 
ATOM      9  N16 ZIN A   1      18.406  -0.016  13.563  0.00  0.00    -0.282 NA
ATOM     10  C17 ZIN A   1      19.852  -0.052  13.455  0.00  0.00     0.188 C 
ATOM     11  C18 ZIN A   1      20.347   0.651  12.200  0.00  0.00     0.191 C 
ATOM     12  H29 ZIN A   1      17.995  -2.515  11.939  0.00  0.00     0.168 HD
ENDROOT
BRANCH   1  13
ATOM     13  C6  ZIN A   1      18.053  -2.473   8.976  0.00  0.00     0.233 C 
ATOM     14  O5  ZIN A   1      18.272  -3.720   9.672  0.00  0.00    -0.356 OA
ATOM     15  C3  ZIN A   1      17.816  -4.747   8.764  0.00  0.00     0.176 C 
ATOM     16  C22 ZIN A   1      18.301  -4.290   7.371  0.00  0.00     0.153 C 
ATOM     17  C21 ZIN A   1      18.464  -2.759   7.515  0.00  0.00     0.088 C 
BRANCH  15  18
ATOM     18  C2  ZIN A   1      18.438  -6.096   9.130  0.00  0.00     0.198 C 
BRANCH  18  19
ATOM     19  O1  ZIN A   1      18.768  -6.809   7.936  0.00  0.00    -0.398 OA
ATOM     20  H25 ZIN A   1      19.506  -7.424   8.037  0.00  0.00     0.209 HD
ENDBRANCH  18  19
ENDBRANCH  15  18
BRANCH  16  21
ATOM     21  O24 ZIN A   1      17.331  -4.599   6.369  0.00  0.00    -0.393 OA
ATOM     22  H36 ZIN A   1      16.638  -3.931   6.272  0.00  0.00     0.210 HD
ENDBRANCH  16  21
ENDBRANCH   1  13
BRANCH  11  23
ATOM     23  O20 ZIN A   1      21.775   0.667  12.204  0.00  0.00    -0.388 OA
ATOM     24  H33 ZIN A   1      22.177  -0.116  12.607  0.00  0.00     0.210 HD
ENDBRANCH  11  23
TORSDOF 5
ENDMDL
MODEL 8
REMARK VINA RESULT:      -6.6      2.518      5.982
REMARK  5 active torsions:
REMARK  status: ('A' for Active; 'I' for Inactive)
REMARK    1  A    between atoms: O1_1  and  C2_2 
REMARK    2  A    between atoms: C2_2  and  C3_3 
REMARK    3  A    between atoms: C6_5  and  N8_6 
REMARK    4  A    between atoms: C18_16  and  O20_17 
REMARK    5  A    between atoms: C22_19  and  O24_20 
ROOT
ATOM      1  N8  ZIN A   1      19.233   1.511  13.965  0.00  0.00    -0.300 N 
ATOM      2  C9  ZIN A   1      19.856   0.375  14.381  0.00  0.00     0.187 A 
ATOM      3  N10 ZIN A   1      20.166  -0.336  13.336  0.00  0.00    -0.350 N 
ATOM      4  H11 ZIN A   1      20.617  -1.195  13.357  0.00  0.00     0.166 HD
ATOM      5  C12 ZIN A   1      19.768   0.305  12.219  0.00  0.00     0.085 A 
ATOM      6  C13 ZIN A   1      19.159   1.446  12.597  0.00  0.00     0.137 A 
ATOM      7  N14 ZIN A   1      18.537   2.385  11.774  0.00  0.00    -0.335 N 
ATOM      8  C15 ZIN A   1      17.771   1.958  10.716  0.00  0.00     0.202 C 
ATOM      9  N16 ZIN A   1      18.312   1.262   9.791  0.00  0.00    -0.282 NA
ATOM     10  C17 ZIN A   1      19.712   0.880   9.790  0.00  0.00     0.188 C 
ATOM     11  C18 ZIN A   1      20.008  -0.201  10.819  0.00  0.00     0.191 C 
ATOM     12  H29 ZIN A   1      18.646   3.334  11.948  0.00  0.00     0.168 HD
ENDROOT
BRANCH   1  13
ATOM     13  C6  ZIN A   1      18.734   2.594  14.816  0.00  0.00     0.233 C 
ATOM     14  O5  ZIN A   1      19.178   3.874  14.315  0.00  0.00    -0.356 OA
ATOM     15  C3  ZIN A   1      19.074   4.778  15.437  0.00  0.00     0.176 C 
ATOM     16  C22 ZIN A   1      19.569   3.963  16.652  0.00  0.00     0.153 C 
ATOM     17  C21 ZIN A   1      19.342   2.492  16.233  0.00  0.00     0.088 C 
BRANCH  15  18
ATOM     18  C2  ZIN A   1      19.965   6.003  15.218  0.00  0.00     0.198 C 
BRANCH  18  19
ATOM     19  O1  ZIN A   1      20.680   6.294  16.420  0.00  0.00    -0.398 OA
ATOM     20  H25 ZIN A   1      21.538   6.717  16.275  0.00  0.00     0.209 HD
ENDBRANCH  18  19
ENDBRANCH  15  18
BRANCH  16  21
ATOM     21  O24 ZIN A   1      18.805   4.275  17.818  0.00  0.00    -0.393 OA
ATOM     22  H36 ZIN A   1      17.849   4.275  17.674  0.00  0.00     0.210 HD
ENDBRANCH  16  21
ENDBRANCH   1  13
BRANCH  11  23
ATOM     23  O20 ZIN A   1      21.373  -0.601  10.699  0.00  0.00    -0.388 OA
ATOM     24  H33 ZIN A   1      21.705  -0.602   9.789  0.00  0.00     0.210 HD
ENDBRANCH  11  23
TORSDOF 5
ENDMDL
MODEL 9
REMARK VINA RESULT:      -6.4      5.532      8.831
REMARK  5 active torsions:
REMARK  status: ('A' for Active; 'I' for Inactive)
REMARK    1  A    between atoms: O1_1  and  C2_2 
REMARK    2  A    between atoms: C2_2  and  C3_3 
REMARK    3  A    between atoms: C6_5  and  N8_6 
REMARK    4  A    between atoms: C18_16  and  O20_17 
REMARK    5  A    between atoms: C22_19  and  O24_20 
ROOT
ATOM      1  N8  ZIN A   1      19.007   0.023   8.139  0.00  0.00    -0.300 N 
ATOM      2  C9  ZIN A   1      19.129   1.141   7.373  0.00  0.00     0.187 A 
ATOM      3  N10 ZIN A   1      19.181   0.785   6.122  0.00  0.00    -0.350 N 
ATOM      4  H11 ZIN A   1      19.270   1.392   5.370  0.00  0.00     0.166 HD
ATOM      5  C12 ZIN A   1      19.091  -0.557   6.030  0.00  0.00     0.085 A 
ATOM      6  C13 ZIN A   1      19.010  -1.048   7.283  0.00  0.00     0.137 A 
ATOM      7  N14 ZIN A   1      18.967  -2.389   7.664  0.00  0.00    -0.335 N 
ATOM      8  C15 ZIN A   1      19.767  -3.304   7.021  0.00  0.00     0.202 C 
ATOM      9  N16 ZIN A   1      19.627  -3.485   5.764  0.00  0.00    -0.282 NA
ATOM     10  C17 ZIN A   1      18.660  -2.768   4.954  0.00  0.00     0.188 C 
ATOM     11  C18 ZIN A   1      19.067  -1.320   4.730  0.00  0.00     0.191 C 
ATOM     12  H29 ZIN A   1      18.375  -2.675   8.378  0.00  0.00     0.168 HD
ENDROOT
BRANCH   1  13
ATOM     13  C6  ZIN A   1      18.898  -0.026   9.599  0.00  0.00     0.233 C 
ATOM     14  O5  ZIN A   1      18.700   1.301  10.134  0.00  0.00    -0.356 OA
ATOM     15  C3  ZIN A   1      19.096   1.215  11.521  0.00  0.00     0.176 C 
ATOM     16  C22 ZIN A   1      20.358   0.325  11.519  0.00  0.00     0.153 C 
ATOM     17  C21 ZIN A   1      20.226  -0.510  10.224  0.00  0.00     0.088 C 
BRANCH  15  18
ATOM     18  C2  ZIN A   1      19.425   2.605  12.068  0.00  0.00     0.198 C 
BRANCH  18  19
ATOM     19  O1  ZIN A   1      20.753   2.967  11.685  0.00  0.00    -0.398 OA
ATOM     20  H25 ZIN A   1      21.425   2.756  12.348  0.00  0.00     0.209 HD
ENDBRANCH  18  19
ENDBRANCH  15  18
BRANCH  16  21
ATOM     21  O24 ZIN A   1      20.378  -0.530  12.665  0.00  0.00    -0.393 OA
ATOM     22  H36 ZIN A   1      19.705  -0.316  13.326  0.00  0.00     0.210 HD
ENDBRANCH  16  21
ENDBRANCH   1  13
BRANCH  11  23
ATOM     23  O20 ZIN A   1      18.131  -0.700   3.847  0.00  0.00    -0.388 OA
ATOM     24  H33 ZIN A   1      18.540  -0.194   3.131  0.00  0.00     0.210 HD
ENDBRANCH  11  23
TORSDOF 5
ENDMDL
