MODEL 1
REMARK VINA RESULT:      -5.0      0.000      0.000
REMARK  4 active torsions:
REMARK  status: ('A' for Active; 'I' for Inactive)
REMARK    1  A    between atoms: N2_2  and  N4_4 
REMARK    2  A    between atoms: N4_4  and  N5_5 
REMARK    3  A    between atoms: N5_5  and  C6_6 
REMARK    4  A    between atoms: C7_7  and  C8_8 
REMARK       I    between atoms: C8_8  and  N9_9 
ROOT
ATOM      1  C6  ZIN A   1      17.904   0.969  10.513  0.00  0.00     0.206 A 
ATOM      2  C7  ZIN A   1      19.274   0.949  10.267  0.00  0.00     0.151 A 
ATOM      3  N11 ZIN A   1      19.694   2.264  10.352  0.00  0.00    -0.343 N 
ATOM      4  C12 ZIN A   1      18.612   3.013  10.636  0.00  0.00     0.210 A 
ATOM      5  N13 ZIN A   1      17.557   2.249  10.726  0.00  0.00    -0.221 NA
ATOM      6  H22 ZIN A   1      20.600   2.588  10.229  0.00  0.00     0.167 HD
ENDROOT
BRANCH   1   7
ATOM      7  N5  ZIN A   1      17.068  -0.112  10.531  0.00  0.00    -0.110 NA
BRANCH   7   8
ATOM      8  N4  ZIN A   1      16.835  -0.730  11.639  0.00  0.00    -0.070 NA
BRANCH   8   9
ATOM      9  N2  ZIN A   1      17.614  -1.837  12.001  0.00  0.00    -0.296 N 
ATOM     10  C1  ZIN A   1      17.494  -3.092  11.254  0.00  0.00     0.174 C 
ATOM     11  C3  ZIN A   1      18.548  -1.740  13.125  0.00  0.00     0.174 C 
ENDBRANCH   8   9
ENDBRANCH   7   8
ENDBRANCH   1   7
BRANCH   2  12
ATOM     12  C8  ZIN A   1      20.100  -0.222   9.976  0.00  0.00     0.270 C 
ATOM     13  N9  ZIN A   1      21.178  -0.493  10.738  0.00  0.00    -0.365 N 
ATOM     14  H20 ZIN A   1      21.407   0.090  11.479  0.00  0.00     0.159 HD
ATOM     15  H21 ZIN A   1      21.726  -1.270  10.545  0.00  0.00     0.159 HD
ATOM     16  O10 ZIN A   1      19.813  -0.953   9.045  0.00  0.00    -0.266 OA
ENDBRANCH   2  12
TORSDOF 4
ENDMDL
MODEL 2
REMARK VINA RESULT:      -5.0      2.105      2.438
REMARK  4 active torsions:
REMARK  status: ('A' for Active; 'I' for Inactive)
REMARK    1  A    between atoms: N2_2  and  N4_4 
REMARK    2  A    between atoms: N4_4  and  N5_5 
REMARK    3  A    between atoms: N5_5  and  C6_6 
REMARK    4  A    between atoms: C7_7  and  C8_8 
REMARK       I    between atoms: C8_8  and  N9_9 
ROOT
ATOM      1  C6  ZIN A   1      17.869   1.251  10.096  0.00  0.00     0.206 A 
ATOM      2  C7  ZIN A   1      19.068   1.960  10.104  0.00  0.00     0.151 A 
ATOM      3  N11 ZIN A   1      19.663   1.715   8.880  0.00  0.00    -0.343 N 
ATOM      4  C12 ZIN A   1      18.843   0.898   8.192  0.00  0.00     0.210 A 
ATOM      5  N13 ZIN A   1      17.789   0.622   8.911  0.00  0.00    -0.221 NA
ATOM      6  H22 ZIN A   1      20.514   2.065   8.574  0.00  0.00     0.167 HD
ENDROOT
BRANCH   1   7
ATOM      7  N5  ZIN A   1      16.950   1.200  11.105  0.00  0.00    -0.110 NA
BRANCH   7   8
ATOM      8  N4  ZIN A   1      16.452   0.066  11.468  0.00  0.00    -0.070 NA
BRANCH   8   9
ATOM      9  N2  ZIN A   1      17.255  -0.871  12.130  0.00  0.00    -0.296 N 
ATOM     10  C1  ZIN A   1      17.482  -2.191  11.536  0.00  0.00     0.174 C 
ATOM     11  C3  ZIN A   1      17.867  -0.533  13.418  0.00  0.00     0.174 C 
ENDBRANCH   8   9
ENDBRANCH   7   8
ENDBRANCH   1   7
BRANCH   2  12
ATOM     12  C8  ZIN A   1      19.590   2.792  11.187  0.00  0.00     0.270 C 
ATOM     13  N9  ZIN A   1      20.650   2.373  11.907  0.00  0.00    -0.365 N 
ATOM     14  H20 ZIN A   1      21.065   1.519  11.708  0.00  0.00     0.159 HD
ATOM     15  H21 ZIN A   1      20.997   2.925  12.626  0.00  0.00     0.159 HD
ATOM     16  O10 ZIN A   1      19.069   3.863  11.438  0.00  0.00    -0.266 OA
ENDBRANCH   2  12
TORSDOF 4
ENDMDL
MODEL 3
REMARK VINA RESULT:      -5.0      1.770      3.739
REMARK  4 active torsions:
REMARK  status: ('A' for Active; 'I' for Inactive)
REMARK    1  A    between atoms: N2_2  and  N4_4 
REMARK    2  A    between atoms: N4_4  and  N5_5 
REMARK    3  A    between atoms: N5_5  and  C6_6 
REMARK    4  A    between atoms: C7_7  and  C8_8 
REMARK       I    between atoms: C8_8  and  N9_9 
ROOT
ATOM      1  C6  ZIN A   1      18.629  -2.240  11.199  0.00  0.00     0.206 A 
ATOM      2  C7  ZIN A   1      19.974  -1.909  11.060  0.00  0.00     0.151 A 
ATOM      3  N11 ZIN A   1      20.679  -3.074  11.303  0.00  0.00    -0.343 N 
ATOM      4  C12 ZIN A   1      19.779  -4.039  11.570  0.00  0.00     0.210 A 
ATOM      5  N13 ZIN A   1      18.572  -3.545  11.514  0.00  0.00    -0.221 NA
ATOM      6  H22 ZIN A   1      21.643  -3.178  11.284  0.00  0.00     0.167 HD
ENDROOT
BRANCH   1   7
ATOM      7  N5  ZIN A   1      17.566  -1.395  11.049  0.00  0.00    -0.110 NA
BRANCH   7   8
ATOM      8  N4  ZIN A   1      16.968  -0.919  12.088  0.00  0.00    -0.070 NA
BRANCH   8   9
ATOM      9  N2  ZIN A   1      17.406   0.283  12.659  0.00  0.00    -0.296 N 
ATOM     10  C1  ZIN A   1      17.672   0.356  14.098  0.00  0.00     0.174 C 
ATOM     11  C3  ZIN A   1      17.598   1.467  11.818  0.00  0.00     0.174 C 
ENDBRANCH   8   9
ENDBRANCH   7   8
ENDBRANCH   1   7
BRANCH   2  12
ATOM     12  C8  ZIN A   1      20.528  -0.597  10.727  0.00  0.00     0.270 C 
ATOM     13  N9  ZIN A   1      21.345   0.029  11.597  0.00  0.00    -0.365 N 
ATOM     14  H20 ZIN A   1      21.565  -0.389  12.444  0.00  0.00     0.159 HD
ATOM     15  H21 ZIN A   1      21.713   0.900  11.376  0.00  0.00     0.159 HD
ATOM     16  O10 ZIN A   1      20.252  -0.072   9.664  0.00  0.00    -0.266 OA
ENDBRANCH   2  12
TORSDOF 4
ENDMDL
MODEL 4
REMARK VINA RESULT:      -5.0      2.422      3.555
REMARK  4 active torsions:
REMARK  status: ('A' for Active; 'I' for Inactive)
REMARK    1  A    between atoms: N2_2  and  N4_4 
REMARK    2  A    between atoms: N4_4  and  N5_5 
REMARK    3  A    between atoms: N5_5  and  C6_6 
REMARK    4  A    between atoms: C7_7  and  C8_8 
REMARK       I    between atoms: C8_8  and  N9_9 
ROOT
ATOM      1  C6  ZIN A   1      18.345   1.101  10.359  0.00  0.00     0.206 A 
ATOM      2  C7  ZIN A   1      19.601   0.553  10.604  0.00  0.00     0.151 A 
ATOM      3  N11 ZIN A   1      20.161   0.313   9.362  0.00  0.00    -0.343 N 
ATOM      4  C12 ZIN A   1      19.266   0.708   8.437  0.00  0.00     0.210 A 
ATOM      5  N13 ZIN A   1      18.195   1.167   9.026  0.00  0.00    -0.221 NA
ATOM      6  H22 ZIN A   1      21.035  -0.068   9.189  0.00  0.00     0.167 HD
ENDROOT
BRANCH   1   7
ATOM      7  N5  ZIN A   1      17.434   1.494  11.298  0.00  0.00    -0.110 NA
BRANCH   7   8
ATOM      8  N4  ZIN A   1      17.352   2.737  11.637  0.00  0.00    -0.070 NA
BRANCH   8   9
ATOM      9  N2  ZIN A   1      18.208   3.253  12.618  0.00  0.00    -0.296 N 
ATOM     10  C1  ZIN A   1      19.201   4.271  12.262  0.00  0.00     0.174 C 
ATOM     11  C3  ZIN A   1      18.111   2.777  14.000  0.00  0.00     0.174 C 
ENDBRANCH   8   9
ENDBRANCH   7   8
ENDBRANCH   1   7
BRANCH   2  12
ATOM     12  C8  ZIN A   1      20.204   0.282  11.909  0.00  0.00     0.270 C 
ATOM     13  N9  ZIN A   1      21.480   0.646  12.150  0.00  0.00    -0.365 N 
ATOM     14  H20 ZIN A   1      21.998   1.086  11.458  0.00  0.00     0.159 HD
ATOM     15  H21 ZIN A   1      21.880   0.467  13.016  0.00  0.00     0.159 HD
ATOM     16  O10 ZIN A   1      19.554  -0.270  12.777  0.00  0.00    -0.266 OA
ENDBRANCH   2  12
TORSDOF 4
ENDMDL
MODEL 5
REMARK VINA RESULT:      -4.9      1.527      1.566
REMARK  4 active torsions:
REMARK  status: ('A' for Active; 'I' for Inactive)
REMARK    1  A    between atoms: N2_2  and  N4_4 
REMARK    2  A    between atoms: N4_4  and  N5_5 
REMARK    3  A    between atoms: N5_5  and  C6_6 
REMARK    4  A    between atoms: C7_7  and  C8_8 
REMARK       I    between atoms: C8_8  and  N9_9 
ROOT
ATOM      1  C6  ZIN A   1      18.068   1.023  11.390  0.00  0.00     0.206 A 
ATOM      2  C7  ZIN A   1      19.439   1.151  11.180  0.00  0.00     0.151 A 
ATOM      3  N11 ZIN A   1      19.593   2.224  10.321  0.00  0.00    -0.343 N 
ATOM      4  C12 ZIN A   1      18.363   2.697  10.045  0.00  0.00     0.210 A 
ATOM      5  N13 ZIN A   1      17.465   1.985  10.672  0.00  0.00    -0.221 NA
ATOM      6  H22 ZIN A   1      20.431   2.572   9.979  0.00  0.00     0.167 HD
ENDROOT
BRANCH   1   7
ATOM      7  N5  ZIN A   1      17.451   0.090  12.175  0.00  0.00    -0.110 NA
BRANCH   7   8
ATOM      8  N4  ZIN A   1      16.946  -0.970  11.640  0.00  0.00    -0.070 NA
BRANCH   8   9
ATOM      9  N2  ZIN A   1      17.780  -2.030  11.262  0.00  0.00    -0.296 N 
ATOM     10  C1  ZIN A   1      17.958  -2.351   9.843  0.00  0.00     0.174 C 
ATOM     11  C3  ZIN A   1      18.475  -2.817  12.284  0.00  0.00     0.174 C 
ENDBRANCH   8   9
ENDBRANCH   7   8
ENDBRANCH   1   7
BRANCH   2  12
ATOM     12  C8  ZIN A   1      20.498   0.320  11.751  0.00  0.00     0.270 C 
ATOM     13  N9  ZIN A   1      21.246  -0.462  10.948  0.00  0.00    -0.365 N 
ATOM     14  H20 ZIN A   1      21.081  -0.475   9.992  0.00  0.00     0.159 HD
ATOM     15  H21 ZIN A   1      21.949  -1.014  11.327  0.00  0.00     0.159 HD
ATOM     16  O10 ZIN A   1      20.704   0.336  12.951  0.00  0.00    -0.266 OA
ENDBRANCH   2  12
TORSDOF 4
ENDMDL
MODEL 6
REMARK VINA RESULT:      -4.9      2.539      2.986
REMARK  4 active torsions:
REMARK  status: ('A' for Active; 'I' for Inactive)
REMARK    1  A    between atoms: N2_2  and  N4_4 
REMARK    2  A    between atoms: N4_4  and  N5_5 
REMARK    3  A    between atoms: N5_5  and  C6_6 
REMARK    4  A    between atoms: C7_7  and  C8_8 
REMARK       I    between atoms: C8_8  and  N9_9 
ROOT
ATOM      1  C6  ZIN A   1      19.282  -0.548   8.367  0.00  0.00     0.206 A 
ATOM      2  C7  ZIN A   1      19.809   0.122   9.468  0.00  0.00     0.151 A 
ATOM      3  N11 ZIN A   1      19.805   1.464   9.133  0.00  0.00    -0.343 N 
ATOM      4  C12 ZIN A   1      19.296   1.566   7.891  0.00  0.00     0.210 A 
ATOM      5  N13 ZIN A   1      18.993   0.380   7.439  0.00  0.00    -0.221 NA
ATOM      6  H22 ZIN A   1      20.111   2.197   9.690  0.00  0.00     0.167 HD
ENDROOT
BRANCH   1   7
ATOM      7  N5  ZIN A   1      19.099  -1.897   8.250  0.00  0.00    -0.110 NA
BRANCH   7   8
ATOM      8  N4  ZIN A   1      18.032  -2.446   8.725  0.00  0.00    -0.070 NA
BRANCH   8   9
ATOM      9  N2  ZIN A   1      18.096  -3.725   9.293  0.00  0.00    -0.296 N 
ATOM     10  C1  ZIN A   1      19.219  -4.085  10.162  0.00  0.00     0.174 C 
ATOM     11  C3  ZIN A   1      17.040  -4.703   9.019  0.00  0.00     0.174 C 
ENDBRANCH   8   9
ENDBRANCH   7   8
ENDBRANCH   1   7
BRANCH   2  12
ATOM     12  C8  ZIN A   1      20.274  -0.472  10.720  0.00  0.00     0.270 C 
ATOM     13  N9  ZIN A   1      21.595  -0.625  10.944  0.00  0.00    -0.365 N 
ATOM     14  H20 ZIN A   1      22.236  -0.342  10.274  0.00  0.00     0.159 HD
ATOM     15  H21 ZIN A   1      21.903  -1.019  11.775  0.00  0.00     0.159 HD
ATOM     16  O10 ZIN A   1      19.468  -0.827  11.561  0.00  0.00    -0.266 OA
ENDBRANCH   2  12
TORSDOF 4
ENDMDL
MODEL 7
REMARK VINA RESULT:      -4.9      2.007      2.388
REMARK  4 active torsions:
REMARK  status: ('A' for Active; 'I' for Inactive)
REMARK    1  A    between atoms: N2_2  and  N4_4 
REMARK    2  A    between atoms: N4_4  and  N5_5 
REMARK    3  A    between atoms: N5_5  and  C6_6 
REMARK    4  A    between atoms: C7_7  and  C8_8 
REMARK       I    between atoms: C8_8  and  N9_9 
ROOT
ATOM      1  C6  ZIN A   1      18.096   1.219  11.695  0.00  0.00     0.206 A 
ATOM      2  C7  ZIN A   1      19.367   1.120  11.134  0.00  0.00     0.151 A 
ATOM      3  N11 ZIN A   1      19.430   2.100  10.160  0.00  0.00    -0.343 N 
ATOM      4  C12 ZIN A   1      18.246   2.741  10.159  0.00  0.00     0.210 A 
ATOM      5  N13 ZIN A   1      17.459   2.217  11.060  0.00  0.00    -0.221 NA
ATOM      6  H22 ZIN A   1      20.187   2.291   9.585  0.00  0.00     0.167 HD
ENDROOT
BRANCH   1   7
ATOM      7  N5  ZIN A   1      17.590   0.444  12.700  0.00  0.00    -0.110 NA
BRANCH   7   8
ATOM      8  N4  ZIN A   1      17.775   0.782  13.931  0.00  0.00    -0.070 NA
BRANCH   8   9
ATOM      9  N2  ZIN A   1      18.071  -0.196  14.889  0.00  0.00    -0.296 N 
ATOM     10  C1  ZIN A   1      17.379  -0.190  16.181  0.00  0.00     0.174 C 
ATOM     11  C3  ZIN A   1      19.072  -1.226  14.600  0.00  0.00     0.174 C 
ENDBRANCH   8   9
ENDBRANCH   7   8
ENDBRANCH   1   7
BRANCH   2  12
ATOM     12  C8  ZIN A   1      20.418   0.171  11.498  0.00  0.00     0.270 C 
ATOM     13  N9  ZIN A   1      21.513   0.598  12.157  0.00  0.00    -0.365 N 
ATOM     14  H20 ZIN A   1      21.605   1.536  12.389  0.00  0.00     0.159 HD
ATOM     15  H21 ZIN A   1      22.211  -0.032  12.399  0.00  0.00     0.159 HD
ATOM     16  O10 ZIN A   1      20.303  -1.006  11.206  0.00  0.00    -0.266 OA
ENDBRANCH   2  12
TORSDOF 4
ENDMDL
MODEL 8
REMARK VINA RESULT:      -4.8      2.332      2.593
REMARK  4 active torsions:
REMARK  status: ('A' for Active; 'I' for Inactive)
REMARK    1  A    between atoms: N2_2  and  N4_4 
REMARK    2  A    between atoms: N4_4  and  N5_5 
REMARK    3  A    between atoms: N5_5  and  C6_6 
REMARK    4  A    between atoms: C7_7  and  C8_8 
REMARK       I    between atoms: C8_8  and  N9_9 
ROOT
ATOM      1  C6  ZIN A   1      19.223  -0.812   8.706  0.00  0.00     0.206 A 
ATOM      2  C7  ZIN A   1      19.810   0.152   9.521  0.00  0.00     0.151 A 
ATOM      3  N11 ZIN A   1      19.740   1.340   8.815  0.00  0.00    -0.343 N 
ATOM      4  C12 ZIN A   1      19.136   1.073   7.641  0.00  0.00     0.210 A 
ATOM      5  N13 ZIN A   1      18.837  -0.196   7.576  0.00  0.00    -0.221 NA
ATOM      6  H22 ZIN A   1      20.064   2.205   9.109  0.00  0.00     0.167 HD
ENDROOT
BRANCH   1   7
ATOM      7  N5  ZIN A   1      19.072  -2.138   8.999  0.00  0.00    -0.110 NA
BRANCH   7   8
ATOM      8  N4  ZIN A   1      18.060  -2.535   9.694  0.00  0.00    -0.070 NA
BRANCH   8   9
ATOM      9  N2  ZIN A   1      18.238  -3.473  10.719  0.00  0.00    -0.296 N 
ATOM     10  C1  ZIN A   1      17.094  -4.239  11.218  0.00  0.00     0.174 C 
ATOM     11  C3  ZIN A   1      19.569  -3.688  11.293  0.00  0.00     0.174 C 
ENDBRANCH   8   9
ENDBRANCH   7   8
ENDBRANCH   1   7
BRANCH   2  12
ATOM     12  C8  ZIN A   1      20.385  -0.049  10.850  0.00  0.00     0.270 C 
ATOM     13  N9  ZIN A   1      21.572  -0.675  10.982  0.00  0.00    -0.365 N 
ATOM     14  H20 ZIN A   1      22.043  -0.993  10.196  0.00  0.00     0.159 HD
ATOM     15  H21 ZIN A   1      21.954  -0.809  11.864  0.00  0.00     0.159 HD
ATOM     16  O10 ZIN A   1      19.793   0.350  11.836  0.00  0.00    -0.266 OA
ENDBRANCH   2  12
TORSDOF 4
ENDMDL
MODEL 9
REMARK VINA RESULT:      -4.7      2.954      4.304
REMARK  4 active torsions:
REMARK  status: ('A' for Active; 'I' for Inactive)
REMARK    1  A    between atoms: N2_2  and  N4_4 
REMARK    2  A    between atoms: N4_4  and  N5_5 
REMARK    3  A    between atoms: N5_5  and  C6_6 
REMARK    4  A    between atoms: C7_7  and  C8_8 
REMARK       I    between atoms: C8_8  and  N9_9 
ROOT
ATOM      1  C6  ZIN A   1      19.183  -1.517  13.057  0.00  0.00     0.206 A 
ATOM      2  C7  ZIN A   1      19.423  -0.670  11.978  0.00  0.00     0.151 A 
ATOM      3  N11 ZIN A   1      18.782  -1.244  10.895  0.00  0.00    -0.343 N 
ATOM      4  C12 ZIN A   1      18.194  -2.374  11.330  0.00  0.00     0.210 A 
ATOM      5  N13 ZIN A   1      18.435  -2.536  12.603  0.00  0.00    -0.221 NA
ATOM      6  H22 ZIN A   1      18.759  -0.897   9.990  0.00  0.00     0.167 HD
ENDROOT
BRANCH   1   7
ATOM      7  N5  ZIN A   1      19.628  -1.345  14.337  0.00  0.00    -0.110 NA
BRANCH   7   8
ATOM      8  N4  ZIN A   1      18.788  -1.093  15.284  0.00  0.00    -0.070 NA
BRANCH   8   9
ATOM      9  N2  ZIN A   1      18.969   0.031  16.101  0.00  0.00    -0.296 N 
ATOM     10  C1  ZIN A   1      19.020  -0.122  17.557  0.00  0.00     0.174 C 
ATOM     11  C3  ZIN A   1      19.107   1.360  15.498  0.00  0.00     0.174 C 
ENDBRANCH   8   9
ENDBRANCH   7   8
ENDBRANCH   1   7
BRANCH   2  12
ATOM     12  C8  ZIN A   1      20.198   0.570  11.987  0.00  0.00     0.270 C 
ATOM     13  N9  ZIN A   1      21.529   0.531  12.199  0.00  0.00    -0.365 N 
ATOM     14  H20 ZIN A   1      21.972  -0.319  12.347  0.00  0.00     0.159 HD
ATOM     15  H21 ZIN A   1      22.043   1.354  12.205  0.00  0.00     0.159 HD
ATOM     16  O10 ZIN A   1      19.642   1.637  11.802  0.00  0.00    -0.266 OA
ENDBRANCH   2  12
TORSDOF 4
ENDMDL
