MODEL 1
REMARK VINA RESULT:      -4.4      0.000      0.000
REMARK  5 active torsions:
REMARK  status: ('A' for Active; 'I' for Inactive)
REMARK    1  A    between atoms: N2_2  and  N3_3 
REMARK    2  A    between atoms: N3_3  and  C4_4 
REMARK       I    between atoms: N3_3  and  C7_7 
REMARK    3  A    between atoms: C4_4  and  C5_5 
REMARK       I    between atoms: C7_7  and  N9_9 
REMARK    4  A    between atoms: N9_9  and  C10_10 
REMARK    5  A    between atoms: C10_10  and  C11_11 
ROOT
ATOM      1  N3  ZIN A   1      19.132  -1.366   6.226  0.00  0.00    -0.194 N 
ATOM      2  C7  ZIN A   1      19.249  -2.508   6.932  0.00  0.00     0.340 C 
ATOM      3  O8  ZIN A   1      18.627  -2.648   7.966  0.00  0.00    -0.245 OA
ATOM      4  N9  ZIN A   1      20.056  -3.494   6.492  0.00  0.00    -0.340 N 
ATOM      5  H17 ZIN A   1      20.553  -3.381   5.667  0.00  0.00     0.164 HD
ENDROOT
BRANCH   1   6
ATOM      6  N2  ZIN A   1      19.793  -1.217   5.128  0.00  0.00    -0.008 NA
ATOM      7  O1  ZIN A   1      19.552  -1.930   4.171  0.00  0.00    -0.041 OA
ENDBRANCH   1   6
BRANCH   1   8
ATOM      8  C4  ZIN A   1      18.255  -0.295   6.704  0.00  0.00     0.173 C 
BRANCH   8   9
ATOM      9  C5  ZIN A   1      18.945   1.056   6.505  0.00  0.00     0.136 C 
ATOM     10 Cl6  ZIN A   1      19.224   1.830   8.110  0.00  0.00    -0.129 Cl
ENDBRANCH   8   9
ENDBRANCH   1   8
BRANCH   4  11
ATOM     11  C10 ZIN A   1      20.183  -4.734   7.261  0.00  0.00     0.139 C 
BRANCH  11  12
ATOM     12  C11 ZIN A   1      19.224  -5.785   6.695  0.00  0.00     0.134 C 
ATOM     13 Cl12 ZIN A   1      18.313  -6.556   8.046  0.00  0.00    -0.129 Cl
ENDBRANCH  11  12
ENDBRANCH   4  11
TORSDOF 5
ENDMDL
MODEL 2
REMARK VINA RESULT:      -4.4     10.182     11.906
REMARK  5 active torsions:
REMARK  status: ('A' for Active; 'I' for Inactive)
REMARK    1  A    between atoms: N2_2  and  N3_3 
REMARK    2  A    between atoms: N3_3  and  C4_4 
REMARK       I    between atoms: N3_3  and  C7_7 
REMARK    3  A    between atoms: C4_4  and  C5_5 
REMARK       I    between atoms: C7_7  and  N9_9 
REMARK    4  A    between atoms: N9_9  and  C10_10 
REMARK    5  A    between atoms: C10_10  and  C11_11 
ROOT
ATOM      1  N3  ZIN A   1      18.989   0.969  17.174  0.00  0.00    -0.194 N 
ATOM      2  C7  ZIN A   1      18.844   1.951  16.264  0.00  0.00     0.340 C 
ATOM      3  O8  ZIN A   1      18.083   1.803  15.328  0.00  0.00    -0.245 OA
ATOM      4  N9  ZIN A   1      19.543   3.097  16.389  0.00  0.00    -0.340 N 
ATOM      5  H17 ZIN A   1      20.150   3.214  17.136  0.00  0.00     0.164 HD
ENDROOT
BRANCH   1   6
ATOM      6  N2  ZIN A   1      19.797   1.126  18.167  0.00  0.00    -0.008 NA
ATOM      7  O1  ZIN A   1      19.625   2.039  18.955  0.00  0.00    -0.041 OA
ENDBRANCH   1   6
BRANCH   1   8
ATOM      8  C4  ZIN A   1      18.230  -0.276  17.037  0.00  0.00     0.173 C 
BRANCH   8   9
ATOM      9  C5  ZIN A   1      19.169  -1.400  16.595  0.00  0.00     0.136 C 
ATOM     10 Cl6  ZIN A   1      19.328  -1.379  14.798  0.00  0.00    -0.129 Cl
ENDBRANCH   8   9
ENDBRANCH   1   8
BRANCH   4  11
ATOM     11  C10 ZIN A   1      19.384   4.163  15.398  0.00  0.00     0.139 C 
BRANCH  11  12
ATOM     12  C11 ZIN A   1      20.071   5.435  15.903  0.00  0.00     0.134 C 
ATOM     13 Cl12 ZIN A   1      20.575   6.444  14.497  0.00  0.00    -0.129 Cl
ENDBRANCH  11  12
ENDBRANCH   4  11
TORSDOF 5
ENDMDL
MODEL 3
REMARK VINA RESULT:      -4.4      4.059      6.256
REMARK  5 active torsions:
REMARK  status: ('A' for Active; 'I' for Inactive)
REMARK    1  A    between atoms: N2_2  and  N3_3 
REMARK    2  A    between atoms: N3_3  and  C4_4 
REMARK       I    between atoms: N3_3  and  C7_7 
REMARK    3  A    between atoms: C4_4  and  C5_5 
REMARK       I    between atoms: C7_7  and  N9_9 
REMARK    4  A    between atoms: N9_9  and  C10_10 
REMARK    5  A    between atoms: C10_10  and  C11_11 
ROOT
ATOM      1  N3  ZIN A   1      17.434  -1.364  11.052  0.00  0.00    -0.194 N 
ATOM      2  C7  ZIN A   1      17.680  -1.192   9.739  0.00  0.00     0.340 C 
ATOM      3  O8  ZIN A   1      18.149  -2.103   9.085  0.00  0.00    -0.245 OA
ATOM      4  N9  ZIN A   1      17.408  -0.011   9.150  0.00  0.00    -0.340 N 
ATOM      5  H17 ZIN A   1      17.034   0.716   9.673  0.00  0.00     0.164 HD
ENDROOT
BRANCH   1   6
ATOM      6  N2  ZIN A   1      16.937  -0.398  11.747  0.00  0.00    -0.008 NA
ATOM      7  O1  ZIN A   1      15.832   0.039  11.479  0.00  0.00    -0.041 OA
ENDBRANCH   1   6
BRANCH   1   8
ATOM      8  C4  ZIN A   1      17.730  -2.648  11.692  0.00  0.00     0.173 C 
BRANCH   8   9
ATOM      9  C5  ZIN A   1      19.093  -2.572  12.383  0.00  0.00     0.136 C 
ATOM     10 Cl6  ZIN A   1      20.220  -3.756  11.621  0.00  0.00    -0.129 Cl
ENDBRANCH   8   9
ENDBRANCH   1   8
BRANCH   4  11
ATOM     11  C10 ZIN A   1      17.677   0.175   7.723  0.00  0.00     0.139 C 
BRANCH  11  12
ATOM     12  C11 ZIN A   1      18.946   1.013   7.548  0.00  0.00     0.134 C 
ATOM     13 Cl12 ZIN A   1      19.014   2.276   8.832  0.00  0.00    -0.129 Cl
ENDBRANCH  11  12
ENDBRANCH   4  11
TORSDOF 5
ENDMDL
MODEL 4
REMARK VINA RESULT:      -4.3      6.516      7.374
REMARK  5 active torsions:
REMARK  status: ('A' for Active; 'I' for Inactive)
REMARK    1  A    between atoms: N2_2  and  N3_3 
REMARK    2  A    between atoms: N3_3  and  C4_4 
REMARK       I    between atoms: N3_3  and  C7_7 
REMARK    3  A    between atoms: C4_4  and  C5_5 
REMARK       I    between atoms: C7_7  and  N9_9 
REMARK    4  A    between atoms: N9_9  and  C10_10 
REMARK    5  A    between atoms: C10_10  and  C11_11 
ROOT
ATOM      1  N3  ZIN A   1      18.172   0.827  11.612  0.00  0.00    -0.194 N 
ATOM      2  C7  ZIN A   1      18.737   0.635  12.820  0.00  0.00     0.340 C 
ATOM      3  O8  ZIN A   1      19.935   0.452  12.908  0.00  0.00    -0.245 OA
ATOM      4  N9  ZIN A   1      17.974   0.646  13.932  0.00  0.00    -0.340 N 
ATOM      5  H17 ZIN A   1      17.018   0.792  13.861  0.00  0.00     0.164 HD
ENDROOT
BRANCH   1   6
ATOM      6  N2  ZIN A   1      16.900   1.021  11.519  0.00  0.00    -0.008 NA
ATOM      7  O1  ZIN A   1      16.134   0.076  11.576  0.00  0.00    -0.041 OA
ENDBRANCH   1   6
BRANCH   1   8
ATOM      8  C4  ZIN A   1      19.001   0.815  10.405  0.00  0.00     0.173 C 
BRANCH   8   9
ATOM      9  C5  ZIN A   1      18.782   2.111   9.623  0.00  0.00     0.136 C 
ATOM     10 Cl6  ZIN A   1      19.119   1.823   7.875  0.00  0.00    -0.129 Cl
ENDBRANCH   8   9
ENDBRANCH   1   8
BRANCH   4  11
ATOM     11  C10 ZIN A   1      18.590   0.438  15.244  0.00  0.00     0.139 C 
BRANCH  11  12
ATOM     12  C11 ZIN A   1      18.324  -0.996  15.710  0.00  0.00     0.134 C 
ATOM     13 Cl12 ZIN A   1      16.973  -0.999  16.903  0.00  0.00    -0.129 Cl
ENDBRANCH  11  12
ENDBRANCH   4  11
TORSDOF 5
ENDMDL
MODEL 5
REMARK VINA RESULT:      -4.3      5.398      7.052
REMARK  5 active torsions:
REMARK  status: ('A' for Active; 'I' for Inactive)
REMARK    1  A    between atoms: N2_2  and  N3_3 
REMARK    2  A    between atoms: N3_3  and  C4_4 
REMARK       I    between atoms: N3_3  and  C7_7 
REMARK    3  A    between atoms: C4_4  and  C5_5 
REMARK       I    between atoms: C7_7  and  N9_9 
REMARK    4  A    between atoms: N9_9  and  C10_10 
REMARK    5  A    between atoms: C10_10  and  C11_11 
ROOT
ATOM      1  N3  ZIN A   1      18.057  -1.044  12.069  0.00  0.00    -0.194 N 
ATOM      2  C7  ZIN A   1      18.969  -0.567  11.200  0.00  0.00     0.340 C 
ATOM      3  O8  ZIN A   1      20.150  -0.592  11.485  0.00  0.00    -0.245 OA
ATOM      4  N9  ZIN A   1      18.573  -0.062  10.014  0.00  0.00    -0.340 N 
ATOM      5  H17 ZIN A   1      17.630  -0.043   9.788  0.00  0.00     0.164 HD
ENDROOT
BRANCH   1   6
ATOM      6  N2  ZIN A   1      16.803  -1.017  11.767  0.00  0.00    -0.008 NA
ATOM      7  O1  ZIN A   1      16.225   0.049  11.661  0.00  0.00    -0.041 OA
ENDBRANCH   1   6
BRANCH   1   8
ATOM      8  C4  ZIN A   1      18.488  -1.592  13.357  0.00  0.00     0.173 C 
BRANCH   8   9
ATOM      9  C5  ZIN A   1      18.156  -0.598  14.472  0.00  0.00     0.136 C 
ATOM     10 Cl6  ZIN A   1      18.163  -1.451  16.060  0.00  0.00    -0.129 Cl
ENDBRANCH   8   9
ENDBRANCH   1   8
BRANCH   4  11
ATOM     11  C10 ZIN A   1      19.565   0.455   9.071  0.00  0.00     0.139 C 
BRANCH  11  12
ATOM     12  C11 ZIN A   1      19.110   1.821   8.549  0.00  0.00     0.134 C 
ATOM     13 Cl12 ZIN A   1      18.354   2.755   9.892  0.00  0.00    -0.129 Cl
ENDBRANCH  11  12
ENDBRANCH   4  11
TORSDOF 5
ENDMDL
MODEL 6
REMARK VINA RESULT:      -4.3      5.033      7.163
REMARK  5 active torsions:
REMARK  status: ('A' for Active; 'I' for Inactive)
REMARK    1  A    between atoms: N2_2  and  N3_3 
REMARK    2  A    between atoms: N3_3  and  C4_4 
REMARK       I    between atoms: N3_3  and  C7_7 
REMARK    3  A    between atoms: C4_4  and  C5_5 
REMARK       I    between atoms: C7_7  and  N9_9 
REMARK    4  A    between atoms: N9_9  and  C10_10 
REMARK    5  A    between atoms: C10_10  and  C11_11 
ROOT
ATOM      1  N3  ZIN A   1      17.799  -1.179  11.328  0.00  0.00    -0.194 N 
ATOM      2  C7  ZIN A   1      18.816  -0.297  11.276  0.00  0.00     0.340 C 
ATOM      3  O8  ZIN A   1      19.840  -0.585  10.690  0.00  0.00    -0.245 OA
ATOM      4  N9  ZIN A   1      18.699   0.905  11.876  0.00  0.00    -0.340 N 
ATOM      5  H17 ZIN A   1      17.881   1.135  12.344  0.00  0.00     0.164 HD
ENDROOT
BRANCH   1   6
ATOM      6  N2  ZIN A   1      16.712  -0.873  11.951  0.00  0.00    -0.008 NA
ATOM      7  O1  ZIN A   1      15.991   0.010  11.522  0.00  0.00    -0.041 OA
ENDBRANCH   1   6
BRANCH   1   8
ATOM      8  C4  ZIN A   1      17.927  -2.484  10.677  0.00  0.00     0.173 C 
BRANCH   8   9
ATOM      9  C5  ZIN A   1      18.295  -3.541  11.720  0.00  0.00     0.136 C 
ATOM     10 Cl6  ZIN A   1      20.044  -3.950  11.571  0.00  0.00    -0.129 Cl
ENDBRANCH   8   9
ENDBRANCH   1   8
BRANCH   4  11
ATOM     11  C10 ZIN A   1      19.805   1.863  11.819  0.00  0.00     0.139 C 
BRANCH  11  12
ATOM     12  C11 ZIN A   1      19.436   3.013  10.878  0.00  0.00     0.134 C 
ATOM     13 Cl12 ZIN A   1      17.652   3.033  10.625  0.00  0.00    -0.129 Cl
ENDBRANCH  11  12
ENDBRANCH   4  11
TORSDOF 5
ENDMDL
MODEL 7
REMARK VINA RESULT:      -4.2      6.435      7.259
REMARK  5 active torsions:
REMARK  status: ('A' for Active; 'I' for Inactive)
REMARK    1  A    between atoms: N2_2  and  N3_3 
REMARK    2  A    between atoms: N3_3  and  C4_4 
REMARK       I    between atoms: N3_3  and  C7_7 
REMARK    3  A    between atoms: C4_4  and  C5_5 
REMARK       I    between atoms: C7_7  and  N9_9 
REMARK    4  A    between atoms: N9_9  and  C10_10 
REMARK    5  A    between atoms: C10_10  and  C11_11 
ROOT
ATOM      1  N3  ZIN A   1      17.527  -1.302  11.720  0.00  0.00    -0.194 N 
ATOM      2  C7  ZIN A   1      18.335  -1.464  12.786  0.00  0.00     0.340 C 
ATOM      3  O8  ZIN A   1      19.306  -2.190  12.706  0.00  0.00    -0.245 OA
ATOM      4  N9  ZIN A   1      18.067  -0.823  13.941  0.00  0.00    -0.340 N 
ATOM      5  H17 ZIN A   1      17.291  -0.244  14.004  0.00  0.00     0.164 HD
ENDROOT
BRANCH   1   6
ATOM      6  N2  ZIN A   1      16.496  -0.532  11.805  0.00  0.00    -0.008 NA
ATOM      7  O1  ZIN A   1      16.635   0.678  11.781  0.00  0.00    -0.041 OA
ENDBRANCH   1   6
BRANCH   1   8
ATOM      8  C4  ZIN A   1      17.819  -1.999  10.466  0.00  0.00     0.173 C 
BRANCH   8   9
ATOM      9  C5  ZIN A   1      18.506  -1.037   9.495  0.00  0.00     0.136 C 
ATOM     10 Cl6  ZIN A   1      17.292  -0.391   8.328  0.00  0.00    -0.129 Cl
ENDBRANCH   8   9
ENDBRANCH   1   8
BRANCH   4  11
ATOM     11  C10 ZIN A   1      18.946  -1.001  15.098  0.00  0.00     0.139 C 
BRANCH  11  12
ATOM     12  C11 ZIN A   1      18.132  -1.537  16.279  0.00  0.00     0.134 C 
ATOM     13 Cl12 ZIN A   1      16.905  -0.311  16.768  0.00  0.00    -0.129 Cl
ENDBRANCH  11  12
ENDBRANCH   4  11
TORSDOF 5
ENDMDL
MODEL 8
REMARK VINA RESULT:      -4.1      4.067      4.703
REMARK  5 active torsions:
REMARK  status: ('A' for Active; 'I' for Inactive)
REMARK    1  A    between atoms: N2_2  and  N3_3 
REMARK    2  A    between atoms: N3_3  and  C4_4 
REMARK       I    between atoms: N3_3  and  C7_7 
REMARK    3  A    between atoms: C4_4  and  C5_5 
REMARK       I    between atoms: C7_7  and  N9_9 
REMARK    4  A    between atoms: N9_9  and  C10_10 
REMARK    5  A    between atoms: C10_10  and  C11_11 
ROOT
ATOM      1  N3  ZIN A   1      19.087   0.699   7.987  0.00  0.00    -0.194 N 
ATOM      2  C7  ZIN A   1      19.538  -0.145   8.934  0.00  0.00     0.340 C 
ATOM      3  O8  ZIN A   1      19.336  -1.339   8.829  0.00  0.00    -0.245 OA
ATOM      4  N9  ZIN A   1      20.213   0.332   9.999  0.00  0.00    -0.340 N 
ATOM      5  H17 ZIN A   1      20.374   1.285  10.082  0.00  0.00     0.164 HD
ENDROOT
BRANCH   1   6
ATOM      6  N2  ZIN A   1      19.301   1.966   8.098  0.00  0.00    -0.008 NA
ATOM      7  O1  ZIN A   1      18.795   2.592   9.013  0.00  0.00    -0.041 OA
ENDBRANCH   1   6
BRANCH   1   8
ATOM      8  C4  ZIN A   1      18.353   0.180   6.830  0.00  0.00     0.173 C 
BRANCH   8   9
ATOM      9  C5  ZIN A   1      19.139   0.477   5.552  0.00  0.00     0.136 C 
ATOM     10 Cl6  ZIN A   1      19.216  -1.009   4.534  0.00  0.00    -0.129 Cl
ENDBRANCH   8   9
ENDBRANCH   1   8
BRANCH   4  11
ATOM     11  C10 ZIN A   1      20.703  -0.587  11.028  0.00  0.00     0.139 C 
BRANCH  11  12
ATOM     12  C11 ZIN A   1      19.781  -0.524  12.249  0.00  0.00     0.134 C 
ATOM     13 Cl12 ZIN A   1      19.307  -2.195  12.731  0.00  0.00    -0.129 Cl
ENDBRANCH  11  12
ENDBRANCH   4  11
TORSDOF 5
ENDMDL
MODEL 9
REMARK VINA RESULT:      -4.0      5.019      6.497
REMARK  5 active torsions:
REMARK  status: ('A' for Active; 'I' for Inactive)
REMARK    1  A    between atoms: N2_2  and  N3_3 
REMARK    2  A    between atoms: N3_3  and  C4_4 
REMARK       I    between atoms: N3_3  and  C7_7 
REMARK    3  A    between atoms: C4_4  and  C5_5 
REMARK       I    between atoms: C7_7  and  N9_9 
REMARK    4  A    between atoms: N9_9  and  C10_10 
REMARK    5  A    between atoms: C10_10  and  C11_11 
ROOT
ATOM      1  N3  ZIN A   1      18.231   1.039  11.294  0.00  0.00    -0.194 N 
ATOM      2  C7  ZIN A   1      18.924   0.903  10.147  0.00  0.00     0.340 C 
ATOM      3  O8  ZIN A   1      19.971   0.285  10.139  0.00  0.00    -0.245 OA
ATOM      4  N9  ZIN A   1      18.459   1.453   9.008  0.00  0.00    -0.340 N 
ATOM      5  H17 ZIN A   1      17.623   1.946   9.015  0.00  0.00     0.164 HD
ENDROOT
BRANCH   1   6
ATOM      6  N2  ZIN A   1      17.121   1.695  11.303  0.00  0.00    -0.008 NA
ATOM      7  O1  ZIN A   1      17.131   2.911  11.224  0.00  0.00    -0.041 OA
ENDBRANCH   1   6
BRANCH   1   8
ATOM      8  C4  ZIN A   1      18.738   0.441  12.532  0.00  0.00     0.173 C 
BRANCH   8   9
ATOM      9  C5  ZIN A   1      17.707  -0.547  13.081  0.00  0.00     0.136 C 
ATOM     10 Cl6  ZIN A   1      18.026  -0.837  14.832  0.00  0.00    -0.129 Cl
ENDBRANCH   8   9
ENDBRANCH   1   8
BRANCH   4  11
ATOM     11  C10 ZIN A   1      19.213   1.305   7.761  0.00  0.00     0.139 C 
BRANCH  11  12
ATOM     12  C11 ZIN A   1      18.379   0.511   6.752  0.00  0.00     0.134 C 
ATOM     13 Cl12 ZIN A   1      19.283   0.379   5.198  0.00  0.00    -0.129 Cl
ENDBRANCH  11  12
ENDBRANCH   4  11
TORSDOF 5
ENDMDL
