MODEL 1
REMARK VINA RESULT:      -6.7      0.000      0.000
REMARK  3 active torsions:
REMARK  status: ('A' for Active; 'I' for Inactive)
REMARK    1  A    between atoms: C4_4  and  C5_5 
REMARK    2  A    between atoms: C12_12  and  C13_13 
REMARK    3  A    between atoms: C13_13  and  C14_14 
ROOT
ATOM      1  C1  ZIN A   1      20.888  -0.553  11.038  0.00  0.00     0.049 C 
ATOM      2  C2  ZIN A   1      20.019   0.225  10.084  0.00  0.00    -0.054 A 
ATOM      3  C3  ZIN A   1      19.660  -0.326   8.868  0.00  0.00     0.015 A 
ATOM      4  C4  ZIN A   1      18.862   0.387   7.994  0.00  0.00    -0.050 A 
ATOM      5  C9  ZIN A   1      18.421   1.651   8.336  0.00  0.00     0.015 A 
ATOM      6  C10 ZIN A   1      18.779   2.204   9.551  0.00  0.00    -0.054 A 
ATOM      7  C11 ZIN A   1      18.299   3.582   9.924  0.00  0.00     0.049 C 
ATOM      8  C12 ZIN A   1      19.573   1.488  10.427  0.00  0.00    -0.039 A 
ENDROOT
BRANCH   8   9
ATOM      9  C13 ZIN A   1      19.963   2.090  11.754  0.00  0.00     0.115 C 
BRANCH   9  10
ATOM     10  C14 ZIN A   1      19.202   1.404  12.859  0.00  0.00     0.077 A 
ATOM     11  N19 ZIN A   1      17.927   1.107  12.758  0.00  0.00    -0.378 N 
ATOM     12  C18 ZIN A   1      17.483   0.444  13.993  0.00  0.00     0.140 A 
ATOM     13  H43 ZIN A   1      17.367   1.293  11.987  0.00  0.00     0.160 HD
ATOM     14  C17 ZIN A   1      18.761   0.415  14.856  0.00  0.00     0.140 A 
ATOM     15  N15 ZIN A   1      19.764   1.061  13.994  0.00  0.00    -0.378 N 
ATOM     16  H16 ZIN A   1      20.692   1.212  14.229  0.00  0.00     0.160 HD
ENDBRANCH   9  10
ENDBRANCH   8   9
BRANCH   4  17
ATOM     17  C5  ZIN A   1      18.474  -0.215   6.667  0.00  0.00    -0.024 C 
ATOM     18  C6  ZIN A   1      18.868  -1.693   6.644  0.00  0.00     0.019 C 
ATOM     19  C7  ZIN A   1      16.961  -0.087   6.474  0.00  0.00     0.019 C 
ATOM     20  C8  ZIN A   1      19.196   0.524   5.540  0.00  0.00     0.019 C 
ENDBRANCH   4  17
TORSDOF 3
ENDMDL
MODEL 2
REMARK VINA RESULT:      -6.7      0.023      2.014
REMARK  3 active torsions:
REMARK  status: ('A' for Active; 'I' for Inactive)
REMARK    1  A    between atoms: C4_4  and  C5_5 
REMARK    2  A    between atoms: C12_12  and  C13_13 
REMARK    3  A    between atoms: C13_13  and  C14_14 
ROOT
ATOM      1  C1  ZIN A   1      18.299   3.581   9.956  0.00  0.00     0.049 C 
ATOM      2  C2  ZIN A   1      18.781   2.204   9.577  0.00  0.00    -0.054 A 
ATOM      3  C3  ZIN A   1      18.427   1.659   8.357  0.00  0.00     0.015 A 
ATOM      4  C4  ZIN A   1      18.870   0.397   8.010  0.00  0.00    -0.050 A 
ATOM      5  C9  ZIN A   1      19.667  -0.321   8.882  0.00  0.00     0.015 A 
ATOM      6  C10 ZIN A   1      20.021   0.224  10.102  0.00  0.00    -0.054 A 
ATOM      7  C11 ZIN A   1      20.889  -0.559  11.053  0.00  0.00     0.049 C 
ATOM      8  C12 ZIN A   1      19.582   1.488  10.447  0.00  0.00    -0.039 A 
ENDROOT
BRANCH   8   9
ATOM      9  C13 ZIN A   1      19.969   2.082  11.778  0.00  0.00     0.115 C 
BRANCH   9  10
ATOM     10  C14 ZIN A   1      19.201   1.393  12.876  0.00  0.00     0.077 A 
ATOM     11  N19 ZIN A   1      17.927   1.095  12.766  0.00  0.00    -0.378 N 
ATOM     12  C18 ZIN A   1      17.475   0.428  13.997  0.00  0.00     0.140 A 
ATOM     13  H43 ZIN A   1      17.373   1.280  11.991  0.00  0.00     0.160 HD
ATOM     14  C17 ZIN A   1      18.747   0.400  14.869  0.00  0.00     0.140 A 
ATOM     15  N15 ZIN A   1      19.755   1.050  14.015  0.00  0.00    -0.378 N 
ATOM     16  H16 ZIN A   1      20.681   1.202  14.257  0.00  0.00     0.160 HD
ENDBRANCH   9  10
ENDBRANCH   8   9
BRANCH   4  17
ATOM     17  C5  ZIN A   1      18.483  -0.197   6.679  0.00  0.00    -0.024 C 
ATOM     18  C6  ZIN A   1      18.883  -1.673   6.644  0.00  0.00     0.019 C 
ATOM     19  C7  ZIN A   1      16.969  -0.075   6.489  0.00  0.00     0.019 C 
ATOM     20  C8  ZIN A   1      19.201   0.553   5.556  0.00  0.00     0.019 C 
ENDBRANCH   4  17
TORSDOF 3
ENDMDL
MODEL 3
REMARK VINA RESULT:      -6.5      2.863      4.409
REMARK  3 active torsions:
REMARK  status: ('A' for Active; 'I' for Inactive)
REMARK    1  A    between atoms: C4_4  and  C5_5 
REMARK    2  A    between atoms: C12_12  and  C13_13 
REMARK    3  A    between atoms: C13_13  and  C14_14 
ROOT
ATOM      1  C1  ZIN A   1      17.189   5.442  10.745  0.00  0.00     0.049 C 
ATOM      2  C2  ZIN A   1      17.595   4.030  11.083  0.00  0.00    -0.054 A 
ATOM      3  C3  ZIN A   1      17.971   3.160  10.077  0.00  0.00     0.015 A 
ATOM      4  C4  ZIN A   1      18.345   1.865  10.387  0.00  0.00    -0.050 A 
ATOM      5  C9  ZIN A   1      18.343   1.442  11.703  0.00  0.00     0.015 A 
ATOM      6  C10 ZIN A   1      17.967   2.312  12.709  0.00  0.00    -0.054 A 
ATOM      7  C11 ZIN A   1      17.964   1.851  14.143  0.00  0.00     0.049 C 
ATOM      8  C12 ZIN A   1      17.598   3.608  12.399  0.00  0.00    -0.039 A 
ENDROOT
BRANCH   8   9
ATOM      9  C13 ZIN A   1      17.188   4.558  13.496  0.00  0.00     0.115 C 
BRANCH   9  10
ATOM     10  C14 ZIN A   1      18.417   5.058  14.211  0.00  0.00     0.077 A 
ATOM     11  N19 ZIN A   1      19.486   5.471  13.570  0.00  0.00    -0.378 N 
ATOM     12  C18 ZIN A   1      20.503   5.896  14.544  0.00  0.00     0.140 A 
ATOM     13  H43 ZIN A   1      19.587   5.496  12.605  0.00  0.00     0.160 HD
ATOM     14  C17 ZIN A   1      19.817   5.641  15.903  0.00  0.00     0.140 A 
ATOM     15  N15 ZIN A   1      18.500   5.109  15.519  0.00  0.00    -0.378 N 
ATOM     16  H16 ZIN A   1      17.803   4.839  16.137  0.00  0.00     0.160 HD
ENDBRANCH   9  10
ENDBRANCH   8   9
BRANCH   4  17
ATOM     17  C5  ZIN A   1      18.753   0.916   9.290  0.00  0.00    -0.024 C 
ATOM     18  C6  ZIN A   1      19.322   1.712   8.114  0.00  0.00     0.019 C 
ATOM     19  C7  ZIN A   1      19.820  -0.045   9.819  0.00  0.00     0.019 C 
ATOM     20  C8  ZIN A   1      17.534   0.119   8.823  0.00  0.00     0.019 C 
ENDBRANCH   4  17
TORSDOF 3
ENDMDL
MODEL 4
REMARK VINA RESULT:      -6.5      1.966      6.315
REMARK  3 active torsions:
REMARK  status: ('A' for Active; 'I' for Inactive)
REMARK    1  A    between atoms: C4_4  and  C5_5 
REMARK    2  A    between atoms: C12_12  and  C13_13 
REMARK    3  A    between atoms: C13_13  and  C14_14 
ROOT
ATOM      1  C1  ZIN A   1      20.992   0.216  12.075  0.00  0.00     0.049 C 
ATOM      2  C2  ZIN A   1      19.986   0.773  13.049  0.00  0.00    -0.054 A 
ATOM      3  C3  ZIN A   1      19.720   0.101  14.228  0.00  0.00     0.015 A 
ATOM      4  C4  ZIN A   1      18.797   0.612  15.121  0.00  0.00    -0.050 A 
ATOM      5  C9  ZIN A   1      18.141   1.794  14.837  0.00  0.00     0.015 A 
ATOM      6  C10 ZIN A   1      18.407   2.467  13.659  0.00  0.00    -0.054 A 
ATOM      7  C11 ZIN A   1      17.692   3.756  13.349  0.00  0.00     0.049 C 
ATOM      8  C12 ZIN A   1      19.333   1.958  12.768  0.00  0.00    -0.039 A 
ENDROOT
BRANCH   8   9
ATOM      9  C13 ZIN A   1      19.624   2.692  11.483  0.00  0.00     0.115 C 
BRANCH   9  10
ATOM     10  C14 ZIN A   1      19.063   1.910  10.322  0.00  0.00     0.077 A 
ATOM     11  N19 ZIN A   1      17.908   1.290  10.382  0.00  0.00    -0.378 N 
ATOM     12  C18 ZIN A   1      17.644   0.628   9.096  0.00  0.00     0.140 A 
ATOM     13  H43 ZIN A   1      17.318   1.276  11.153  0.00  0.00     0.160 HD
ATOM     14  C17 ZIN A   1      18.892   0.976   8.258  0.00  0.00     0.140 A 
ATOM     15  N15 ZIN A   1      19.697   1.795   9.179  0.00  0.00    -0.378 N 
ATOM     16  H16 ZIN A   1      20.559   2.187   8.973  0.00  0.00     0.160 HD
ENDBRANCH   9  10
ENDBRANCH   8   9
BRANCH   4  17
ATOM     17  C5  ZIN A   1      18.507  -0.122  16.406  0.00  0.00    -0.024 C 
ATOM     18  C6  ZIN A   1      19.055  -1.548  16.313  0.00  0.00     0.019 C 
ATOM     19  C7  ZIN A   1      19.177   0.607  17.572  0.00  0.00     0.019 C 
ATOM     20  C8  ZIN A   1      16.995  -0.171  16.635  0.00  0.00     0.019 C 
ENDBRANCH   4  17
TORSDOF 3
ENDMDL
MODEL 5
REMARK VINA RESULT:      -6.4      3.331      4.907
REMARK  3 active torsions:
REMARK  status: ('A' for Active; 'I' for Inactive)
REMARK    1  A    between atoms: C4_4  and  C5_5 
REMARK    2  A    between atoms: C12_12  and  C13_13 
REMARK    3  A    between atoms: C13_13  and  C14_14 
ROOT
ATOM      1  C1  ZIN A   1      16.371   0.333  11.287  0.00  0.00     0.049 C 
ATOM      2  C2  ZIN A   1      17.274  -0.701  11.910  0.00  0.00    -0.054 A 
ATOM      3  C3  ZIN A   1      17.457  -1.923  11.289  0.00  0.00     0.015 A 
ATOM      4  C4  ZIN A   1      18.286  -2.870  11.859  0.00  0.00    -0.050 A 
ATOM      5  C9  ZIN A   1      18.933  -2.596  13.049  0.00  0.00     0.015 A 
ATOM      6  C10 ZIN A   1      18.751  -1.374  13.670  0.00  0.00    -0.054 A 
ATOM      7  C11 ZIN A   1      19.456  -1.075  14.968  0.00  0.00     0.049 C 
ATOM      8  C12 ZIN A   1      17.926  -0.425  13.097  0.00  0.00    -0.039 A 
ENDROOT
BRANCH   8   9
ATOM      9  C13 ZIN A   1      17.727   0.908  13.774  0.00  0.00     0.115 C 
BRANCH   9  10
ATOM     10  C14 ZIN A   1      18.438   1.979  12.988  0.00  0.00     0.077 A 
ATOM     11  N19 ZIN A   1      19.657   1.825  12.529  0.00  0.00    -0.378 N 
ATOM     12  C18 ZIN A   1      20.063   3.040  11.807  0.00  0.00     0.140 A 
ATOM     13  H43 ZIN A   1      20.204   1.030  12.644  0.00  0.00     0.160 HD
ATOM     14  C17 ZIN A   1      18.829   3.957  11.940  0.00  0.00     0.140 A 
ATOM     15  N15 ZIN A   1      17.885   3.138  12.716  0.00  0.00    -0.378 N 
ATOM     16  H16 ZIN A   1      16.994   3.412  12.985  0.00  0.00     0.160 HD
ENDBRANCH   9  10
ENDBRANCH   8   9
BRANCH   4  17
ATOM     17  C5  ZIN A   1      18.483  -4.203  11.183  0.00  0.00    -0.024 C 
ATOM     18  C6  ZIN A   1      17.643  -5.265  11.894  0.00  0.00     0.019 C 
ATOM     19  C7  ZIN A   1      18.044  -4.101   9.720  0.00  0.00     0.019 C 
ATOM     20  C8  ZIN A   1      19.961  -4.594  11.246  0.00  0.00     0.019 C 
ENDBRANCH   4  17
TORSDOF 3
ENDMDL
MODEL 6
REMARK VINA RESULT:      -6.4      3.334      4.557
REMARK  3 active torsions:
REMARK  status: ('A' for Active; 'I' for Inactive)
REMARK    1  A    between atoms: C4_4  and  C5_5 
REMARK    2  A    between atoms: C12_12  and  C13_13 
REMARK    3  A    between atoms: C13_13  and  C14_14 
ROOT
ATOM      1  C1  ZIN A   1      19.353  -1.100  15.019  0.00  0.00     0.049 C 
ATOM      2  C2  ZIN A   1      18.684  -1.388  13.700  0.00  0.00    -0.054 A 
ATOM      3  C3  ZIN A   1      18.858  -2.616  13.090  0.00  0.00     0.015 A 
ATOM      4  C4  ZIN A   1      18.244  -2.880  11.880  0.00  0.00    -0.050 A 
ATOM      5  C9  ZIN A   1      17.455  -1.917  11.281  0.00  0.00     0.015 A 
ATOM      6  C10 ZIN A   1      17.280  -0.689  11.890  0.00  0.00    -0.054 A 
ATOM      7  C11 ZIN A   1      16.419   0.362  11.237  0.00  0.00     0.049 C 
ATOM      8  C12 ZIN A   1      17.890  -0.427  13.102  0.00  0.00    -0.039 A 
ENDROOT
BRANCH   8   9
ATOM      9  C13 ZIN A   1      17.699   0.913  13.768  0.00  0.00     0.115 C 
BRANCH   9  10
ATOM     10  C14 ZIN A   1      18.442   1.969  12.991  0.00  0.00     0.077 A 
ATOM     11  N19 ZIN A   1      17.903   3.123  12.677  0.00  0.00    -0.378 N 
ATOM     12  C18 ZIN A   1      18.880   3.929  11.927  0.00  0.00     0.140 A 
ATOM     13  H43 ZIN A   1      17.003   3.404  12.908  0.00  0.00     0.160 HD
ATOM     14  C17 ZIN A   1      20.114   3.005  11.852  0.00  0.00     0.140 A 
ATOM     15  N15 ZIN A   1      19.675   1.800  12.575  0.00  0.00    -0.378 N 
ATOM     16  H16 ZIN A   1      20.213   1.006  12.719  0.00  0.00     0.160 HD
ENDBRANCH   9  10
ENDBRANCH   8   9
BRANCH   4  17
ATOM     17  C5  ZIN A   1      18.436  -4.219  11.215  0.00  0.00    -0.024 C 
ATOM     18  C6  ZIN A   1      19.920  -4.589  11.233  0.00  0.00     0.019 C 
ATOM     19  C7  ZIN A   1      17.636  -5.283  11.971  0.00  0.00     0.019 C 
ATOM     20  C8  ZIN A   1      17.946  -4.146   9.767  0.00  0.00     0.019 C 
ENDBRANCH   4  17
TORSDOF 3
ENDMDL
MODEL 7
REMARK VINA RESULT:      -6.4      1.986      3.071
REMARK  3 active torsions:
REMARK  status: ('A' for Active; 'I' for Inactive)
REMARK    1  A    between atoms: C4_4  and  C5_5 
REMARK    2  A    between atoms: C12_12  and  C13_13 
REMARK    3  A    between atoms: C13_13  and  C14_14 
ROOT
ATOM      1  C1  ZIN A   1      17.597  -3.772  10.072  0.00  0.00     0.049 C 
ATOM      2  C2  ZIN A   1      18.356  -2.529   9.685  0.00  0.00    -0.054 A 
ATOM      3  C3  ZIN A   1      18.091  -1.903   8.481  0.00  0.00     0.015 A 
ATOM      4  C4  ZIN A   1      18.787  -0.763   8.127  0.00  0.00    -0.050 A 
ATOM      5  C9  ZIN A   1      19.747  -0.247   8.976  0.00  0.00     0.015 A 
ATOM      6  C10 ZIN A   1      20.013  -0.872  10.180  0.00  0.00    -0.054 A 
ATOM      7  C11 ZIN A   1      21.060  -0.310  11.106  0.00  0.00     0.049 C 
ATOM      8  C12 ZIN A   1      19.313  -2.010  10.537  0.00  0.00    -0.039 A 
ENDROOT
BRANCH   8   9
ATOM      9  C13 ZIN A   1      19.603  -2.691  11.850  0.00  0.00     0.115 C 
BRANCH   9  10
ATOM     10  C14 ZIN A   1      19.105  -1.830  12.982  0.00  0.00     0.077 A 
ATOM     11  N19 ZIN A   1      19.800  -1.635  14.078  0.00  0.00    -0.378 N 
ATOM     12  C18 ZIN A   1      19.048  -0.750  14.981  0.00  0.00     0.140 A 
ATOM     13  H43 ZIN A   1      20.676  -2.012  14.262  0.00  0.00     0.160 HD
ATOM     14  C17 ZIN A   1      17.752  -0.464  14.194  0.00  0.00     0.140 A 
ATOM     15  N15 ZIN A   1      17.943  -1.222  12.946  0.00  0.00    -0.378 N 
ATOM     16  H16 ZIN A   1      17.309  -1.265  12.214  0.00  0.00     0.160 HD
ENDBRANCH   9  10
ENDBRANCH   8   9
BRANCH   4  17
ATOM     17  C5  ZIN A   1      18.498  -0.082   6.813  0.00  0.00    -0.024 C 
ATOM     18  C6  ZIN A   1      16.995  -0.135   6.532  0.00  0.00     0.019 C 
ATOM     19  C7  ZIN A   1      18.953   1.377   6.885  0.00  0.00     0.019 C 
ATOM     20  C8  ZIN A   1      19.252  -0.797   5.691  0.00  0.00     0.019 C 
ENDBRANCH   4  17
TORSDOF 3
ENDMDL
MODEL 8
REMARK VINA RESULT:      -6.4      3.767      6.741
REMARK  3 active torsions:
REMARK  status: ('A' for Active; 'I' for Inactive)
REMARK    1  A    between atoms: C4_4  and  C5_5 
REMARK    2  A    between atoms: C12_12  and  C13_13 
REMARK    3  A    between atoms: C13_13  and  C14_14 
ROOT
ATOM      1  C1  ZIN A   1      20.299  -3.183  12.102  0.00  0.00     0.049 C 
ATOM      2  C2  ZIN A   1      19.334  -2.151  12.627  0.00  0.00    -0.054 A 
ATOM      3  C3  ZIN A   1      19.344  -1.814  13.968  0.00  0.00     0.015 A 
ATOM      4  C4  ZIN A   1      18.459  -0.867  14.449  0.00  0.00    -0.050 A 
ATOM      5  C9  ZIN A   1      17.565  -0.257  13.590  0.00  0.00     0.015 A 
ATOM      6  C10 ZIN A   1      17.555  -0.594  12.250  0.00  0.00    -0.054 A 
ATOM      7  C11 ZIN A   1      16.579   0.071  11.313  0.00  0.00     0.049 C 
ATOM      8  C12 ZIN A   1      18.443  -1.537  11.768  0.00  0.00    -0.039 A 
ENDROOT
BRANCH   8   9
ATOM      9  C13 ZIN A   1      18.432  -1.904  10.305  0.00  0.00     0.115 C 
BRANCH   9  10
ATOM     10  C14 ZIN A   1      17.724  -3.223  10.125  0.00  0.00     0.077 A 
ATOM     11  N19 ZIN A   1      17.741  -3.883   8.991  0.00  0.00    -0.378 N 
ATOM     12  C18 ZIN A   1      16.968  -5.125   9.139  0.00  0.00     0.140 A 
ATOM     13  H43 ZIN A   1      18.197  -3.598   8.183  0.00  0.00     0.160 HD
ATOM     14  C17 ZIN A   1      16.478  -5.062  10.601  0.00  0.00     0.140 A 
ATOM     15  N15 ZIN A   1      17.043  -3.795  11.090  0.00  0.00    -0.378 N 
ATOM     16  H16 ZIN A   1      16.929  -3.438  11.984  0.00  0.00     0.160 HD
ENDBRANCH   9  10
ENDBRANCH   8   9
BRANCH   4  17
ATOM     17  C5  ZIN A   1      18.470  -0.501  15.911  0.00  0.00    -0.024 C 
ATOM     18  C6  ZIN A   1      19.346  -1.494  16.678  0.00  0.00     0.019 C 
ATOM     19  C7  ZIN A   1      19.034   0.912  16.078  0.00  0.00     0.019 C 
ATOM     20  C8  ZIN A   1      17.043  -0.549  16.461  0.00  0.00     0.019 C 
ENDBRANCH   4  17
TORSDOF 3
ENDMDL
MODEL 9
REMARK VINA RESULT:      -6.4      2.252      6.332
REMARK  3 active torsions:
REMARK  status: ('A' for Active; 'I' for Inactive)
REMARK    1  A    between atoms: C4_4  and  C5_5 
REMARK    2  A    between atoms: C12_12  and  C13_13 
REMARK    3  A    between atoms: C13_13  and  C14_14 
ROOT
ATOM      1  C1  ZIN A   1      19.834  -2.902  12.077  0.00  0.00     0.049 C 
ATOM      2  C2  ZIN A   1      19.677  -1.550  12.723  0.00  0.00    -0.054 A 
ATOM      3  C3  ZIN A   1      19.197  -1.453  14.017  0.00  0.00     0.015 A 
ATOM      4  C4  ZIN A   1      19.054  -0.213  14.610  0.00  0.00    -0.050 A 
ATOM      5  C9  ZIN A   1      19.391   0.930  13.911  0.00  0.00     0.015 A 
ATOM      6  C10 ZIN A   1      19.870   0.835  12.618  0.00  0.00    -0.054 A 
ATOM      7  C11 ZIN A   1      20.237   2.082  11.856  0.00  0.00     0.049 C 
ATOM      8  C12 ZIN A   1      20.018  -0.405  12.027  0.00  0.00    -0.039 A 
ENDROOT
BRANCH   8   9
ATOM      9  C13 ZIN A   1      20.541  -0.510  10.616  0.00  0.00     0.115 C 
BRANCH   9  10
ATOM     10  C14 ZIN A   1      19.388  -0.721   9.669  0.00  0.00     0.077 A 
ATOM     11  N19 ZIN A   1      19.389  -1.664   8.757  0.00  0.00    -0.378 N 
ATOM     12  C18 ZIN A   1      18.128  -1.611   8.001  0.00  0.00     0.140 A 
ATOM     13  H43 ZIN A   1      20.107  -2.301   8.608  0.00  0.00     0.160 HD
ATOM     14  C17 ZIN A   1      17.378  -0.429   8.650  0.00  0.00     0.140 A 
ATOM     15  N15 ZIN A   1      18.311   0.029   9.692  0.00  0.00    -0.378 N 
ATOM     16  H16 ZIN A   1      18.155   0.768  10.299  0.00  0.00     0.160 HD
ENDBRANCH   9  10
ENDBRANCH   8   9
BRANCH   4  17
ATOM     17  C5  ZIN A   1      18.530  -0.109  16.020  0.00  0.00    -0.024 C 
ATOM     18  C6  ZIN A   1      17.001  -0.136  15.998  0.00  0.00     0.019 C 
ATOM     19  C7  ZIN A   1      19.050  -1.289  16.844  0.00  0.00     0.019 C 
ATOM     20  C8  ZIN A   1      19.009   1.202  16.647  0.00  0.00     0.019 C 
ENDBRANCH   4  17
TORSDOF 3
ENDMDL
