MODEL 1
REMARK VINA RESULT:      -5.9      0.000      0.000
REMARK  2 active torsions:
REMARK  status: ('A' for Active; 'I' for Inactive)
REMARK    1  A    between atoms: C2_2  and  N4_3 
REMARK    2  A    between atoms: C2_2  and  C8_7 
ROOT
ATOM      1  C8  ZIN A   1      19.563   0.623  11.287  0.00  0.00    -0.012 C 
ATOM      2  C9  ZIN A   1      18.094   0.407  11.660  0.00  0.00     0.016 C 
ATOM      3  C10 ZIN A   1      17.198   1.002  10.571  0.00  0.00    -0.013 C 
ATOM      4  C11 ZIN A   1      17.493   0.315   9.236  0.00  0.00     0.009 C 
ATOM      5  C12 ZIN A   1      18.961   0.532   8.864  0.00  0.00    -0.013 C 
ATOM      6  C13 ZIN A   1      19.240   2.031   8.738  0.00  0.00     0.009 C 
ATOM      7  C14 ZIN A   1      18.945   2.718  10.073  0.00  0.00    -0.013 C 
ATOM      8  C15 ZIN A   1      17.477   2.501  10.445  0.00  0.00     0.009 C 
ATOM      9  C16 ZIN A   1      19.840   2.122  11.161  0.00  0.00     0.016 C 
ATOM     10  C17 ZIN A   1      19.857  -0.064   9.952  0.00  0.00     0.016 C 
ENDROOT
BRANCH   1  11
ATOM     11  C2  ZIN A   1      20.457   0.028  12.375  0.00  0.00     0.188 C 
ATOM     12  C1  ZIN A   1      19.875   0.357  13.752  0.00  0.00     0.040 C 
BRANCH  11  13
ATOM     13  N4  ZIN A   1      21.808   0.597  12.266  0.00  0.00    -0.075 N 
ATOM     14  H5  ZIN A   1      21.869   1.428  12.834  0.00  0.00     0.274 HD
ATOM     15  H6  ZIN A   1      22.485  -0.080  12.584  0.00  0.00     0.274 HD
ATOM     16  H7  ZIN A   1      21.996   0.833  11.303  0.00  0.00     0.274 HD
ENDBRANCH  11  13
ENDBRANCH   1  11
TORSDOF 2
ENDMDL
MODEL 2
REMARK VINA RESULT:      -5.9      0.033      2.075
REMARK  2 active torsions:
REMARK  status: ('A' for Active; 'I' for Inactive)
REMARK    1  A    between atoms: C2_2  and  N4_3 
REMARK    2  A    between atoms: C2_2  and  C8_7 
ROOT
ATOM      1  C8  ZIN A   1      19.562   0.648  11.291  0.00  0.00    -0.012 C 
ATOM      2  C9  ZIN A   1      19.841   2.148  11.172  0.00  0.00     0.016 C 
ATOM      3  C10 ZIN A   1      18.956   2.745  10.075  0.00  0.00    -0.013 C 
ATOM      4  C11 ZIN A   1      17.484   2.526  10.430  0.00  0.00     0.009 C 
ATOM      5  C12 ZIN A   1      17.206   1.027  10.549  0.00  0.00    -0.013 C 
ATOM      6  C13 ZIN A   1      17.516   0.342   9.216  0.00  0.00     0.009 C 
ATOM      7  C14 ZIN A   1      18.988   0.561   8.861  0.00  0.00    -0.013 C 
ATOM      8  C15 ZIN A   1      19.266   2.061   8.742  0.00  0.00     0.009 C 
ATOM      9  C16 ZIN A   1      19.872  -0.035   9.959  0.00  0.00     0.016 C 
ATOM     10  C17 ZIN A   1      18.090   0.429  11.647  0.00  0.00     0.016 C 
ENDROOT
BRANCH   1  11
ATOM     11  C2  ZIN A   1      20.445   0.052  12.389  0.00  0.00     0.188 C 
ATOM     12  C1  ZIN A   1      19.855   0.390  13.759  0.00  0.00     0.040 C 
BRANCH  11  13
ATOM     13  N4  ZIN A   1      21.800   0.613  12.287  0.00  0.00    -0.075 N 
ATOM     14  H5  ZIN A   1      22.411   0.136  12.931  0.00  0.00     0.274 HD
ATOM     15  H6  ZIN A   1      22.143   0.493  11.345  0.00  0.00     0.274 HD
ATOM     16  H7  ZIN A   1      21.774   1.596  12.512  0.00  0.00     0.274 HD
ENDBRANCH  11  13
ENDBRANCH   1  11
TORSDOF 2
ENDMDL
MODEL 3
REMARK VINA RESULT:      -5.9      0.025      2.088
REMARK  2 active torsions:
REMARK  status: ('A' for Active; 'I' for Inactive)
REMARK    1  A    between atoms: C2_2  and  N4_3 
REMARK    2  A    between atoms: C2_2  and  C8_7 
ROOT
ATOM      1  C8  ZIN A   1      19.570   0.625  11.286  0.00  0.00    -0.012 C 
ATOM      2  C9  ZIN A   1      19.881  -0.046   9.946  0.00  0.00     0.016 C 
ATOM      3  C10 ZIN A   1      18.989   0.553   8.856  0.00  0.00    -0.013 C 
ATOM      4  C11 ZIN A   1      19.254   2.056   8.748  0.00  0.00     0.009 C 
ATOM      5  C12 ZIN A   1      18.943   2.726  10.088  0.00  0.00    -0.013 C 
ATOM      6  C13 ZIN A   1      17.474   2.493  10.447  0.00  0.00     0.009 C 
ATOM      7  C14 ZIN A   1      17.209   0.990  10.555  0.00  0.00    -0.013 C 
ATOM      8  C15 ZIN A   1      17.520   0.320   9.215  0.00  0.00     0.009 C 
ATOM      9  C16 ZIN A   1      18.102   0.391  11.644  0.00  0.00     0.016 C 
ATOM     10  C17 ZIN A   1      19.836   2.128  11.178  0.00  0.00     0.016 C 
ENDROOT
BRANCH   1  11
ATOM     11  C2  ZIN A   1      20.463   0.027  12.374  0.00  0.00     0.188 C 
ATOM     12  C1  ZIN A   1      19.863   0.329  13.749  0.00  0.00     0.040 C 
BRANCH  11  13
ATOM     13  N4  ZIN A   1      21.806   0.616  12.285  0.00  0.00    -0.075 N 
ATOM     14  H5  ZIN A   1      22.227   0.362  11.405  0.00  0.00     0.274 HD
ATOM     15  H6  ZIN A   1      21.736   1.621  12.348  0.00  0.00     0.274 HD
ATOM     16  H7  ZIN A   1      22.375   0.271  13.043  0.00  0.00     0.274 HD
ENDBRANCH  11  13
ENDBRANCH   1  11
TORSDOF 2
ENDMDL
MODEL 4
REMARK VINA RESULT:      -5.9      3.056      5.022
REMARK  2 active torsions:
REMARK  status: ('A' for Active; 'I' for Inactive)
REMARK    1  A    between atoms: C2_2  and  N4_3 
REMARK    2  A    between atoms: C2_2  and  C8_7 
ROOT
ATOM      1  C8  ZIN A   1      18.419   0.008   6.852  0.00  0.00    -0.012 C 
ATOM      2  C9  ZIN A   1      19.124   1.266   7.364  0.00  0.00     0.016 C 
ATOM      3  C10 ZIN A   1      19.273   1.184   8.885  0.00  0.00    -0.013 C 
ATOM      4  C11 ZIN A   1      20.100  -0.051   9.251  0.00  0.00     0.009 C 
ATOM      5  C12 ZIN A   1      19.395  -1.307   8.738  0.00  0.00    -0.013 C 
ATOM      6  C13 ZIN A   1      18.010  -1.413   9.381  0.00  0.00     0.009 C 
ATOM      7  C14 ZIN A   1      17.183  -0.179   9.015  0.00  0.00    -0.013 C 
ATOM      8  C15 ZIN A   1      17.889   1.078   9.527  0.00  0.00     0.009 C 
ATOM      9  C16 ZIN A   1      17.035  -0.097   7.494  0.00  0.00     0.016 C 
ATOM     10  C17 ZIN A   1      19.247  -1.226   7.217  0.00  0.00     0.016 C 
ENDROOT
BRANCH   1  11
ATOM     11  C2  ZIN A   1      18.271   0.091   5.331  0.00  0.00     0.188 C 
ATOM     12  C1  ZIN A   1      17.666  -1.212   4.806  0.00  0.00     0.040 C 
BRANCH  11  13
ATOM     13  N4  ZIN A   1      19.592   0.298   4.721  0.00  0.00    -0.075 N 
ATOM     14  H5  ZIN A   1      19.496   0.878   3.902  0.00  0.00     0.274 HD
ATOM     15  H6  ZIN A   1      20.201   0.752   5.386  0.00  0.00     0.274 HD
ATOM     16  H7  ZIN A   1      19.985  -0.593   4.459  0.00  0.00     0.274 HD
ENDBRANCH  11  13
ENDBRANCH   1  11
TORSDOF 2
ENDMDL
MODEL 5
REMARK VINA RESULT:      -5.9      3.055      5.001
REMARK  2 active torsions:
REMARK  status: ('A' for Active; 'I' for Inactive)
REMARK    1  A    between atoms: C2_2  and  N4_3 
REMARK    2  A    between atoms: C2_2  and  C8_7 
ROOT
ATOM      1  C8  ZIN A   1      18.421   0.011   6.853  0.00  0.00    -0.012 C 
ATOM      2  C9  ZIN A   1      17.036  -0.097   7.494  0.00  0.00     0.016 C 
ATOM      3  C10 ZIN A   1      17.183  -0.178   9.016  0.00  0.00    -0.013 C 
ATOM      4  C11 ZIN A   1      17.887   1.079   9.528  0.00  0.00     0.009 C 
ATOM      5  C12 ZIN A   1      19.272   1.186   8.887  0.00  0.00    -0.013 C 
ATOM      6  C13 ZIN A   1      20.101  -0.047   9.252  0.00  0.00     0.009 C 
ATOM      7  C14 ZIN A   1      19.396  -1.305   8.739  0.00  0.00    -0.013 C 
ATOM      8  C15 ZIN A   1      18.012  -1.411   9.381  0.00  0.00     0.009 C 
ATOM      9  C16 ZIN A   1      19.248  -1.222   7.219  0.00  0.00     0.016 C 
ATOM     10  C17 ZIN A   1      19.125   1.269   7.365  0.00  0.00     0.016 C 
ENDROOT
BRANCH   1  11
ATOM     11  C2  ZIN A   1      18.273   0.093   5.332  0.00  0.00     0.188 C 
ATOM     12  C1  ZIN A   1      17.665  -1.209   4.807  0.00  0.00     0.040 C 
BRANCH  11  13
ATOM     13  N4  ZIN A   1      19.594   0.298   4.722  0.00  0.00    -0.075 N 
ATOM     14  H5  ZIN A   1      19.748  -0.402   4.012  0.00  0.00     0.274 HD
ATOM     15  H6  ZIN A   1      19.632   1.216   4.304  0.00  0.00     0.274 HD
ATOM     16  H7  ZIN A   1      20.307   0.221   5.431  0.00  0.00     0.274 HD
ENDBRANCH  11  13
ENDBRANCH   1  11
TORSDOF 2
ENDMDL
MODEL 6
REMARK VINA RESULT:      -5.9      3.051      4.964
REMARK  2 active torsions:
REMARK  status: ('A' for Active; 'I' for Inactive)
REMARK    1  A    between atoms: C2_2  and  N4_3 
REMARK    2  A    between atoms: C2_2  and  C8_7 
ROOT
ATOM      1  C8  ZIN A   1      18.422   0.015   6.858  0.00  0.00    -0.012 C 
ATOM      2  C9  ZIN A   1      19.251  -1.219   7.223  0.00  0.00     0.016 C 
ATOM      3  C10 ZIN A   1      19.398  -1.303   8.744  0.00  0.00    -0.013 C 
ATOM      4  C11 ZIN A   1      18.013  -1.410   9.385  0.00  0.00     0.009 C 
ATOM      5  C12 ZIN A   1      17.185  -0.178   9.020  0.00  0.00    -0.013 C 
ATOM      6  C13 ZIN A   1      17.888   1.081   9.534  0.00  0.00     0.009 C 
ATOM      7  C14 ZIN A   1      19.273   1.188   8.892  0.00  0.00    -0.013 C 
ATOM      8  C15 ZIN A   1      20.101  -0.045   9.258  0.00  0.00     0.009 C 
ATOM      9  C16 ZIN A   1      19.125   1.271   7.372  0.00  0.00     0.016 C 
ATOM     10  C17 ZIN A   1      17.037  -0.094   7.499  0.00  0.00     0.016 C 
ENDROOT
BRANCH   1  11
ATOM     11  C2  ZIN A   1      18.274   0.097   5.337  0.00  0.00     0.188 C 
ATOM     12  C1  ZIN A   1      17.664  -1.204   4.812  0.00  0.00     0.040 C 
BRANCH  11  13
ATOM     13  N4  ZIN A   1      19.596   0.300   4.727  0.00  0.00    -0.075 N 
ATOM     14  H5  ZIN A   1      19.607  -0.111   3.806  0.00  0.00     0.274 HD
ATOM     15  H6  ZIN A   1      19.786   1.288   4.658  0.00  0.00     0.274 HD
ATOM     16  H7  ZIN A   1      20.301  -0.138   5.300  0.00  0.00     0.274 HD
ENDBRANCH  11  13
ENDBRANCH   1  11
TORSDOF 2
ENDMDL
MODEL 7
REMARK VINA RESULT:      -5.8      3.162      6.153
REMARK  2 active torsions:
REMARK  status: ('A' for Active; 'I' for Inactive)
REMARK    1  A    between atoms: C2_2  and  N4_3 
REMARK    2  A    between atoms: C2_2  and  C8_7 
ROOT
ATOM      1  C8  ZIN A   1      18.888   0.432  15.134  0.00  0.00    -0.012 C 
ATOM      2  C9  ZIN A   1      19.301   1.399  16.247  0.00  0.00     0.016 C 
ATOM      3  C10 ZIN A   1      18.889   0.822  17.603  0.00  0.00    -0.013 C 
ATOM      4  C11 ZIN A   1      19.580  -0.526  17.816  0.00  0.00     0.009 C 
ATOM      5  C12 ZIN A   1      19.167  -1.492  16.704  0.00  0.00    -0.013 C 
ATOM      6  C13 ZIN A   1      17.650  -1.687  16.734  0.00  0.00     0.009 C 
ATOM      7  C14 ZIN A   1      16.959  -0.339  16.521  0.00  0.00    -0.013 C 
ATOM      8  C15 ZIN A   1      17.371   0.627  17.633  0.00  0.00     0.009 C 
ATOM      9  C16 ZIN A   1      17.372   0.238  15.165  0.00  0.00     0.016 C 
ATOM     10  C17 ZIN A   1      19.581  -0.916  15.347  0.00  0.00     0.016 C 
ENDROOT
BRANCH   1  11
ATOM     11  C2  ZIN A   1      19.302   1.009  13.779  0.00  0.00     0.188 C 
ATOM     12  C1  ZIN A   1      18.226   0.690  12.739  0.00  0.00     0.040 C 
BRANCH  11  13
ATOM     13  N4  ZIN A   1      20.579   0.412  13.362  0.00  0.00    -0.075 N 
ATOM     14  H5  ZIN A   1      21.060   1.046  12.743  0.00  0.00     0.274 HD
ATOM     15  H6  ZIN A   1      21.149   0.238  14.175  0.00  0.00     0.274 HD
ATOM     16  H7  ZIN A   1      20.402  -0.457  12.882  0.00  0.00     0.274 HD
ENDBRANCH  11  13
ENDBRANCH   1  11
TORSDOF 2
ENDMDL
MODEL 8
REMARK VINA RESULT:      -5.6      1.363      2.823
REMARK  2 active torsions:
REMARK  status: ('A' for Active; 'I' for Inactive)
REMARK    1  A    between atoms: C2_2  and  N4_3 
REMARK    2  A    between atoms: C2_2  and  C8_7 
ROOT
ATOM      1  C8  ZIN A   1      18.975   1.683  10.832  0.00  0.00    -0.012 C 
ATOM      2  C9  ZIN A   1      19.895   0.551  11.295  0.00  0.00     0.016 C 
ATOM      3  C10 ZIN A   1      19.632  -0.698  10.450  0.00  0.00    -0.013 C 
ATOM      4  C11 ZIN A   1      19.908  -0.386   8.978  0.00  0.00     0.009 C 
ATOM      5  C12 ZIN A   1      18.988   0.746   8.516  0.00  0.00    -0.013 C 
ATOM      6  C13 ZIN A   1      17.528   0.317   8.681  0.00  0.00     0.009 C 
ATOM      7  C14 ZIN A   1      17.253   0.005  10.153  0.00  0.00    -0.013 C 
ATOM      8  C15 ZIN A   1      18.172  -1.126  10.615  0.00  0.00     0.009 C 
ATOM      9  C16 ZIN A   1      17.517   1.254  10.997  0.00  0.00     0.016 C 
ATOM     10  C17 ZIN A   1      19.251   1.995   9.359  0.00  0.00     0.016 C 
ENDROOT
BRANCH   1  11
ATOM     11  C2  ZIN A   1      19.239   2.931  11.675  0.00  0.00     0.188 C 
ATOM     12  C1  ZIN A   1      18.435   4.106  11.114  0.00  0.00     0.040 C 
BRANCH  11  13
ATOM     13  N4  ZIN A   1      20.672   3.256  11.635  0.00  0.00    -0.075 N 
ATOM     14  H5  ZIN A   1      20.788   4.248  11.502  0.00  0.00     0.274 HD
ATOM     15  H6  ZIN A   1      21.103   2.980  12.505  0.00  0.00     0.274 HD
ATOM     16  H7  ZIN A   1      21.107   2.760  10.873  0.00  0.00     0.274 HD
ENDBRANCH  11  13
ENDBRANCH   1  11
TORSDOF 2
ENDMDL
MODEL 9
REMARK VINA RESULT:      -5.6      1.381      2.496
REMARK  2 active torsions:
REMARK  status: ('A' for Active; 'I' for Inactive)
REMARK    1  A    between atoms: C2_2  and  N4_3 
REMARK    2  A    between atoms: C2_2  and  C8_7 
ROOT
ATOM      1  C8  ZIN A   1      19.019   1.748  10.828  0.00  0.00    -0.012 C 
ATOM      2  C9  ZIN A   1      17.588   1.253  11.053  0.00  0.00     0.016 C 
ATOM      3  C10 ZIN A   1      17.337   0.010  10.197  0.00  0.00    -0.013 C 
ATOM      4  C11 ZIN A   1      18.325  -1.089  10.591  0.00  0.00     0.009 C 
ATOM      5  C12 ZIN A   1      19.755  -0.595  10.365  0.00  0.00    -0.013 C 
ATOM      6  C13 ZIN A   1      19.946  -0.243   8.888  0.00  0.00     0.009 C 
ATOM      7  C14 ZIN A   1      18.958   0.857   8.494  0.00  0.00    -0.013 C 
ATOM      8  C15 ZIN A   1      17.528   0.362   8.720  0.00  0.00     0.009 C 
ATOM      9  C16 ZIN A   1      19.209   2.099   9.351  0.00  0.00     0.016 C 
ATOM     10  C17 ZIN A   1      20.007   0.648  11.222  0.00  0.00     0.016 C 
ENDROOT
BRANCH   1  11
ATOM     11  C2  ZIN A   1      19.270   2.990  11.685  0.00  0.00     0.188 C 
ATOM     12  C1  ZIN A   1      18.435   4.156  11.151  0.00  0.00     0.040 C 
BRANCH  11  13
ATOM     13  N4  ZIN A   1      20.696   3.343  11.630  0.00  0.00    -0.075 N 
ATOM     14  H5  ZIN A   1      20.988   3.413  10.668  0.00  0.00     0.274 HD
ATOM     15  H6  ZIN A   1      20.840   4.228  12.092  0.00  0.00     0.274 HD
ATOM     16  H7  ZIN A   1      21.236   2.629  12.095  0.00  0.00     0.274 HD
ENDBRANCH  11  13
ENDBRANCH   1  11
TORSDOF 2
ENDMDL
