MODEL 1
REMARK VINA RESULT:      -7.0      0.000      0.000
REMARK  3 active torsions:
REMARK  status: ('A' for Active; 'I' for Inactive)
REMARK    1  A    between atoms: C2_2  and  C3_3 
REMARK    2  A    between atoms: C11_11  and  C13_12 
REMARK    3  A    between atoms: C13_12  and  N14_13 
ROOT
ATOM      1  C3  ZIN A   1      18.322  -1.223  10.728  0.00  0.00    -0.021 A 
ATOM      2  C4  ZIN A   1      19.087  -1.953   9.891  0.00  0.00     0.012 A 
ATOM      3  C5  ZIN A   1      19.257  -3.449   9.946  0.00  0.00     0.068 C 
ATOM      4  N6  ZIN A   1      19.685  -1.120   8.982  0.00  0.00    -0.362 N 
ATOM      5  C7  ZIN A   1      19.325   0.148   9.205  0.00  0.00     0.024 A 
ATOM      6  C8  ZIN A   1      18.460   0.156  10.294  0.00  0.00     0.041 A 
ATOM      7  C9  ZIN A   1      17.877   1.397  10.813  0.00  0.00     0.168 C 
ATOM      8  O10 ZIN A   1      16.975   1.404  11.625  0.00  0.00    -0.292 OA
ATOM      9  C11 ZIN A   1      18.486   2.677  10.259  0.00  0.00     0.089 C 
ATOM     10  C20 ZIN A   1      18.694   2.501   8.752  0.00  0.00     0.020 C 
ATOM     11  C21 ZIN A   1      19.720   1.401   8.468  0.00  0.00     0.059 C 
ATOM     12  H30 ZIN A   1      20.283  -1.410   8.277  0.00  0.00     0.165 HD
ENDROOT
BRANCH   9  13
ATOM     13  C13 ZIN A   1      17.540   3.852  10.515  0.00  0.00     0.285 C 
BRANCH  13  14
ATOM     14  N14 ZIN A   1      18.067   4.676  11.610  0.00  0.00     0.093 N 
ATOM     15  C19 ZIN A   1      17.106   4.754  12.721  0.00  0.00     0.298 C 
ATOM     16  C18 ZIN A   1      17.669   5.669  13.811  0.00  0.00     0.198 C 
ATOM     17  O17 ZIN A   1      18.944   5.174  14.232  0.00  0.00    -0.388 OA
ATOM     18  C16 ZIN A   1      19.903   5.086  13.176  0.00  0.00     0.198 C 
ATOM     19  C15 ZIN A   1      19.364   4.165  12.078  0.00  0.00     0.298 C 
ENDBRANCH  13  14
ENDBRANCH   9  13
BRANCH   1  20
ATOM     20  C2  ZIN A   1      17.490  -1.734  11.876  0.00  0.00     0.037 C 
ATOM     21  C1  ZIN A   1      18.283  -1.600  13.178  0.00  0.00     0.010 C 
ENDBRANCH   1  20
TORSDOF 3
ENDMDL
MODEL 2
REMARK VINA RESULT:      -6.9      2.830      7.392
REMARK  3 active torsions:
REMARK  status: ('A' for Active; 'I' for Inactive)
REMARK    1  A    between atoms: C2_2  and  C3_3 
REMARK    2  A    between atoms: C11_11  and  C13_12 
REMARK    3  A    between atoms: C13_12  and  N14_13 
ROOT
ATOM      1  C3  ZIN A   1      18.939   1.569  10.938  0.00  0.00    -0.021 A 
ATOM      2  C4  ZIN A   1      19.598   2.220  11.919  0.00  0.00     0.012 A 
ATOM      3  C5  ZIN A   1      19.950   3.685  11.910  0.00  0.00     0.068 C 
ATOM      4  N6  ZIN A   1      19.895   1.340  12.926  0.00  0.00    -0.362 N 
ATOM      5  C7  ZIN A   1      19.442   0.118  12.625  0.00  0.00     0.024 A 
ATOM      6  C8  ZIN A   1      18.823   0.191  11.382  0.00  0.00     0.041 A 
ATOM      7  C9  ZIN A   1      18.217  -0.982  10.747  0.00  0.00     0.168 C 
ATOM      8  O10 ZIN A   1      17.505  -0.899   9.767  0.00  0.00    -0.292 OA
ATOM      9  C11 ZIN A   1      18.545  -2.315  11.405  0.00  0.00     0.089 C 
ATOM     10  C20 ZIN A   1      18.460  -2.137  12.924  0.00  0.00     0.020 C 
ATOM     11  C21 ZIN A   1      19.528  -1.159  13.420  0.00  0.00     0.059 C 
ATOM     12  H30 ZIN A   1      20.366   1.570  13.740  0.00  0.00     0.165 HD
ENDROOT
BRANCH   9  13
ATOM     13  C13 ZIN A   1      17.539  -3.375  10.953  0.00  0.00     0.285 C 
BRANCH  13  14
ATOM     14  N14 ZIN A   1      18.142  -4.207   9.904  0.00  0.00     0.093 N 
ATOM     15  C19 ZIN A   1      19.498  -4.631  10.282  0.00  0.00     0.298 C 
ATOM     16  C18 ZIN A   1      20.110  -5.444   9.137  0.00  0.00     0.198 C 
ATOM     17  O17 ZIN A   1      19.260  -6.554   8.839  0.00  0.00    -0.388 OA
ATOM     18  C16 ZIN A   1      17.932  -6.177   8.466  0.00  0.00     0.198 C 
ATOM     19  C15 ZIN A   1      17.297  -5.372   9.603  0.00  0.00     0.298 C 
ENDBRANCH  13  14
ENDBRANCH   9  13
BRANCH   1  20
ATOM     20  C2  ZIN A   1      18.426   2.153   9.648  0.00  0.00     0.037 C 
ATOM     21  C1  ZIN A   1      19.388   1.800   8.511  0.00  0.00     0.010 C 
ENDBRANCH   1  20
TORSDOF 3
ENDMDL
MODEL 3
REMARK VINA RESULT:      -6.8      2.965      6.715
REMARK  3 active torsions:
REMARK  status: ('A' for Active; 'I' for Inactive)
REMARK    1  A    between atoms: C2_2  and  C3_3 
REMARK    2  A    between atoms: C11_11  and  C13_12 
REMARK    3  A    between atoms: C13_12  and  N14_13 
ROOT
ATOM      1  C3  ZIN A   1      18.595   2.656  11.125  0.00  0.00    -0.021 A 
ATOM      2  C4  ZIN A   1      19.581   2.939  12.002  0.00  0.00     0.012 A 
ATOM      3  C5  ZIN A   1      19.674   4.190  12.836  0.00  0.00     0.068 C 
ATOM      4  N6  ZIN A   1      20.483   1.908  12.014  0.00  0.00    -0.362 N 
ATOM      5  C7  ZIN A   1      20.108   0.950  11.162  0.00  0.00     0.024 A 
ATOM      6  C8  ZIN A   1      18.918   1.356  10.567  0.00  0.00     0.041 A 
ATOM      7  C9  ZIN A   1      18.230   0.533   9.567  0.00  0.00     0.168 C 
ATOM      8  O10 ZIN A   1      17.102   0.775   9.189  0.00  0.00    -0.292 OA
ATOM      9  C11 ZIN A   1      19.033  -0.646   9.038  0.00  0.00     0.089 C 
ATOM     10  C20 ZIN A   1      19.748  -1.313  10.217  0.00  0.00     0.020 C 
ATOM     11  C21 ZIN A   1      20.774  -0.364  10.840  0.00  0.00     0.059 C 
ATOM     12  H30 ZIN A   1      21.280   1.879  12.564  0.00  0.00     0.165 HD
ENDROOT
BRANCH   9  13
ATOM     13  C13 ZIN A   1      18.094  -1.651   8.369  0.00  0.00     0.285 C 
BRANCH  13  14
ATOM     14  N14 ZIN A   1      18.290  -1.614   6.914  0.00  0.00     0.093 N 
ATOM     15  C19 ZIN A   1      19.096  -0.448   6.521  0.00  0.00     0.298 C 
ATOM     16  C18 ZIN A   1      19.225  -0.415   4.996  0.00  0.00     0.198 C 
ATOM     17  O17 ZIN A   1      19.798  -1.645   4.544  0.00  0.00    -0.388 OA
ATOM     18  C16 ZIN A   1      19.039  -2.801   4.909  0.00  0.00     0.198 C 
ATOM     19  C15 ZIN A   1      18.907  -2.859   6.433  0.00  0.00     0.298 C 
ENDBRANCH  13  14
ENDBRANCH   9  13
BRANCH   1  20
ATOM     20  C2  ZIN A   1      17.400   3.513  10.797  0.00  0.00     0.037 C 
ATOM     21  C1  ZIN A   1      17.809   4.593   9.793  0.00  0.00     0.010 C 
ENDBRANCH   1  20
TORSDOF 3
ENDMDL
MODEL 4
REMARK VINA RESULT:      -6.8      2.070      3.293
REMARK  3 active torsions:
REMARK  status: ('A' for Active; 'I' for Inactive)
REMARK    1  A    between atoms: C2_2  and  C3_3 
REMARK    2  A    between atoms: C11_11  and  C13_12 
REMARK    3  A    between atoms: C13_12  and  N14_13 
ROOT
ATOM      1  C3  ZIN A   1      19.165  -0.760   7.419  0.00  0.00    -0.021 A 
ATOM      2  C4  ZIN A   1      19.308  -2.091   7.586  0.00  0.00     0.012 A 
ATOM      3  C5  ZIN A   1      19.244  -3.120   6.487  0.00  0.00     0.068 C 
ATOM      4  N6  ZIN A   1      19.522  -2.360   8.912  0.00  0.00    -0.362 N 
ATOM      5  C7  ZIN A   1      19.524  -1.228   9.623  0.00  0.00     0.024 A 
ATOM      6  C8  ZIN A   1      19.307  -0.175   8.740  0.00  0.00     0.041 A 
ATOM      7  C9  ZIN A   1      19.243   1.218   9.194  0.00  0.00     0.168 C 
ATOM      8  O10 ZIN A   1      19.255   2.155   8.423  0.00  0.00    -0.292 OA
ATOM      9  C11 ZIN A   1      19.162   1.402  10.702  0.00  0.00     0.089 C 
ATOM     10  C20 ZIN A   1      20.141   0.426  11.362  0.00  0.00     0.020 C 
ATOM     11  C21 ZIN A   1      19.724  -1.023  11.102  0.00  0.00     0.059 C 
ATOM     12  H30 ZIN A   1      19.654  -3.246   9.282  0.00  0.00     0.165 HD
ENDROOT
BRANCH   9  13
ATOM     13  C13 ZIN A   1      19.542   2.838  11.068  0.00  0.00     0.285 C 
BRANCH  13  14
ATOM     14  N14 ZIN A   1      18.379   3.519  11.652  0.00  0.00     0.093 N 
ATOM     15  C19 ZIN A   1      18.748   4.227  12.886  0.00  0.00     0.298 C 
ATOM     16  C18 ZIN A   1      17.497   4.871  13.492  0.00  0.00     0.198 C 
ATOM     17  O17 ZIN A   1      16.900   5.741  12.527  0.00  0.00    -0.388 OA
ATOM     18  C16 ZIN A   1      16.528   5.084  11.313  0.00  0.00     0.198 C 
ATOM     19  C15 ZIN A   1      17.767   4.443  10.684  0.00  0.00     0.298 C 
ENDBRANCH  13  14
ENDBRANCH   9  13
BRANCH   1  20
ATOM     20  C2  ZIN A   1      18.913  -0.030   6.126  0.00  0.00     0.037 C 
ATOM     21  C1  ZIN A   1      17.406   0.140   5.921  0.00  0.00     0.010 C 
ENDBRANCH   1  20
TORSDOF 3
ENDMDL
MODEL 5
REMARK VINA RESULT:      -6.7      2.490      6.937
REMARK  3 active torsions:
REMARK  status: ('A' for Active; 'I' for Inactive)
REMARK    1  A    between atoms: C2_2  and  C3_3 
REMARK    2  A    between atoms: C11_11  and  C13_12 
REMARK    3  A    between atoms: C13_12  and  N14_13 
ROOT
ATOM      1  C3  ZIN A   1      18.642   3.487  12.522  0.00  0.00    -0.021 A 
ATOM      2  C4  ZIN A   1      19.105   4.065  13.650  0.00  0.00     0.012 A 
ATOM      3  C5  ZIN A   1      19.421   5.529  13.813  0.00  0.00     0.068 C 
ATOM      4  N6  ZIN A   1      19.241   3.111  14.624  0.00  0.00    -0.362 N 
ATOM      5  C7  ZIN A   1      18.874   1.914  14.157  0.00  0.00     0.024 A 
ATOM      6  C8  ZIN A   1      18.480   2.078  12.834  0.00  0.00     0.041 A 
ATOM      7  C9  ZIN A   1      18.019   0.953  12.015  0.00  0.00     0.168 C 
ATOM      8  O10 ZIN A   1      17.488   1.107  10.935  0.00  0.00    -0.292 OA
ATOM      9  C11 ZIN A   1      18.256  -0.424  12.619  0.00  0.00     0.089 C 
ATOM     10  C20 ZIN A   1      17.903  -0.366  14.108  0.00  0.00     0.020 C 
ATOM     11  C21 ZIN A   1      18.847   0.579  14.856  0.00  0.00     0.059 C 
ATOM     12  H30 ZIN A   1      19.557   3.282  15.524  0.00  0.00     0.165 HD
ENDROOT
BRANCH   9  13
ATOM     13  C13 ZIN A   1      17.368  -1.454  11.919  0.00  0.00     0.285 C 
BRANCH  13  14
ATOM     14  N14 ZIN A   1      18.069  -2.743  11.856  0.00  0.00     0.093 N 
ATOM     15  C19 ZIN A   1      17.400  -3.662  10.924  0.00  0.00     0.298 C 
ATOM     16  C18 ZIN A   1      18.127  -5.010  10.934  0.00  0.00     0.198 C 
ATOM     17  O17 ZIN A   1      19.502  -4.807  10.599  0.00  0.00    -0.388 OA
ATOM     18  C16 ZIN A   1      20.185  -3.918  11.487  0.00  0.00     0.198 C 
ATOM     19  C15 ZIN A   1      19.480  -2.559  11.483  0.00  0.00     0.298 C 
ENDBRANCH  13  14
ENDBRANCH   9  13
BRANCH   1  20
ATOM     20  C2  ZIN A   1      18.350   4.165  11.209  0.00  0.00     0.037 C 
ATOM     21  C1  ZIN A   1      16.900   4.656  11.201  0.00  0.00     0.010 C 
ENDBRANCH   1  20
TORSDOF 3
ENDMDL
MODEL 6
REMARK VINA RESULT:      -6.7      4.670      8.255
REMARK  3 active torsions:
REMARK  status: ('A' for Active; 'I' for Inactive)
REMARK    1  A    between atoms: C2_2  and  C3_3 
REMARK    2  A    between atoms: C11_11  and  C13_12 
REMARK    3  A    between atoms: C13_12  and  N14_13 
ROOT
ATOM      1  C3  ZIN A   1      18.904   0.222   8.773  0.00  0.00    -0.021 A 
ATOM      2  C4  ZIN A   1      18.919   1.553   8.549  0.00  0.00     0.012 A 
ATOM      3  C5  ZIN A   1      18.912   2.617   9.615  0.00  0.00     0.068 C 
ATOM      4  N6  ZIN A   1      18.944   1.783   7.199  0.00  0.00    -0.362 N 
ATOM      5  C7  ZIN A   1      18.947   0.626   6.529  0.00  0.00     0.024 A 
ATOM      6  C8  ZIN A   1      18.926  -0.403   7.463  0.00  0.00     0.041 A 
ATOM      7  C9  ZIN A   1      18.917  -1.814   7.064  0.00  0.00     0.168 C 
ATOM      8  O10 ZIN A   1      19.099  -2.716   7.855  0.00  0.00    -0.292 OA
ATOM      9  C11 ZIN A   1      18.663  -2.064   5.584  0.00  0.00     0.089 C 
ATOM     10  C20 ZIN A   1      19.471  -1.045   4.776  0.00  0.00     0.020 C 
ATOM     11  C21 ZIN A   1      18.976   0.378   5.043  0.00  0.00     0.059 C 
ATOM     12  H30 ZIN A   1      18.959   2.661   6.788  0.00  0.00     0.165 HD
ENDROOT
BRANCH   9  13
ATOM     13  C13 ZIN A   1      19.107  -3.482   5.217  0.00  0.00     0.285 C 
BRANCH  13  14
ATOM     14  N14 ZIN A   1      17.986  -4.201   4.597  0.00  0.00     0.093 N 
ATOM     15  C19 ZIN A   1      17.269  -5.015   5.589  0.00  0.00     0.298 C 
ATOM     16  C18 ZIN A   1      16.149  -5.791   4.890  0.00  0.00     0.198 C 
ATOM     17  O17 ZIN A   1      15.285  -4.871   4.218  0.00  0.00    -0.388 OA
ATOM     18  C16 ZIN A   1      15.951  -4.063   3.244  0.00  0.00     0.198 C 
ATOM     19  C15 ZIN A   1      17.068  -3.268   3.926  0.00  0.00     0.298 C 
ENDBRANCH  13  14
ENDBRANCH   9  13
BRANCH   1  20
ATOM     20  C2  ZIN A   1      18.874  -0.472  10.110  0.00  0.00     0.037 C 
ATOM     21  C1  ZIN A   1      20.305  -0.651  10.623  0.00  0.00     0.010 C 
ENDBRANCH   1  20
TORSDOF 3
ENDMDL
MODEL 7
REMARK VINA RESULT:      -6.6      2.773      4.594
REMARK  3 active torsions:
REMARK  status: ('A' for Active; 'I' for Inactive)
REMARK    1  A    between atoms: C2_2  and  C3_3 
REMARK    2  A    between atoms: C11_11  and  C13_12 
REMARK    3  A    between atoms: C13_12  and  N14_13 
ROOT
ATOM      1  C3  ZIN A   1      18.147   0.532   8.737  0.00  0.00    -0.021 A 
ATOM      2  C4  ZIN A   1      18.967   1.266   7.956  0.00  0.00     0.012 A 
ATOM      3  C5  ZIN A   1      19.137   1.098   6.469  0.00  0.00     0.068 C 
ATOM      4  N6  ZIN A   1      19.619   2.190   8.729  0.00  0.00    -0.362 N 
ATOM      5  C7  ZIN A   1      19.242   2.079  10.006  0.00  0.00     0.024 A 
ATOM      6  C8  ZIN A   1      18.309   1.051  10.083  0.00  0.00     0.041 A 
ATOM      7  C9  ZIN A   1      17.691   0.657  11.353  0.00  0.00     0.168 C 
ATOM      8  O10 ZIN A   1      16.738  -0.094  11.409  0.00  0.00    -0.292 OA
ATOM      9  C11 ZIN A   1      18.330   1.258  12.596  0.00  0.00     0.089 C 
ATOM     10  C20 ZIN A   1      18.635   2.733  12.318  0.00  0.00     0.020 C 
ATOM     11  C21 ZIN A   1      19.680   2.875  11.209  0.00  0.00     0.059 C 
ATOM     12  H30 ZIN A   1      20.262   2.834   8.395  0.00  0.00     0.165 HD
ENDROOT
BRANCH   9  13
ATOM     13  C13 ZIN A   1      17.366   1.145  13.778  0.00  0.00     0.285 C 
BRANCH  13  14
ATOM     14  N14 ZIN A   1      17.726  -0.022  14.594  0.00  0.00     0.093 N 
ATOM     15  C19 ZIN A   1      19.154  -0.342  14.455  0.00  0.00     0.298 C 
ATOM     16  C18 ZIN A   1      19.471  -1.597  15.274  0.00  0.00     0.198 C 
ATOM     17  O17 ZIN A   1      19.096  -1.380  16.636  0.00  0.00    -0.388 OA
ATOM     18  C16 ZIN A   1      17.711  -1.066  16.808  0.00  0.00     0.198 C 
ATOM     19  C15 ZIN A   1      17.375   0.194  16.006  0.00  0.00     0.298 C 
ENDBRANCH  13  14
ENDBRANCH   9  13
BRANCH   1  20
ATOM     20  C2  ZIN A   1      17.246  -0.593   8.300  0.00  0.00     0.037 C 
ATOM     21  C1  ZIN A   1      18.041  -1.900   8.266  0.00  0.00     0.010 C 
ENDBRANCH   1  20
TORSDOF 3
ENDMDL
MODEL 8
REMARK VINA RESULT:      -6.6      2.968      4.758
REMARK  3 active torsions:
REMARK  status: ('A' for Active; 'I' for Inactive)
REMARK    1  A    between atoms: C2_2  and  C3_3 
REMARK    2  A    between atoms: C11_11  and  C13_12 
REMARK    3  A    between atoms: C13_12  and  N14_13 
ROOT
ATOM      1  C3  ZIN A   1      18.686   0.802   9.316  0.00  0.00    -0.021 A 
ATOM      2  C4  ZIN A   1      18.148   0.019   8.357  0.00  0.00     0.012 A 
ATOM      3  C5  ZIN A   1      18.040   0.377   6.898  0.00  0.00     0.068 C 
ATOM      4  N6  ZIN A   1      17.718  -1.153   8.920  0.00  0.00    -0.362 N 
ATOM      5  C7  ZIN A   1      17.964  -1.158  10.234  0.00  0.00     0.024 A 
ATOM      6  C8  ZIN A   1      18.579   0.047  10.553  0.00  0.00     0.041 A 
ATOM      7  C9  ZIN A   1      18.982   0.375  11.924  0.00  0.00     0.168 C 
ATOM      8  O10 ZIN A   1      19.692   1.324  12.185  0.00  0.00    -0.292 OA
ATOM      9  C11 ZIN A   1      18.445  -0.563  12.995  0.00  0.00     0.089 C 
ATOM     10  C20 ZIN A   1      18.567  -2.001  12.484  0.00  0.00     0.020 C 
ATOM     11  C21 ZIN A   1      17.676  -2.223  11.260  0.00  0.00     0.059 C 
ATOM     12  H30 ZIN A   1      17.295  -1.877   8.433  0.00  0.00     0.165 HD
ENDROOT
BRANCH   9  13
ATOM     13  C13 ZIN A   1      19.261  -0.401  14.279  0.00  0.00     0.285 C 
BRANCH  13  14
ATOM     14  N14 ZIN A   1      18.410   0.169  15.332  0.00  0.00     0.093 N 
ATOM     15  C19 ZIN A   1      17.713  -0.890  16.076  0.00  0.00     0.298 C 
ATOM     16  C18 ZIN A   1      16.794  -0.250  17.121  0.00  0.00     0.198 C 
ATOM     17  O17 ZIN A   1      17.569   0.593  17.979  0.00  0.00    -0.388 OA
ATOM     18  C16 ZIN A   1      18.262   1.635  17.287  0.00  0.00     0.198 C 
ATOM     19  C15 ZIN A   1      19.195   1.016  16.243  0.00  0.00     0.298 C 
ENDBRANCH  13  14
ENDBRANCH   9  13
BRANCH   1  20
ATOM     20  C2  ZIN A   1      19.280   2.174   9.139  0.00  0.00     0.037 C 
ATOM     21  C1  ZIN A   1      18.308   3.224   9.682  0.00  0.00     0.010 C 
ENDBRANCH   1  20
TORSDOF 3
ENDMDL
MODEL 9
REMARK VINA RESULT:      -6.5      2.978      5.712
REMARK  3 active torsions:
REMARK  status: ('A' for Active; 'I' for Inactive)
REMARK    1  A    between atoms: C2_2  and  C3_3 
REMARK    2  A    between atoms: C11_11  and  C13_12 
REMARK    3  A    between atoms: C13_12  and  N14_13 
ROOT
ATOM      1  C3  ZIN A   1      18.996  -0.971  12.311  0.00  0.00    -0.021 A 
ATOM      2  C4  ZIN A   1      18.433  -0.474  13.432  0.00  0.00     0.012 A 
ATOM      3  C5  ZIN A   1      18.383  -1.174  14.766  0.00  0.00     0.068 C 
ATOM      4  N6  ZIN A   1      17.917   0.767  13.168  0.00  0.00    -0.362 N 
ATOM      5  C7  ZIN A   1      18.131   1.098  11.891  0.00  0.00     0.024 A 
ATOM      6  C8  ZIN A   1      18.812   0.046  11.290  0.00  0.00     0.041 A 
ATOM      7  C9  ZIN A   1      19.202   0.079   9.877  0.00  0.00     0.168 C 
ATOM      8  O10 ZIN A   1      19.963  -0.732   9.391  0.00  0.00    -0.292 OA
ATOM      9  C11 ZIN A   1      18.582   1.205   9.063  0.00  0.00     0.089 C 
ATOM     10  C20 ZIN A   1      18.626   2.487   9.899  0.00  0.00     0.020 C 
ATOM     11  C21 ZIN A   1      17.752   2.354  11.148  0.00  0.00     0.059 C 
ATOM     12  H30 ZIN A   1      17.462   1.325  13.816  0.00  0.00     0.165 HD
ENDROOT
BRANCH   9  13
ATOM     13  C13 ZIN A   1      19.376   1.405   7.771  0.00  0.00     0.285 C 
BRANCH  13  14
ATOM     14  N14 ZIN A   1      18.576   0.947   6.627  0.00  0.00     0.093 N 
ATOM     15  C19 ZIN A   1      19.414   0.240   5.647  0.00  0.00     0.298 C 
ATOM     16  C18 ZIN A   1      18.553  -0.167   4.448  0.00  0.00     0.198 C 
ATOM     17  O17 ZIN A   1      17.459  -0.968   4.902  0.00  0.00    -0.388 OA
ATOM     18  C16 ZIN A   1      16.622  -0.311   5.858  0.00  0.00     0.198 C 
ATOM     19  C15 ZIN A   1      17.462   0.095   7.071  0.00  0.00     0.298 C 
ENDBRANCH  13  14
ENDBRANCH   9  13
BRANCH   1  20
ATOM     20  C2  ZIN A   1      19.679  -2.304  12.152  0.00  0.00     0.037 C 
ATOM     21  C1  ZIN A   1      18.668  -3.337  11.650  0.00  0.00     0.010 C 
ENDBRANCH   1  20
TORSDOF 3
ENDMDL
