MODEL 1
REMARK VINA RESULT:      -8.0      0.000      0.000
REMARK  5 active torsions:
REMARK  status: ('A' for Active; 'I' for Inactive)
REMARK    1  A    between atoms: O2_2  and  C3_3 
REMARK    2  A    between atoms: C4_4  and  O5_5 
REMARK    3  A    between atoms: C9_9  and  N10_10 
REMARK    4  A    between atoms: C12_12  and  N13_13 
REMARK       I    between atoms: N16_16  and  C17_17 
REMARK    5  A    between atoms: C17_17  and  C19_19 
ROOT
ATOM      1  C3  ZIN A   1      17.854   2.910  11.547  0.00  0.00     0.103 A 
ATOM      2  C4  ZIN A   1      18.882   2.451  12.382  0.00  0.00     0.102 A 
ATOM      3  C7  ZIN A   1      19.724   1.457  11.971  0.00  0.00     0.057 A 
ATOM      4  C8  ZIN A   1      19.560   0.890  10.702  0.00  0.00     0.039 A 
ATOM      5  C9  ZIN A   1      20.405  -0.142  10.229  0.00  0.00     0.137 A 
ATOM      6  N11 ZIN A   1      20.188  -0.630   9.016  0.00  0.00    -0.202 NA
ATOM      7  C12 ZIN A   1      19.202  -0.170   8.251  0.00  0.00     0.184 A 
ATOM      8  N27 ZIN A   1      18.386   0.789   8.640  0.00  0.00    -0.330 N 
ATOM      9  H28 ZIN A   1      17.681   1.092   8.046  0.00  0.00     0.168 HD
ATOM     10  C29 ZIN A   1      18.523   1.349   9.852  0.00  0.00     0.051 A 
ATOM     11  C30 ZIN A   1      17.669   2.365  10.296  0.00  0.00     0.070 A 
ENDROOT
BRANCH   7  12
ATOM     12  N13 ZIN A   1      19.027  -0.722   6.993  0.00  0.00    -0.250 NA
ATOM     13  C26 ZIN A   1      19.373  -2.150   6.992  0.00  0.00     0.118 C 
ATOM     14  C25 ZIN A   1      19.342  -2.678   5.553  0.00  0.00     0.140 C 
ATOM     15  N16 ZIN A   1      18.033  -2.354   4.966  0.00  0.00    -0.348 N 
ATOM     16  C15 ZIN A   1      17.556  -0.966   5.051  0.00  0.00     0.140 C 
ATOM     17  C17 ZIN A   1      17.290  -3.305   4.365  0.00  0.00     0.248 C 
ATOM     18  C14 ZIN A   1      17.658  -0.504   6.509  0.00  0.00     0.118 C 
ATOM     19  O18 ZIN A   1      16.213  -3.021   3.886  0.00  0.00    -0.270 OA
BRANCH  17  20
ATOM     20  C19 ZIN A   1      17.798  -4.722   4.289  0.00  0.00     0.213 C 
ATOM     21  O24 ZIN A   1      17.127  -5.532   5.261  0.00  0.00    -0.376 OA
ATOM     22  C23 ZIN A   1      16.383  -6.571   4.601  0.00  0.00     0.168 C 
ATOM     23  C22 ZIN A   1      17.092  -6.774   3.238  0.00  0.00     0.029 C 
ATOM     24  C21 ZIN A   1      17.494  -5.313   2.896  0.00  0.00     0.043 C 
ENDBRANCH  17  20
ENDBRANCH   7  12
BRANCH   5  25
ATOM     25  N10 ZIN A   1      21.431  -0.630  11.013  0.00  0.00    -0.383 N 
ATOM     26  H38 ZIN A   1      21.234  -1.207  11.766  0.00  0.00     0.157 HD
ATOM     27  H39 ZIN A   1      22.350  -0.395  10.810  0.00  0.00     0.157 HD
ENDBRANCH   5  25
BRANCH   1  28
ATOM     28  O2  ZIN A   1      17.029   3.899  11.979  0.00  0.00    -0.353 OA
ATOM     29  C1  ZIN A   1      16.649   4.891  11.023  0.00  0.00     0.210 C 
ENDBRANCH   1  28
BRANCH   2  30
ATOM     30  O5  ZIN A   1      19.043   3.001  13.616  0.00  0.00    -0.353 OA
ATOM     31  C6  ZIN A   1      18.830   2.146  14.740  0.00  0.00     0.210 C 
ENDBRANCH   2  30
TORSDOF 5
ENDMDL
MODEL 2
REMARK VINA RESULT:      -7.8      3.744      4.785
REMARK  5 active torsions:
REMARK  status: ('A' for Active; 'I' for Inactive)
REMARK    1  A    between atoms: O2_2  and  C3_3 
REMARK    2  A    between atoms: C4_4  and  O5_5 
REMARK    3  A    between atoms: C9_9  and  N10_10 
REMARK    4  A    between atoms: C12_12  and  N13_13 
REMARK       I    between atoms: N16_16  and  C17_17 
REMARK    5  A    between atoms: C17_17  and  C19_19 
ROOT
ATOM      1  C3  ZIN A   1      18.169   0.359  16.284  0.00  0.00     0.103 A 
ATOM      2  C4  ZIN A   1      18.798   1.530  15.839  0.00  0.00     0.102 A 
ATOM      3  C7  ZIN A   1      19.369   1.587  14.599  0.00  0.00     0.057 A 
ATOM      4  C8  ZIN A   1      19.326   0.465  13.764  0.00  0.00     0.039 A 
ATOM      5  C9  ZIN A   1      19.903   0.474  12.471  0.00  0.00     0.137 A 
ATOM      6  N11 ZIN A   1      19.824  -0.627  11.737  0.00  0.00    -0.202 NA
ATOM      7  C12 ZIN A   1      19.218  -1.721  12.192  0.00  0.00     0.184 A 
ATOM      8  N27 ZIN A   1      18.664  -1.785  13.387  0.00  0.00    -0.330 N 
ATOM      9  H28 ZIN A   1      18.234  -2.605  13.675  0.00  0.00     0.168 HD
ATOM     10  C29 ZIN A   1      18.692  -0.722  14.207  0.00  0.00     0.051 A 
ATOM     11  C30 ZIN A   1      18.118  -0.760  15.483  0.00  0.00     0.070 A 
ENDROOT
BRANCH   7  12
ATOM     12  N13 ZIN A   1      19.169  -2.839  11.377  0.00  0.00    -0.250 NA
ATOM     13  C26 ZIN A   1      17.997  -3.668  11.689  0.00  0.00     0.118 C 
ATOM     14  C25 ZIN A   1      18.077  -4.977  10.896  0.00  0.00     0.140 C 
ATOM     15  N16 ZIN A   1      18.248  -4.652   9.472  0.00  0.00    -0.348 N 
ATOM     16  C15 ZIN A   1      19.319  -3.717   9.096  0.00  0.00     0.140 C 
ATOM     17  C17 ZIN A   1      17.444  -5.196   8.537  0.00  0.00     0.248 C 
ATOM     18  C14 ZIN A   1      19.191  -2.457   9.959  0.00  0.00     0.118 C 
ATOM     19  O18 ZIN A   1      17.599  -4.916   7.368  0.00  0.00    -0.270 OA
BRANCH  17  20
ATOM     20  C19 ZIN A   1      16.353  -6.152   8.945  0.00  0.00     0.213 C 
ATOM     21  O24 ZIN A   1      15.077  -5.514   8.822  0.00  0.00    -0.376 OA
ATOM     22  C23 ZIN A   1      14.275  -6.209   7.852  0.00  0.00     0.168 C 
ATOM     23  C22 ZIN A   1      14.838  -7.653   7.819  0.00  0.00     0.029 C 
ATOM     24  C21 ZIN A   1      16.355  -7.380   8.009  0.00  0.00     0.043 C 
ENDBRANCH  17  20
ENDBRANCH   7  12
BRANCH   5  25
ATOM     25  N10 ZIN A   1      20.534   1.601  11.986  0.00  0.00    -0.383 N 
ATOM     26  H38 ZIN A   1      21.502   1.625  11.921  0.00  0.00     0.157 HD
ATOM     27  H39 ZIN A   1      20.011   2.369  11.710  0.00  0.00     0.157 HD
ENDBRANCH   5  25
BRANCH   1  28
ATOM     28  O2  ZIN A   1      17.609   0.326  17.522  0.00  0.00    -0.353 OA
ATOM     29  C1  ZIN A   1      18.453  -0.069  18.605  0.00  0.00     0.210 C 
ENDBRANCH   1  28
BRANCH   2  30
ATOM     30  O5  ZIN A   1      18.840   2.621  16.650  0.00  0.00    -0.353 OA
ATOM     31  C6  ZIN A   1      19.765   3.653  16.302  0.00  0.00     0.210 C 
ENDBRANCH   2  30
TORSDOF 5
ENDMDL
MODEL 3
REMARK VINA RESULT:      -7.8      2.906      9.720
REMARK  5 active torsions:
REMARK  status: ('A' for Active; 'I' for Inactive)
REMARK    1  A    between atoms: O2_2  and  C3_3 
REMARK    2  A    between atoms: C4_4  and  O5_5 
REMARK    3  A    between atoms: C9_9  and  N10_10 
REMARK    4  A    between atoms: C12_12  and  N13_13 
REMARK       I    between atoms: N16_16  and  C17_17 
REMARK    5  A    between atoms: C17_17  and  C19_19 
ROOT
ATOM      1  C3  ZIN A   1      18.814  -2.816   9.520  0.00  0.00     0.103 A 
ATOM      2  C4  ZIN A   1      18.845  -2.781   8.119  0.00  0.00     0.102 A 
ATOM      3  C7  ZIN A   1      18.908  -1.591   7.452  0.00  0.00     0.057 A 
ATOM      4  C8  ZIN A   1      18.943  -0.392   8.174  0.00  0.00     0.039 A 
ATOM      5  C9  ZIN A   1      19.008   0.867   7.529  0.00  0.00     0.137 A 
ATOM      6  N11 ZIN A   1      19.037   1.959   8.280  0.00  0.00    -0.202 NA
ATOM      7  C12 ZIN A   1      19.006   1.888   9.608  0.00  0.00     0.184 A 
ATOM      8  N27 ZIN A   1      18.945   0.744  10.260  0.00  0.00    -0.330 N 
ATOM      9  H28 ZIN A   1      18.925   0.742  11.230  0.00  0.00     0.168 HD
ATOM     10  C29 ZIN A   1      18.912  -0.419   9.590  0.00  0.00     0.051 A 
ATOM     11  C30 ZIN A   1      18.841  -1.650  10.253  0.00  0.00     0.070 A 
ENDROOT
BRANCH   7  12
ATOM     12  N13 ZIN A   1      19.038   3.066  10.335  0.00  0.00    -0.250 NA
ATOM     13  C26 ZIN A   1      17.684   3.599  10.536  0.00  0.00     0.118 C 
ATOM     14  C25 ZIN A   1      17.776   4.986  11.181  0.00  0.00     0.140 C 
ATOM     15  N16 ZIN A   1      18.590   4.880  12.402  0.00  0.00    -0.348 N 
ATOM     16  C15 ZIN A   1      19.907   4.232  12.305  0.00  0.00     0.140 C 
ATOM     17  C17 ZIN A   1      18.141   5.365  13.576  0.00  0.00     0.248 C 
ATOM     18  C14 ZIN A   1      19.732   2.875  11.615  0.00  0.00     0.118 C 
ATOM     19  O18 ZIN A   1      18.826   5.269  14.572  0.00  0.00    -0.270 OA
BRANCH  17  20
ATOM     20  C19 ZIN A   1      16.789   6.026  13.651  0.00  0.00     0.213 C 
ATOM     21  O24 ZIN A   1      15.937   5.289  14.536  0.00  0.00    -0.376 OA
ATOM     22  C23 ZIN A   1      15.557   6.115  15.650  0.00  0.00     0.168 C 
ATOM     23  C22 ZIN A   1      15.684   7.572  15.135  0.00  0.00     0.029 C 
ATOM     24  C21 ZIN A   1      16.934   7.453  14.222  0.00  0.00     0.043 C 
ENDBRANCH  17  20
ENDBRANCH   7  12
BRANCH   5  25
ATOM     25  N10 ZIN A   1      19.040   0.955   6.153  0.00  0.00    -0.383 N 
ATOM     26  H38 ZIN A   1      19.817   1.330   5.709  0.00  0.00     0.157 HD
ATOM     27  H39 ZIN A   1      18.287   0.643   5.629  0.00  0.00     0.157 HD
ENDBRANCH   5  25
BRANCH   1  28
ATOM     28  O2  ZIN A   1      18.750  -4.012  10.161  0.00  0.00    -0.353 OA
ATOM     29  C1  ZIN A   1      19.808  -4.318  11.072  0.00  0.00     0.210 C 
ENDBRANCH   1  28
BRANCH   2  30
ATOM     30  O5  ZIN A   1      18.812  -3.945   7.416  0.00  0.00    -0.353 OA
ATOM     31  C6  ZIN A   1      20.031  -4.368   6.804  0.00  0.00     0.210 C 
ENDBRANCH   2  30
TORSDOF 5
ENDMDL
MODEL 4
REMARK VINA RESULT:      -7.7      2.475      9.337
REMARK  5 active torsions:
REMARK  status: ('A' for Active; 'I' for Inactive)
REMARK    1  A    between atoms: O2_2  and  C3_3 
REMARK    2  A    between atoms: C4_4  and  O5_5 
REMARK    3  A    between atoms: C9_9  and  N10_10 
REMARK    4  A    between atoms: C12_12  and  N13_13 
REMARK       I    between atoms: N16_16  and  C17_17 
REMARK    5  A    between atoms: C17_17  and  C19_19 
ROOT
ATOM      1  C3  ZIN A   1      19.284  -2.024   5.751  0.00  0.00     0.103 A 
ATOM      2  C4  ZIN A   1      18.731  -3.309   5.663  0.00  0.00     0.102 A 
ATOM      3  C7  ZIN A   1      18.416  -4.011   6.791  0.00  0.00     0.057 A 
ATOM      4  C8  ZIN A   1      18.645  -3.442   8.049  0.00  0.00     0.039 A 
ATOM      5  C9  ZIN A   1      18.335  -4.129   9.248  0.00  0.00     0.137 A 
ATOM      6  N11 ZIN A   1      18.582  -3.526  10.402  0.00  0.00    -0.202 NA
ATOM      7  C12 ZIN A   1      19.107  -2.304  10.448  0.00  0.00     0.184 A 
ATOM      8  N27 ZIN A   1      19.414  -1.620   9.364  0.00  0.00    -0.330 N 
ATOM      9  H28 ZIN A   1      19.796  -0.732   9.447  0.00  0.00     0.168 HD
ATOM     10  C29 ZIN A   1      19.203  -2.144   8.146  0.00  0.00     0.051 A 
ATOM     11  C30 ZIN A   1      19.524  -1.444   6.977  0.00  0.00     0.070 A 
ENDROOT
BRANCH   7  12
ATOM     12  N13 ZIN A   1      19.340  -1.730  11.685  0.00  0.00    -0.250 NA
ATOM     13  C26 ZIN A   1      19.681  -0.307  11.550  0.00  0.00     0.118 C 
ATOM     14  C25 ZIN A   1      20.107   0.244  12.915  0.00  0.00     0.140 C 
ATOM     15  N16 ZIN A   1      19.046  -0.052  13.890  0.00  0.00    -0.348 N 
ATOM     16  C15 ZIN A   1      18.557  -1.435  13.987  0.00  0.00     0.140 C 
ATOM     17  C17 ZIN A   1      18.538   0.919  14.675  0.00  0.00     0.248 C 
ATOM     18  C14 ZIN A   1      18.191  -1.921  12.580  0.00  0.00     0.118 C 
ATOM     19  O18 ZIN A   1      17.664   0.657  15.474  0.00  0.00    -0.270 OA
BRANCH  17  20
ATOM     20  C19 ZIN A   1      19.056   2.330  14.560  0.00  0.00     0.213 C 
ATOM     21  O24 ZIN A   1      18.199   3.093  13.703  0.00  0.00    -0.376 OA
ATOM     22  C23 ZIN A   1      17.613   4.179  14.442  0.00  0.00     0.168 C 
ATOM     23  C22 ZIN A   1      18.592   4.449  15.613  0.00  0.00     0.029 C 
ATOM     24  C21 ZIN A   1      19.052   3.004  15.949  0.00  0.00     0.043 C 
ENDBRANCH  17  20
ENDBRANCH   7  12
BRANCH   5  25
ATOM     25  N10 ZIN A   1      17.790  -5.396   9.216  0.00  0.00    -0.383 N 
ATOM     26  H38 ZIN A   1      16.864  -5.519   8.957  0.00  0.00     0.157 HD
ATOM     27  H39 ZIN A   1      18.333  -6.164   9.452  0.00  0.00     0.157 HD
ENDBRANCH   5  25
BRANCH   1  28
ATOM     28  O2  ZIN A   1      19.591  -1.346   4.614  0.00  0.00    -0.353 OA
ATOM     29  C1  ZIN A   1      18.842  -0.159   4.345  0.00  0.00     0.210 C 
ENDBRANCH   1  28
BRANCH   2  30
ATOM     30  O5  ZIN A   1      18.507  -3.863   4.441  0.00  0.00    -0.353 OA
ATOM     31  C6  ZIN A   1      17.171  -3.808   3.939  0.00  0.00     0.210 C 
ENDBRANCH   2  30
TORSDOF 5
ENDMDL
MODEL 5
REMARK VINA RESULT:      -7.7      4.675     11.461
REMARK  5 active torsions:
REMARK  status: ('A' for Active; 'I' for Inactive)
REMARK    1  A    between atoms: O2_2  and  C3_3 
REMARK    2  A    between atoms: C4_4  and  O5_5 
REMARK    3  A    between atoms: C9_9  and  N10_10 
REMARK    4  A    between atoms: C12_12  and  N13_13 
REMARK       I    between atoms: N16_16  and  C17_17 
REMARK    5  A    between atoms: C17_17  and  C19_19 
ROOT
ATOM      1  C3  ZIN A   1      19.640   0.514  10.002  0.00  0.00     0.103 A 
ATOM      2  C4  ZIN A   1      19.060   1.302   8.998  0.00  0.00     0.102 A 
ATOM      3  C7  ZIN A   1      18.557   2.538   9.285  0.00  0.00     0.057 A 
ATOM      4  C8  ZIN A   1      18.620   3.026  10.595  0.00  0.00     0.039 A 
ATOM      5  C9  ZIN A   1      18.112   4.301  10.944  0.00  0.00     0.137 A 
ATOM      6  N11 ZIN A   1      18.207   4.694  12.206  0.00  0.00    -0.202 NA
ATOM      7  C12 ZIN A   1      18.765   3.920  13.133  0.00  0.00     0.184 A 
ATOM      8  N27 ZIN A   1      19.253   2.725  12.865  0.00  0.00    -0.330 N 
ATOM      9  H28 ZIN A   1      19.650   2.196  13.575  0.00  0.00     0.168 HD
ATOM     10  C29 ZIN A   1      19.205   2.236  11.615  0.00  0.00     0.051 A 
ATOM     11  C30 ZIN A   1      19.710   0.969  11.300  0.00  0.00     0.070 A 
ENDROOT
BRANCH   7  12
ATOM     12  N13 ZIN A   1      18.834   4.389  14.434  0.00  0.00    -0.250 NA
ATOM     13  C26 ZIN A   1      17.533   4.911  14.875  0.00  0.00     0.118 C 
ATOM     14  C25 ZIN A   1      17.694   5.581  16.244  0.00  0.00     0.140 C 
ATOM     15  N16 ZIN A   1      18.324   4.622  17.163  0.00  0.00    -0.348 N 
ATOM     16  C15 ZIN A   1      19.561   3.953  16.732  0.00  0.00     0.140 C 
ATOM     17  C17 ZIN A   1      17.782   4.362  18.370  0.00  0.00     0.248 C 
ATOM     18  C14 ZIN A   1      19.327   3.346  15.343  0.00  0.00     0.118 C 
ATOM     19  O18 ZIN A   1      18.314   3.568  19.115  0.00  0.00    -0.270 OA
BRANCH  17  20
ATOM     20  C19 ZIN A   1      16.514   5.060  18.792  0.00  0.00     0.213 C 
ATOM     21  O24 ZIN A   1      15.629   4.122  19.416  0.00  0.00    -0.376 OA
ATOM     22  C23 ZIN A   1      15.394   4.507  20.782  0.00  0.00     0.168 C 
ATOM     23  C22 ZIN A   1      15.654   6.035  20.822  0.00  0.00     0.029 C 
ATOM     24  C21 ZIN A   1      16.840   6.157  19.827  0.00  0.00     0.043 C 
ENDBRANCH  17  20
ENDBRANCH   7  12
BRANCH   5  25
ATOM     25  N10 ZIN A   1      17.532   5.114   9.993  0.00  0.00    -0.383 N 
ATOM     26  H38 ZIN A   1      18.088   5.595   9.361  0.00  0.00     0.157 HD
ATOM     27  H39 ZIN A   1      16.567   5.206   9.956  0.00  0.00     0.157 HD
ENDBRANCH   5  25
BRANCH   1  28
ATOM     28  O2  ZIN A   1      20.133  -0.714   9.692  0.00  0.00    -0.353 OA
ATOM     29  C1  ZIN A   1      19.344  -1.844  10.070  0.00  0.00     0.210 C 
ENDBRANCH   1  28
BRANCH   2  30
ATOM     30  O5  ZIN A   1      18.998   0.829   7.724  0.00  0.00    -0.353 OA
ATOM     31  C6  ZIN A   1      17.787   0.181   7.330  0.00  0.00     0.210 C 
ENDBRANCH   2  30
TORSDOF 5
ENDMDL
MODEL 6
REMARK VINA RESULT:      -7.6      2.670      9.727
REMARK  5 active torsions:
REMARK  status: ('A' for Active; 'I' for Inactive)
REMARK    1  A    between atoms: O2_2  and  C3_3 
REMARK    2  A    between atoms: C4_4  and  O5_5 
REMARK    3  A    between atoms: C9_9  and  N10_10 
REMARK    4  A    between atoms: C12_12  and  N13_13 
REMARK       I    between atoms: N16_16  and  C17_17 
REMARK    5  A    between atoms: C17_17  and  C19_19 
ROOT
ATOM      1  C3  ZIN A   1      18.173  -0.965   6.316  0.00  0.00     0.103 A 
ATOM      2  C4  ZIN A   1      18.797  -2.045   6.957  0.00  0.00     0.102 A 
ATOM      3  C7  ZIN A   1      19.358  -1.893   8.193  0.00  0.00     0.057 A 
ATOM      4  C8  ZIN A   1      19.311  -0.647   8.828  0.00  0.00     0.039 A 
ATOM      5  C9  ZIN A   1      19.878  -0.438  10.108  0.00  0.00     0.137 A 
ATOM      6  N11 ZIN A   1      19.794   0.770  10.646  0.00  0.00    -0.202 NA
ATOM      7  C12 ZIN A   1      19.194   1.772  10.009  0.00  0.00     0.184 A 
ATOM      8  N27 ZIN A   1      18.650   1.635   8.816  0.00  0.00    -0.330 N 
ATOM      9  H28 ZIN A   1      18.223   2.395   8.391  0.00  0.00     0.168 HD
ATOM     10  C29 ZIN A   1      18.682   0.449   8.187  0.00  0.00     0.051 A 
ATOM     11  C30 ZIN A   1      18.118   0.273   6.918  0.00  0.00     0.070 A 
ENDROOT
BRANCH   7  12
ATOM     12  N13 ZIN A   1      19.141   3.011  10.624  0.00  0.00    -0.250 NA
ATOM     13  C26 ZIN A   1      17.752   3.406  10.894  0.00  0.00     0.118 C 
ATOM     14  C25 ZIN A   1      17.726   4.851  11.406  0.00  0.00     0.140 C 
ATOM     15  N16 ZIN A   1      18.637   4.955  12.556  0.00  0.00    -0.348 N 
ATOM     16  C15 ZIN A   1      20.010   4.453  12.403  0.00  0.00     0.140 C 
ATOM     17  C17 ZIN A   1      18.224   5.498  13.718  0.00  0.00     0.248 C 
ATOM     18  C14 ZIN A   1      19.947   3.024  11.852  0.00  0.00     0.118 C 
ATOM     19  O18 ZIN A   1      18.988   5.577  14.656  0.00  0.00    -0.270 OA
BRANCH  17  20
ATOM     20  C19 ZIN A   1      16.812   6.008  13.852  0.00  0.00     0.213 C 
ATOM     21  O24 ZIN A   1      16.146   5.319  14.917  0.00  0.00    -0.376 OA
ATOM     22  C23 ZIN A   1      15.771   6.254  15.943  0.00  0.00     0.168 C 
ATOM     23  C22 ZIN A   1      15.664   7.624  15.225  0.00  0.00     0.029 C 
ATOM     24  C21 ZIN A   1      16.829   7.511  14.204  0.00  0.00     0.043 C 
ENDBRANCH  17  20
ENDBRANCH   7  12
BRANCH   5  25
ATOM     25  N10 ZIN A   1      20.503  -1.468  10.780  0.00  0.00    -0.383 N 
ATOM     26  H38 ZIN A   1      21.316  -1.297  11.281  0.00  0.00     0.157 HD
ATOM     27  H39 ZIN A   1      20.130  -2.363  10.752  0.00  0.00     0.157 HD
ENDBRANCH   5  25
BRANCH   1  28
ATOM     28  O2  ZIN A   1      17.623  -1.140   5.086  0.00  0.00    -0.353 OA
ATOM     29  C1  ZIN A   1      18.276  -0.502   3.987  0.00  0.00     0.210 C 
ENDBRANCH   1  28
BRANCH   2  30
ATOM     30  O5  ZIN A   1      18.844  -3.257   6.341  0.00  0.00    -0.353 OA
ATOM     31  C6  ZIN A   1      19.982  -4.077   6.609  0.00  0.00     0.210 C 
ENDBRANCH   2  30
TORSDOF 5
ENDMDL
MODEL 7
REMARK VINA RESULT:      -7.6      5.136      7.332
REMARK  5 active torsions:
REMARK  status: ('A' for Active; 'I' for Inactive)
REMARK    1  A    between atoms: O2_2  and  C3_3 
REMARK    2  A    between atoms: C4_4  and  O5_5 
REMARK    3  A    between atoms: C9_9  and  N10_10 
REMARK    4  A    between atoms: C12_12  and  N13_13 
REMARK       I    between atoms: N16_16  and  C17_17 
REMARK    5  A    between atoms: C17_17  and  C19_19 
ROOT
ATOM      1  C3  ZIN A   1      18.499   6.539  16.297  0.00  0.00     0.103 A 
ATOM      2  C4  ZIN A   1      18.094   6.226  17.602  0.00  0.00     0.102 A 
ATOM      3  C7  ZIN A   1      18.076   4.931  18.035  0.00  0.00     0.057 A 
ATOM      4  C8  ZIN A   1      18.467   3.904  17.167  0.00  0.00     0.039 A 
ATOM      5  C9  ZIN A   1      18.466   2.546  17.568  0.00  0.00     0.137 A 
ATOM      6  N11 ZIN A   1      18.848   1.629  16.691  0.00  0.00    -0.202 NA
ATOM      7  C12 ZIN A   1      19.227   1.963  15.460  0.00  0.00     0.184 A 
ATOM      8  N27 ZIN A   1      19.247   3.211  15.034  0.00  0.00    -0.330 N 
ATOM      9  H28 ZIN A   1      19.531   3.405  14.127  0.00  0.00     0.168 HD
ATOM     10  C29 ZIN A   1      18.877   4.213  15.847  0.00  0.00     0.051 A 
ATOM     11  C30 ZIN A   1      18.883   5.547  15.423  0.00  0.00     0.070 A 
ENDROOT
BRANCH   7  12
ATOM     12  N13 ZIN A   1      19.615   0.958  14.591  0.00  0.00    -0.250 NA
ATOM     13  C26 ZIN A   1      18.898  -0.292  14.876  0.00  0.00     0.118 C 
ATOM     14  C25 ZIN A   1      19.482  -1.419  14.019  0.00  0.00     0.140 C 
ATOM     15  N16 ZIN A   1      19.458  -0.996  12.611  0.00  0.00    -0.348 N 
ATOM     16  C15 ZIN A   1      20.039   0.311  12.267  0.00  0.00     0.140 C 
ATOM     17  C17 ZIN A   1      18.919  -1.785  11.660  0.00  0.00     0.248 C 
ATOM     18  C14 ZIN A   1      19.432   1.371  13.193  0.00  0.00     0.118 C 
ATOM     19  O18 ZIN A   1      18.908  -1.420  10.504  0.00  0.00    -0.270 OA
BRANCH  17  20
ATOM     20  C19 ZIN A   1      18.331  -3.122  12.035  0.00  0.00     0.213 C 
ATOM     21  O24 ZIN A   1      17.029  -3.258  11.455  0.00  0.00    -0.376 OA
ATOM     22  C23 ZIN A   1      17.017  -4.366  10.537  0.00  0.00     0.168 C 
ATOM     23  C22 ZIN A   1      18.160  -5.299  11.013  0.00  0.00     0.029 C 
ATOM     24  C21 ZIN A   1      19.215  -4.258  11.477  0.00  0.00     0.043 C 
ENDBRANCH  17  20
ENDBRANCH   7  12
BRANCH   5  25
ATOM     25  N10 ZIN A   1      18.075   2.185  18.841  0.00  0.00    -0.383 N 
ATOM     26  H38 ZIN A   1      18.738   1.896  19.488  0.00  0.00     0.157 HD
ATOM     27  H39 ZIN A   1      17.139   2.221  19.090  0.00  0.00     0.157 HD
ENDBRANCH   5  25
BRANCH   1  28
ATOM     28  O2  ZIN A   1      18.507   7.835  15.889  0.00  0.00    -0.353 OA
ATOM     29  C1  ZIN A   1      17.593   8.194  14.850  0.00  0.00     0.210 C 
ENDBRANCH   1  28
BRANCH   2  30
ATOM     30  O5  ZIN A   1      17.714   7.223  18.446  0.00  0.00    -0.353 OA
ATOM     31  C6  ZIN A   1      17.508   6.870  19.815  0.00  0.00     0.210 C 
ENDBRANCH   2  30
TORSDOF 5
ENDMDL
MODEL 8
REMARK VINA RESULT:      -7.4      3.163      4.779
REMARK  5 active torsions:
REMARK  status: ('A' for Active; 'I' for Inactive)
REMARK    1  A    between atoms: O2_2  and  C3_3 
REMARK    2  A    between atoms: C4_4  and  O5_5 
REMARK    3  A    between atoms: C9_9  and  N10_10 
REMARK    4  A    between atoms: C12_12  and  N13_13 
REMARK       I    between atoms: N16_16  and  C17_17 
REMARK    5  A    between atoms: C17_17  and  C19_19 
ROOT
ATOM      1  C3  ZIN A   1      17.792   4.552  14.941  0.00  0.00     0.103 A 
ATOM      2  C4  ZIN A   1      17.313   5.645  14.205  0.00  0.00     0.102 A 
ATOM      3  C7  ZIN A   1      17.309   5.620  12.840  0.00  0.00     0.057 A 
ATOM      4  C8  ZIN A   1      17.789   4.491  12.166  0.00  0.00     0.039 A 
ATOM      5  C9  ZIN A   1      17.807   4.416  10.752  0.00  0.00     0.137 A 
ATOM      6  N11 ZIN A   1      18.277   3.315  10.185  0.00  0.00    -0.202 NA
ATOM      7  C12 ZIN A   1      18.723   2.296  10.914  0.00  0.00     0.184 A 
ATOM      8  N27 ZIN A   1      18.730   2.311  12.232  0.00  0.00    -0.330 N 
ATOM      9  H28 ZIN A   1      19.067   1.544  12.721  0.00  0.00     0.168 HD
ATOM     10  C29 ZIN A   1      18.275   3.383  12.902  0.00  0.00     0.051 A 
ATOM     11  C30 ZIN A   1      18.275   3.432  14.300  0.00  0.00     0.070 A 
ENDROOT
BRANCH   7  12
ATOM     12  N13 ZIN A   1      19.202   1.173  10.260  0.00  0.00    -0.250 NA
ATOM     13  C26 ZIN A   1      19.012  -0.033  11.077  0.00  0.00     0.118 C 
ATOM     14  C25 ZIN A   1      19.713  -1.217  10.403  0.00  0.00     0.140 C 
ATOM     15  N16 ZIN A   1      19.229  -1.321   9.018  0.00  0.00    -0.348 N 
ATOM     16  C15 ZIN A   1      19.261  -0.114   8.178  0.00  0.00     0.140 C 
ATOM     17  C17 ZIN A   1      18.768  -2.490   8.532  0.00  0.00     0.248 C 
ATOM     18  C14 ZIN A   1      18.578   1.027   8.939  0.00  0.00     0.118 C 
ATOM     19  O18 ZIN A   1      18.373  -2.557   7.388  0.00  0.00    -0.270 OA
BRANCH  17  20
ATOM     20  C19 ZIN A   1      18.745  -3.715   9.410  0.00  0.00     0.213 C 
ATOM     21  O24 ZIN A   1      17.409  -3.963   9.862  0.00  0.00    -0.376 OA
ATOM     22  C23 ZIN A   1      16.958  -5.239   9.374  0.00  0.00     0.168 C 
ATOM     23  C22 ZIN A   1      18.250  -6.057   9.124  0.00  0.00     0.029 C 
ATOM     24  C21 ZIN A   1      19.204  -4.948   8.602  0.00  0.00     0.043 C 
ENDBRANCH  17  20
ENDBRANCH   7  12
BRANCH   5  25
ATOM     25  N10 ZIN A   1      17.346   5.465   9.983  0.00  0.00    -0.383 N 
ATOM     26  H38 ZIN A   1      16.453   5.435   9.607  0.00  0.00     0.157 HD
ATOM     27  H39 ZIN A   1      17.915   6.233   9.819  0.00  0.00     0.157 HD
ENDBRANCH   5  25
BRANCH   1  28
ATOM     28  O2  ZIN A   1      17.787   4.601  16.298  0.00  0.00    -0.353 OA
ATOM     29  C1  ZIN A   1      18.679   3.719  16.983  0.00  0.00     0.210 C 
ENDBRANCH   1  28
BRANCH   2  30
ATOM     30  O5  ZIN A   1      16.846   6.743  14.860  0.00  0.00    -0.353 OA
ATOM     31  C6  ZIN A   1      17.717   7.872  14.934  0.00  0.00     0.210 C 
ENDBRANCH   2  30
TORSDOF 5
ENDMDL
MODEL 9
REMARK VINA RESULT:      -7.4      1.824      2.038
REMARK  5 active torsions:
REMARK  status: ('A' for Active; 'I' for Inactive)
REMARK    1  A    between atoms: O2_2  and  C3_3 
REMARK    2  A    between atoms: C4_4  and  O5_5 
REMARK    3  A    between atoms: C9_9  and  N10_10 
REMARK    4  A    between atoms: C12_12  and  N13_13 
REMARK       I    between atoms: N16_16  and  C17_17 
REMARK    5  A    between atoms: C17_17  and  C19_19 
ROOT
ATOM      1  C3  ZIN A   1      17.592   2.168  11.253  0.00  0.00     0.103 A 
ATOM      2  C4  ZIN A   1      18.087   1.821  12.518  0.00  0.00     0.102 A 
ATOM      3  C7  ZIN A   1      18.657   0.599  12.733  0.00  0.00     0.057 A 
ATOM      4  C8  ZIN A   1      18.751  -0.318  11.680  0.00  0.00     0.039 A 
ATOM      5  C9  ZIN A   1      19.333  -1.597  11.852  0.00  0.00     0.137 A 
ATOM      6  N11 ZIN A   1      19.385  -2.412  10.808  0.00  0.00    -0.202 NA
ATOM      7  C12 ZIN A   1      18.907  -2.049   9.621  0.00  0.00     0.184 A 
ATOM      8  N27 ZIN A   1      18.355  -0.871   9.404  0.00  0.00    -0.330 N 
ATOM      9  H28 ZIN A   1      18.019  -0.652   8.521  0.00  0.00     0.168 HD
ATOM     10  C29 ZIN A   1      18.254   0.025  10.399  0.00  0.00     0.051 A 
ATOM     11  C30 ZIN A   1      17.668   1.281  10.202  0.00  0.00     0.070 A 
ENDROOT
BRANCH   7  12
ATOM     12  N13 ZIN A   1      18.991  -2.946   8.570  0.00  0.00    -0.250 NA
ATOM     13  C26 ZIN A   1      17.757  -3.732   8.447  0.00  0.00     0.118 C 
ATOM     14  C25 ZIN A   1      17.957  -4.830   7.398  0.00  0.00     0.140 C 
ATOM     15  N16 ZIN A   1      18.423  -4.205   6.150  0.00  0.00    -0.348 N 
ATOM     16  C15 ZIN A   1      19.575  -3.294   6.217  0.00  0.00     0.140 C 
ATOM     17  C17 ZIN A   1      17.810  -4.461   4.978  0.00  0.00     0.248 C 
ATOM     18  C14 ZIN A   1      19.312  -2.256   7.314  0.00  0.00     0.118 C 
ATOM     19  O18 ZIN A   1      18.208  -3.937   3.959  0.00  0.00    -0.270 OA
BRANCH  17  20
ATOM     20  C19 ZIN A   1      16.632  -5.400   4.932  0.00  0.00     0.213 C 
ATOM     21  O24 ZIN A   1      15.521  -4.753   4.299  0.00  0.00    -0.376 OA
ATOM     22  C23 ZIN A   1      15.162  -5.463   3.101  0.00  0.00     0.168 C 
ATOM     23  C22 ZIN A   1      15.668  -6.912   3.320  0.00  0.00     0.029 C 
ATOM     24  C21 ZIN A   1      16.987  -6.648   4.096  0.00  0.00     0.043 C 
ENDBRANCH  17  20
ENDBRANCH   7  12
BRANCH   5  25
ATOM     25  N10 ZIN A   1      19.833  -1.987  13.077  0.00  0.00    -0.383 N 
ATOM     26  H38 ZIN A   1      19.966  -1.330  13.778  0.00  0.00     0.157 HD
ATOM     27  H39 ZIN A   1      20.053  -2.917  13.238  0.00  0.00     0.157 HD
ENDBRANCH   5  25
BRANCH   1  28
ATOM     28  O2  ZIN A   1      17.028   3.389  11.064  0.00  0.00    -0.353 OA
ATOM     29  C1  ZIN A   1      17.729   4.304  10.220  0.00  0.00     0.210 C 
ENDBRANCH   1  28
BRANCH   2  30
ATOM     30  O5  ZIN A   1      17.997   2.711  13.543  0.00  0.00    -0.353 OA
ATOM     31  C6  ZIN A   1      18.295   2.225  14.853  0.00  0.00     0.210 C 
ENDBRANCH   2  30
TORSDOF 5
ENDMDL
