MODEL 1
REMARK VINA RESULT:      -2.8      0.000      0.000
REMARK  5 active torsions:
REMARK  status: ('A' for Active; 'I' for Inactive)
REMARK    1  A    between atoms: O1_1  and  C2_2 
REMARK    2  A    between atoms: C2_2  and  C3_3 
REMARK    3  A    between atoms: C3_3  and  S5_4 
REMARK    4  A    between atoms: C3_3  and  C6_5 
REMARK    5  A    between atoms: C6_5  and  S7_6 
ROOT
ATOM      1  C3  ZIN A   1      19.984   0.107  13.726  0.00  0.00     0.077 C 
ENDROOT
BRANCH   1   2
ATOM      2  C2  ZIN A   1      20.320   0.647  12.335  0.00  0.00     0.179 C 
BRANCH   2   3
ATOM      3  O1  ZIN A   1      21.736   0.626  12.144  0.00  0.00    -0.400 OA
ATOM      4  H8  ZIN A   1      22.201  -0.001  12.715  0.00  0.00     0.209 HD
ENDBRANCH   2   3
ENDBRANCH   1   2
BRANCH   1   5
ATOM      5  S5  ZIN A   1      18.982  -1.397  13.567  0.00  0.00    -0.174 SA
ATOM      6  H11 ZIN A   1      17.926  -1.142  14.360  0.00  0.00     0.102 HD
ENDBRANCH   1   5
BRANCH   1   7
ATOM      7  C6  ZIN A   1      19.198   1.163  14.506  0.00  0.00     0.087 C 
BRANCH   7   8
ATOM      8  S7  ZIN A   1      17.741   0.395  15.264  0.00  0.00    -0.181 SA
ATOM      9  H14 ZIN A   1      17.854   0.742  16.558  0.00  0.00     0.101 HD
ENDBRANCH   7   8
ENDBRANCH   1   7
TORSDOF 5
ENDMDL
MODEL 2
REMARK VINA RESULT:      -2.8      2.399      3.241
REMARK  5 active torsions:
REMARK  status: ('A' for Active; 'I' for Inactive)
REMARK    1  A    between atoms: O1_1  and  C2_2 
REMARK    2  A    between atoms: C2_2  and  C3_3 
REMARK    3  A    between atoms: C3_3  and  S5_4 
REMARK    4  A    between atoms: C3_3  and  C6_5 
REMARK    5  A    between atoms: C6_5  and  S7_6 
ROOT
ATOM      1  C3  ZIN A   1      20.498  -0.779  10.788  0.00  0.00     0.077 C 
ENDROOT
BRANCH   1   2
ATOM      2  C2  ZIN A   1      20.442   0.306  11.865  0.00  0.00     0.179 C 
BRANCH   2   3
ATOM      3  O1  ZIN A   1      21.771   0.685  12.230  0.00  0.00    -0.400 OA
ATOM      4  H8  ZIN A   1      21.812   1.424  12.852  0.00  0.00     0.209 HD
ENDBRANCH   2   3
ENDBRANCH   1   2
BRANCH   1   5
ATOM      5  S5  ZIN A   1      19.735  -0.159   9.263  0.00  0.00    -0.174 SA
ATOM      6  H11 ZIN A   1      20.512  -0.687   8.301  0.00  0.00     0.102 HD
ENDBRANCH   1   5
BRANCH   1   7
ATOM      7  C6  ZIN A   1      19.738  -2.016  11.272  0.00  0.00     0.087 C 
BRANCH   7   8
ATOM      8  S7  ZIN A   1      19.015  -1.683  12.902  0.00  0.00    -0.181 SA
ATOM      9  H14 ZIN A   1      19.885  -0.815  13.447  0.00  0.00     0.101 HD
ENDBRANCH   7   8
ENDBRANCH   1   7
TORSDOF 5
ENDMDL
MODEL 3
REMARK VINA RESULT:      -2.8      4.253      5.319
REMARK  5 active torsions:
REMARK  status: ('A' for Active; 'I' for Inactive)
REMARK    1  A    between atoms: O1_1  and  C2_2 
REMARK    2  A    between atoms: C2_2  and  C3_3 
REMARK    3  A    between atoms: C3_3  and  S5_4 
REMARK    4  A    between atoms: C3_3  and  C6_5 
REMARK    5  A    between atoms: C6_5  and  S7_6 
ROOT
ATOM      1  C3  ZIN A   1      20.035  -0.324   9.228  0.00  0.00     0.077 C 
ENDROOT
BRANCH   1   2
ATOM      2  C2  ZIN A   1      20.308  -0.468  10.727  0.00  0.00     0.179 C 
BRANCH   2   3
ATOM      3  O1  ZIN A   1      21.714  -0.602  10.945  0.00  0.00    -0.400 OA
ATOM      4  H8  ZIN A   1      22.125  -1.315  10.438  0.00  0.00     0.209 HD
ENDBRANCH   2   3
ENDBRANCH   1   2
BRANCH   1   5
ATOM      5  S5  ZIN A   1      19.203   1.257   8.913  0.00  0.00    -0.174 SA
ATOM      6  H11 ZIN A   1      20.101   1.927   8.170  0.00  0.00     0.102 HD
ENDBRANCH   1   5
BRANCH   1   7
ATOM      7  C6  ZIN A   1      19.141  -1.474   8.761  0.00  0.00     0.087 C 
BRANCH   7   8
ATOM      8  S7  ZIN A   1      18.974  -1.416   6.956  0.00  0.00    -0.181 SA
ATOM      9  H14 ZIN A   1      18.293  -0.274   6.751  0.00  0.00     0.101 HD
ENDBRANCH   7   8
ENDBRANCH   1   7
TORSDOF 5
ENDMDL
MODEL 4
REMARK VINA RESULT:      -2.8      2.833      3.222
REMARK  5 active torsions:
REMARK  status: ('A' for Active; 'I' for Inactive)
REMARK    1  A    between atoms: O1_1  and  C2_2 
REMARK    2  A    between atoms: C2_2  and  C3_3 
REMARK    3  A    between atoms: C3_3  and  S5_4 
REMARK    4  A    between atoms: C3_3  and  C6_5 
REMARK    5  A    between atoms: C6_5  and  S7_6 
ROOT
ATOM      1  C3  ZIN A   1      19.531   1.663  12.307  0.00  0.00     0.077 C 
ENDROOT
BRANCH   1   2
ATOM      2  C2  ZIN A   1      20.341   0.472  11.791  0.00  0.00     0.179 C 
BRANCH   2   3
ATOM      3  O1  ZIN A   1      21.712   0.629  12.167  0.00  0.00    -0.400 OA
ATOM      4  H8  ZIN A   1      21.893   0.413  13.091  0.00  0.00     0.209 HD
ENDBRANCH   2   3
ENDBRANCH   1   2
BRANCH   1   5
ATOM      5  S5  ZIN A   1      17.767   1.241  12.303  0.00  0.00    -0.174 SA
ATOM      6  H11 ZIN A   1      17.717   0.158  11.507  0.00  0.00     0.102 HD
ENDBRANCH   1   5
BRANCH   1   7
ATOM      7  C6  ZIN A   1      19.769   2.872  11.401  0.00  0.00     0.087 C 
BRANCH   7   8
ATOM      8  S7  ZIN A   1      18.630   2.804   9.991  0.00  0.00    -0.181 SA
ATOM      9  H14 ZIN A   1      18.324   1.497   9.911  0.00  0.00     0.101 HD
ENDBRANCH   7   8
ENDBRANCH   1   7
TORSDOF 5
ENDMDL
MODEL 5
REMARK VINA RESULT:      -2.8      3.314      4.236
REMARK  5 active torsions:
REMARK  status: ('A' for Active; 'I' for Inactive)
REMARK    1  A    between atoms: O1_1  and  C2_2 
REMARK    2  A    between atoms: C2_2  and  C3_3 
REMARK    3  A    between atoms: C3_3  and  S5_4 
REMARK    4  A    between atoms: C3_3  and  C6_5 
REMARK    5  A    between atoms: C6_5  and  S7_6 
ROOT
ATOM      1  C3  ZIN A   1      19.366  -0.641  10.417  0.00  0.00     0.077 C 
ENDROOT
BRANCH   1   2
ATOM      2  C2  ZIN A   1      20.454  -0.116  11.356  0.00  0.00     0.179 C 
BRANCH   2   3
ATOM      3  O1  ZIN A   1      21.728  -0.604  10.930  0.00  0.00    -0.400 OA
ATOM      4  H8  ZIN A   1      22.394   0.086  10.813  0.00  0.00     0.209 HD
ENDBRANCH   2   3
ENDBRANCH   1   2
BRANCH   1   5
ATOM      5  S5  ZIN A   1      19.194  -2.434  10.633  0.00  0.00    -0.174 SA
ATOM      6  H11 ZIN A   1      20.006  -2.933   9.684  0.00  0.00     0.102 HD
ENDBRANCH   1   5
BRANCH   1   7
ATOM      7  C6  ZIN A   1      19.754  -0.338   8.968  0.00  0.00     0.087 C 
BRANCH   7   8
ATOM      8  S7  ZIN A   1      19.301   1.372   8.567  0.00  0.00    -0.181 SA
ATOM      9  H14 ZIN A   1      18.082   1.500   9.118  0.00  0.00     0.101 HD
ENDBRANCH   7   8
ENDBRANCH   1   7
TORSDOF 5
ENDMDL
MODEL 6
REMARK VINA RESULT:      -2.7      2.306      3.476
REMARK  5 active torsions:
REMARK  status: ('A' for Active; 'I' for Inactive)
REMARK    1  A    between atoms: O1_1  and  C2_2 
REMARK    2  A    between atoms: C2_2  and  C3_3 
REMARK    3  A    between atoms: C3_3  and  S5_4 
REMARK    4  A    between atoms: C3_3  and  C6_5 
REMARK    5  A    between atoms: C6_5  and  S7_6 
ROOT
ATOM      1  C3  ZIN A   1      19.587  -0.363  11.626  0.00  0.00     0.077 C 
ENDROOT
BRANCH   1   2
ATOM      2  C2  ZIN A   1      20.365   0.479  12.639  0.00  0.00     0.179 C 
BRANCH   2   3
ATOM      3  O1  ZIN A   1      21.710   0.646  12.187  0.00  0.00    -0.400 OA
ATOM      4  H8  ZIN A   1      22.048  -0.099  11.672  0.00  0.00     0.209 HD
ENDBRANCH   2   3
ENDBRANCH   1   2
BRANCH   1   5
ATOM      5  S5  ZIN A   1      19.150  -1.957  12.372  0.00  0.00    -0.174 SA
ATOM      6  H11 ZIN A   1      20.303  -2.646  12.310  0.00  0.00     0.102 HD
ENDBRANCH   1   5
BRANCH   1   7
ATOM      7  C6  ZIN A   1      20.454  -0.600  10.388  0.00  0.00     0.087 C 
BRANCH   7   8
ATOM      8  S7  ZIN A   1      19.410  -0.572   8.904  0.00  0.00    -0.181 SA
ATOM      9  H14 ZIN A   1      20.165  -1.209   7.992  0.00  0.00     0.101 HD
ENDBRANCH   7   8
ENDBRANCH   1   7
TORSDOF 5
ENDMDL
MODEL 7
REMARK VINA RESULT:      -2.6      3.304      3.611
REMARK  5 active torsions:
REMARK  status: ('A' for Active; 'I' for Inactive)
REMARK    1  A    between atoms: O1_1  and  C2_2 
REMARK    2  A    between atoms: C2_2  and  C3_3 
REMARK    3  A    between atoms: C3_3  and  S5_4 
REMARK    4  A    between atoms: C3_3  and  C6_5 
REMARK    5  A    between atoms: C6_5  and  S7_6 
ROOT
ATOM      1  C3  ZIN A   1      19.348   0.523  10.702  0.00  0.00     0.077 C 
ENDROOT
BRANCH   1   2
ATOM      2  C2  ZIN A   1      20.320  -0.479  10.076  0.00  0.00     0.179 C 
BRANCH   2   3
ATOM      3  O1  ZIN A   1      21.512  -0.542  10.862  0.00  0.00    -0.400 OA
ATOM      4  H8  ZIN A   1      21.585  -1.340  11.403  0.00  0.00     0.209 HD
ENDBRANCH   2   3
ENDBRANCH   1   2
BRANCH   1   5
ATOM      5  S5  ZIN A   1      18.789   1.696   9.435  0.00  0.00    -0.174 SA
ATOM      6  H11 ZIN A   1      19.611   2.746   9.613  0.00  0.00     0.102 HD
ENDBRANCH   1   5
BRANCH   1   7
ATOM      7  C6  ZIN A   1      20.054   1.284  11.826  0.00  0.00     0.087 C 
BRANCH   7   8
ATOM      8  S7  ZIN A   1      19.769   3.064  11.623  0.00  0.00    -0.181 SA
ATOM      9  H14 ZIN A   1      18.740   3.109  10.758  0.00  0.00     0.101 HD
ENDBRANCH   7   8
ENDBRANCH   1   7
TORSDOF 5
ENDMDL
MODEL 8
REMARK VINA RESULT:      -2.6      4.275      5.056
REMARK  5 active torsions:
REMARK  status: ('A' for Active; 'I' for Inactive)
REMARK    1  A    between atoms: O1_1  and  C2_2 
REMARK    2  A    between atoms: C2_2  and  C3_3 
REMARK    3  A    between atoms: C3_3  and  S5_4 
REMARK    4  A    between atoms: C3_3  and  C6_5 
REMARK    5  A    between atoms: C6_5  and  S7_6 
ROOT
ATOM      1  C3  ZIN A   1      18.791   3.235  10.462  0.00  0.00     0.077 C 
ENDROOT
BRANCH   1   2
ATOM      2  C2  ZIN A   1      19.554   2.884  11.740  0.00  0.00     0.179 C 
BRANCH   2   3
ATOM      3  O1  ZIN A   1      20.922   3.276  11.602  0.00  0.00    -0.400 OA
ATOM      4  H8  ZIN A   1      21.063   3.996  10.971  0.00  0.00     0.209 HD
ENDBRANCH   2   3
ENDBRANCH   1   2
BRANCH   1   5
ATOM      5  S5  ZIN A   1      17.384   4.305  10.871  0.00  0.00    -0.174 SA
ATOM      6  H11 ZIN A   1      16.430   3.426  11.227  0.00  0.00     0.102 HD
ENDBRANCH   1   5
BRANCH   1   7
ATOM      7  C6  ZIN A   1      18.280   1.951   9.804  0.00  0.00     0.087 C 
BRANCH   7   8
ATOM      8  S7  ZIN A   1      19.289   1.576   8.345  0.00  0.00    -0.181 SA
ATOM      9  H14 ZIN A   1      18.425   0.941   7.534  0.00  0.00     0.101 HD
ENDBRANCH   7   8
ENDBRANCH   1   7
TORSDOF 5
ENDMDL
MODEL 9
REMARK VINA RESULT:      -2.6      2.387      2.853
REMARK  5 active torsions:
REMARK  status: ('A' for Active; 'I' for Inactive)
REMARK    1  A    between atoms: O1_1  and  C2_2 
REMARK    2  A    between atoms: C2_2  and  C3_3 
REMARK    3  A    between atoms: C3_3  and  S5_4 
REMARK    4  A    between atoms: C3_3  and  C6_5 
REMARK    5  A    between atoms: C6_5  and  S7_6 
ROOT
ATOM      1  C3  ZIN A   1      19.521   0.354  11.425  0.00  0.00     0.077 C 
ENDROOT
BRANCH   1   2
ATOM      2  C2  ZIN A   1      20.307  -0.715  10.664  0.00  0.00     0.179 C 
BRANCH   2   3
ATOM      3  O1  ZIN A   1      21.700  -0.583  10.960  0.00  0.00    -0.400 OA
ATOM      4  H8  ZIN A   1      22.167   0.038  10.385  0.00  0.00     0.209 HD
ENDBRANCH   2   3
ENDBRANCH   1   2
BRANCH   1   5
ATOM      5  S5  ZIN A   1      20.026   0.353  13.167  0.00  0.00    -0.174 SA
ATOM      6  H11 ZIN A   1      19.708  -0.890  13.572  0.00  0.00     0.102 HD
ENDBRANCH   1   5
BRANCH   1   7
ATOM      7  C6  ZIN A   1      18.024   0.052  11.327  0.00  0.00     0.087 C 
BRANCH   7   8
ATOM      8  S7  ZIN A   1      17.756  -1.734  11.497  0.00  0.00    -0.181 SA
ATOM      9  H14 ZIN A   1      18.471  -2.246  10.480  0.00  0.00     0.101 HD
ENDBRANCH   7   8
ENDBRANCH   1   7
TORSDOF 5
ENDMDL
