MODEL 1
REMARK VINA RESULT:      -9.0      0.000      0.000
REMARK  6 active torsions:
REMARK  status: ('A' for Active; 'I' for Inactive)
REMARK    1  A    between atoms: C2_2  and  C4_3 
REMARK    2  A    between atoms: C2_2  and  C9_8 
REMARK    3  A    between atoms: C4_3  and  C5_4 
REMARK    4  A    between atoms: C5_4  and  C6_5 
REMARK    5  A    between atoms: C22_17  and  O24_18 
REMARK    6  A    between atoms: C32_25  and  O34_26 
ROOT
ATOM      1  C9  ZIN A   1      18.273   1.627  11.042  0.00  0.00     0.000 C 
ATOM      2  C11 ZIN A   1      18.701   1.985   9.596  0.00  0.00     0.006 C 
ATOM      3  C12 ZIN A   1      19.141   0.654   8.928  0.00  0.00     0.006 C 
ATOM      4  C13 ZIN A   1      18.389  -0.404   9.745  0.00  0.00     0.001 C 
ATOM      5  C15 ZIN A   1      18.970  -1.806   9.706  0.00  0.00    -0.005 C 
ATOM      6  C17 ZIN A   1      18.923  -2.363   8.283  0.00  0.00     0.006 C 
ATOM      7  C18 ZIN A   1      19.471  -3.791   8.278  0.00  0.00     0.006 C 
ATOM      8  C19 ZIN A   1      18.620  -4.669   9.196  0.00  0.00    -0.004 C 
ATOM      9  C21 ZIN A   1      17.175  -4.682   8.691  0.00  0.00     0.037 C 
ATOM     10  C22 ZIN A   1      16.324  -5.563   9.608  0.00  0.00     0.118 C 
ATOM     11  C25 ZIN A   1      16.360  -5.004  11.031  0.00  0.00     0.032 C 
ATOM     12  C26 ZIN A   1      17.806  -4.990  11.536  0.00  0.00     0.012 C 
ATOM     13  C27 ZIN A   1      18.657  -4.109  10.620  0.00  0.00    -0.036 C 
ATOM     14  C28 ZIN A   1      20.101  -4.095  11.124  0.00  0.00     0.016 C 
ATOM     15  C29 ZIN A   1      18.118  -2.679  10.639  0.00  0.00     0.001 C 
ATOM     16  C31 ZIN A   1      18.114  -2.143  12.068  0.00  0.00     0.038 C 
ATOM     17  C32 ZIN A   1      17.670  -0.671  12.113  0.00  0.00     0.127 C 
ATOM     18  C35 ZIN A   1      18.557   0.137  11.191  0.00  0.00    -0.010 C 
ATOM     19  C36 ZIN A   1      20.024  -0.076  11.569  0.00  0.00     0.018 C 
ENDROOT
BRANCH   1  20
ATOM     20  C2  ZIN A   1      19.097   2.429  12.052  0.00  0.00    -0.013 C 
ATOM     21  C1  ZIN A   1      18.316   2.556  13.360  0.00  0.00     0.010 C 
BRANCH  20  22
ATOM     22  C4  ZIN A   1      19.380   3.822  11.488  0.00  0.00     0.015 C 
BRANCH  22  23
ATOM     23  C5  ZIN A   1      18.339   4.809  12.022  0.00  0.00     0.113 C 
BRANCH  23  24
ATOM     24  C6  ZIN A   1      17.281   5.038  10.973  0.00  0.00     0.172 C 
ATOM     25  O7  ZIN A   1      16.125   4.717  11.192  0.00  0.00    -0.648 OA
ATOM     26  O8  ZIN A   1      17.580   5.545   9.905  0.00  0.00    -0.648 OA
ENDBRANCH  23  24
ENDBRANCH  22  23
ENDBRANCH  20  22
ENDBRANCH   1  20
BRANCH  17  27
ATOM     27  O34 ZIN A   1      16.329  -0.553  11.630  0.00  0.00    -0.395 OA
ATOM     28  H64 ZIN A   1      15.657  -0.838  12.263  0.00  0.00     0.210 HD
ENDBRANCH  17  27
BRANCH  10  29
ATOM     29  O24 ZIN A   1      14.974  -5.576   9.136  0.00  0.00    -0.396 OA
ATOM     30  H54 ZIN A   1      14.643  -6.457   8.918  0.00  0.00     0.210 HD
ENDBRANCH  10  29
TORSDOF 6
ENDMDL
MODEL 2
REMARK VINA RESULT:      -8.3      1.806      7.932
REMARK  6 active torsions:
REMARK  status: ('A' for Active; 'I' for Inactive)
REMARK    1  A    between atoms: C2_2  and  C4_3 
REMARK    2  A    between atoms: C2_2  and  C9_8 
REMARK    3  A    between atoms: C4_3  and  C5_4 
REMARK    4  A    between atoms: C5_4  and  C6_5 
REMARK    5  A    between atoms: C22_17  and  O24_18 
REMARK    6  A    between atoms: C32_25  and  O34_26 
ROOT
ATOM      1  C9  ZIN A   1      18.281  -1.494  12.124  0.00  0.00     0.000 C 
ATOM      2  C11 ZIN A   1      18.641  -1.849  13.588  0.00  0.00     0.006 C 
ATOM      3  C12 ZIN A   1      19.051  -0.517  14.273  0.00  0.00     0.006 C 
ATOM      4  C13 ZIN A   1      18.340   0.540  13.421  0.00  0.00     0.001 C 
ATOM      5  C15 ZIN A   1      18.920   1.941  13.485  0.00  0.00    -0.005 C 
ATOM      6  C17 ZIN A   1      18.808   2.501  14.903  0.00  0.00     0.006 C 
ATOM      7  C18 ZIN A   1      19.357   3.928  14.931  0.00  0.00     0.006 C 
ATOM      8  C19 ZIN A   1      18.550   4.806  13.973  0.00  0.00    -0.004 C 
ATOM      9  C21 ZIN A   1      17.083   4.821  14.411  0.00  0.00     0.037 C 
ATOM     10  C22 ZIN A   1      16.276   5.701  13.455  0.00  0.00     0.118 C 
ATOM     11  C25 ZIN A   1      16.378   5.140  12.035  0.00  0.00     0.032 C 
ATOM     12  C26 ZIN A   1      17.844   5.124  11.598  0.00  0.00     0.012 C 
ATOM     13  C27 ZIN A   1      18.651   4.243  12.553  0.00  0.00    -0.036 C 
ATOM     14  C28 ZIN A   1      20.117   4.227  12.117  0.00  0.00     0.016 C 
ATOM     15  C29 ZIN A   1      18.112   2.814  12.512  0.00  0.00     0.001 C 
ATOM     16  C31 ZIN A   1      18.174   2.275  11.086  0.00  0.00     0.038 C 
ATOM     17  C32 ZIN A   1      17.730   0.804  11.022  0.00  0.00     0.127 C 
ATOM     18  C35 ZIN A   1      18.573  -0.004  11.985  0.00  0.00    -0.010 C 
ATOM     19  C36 ZIN A   1      20.056   0.207  11.675  0.00  0.00     0.018 C 
ENDROOT
BRANCH   1  20
ATOM     20  C2  ZIN A   1      19.150  -2.297  11.154  0.00  0.00    -0.013 C 
ATOM     21  C1  ZIN A   1      18.431  -2.423   9.810  0.00  0.00     0.010 C 
BRANCH  20  22
ATOM     22  C4  ZIN A   1      19.401  -3.692  11.731  0.00  0.00     0.015 C 
BRANCH  22  23
ATOM     23  C5  ZIN A   1      18.571  -4.720  10.959  0.00  0.00     0.113 C 
BRANCH  23  24
ATOM     24  C6  ZIN A   1      17.367  -5.110  11.778  0.00  0.00     0.172 C 
ATOM     25  O7  ZIN A   1      16.290  -4.577  11.571  0.00  0.00    -0.648 OA
ATOM     26  O8  ZIN A   1      17.470  -5.958  12.648  0.00  0.00    -0.648 OA
ENDBRANCH  23  24
ENDBRANCH  22  23
ENDBRANCH  20  22
ENDBRANCH   1  20
BRANCH  17  27
ATOM     27  O34 ZIN A   1      16.369   0.688  11.443  0.00  0.00    -0.395 OA
ATOM     28  H64 ZIN A   1      16.091  -0.219  11.630  0.00  0.00     0.210 HD
ENDBRANCH  17  27
BRANCH  10  29
ATOM     29  O24 ZIN A   1      14.906   5.717  13.863  0.00  0.00    -0.396 OA
ATOM     30  H54 ZIN A   1      14.658   6.497  14.377  0.00  0.00     0.210 HD
ENDBRANCH  10  29
TORSDOF 6
ENDMDL
MODEL 3
REMARK VINA RESULT:      -8.3      2.820      4.118
REMARK  6 active torsions:
REMARK  status: ('A' for Active; 'I' for Inactive)
REMARK    1  A    between atoms: C2_2  and  C4_3 
REMARK    2  A    between atoms: C2_2  and  C9_8 
REMARK    3  A    between atoms: C4_3  and  C5_4 
REMARK    4  A    between atoms: C5_4  and  C6_5 
REMARK    5  A    between atoms: C22_17  and  O24_18 
REMARK    6  A    between atoms: C32_25  and  O34_26 
ROOT
ATOM      1  C9  ZIN A   1      19.480   0.269  12.430  0.00  0.00     0.000 C 
ATOM      2  C11 ZIN A   1      19.665  -0.580  13.713  0.00  0.00     0.006 C 
ATOM      3  C12 ZIN A   1      19.290  -2.037  13.330  0.00  0.00     0.006 C 
ATOM      4  C13 ZIN A   1      19.517  -2.064  11.814  0.00  0.00     0.001 C 
ATOM      5  C15 ZIN A   1      18.774  -3.146  11.052  0.00  0.00    -0.005 C 
ATOM      6  C17 ZIN A   1      19.242  -4.530  11.501  0.00  0.00     0.006 C 
ATOM      7  C18 ZIN A   1      18.511  -5.601  10.687  0.00  0.00     0.006 C 
ATOM      8  C19 ZIN A   1      18.823  -5.416   9.202  0.00  0.00    -0.004 C 
ATOM      9  C21 ZIN A   1      20.331  -5.553   8.977  0.00  0.00     0.037 C 
ATOM     10  C22 ZIN A   1      20.642  -5.370   7.490  0.00  0.00     0.118 C 
ATOM     11  C25 ZIN A   1      20.184  -3.982   7.038  0.00  0.00     0.032 C 
ATOM     12  C26 ZIN A   1      18.676  -3.845   7.265  0.00  0.00     0.012 C 
ATOM     13  C27 ZIN A   1      18.365  -4.027   8.751  0.00  0.00    -0.036 C 
ATOM     14  C28 ZIN A   1      16.858  -3.890   8.977  0.00  0.00     0.016 C 
ATOM     15  C29 ZIN A   1      19.081  -2.946   9.560  0.00  0.00     0.001 C 
ATOM     16  C31 ZIN A   1      18.655  -1.563   9.076  0.00  0.00     0.038 C 
ATOM     17  C32 ZIN A   1      19.282  -0.451   9.933  0.00  0.00     0.127 C 
ATOM     18  C35 ZIN A   1      18.928  -0.693  11.384  0.00  0.00    -0.010 C 
ATOM     19  C36 ZIN A   1      17.409  -0.805  11.533  0.00  0.00     0.018 C 
ENDROOT
BRANCH   1  20
ATOM     20  C2  ZIN A   1      18.486   1.404  12.685  0.00  0.00    -0.013 C 
ATOM     21  C1  ZIN A   1      19.095   2.729  12.223  0.00  0.00     0.010 C 
BRANCH  20  22
ATOM     22  C4  ZIN A   1      18.173   1.481  14.180  0.00  0.00     0.015 C 
BRANCH  22  23
ATOM     23  C5  ZIN A   1      18.738   2.783  14.754  0.00  0.00     0.113 C 
BRANCH  23  24
ATOM     24  C6  ZIN A   1      19.344   2.513  16.107  0.00  0.00     0.172 C 
ATOM     25  O7  ZIN A   1      19.175   1.434  16.648  0.00  0.00    -0.648 OA
ATOM     26  O8  ZIN A   1      20.005   3.376  16.661  0.00  0.00    -0.648 OA
ENDBRANCH  23  24
ENDBRANCH  22  23
ENDBRANCH  20  22
ENDBRANCH   1  20
BRANCH  17  27
ATOM     27  O34 ZIN A   1      20.707  -0.499   9.825  0.00  0.00    -0.395 OA
ATOM     28  H64 ZIN A   1      21.124  -1.141  10.415  0.00  0.00     0.210 HD
ENDBRANCH  17  27
BRANCH  10  29
ATOM     29  O24 ZIN A   1      22.050  -5.498   7.279  0.00  0.00    -0.396 OA
ATOM     30  H54 ZIN A   1      22.588  -5.200   8.025  0.00  0.00     0.210 HD
ENDBRANCH  10  29
TORSDOF 6
ENDMDL
MODEL 4
REMARK VINA RESULT:      -8.0      2.258      3.365
REMARK  6 active torsions:
REMARK  status: ('A' for Active; 'I' for Inactive)
REMARK    1  A    between atoms: C2_2  and  C4_3 
REMARK    2  A    between atoms: C2_2  and  C9_8 
REMARK    3  A    between atoms: C4_3  and  C5_4 
REMARK    4  A    between atoms: C5_4  and  C6_5 
REMARK    5  A    between atoms: C22_17  and  O24_18 
REMARK    6  A    between atoms: C32_25  and  O34_26 
ROOT
ATOM      1  C9  ZIN A   1      18.977   1.136  10.996  0.00  0.00     0.000 C 
ATOM      2  C11 ZIN A   1      19.551   0.793  12.394  0.00  0.00     0.006 C 
ATOM      3  C12 ZIN A   1      19.427  -0.747  12.552  0.00  0.00     0.006 C 
ATOM      4  C13 ZIN A   1      19.392  -1.239  11.100  0.00  0.00     0.001 C 
ATOM      5  C15 ZIN A   1      18.771  -2.606  10.879  0.00  0.00    -0.005 C 
ATOM      6  C17 ZIN A   1      19.585  -3.683  11.595  0.00  0.00     0.006 C 
ATOM      7  C18 ZIN A   1      18.965  -5.055  11.320  0.00  0.00     0.006 C 
ATOM      8  C19 ZIN A   1      18.973  -5.328   9.816  0.00  0.00    -0.004 C 
ATOM      9  C21 ZIN A   1      20.415  -5.315   9.303  0.00  0.00     0.037 C 
ATOM     10  C22 ZIN A   1      20.423  -5.590   7.798  0.00  0.00     0.118 C 
ATOM     11  C25 ZIN A   1      19.616  -4.509   7.076  0.00  0.00     0.032 C 
ATOM     12  C26 ZIN A   1      18.174  -4.521   7.590  0.00  0.00     0.012 C 
ATOM     13  C27 ZIN A   1      18.166  -4.245   9.094  0.00  0.00    -0.036 C 
ATOM     14  C28 ZIN A   1      16.725  -4.258   9.608  0.00  0.00     0.016 C 
ATOM     15  C29 ZIN A   1      18.770  -2.867   9.365  0.00  0.00     0.001 C 
ATOM     16  C31 ZIN A   1      17.990  -1.798   8.607  0.00  0.00     0.038 C 
ATOM     17  C32 ZIN A   1      18.509  -0.388   8.934  0.00  0.00     0.127 C 
ATOM     18  C35 ZIN A   1      18.466  -0.185  10.433  0.00  0.00    -0.010 C 
ATOM     19  C36 ZIN A   1      17.053  -0.457  10.950  0.00  0.00     0.018 C 
ENDROOT
BRANCH   1  20
ATOM     20  C2  ZIN A   1      17.828   2.138  11.127  0.00  0.00    -0.013 C 
ATOM     21  C1  ZIN A   1      18.034   3.282  10.134  0.00  0.00     0.010 C 
BRANCH  20  22
ATOM     22  C4  ZIN A   1      17.798   2.697  12.550  0.00  0.00     0.015 C 
BRANCH  22  23
ATOM     23  C5  ZIN A   1      17.929   4.221  12.503  0.00  0.00     0.113 C 
BRANCH  23  24
ATOM     24  C6  ZIN A   1      19.095   4.651  13.355  0.00  0.00     0.172 C 
ATOM     25  O7  ZIN A   1      19.021   4.583  14.570  0.00  0.00    -0.648 OA
ATOM     26  O8  ZIN A   1      20.115   5.067  12.830  0.00  0.00    -0.648 OA
ENDBRANCH  23  24
ENDBRANCH  22  23
ENDBRANCH  20  22
ENDBRANCH   1  20
BRANCH  17  27
ATOM     27  O34 ZIN A   1      19.872  -0.264   8.523  0.00  0.00    -0.395 OA
ATOM     28  H64 ZIN A   1      20.072   0.564   8.067  0.00  0.00     0.210 HD
ENDBRANCH  17  27
BRANCH  10  29
ATOM     29  O24 ZIN A   1      21.770  -5.578   7.318  0.00  0.00    -0.396 OA
ATOM     30  H54 ZIN A   1      21.918  -4.973   6.580  0.00  0.00     0.210 HD
ENDBRANCH  10  29
TORSDOF 6
ENDMDL
MODEL 5
REMARK VINA RESULT:      -7.9      3.249      5.189
REMARK  6 active torsions:
REMARK  status: ('A' for Active; 'I' for Inactive)
REMARK    1  A    between atoms: C2_2  and  C4_3 
REMARK    2  A    between atoms: C2_2  and  C9_8 
REMARK    3  A    between atoms: C4_3  and  C5_4 
REMARK    4  A    between atoms: C5_4  and  C6_5 
REMARK    5  A    between atoms: C22_17  and  O24_18 
REMARK    6  A    between atoms: C32_25  and  O34_26 
ROOT
ATOM      1  C9  ZIN A   1      17.534  -0.030  14.682  0.00  0.00     0.000 C 
ATOM      2  C11 ZIN A   1      17.358   1.506  14.787  0.00  0.00     0.006 C 
ATOM      3  C12 ZIN A   1      17.982   2.107  13.498  0.00  0.00     0.006 C 
ATOM      4  C13 ZIN A   1      17.905   0.941  12.505  0.00  0.00     0.001 C 
ATOM      5  C15 ZIN A   1      18.871   1.004  11.336  0.00  0.00    -0.005 C 
ATOM      6  C17 ZIN A   1      18.576   2.225  10.465  0.00  0.00     0.006 C 
ATOM      7  C18 ZIN A   1      19.532   2.241   9.271  0.00  0.00     0.006 C 
ATOM      8  C19 ZIN A   1      19.338   0.970   8.444  0.00  0.00    -0.004 C 
ATOM      9  C21 ZIN A   1      17.896   0.909   7.935  0.00  0.00     0.037 C 
ATOM     10  C22 ZIN A   1      17.702  -0.362   7.105  0.00  0.00     0.118 C 
ATOM     11  C25 ZIN A   1      17.988  -1.589   7.974  0.00  0.00     0.032 C 
ATOM     12  C26 ZIN A   1      19.429  -1.527   8.484  0.00  0.00     0.012 C 
ATOM     13  C27 ZIN A   1      19.623  -0.257   9.314  0.00  0.00    -0.036 C 
ATOM     14  C28 ZIN A   1      21.064  -0.195   9.824  0.00  0.00     0.016 C 
ATOM     15  C29 ZIN A   1      18.680  -0.282  10.517  0.00  0.00     0.001 C 
ATOM     16  C31 ZIN A   1      18.937  -1.530  11.355  0.00  0.00     0.038 C 
ATOM     17  C32 ZIN A   1      18.073  -1.539  12.627  0.00  0.00     0.127 C 
ATOM     18  C35 ZIN A   1      18.320  -0.261  13.397  0.00  0.00    -0.010 C 
ATOM     19  C36 ZIN A   1      19.817  -0.104  13.670  0.00  0.00     0.018 C 
ENDROOT
BRANCH   1  20
ATOM     20  C2  ZIN A   1      18.318  -0.556  15.887  0.00  0.00    -0.013 C 
ATOM     21  C1  ZIN A   1      17.918  -2.006  16.160  0.00  0.00     0.010 C 
BRANCH  20  22
ATOM     22  C4  ZIN A   1      18.003   0.300  17.114  0.00  0.00     0.015 C 
BRANCH  22  23
ATOM     23  C5  ZIN A   1      19.291   0.559  17.899  0.00  0.00     0.113 C 
BRANCH  23  24
ATOM     24  C6  ZIN A   1      19.539   2.044  17.980  0.00  0.00     0.172 C 
ATOM     25  O7  ZIN A   1      19.733   2.687  16.962  0.00  0.00    -0.648 OA
ATOM     26  O8  ZIN A   1      19.547   2.603  19.064  0.00  0.00    -0.648 OA
ENDBRANCH  23  24
ENDBRANCH  22  23
ENDBRANCH  20  22
ENDBRANCH   1  20
BRANCH  17  27
ATOM     27  O34 ZIN A   1      16.688  -1.566  12.273  0.00  0.00    -0.395 OA
ATOM     28  H64 ZIN A   1      16.156  -2.169  12.810  0.00  0.00     0.210 HD
ENDBRANCH  17  27
BRANCH  10  29
ATOM     29  O24 ZIN A   1      16.355  -0.420   6.629  0.00  0.00    -0.396 OA
ATOM     30  H54 ZIN A   1      16.139  -1.237   6.159  0.00  0.00     0.210 HD
ENDBRANCH  10  29
TORSDOF 6
ENDMDL
MODEL 6
REMARK VINA RESULT:      -7.5      1.577      7.703
REMARK  6 active torsions:
REMARK  status: ('A' for Active; 'I' for Inactive)
REMARK    1  A    between atoms: C2_2  and  C4_3 
REMARK    2  A    between atoms: C2_2  and  C9_8 
REMARK    3  A    between atoms: C4_3  and  C5_4 
REMARK    4  A    between atoms: C5_4  and  C6_5 
REMARK    5  A    between atoms: C22_17  and  O24_18 
REMARK    6  A    between atoms: C32_25  and  O34_26 
ROOT
ATOM      1  C9  ZIN A   1      17.854  -3.758   9.487  0.00  0.00     0.000 C 
ATOM      2  C11 ZIN A   1      17.055  -4.289  10.704  0.00  0.00     0.006 C 
ATOM      3  C12 ZIN A   1      17.311  -3.290  11.865  0.00  0.00     0.006 C 
ATOM      4  C13 ZIN A   1      17.685  -1.998  11.129  0.00  0.00     0.001 C 
ATOM      5  C15 ZIN A   1      18.482  -0.987  11.932  0.00  0.00    -0.005 C 
ATOM      6  C17 ZIN A   1      17.663  -0.487  13.122  0.00  0.00     0.006 C 
ATOM      7  C18 ZIN A   1      18.469   0.563  13.889  0.00  0.00     0.006 C 
ATOM      8  C19 ZIN A   1      18.789   1.738  12.964  0.00  0.00    -0.004 C 
ATOM      9  C21 ZIN A   1      17.484   2.366  12.469  0.00  0.00     0.037 C 
ATOM     10  C22 ZIN A   1      17.804   3.543  11.545  0.00  0.00     0.118 C 
ATOM     11  C25 ZIN A   1      18.616   3.047  10.348  0.00  0.00     0.032 C 
ATOM     12  C26 ZIN A   1      19.920   2.418  10.843  0.00  0.00     0.012 C 
ATOM     13  C27 ZIN A   1      19.601   1.240  11.765  0.00  0.00    -0.036 C 
ATOM     14  C28 ZIN A   1      20.904   0.611  12.260  0.00  0.00     0.016 C 
ATOM     15  C29 ZIN A   1      18.810   0.184  10.993  0.00  0.00     0.001 C 
ATOM     16  C31 ZIN A   1      19.605  -0.274   9.775  0.00  0.00     0.038 C 
ATOM     17  C32 ZIN A   1      18.883  -1.408   9.028  0.00  0.00     0.127 C 
ATOM     18  C35 ZIN A   1      18.606  -2.535   9.999  0.00  0.00    -0.010 C 
ATOM     19  C36 ZIN A   1      19.910  -2.971  10.669  0.00  0.00     0.018 C 
ENDROOT
BRANCH   1  20
ATOM     20  C2  ZIN A   1      18.840  -4.821   8.996  0.00  0.00    -0.013 C 
ATOM     21  C1  ZIN A   1      19.004  -4.702   7.480  0.00  0.00     0.010 C 
BRANCH  20  22
ATOM     22  C4  ZIN A   1      18.307  -6.211   9.345  0.00  0.00     0.015 C 
BRANCH  22  23
ATOM     23  C5  ZIN A   1      17.923  -6.947   8.059  0.00  0.00     0.113 C 
BRANCH  23  24
ATOM     24  C6  ZIN A   1      16.486  -7.395   8.146  0.00  0.00     0.172 C 
ATOM     25  O7  ZIN A   1      15.613  -6.593   8.433  0.00  0.00    -0.648 OA
ATOM     26  O8  ZIN A   1      16.196  -8.560   7.930  0.00  0.00    -0.648 OA
ENDBRANCH  23  24
ENDBRANCH  22  23
ENDBRANCH  20  22
ENDBRANCH   1  20
BRANCH  17  27
ATOM     27  O34 ZIN A   1      17.622  -0.943   8.540  0.00  0.00    -0.395 OA
ATOM     28  H64 ZIN A   1      17.552   0.020   8.486  0.00  0.00     0.210 HD
ENDBRANCH  17  27
BRANCH  10  29
ATOM     29  O24 ZIN A   1      16.585   4.131  11.083  0.00  0.00    -0.396 OA
ATOM     30  H54 ZIN A   1      15.802   3.849  11.575  0.00  0.00     0.210 HD
ENDBRANCH  10  29
TORSDOF 6
ENDMDL
MODEL 7
REMARK VINA RESULT:      -7.3      2.673      3.496
REMARK  6 active torsions:
REMARK  status: ('A' for Active; 'I' for Inactive)
REMARK    1  A    between atoms: C2_2  and  C4_3 
REMARK    2  A    between atoms: C2_2  and  C9_8 
REMARK    3  A    between atoms: C4_3  and  C5_4 
REMARK    4  A    between atoms: C5_4  and  C6_5 
REMARK    5  A    between atoms: C22_17  and  O24_18 
REMARK    6  A    between atoms: C32_25  and  O34_26 
ROOT
ATOM      1  C9  ZIN A   1      18.614  -1.095  12.194  0.00  0.00     0.000 C 
ATOM      2  C11 ZIN A   1      19.038   0.037  11.225  0.00  0.00     0.006 C 
ATOM      3  C12 ZIN A   1      19.474  -0.656   9.906  0.00  0.00     0.006 C 
ATOM      4  C13 ZIN A   1      18.725  -1.993   9.957  0.00  0.00     0.001 C 
ATOM      5  C15 ZIN A   1      19.304  -3.109   9.108  0.00  0.00    -0.005 C 
ATOM      6  C17 ZIN A   1      19.252  -2.735   7.627  0.00  0.00     0.006 C 
ATOM      7  C18 ZIN A   1      19.799  -3.893   6.791  0.00  0.00     0.006 C 
ATOM      8  C19 ZIN A   1      18.950  -5.142   7.029  0.00  0.00    -0.004 C 
ATOM      9  C21 ZIN A   1      17.503  -4.861   6.615  0.00  0.00     0.037 C 
ATOM     10  C22 ZIN A   1      16.654  -6.111   6.851  0.00  0.00     0.118 C 
ATOM     11  C25 ZIN A   1      16.696  -6.485   8.334  0.00  0.00     0.032 C 
ATOM     12  C26 ZIN A   1      18.143  -6.765   8.748  0.00  0.00     0.012 C 
ATOM     13  C27 ZIN A   1      18.992  -5.515   8.513  0.00  0.00    -0.036 C 
ATOM     14  C28 ZIN A   1      20.437  -5.795   8.926  0.00  0.00     0.016 C 
ATOM     15  C29 ZIN A   1      18.454  -4.364   9.362  0.00  0.00     0.001 C 
ATOM     16  C31 ZIN A   1      18.456  -4.758  10.836  0.00  0.00     0.038 C 
ATOM     17  C32 ZIN A   1      18.013  -3.588  11.730  0.00  0.00     0.127 C 
ATOM     18  C35 ZIN A   1      18.897  -2.394  11.448  0.00  0.00    -0.010 C 
ATOM     19  C36 ZIN A   1      20.365  -2.785  11.626  0.00  0.00     0.018 C 
ENDROOT
BRANCH   1  20
ATOM     20  C2  ZIN A   1      19.443  -1.030  13.479  0.00  0.00    -0.013 C 
ATOM     21  C1  ZIN A   1      18.646  -1.645  14.631  0.00  0.00     0.010 C 
BRANCH  20  22
ATOM     22  C4  ZIN A   1      19.765   0.429  13.805  0.00  0.00     0.015 C 
BRANCH  22  23
ATOM     23  C5  ZIN A   1      18.599   1.049  14.579  0.00  0.00     0.113 C 
BRANCH  23  24
ATOM     24  C6  ZIN A   1      19.129   1.766  15.795  0.00  0.00     0.172 C 
ATOM     25  O7  ZIN A   1      19.383   2.957  15.738  0.00  0.00    -0.648 OA
ATOM     26  O8  ZIN A   1      19.302   1.155  16.836  0.00  0.00    -0.648 OA
ENDBRANCH  23  24
ENDBRANCH  22  23
ENDBRANCH  20  22
ENDBRANCH   1  20
BRANCH  17  27
ATOM     27  O34 ZIN A   1      16.671  -3.213  11.411  0.00  0.00    -0.395 OA
ATOM     28  H64 ZIN A   1      16.261  -3.761  10.727  0.00  0.00     0.210 HD
ENDBRANCH  17  27
BRANCH  10  29
ATOM     29  O24 ZIN A   1      15.303  -5.849   6.465  0.00  0.00    -0.396 OA
ATOM     30  H54 ZIN A   1      15.169  -4.978   6.069  0.00  0.00     0.210 HD
ENDBRANCH  10  29
TORSDOF 6
ENDMDL
MODEL 8
REMARK VINA RESULT:      -7.3      3.105      8.408
REMARK  6 active torsions:
REMARK  status: ('A' for Active; 'I' for Inactive)
REMARK    1  A    between atoms: C2_2  and  C4_3 
REMARK    2  A    between atoms: C2_2  and  C9_8 
REMARK    3  A    between atoms: C4_3  and  C5_4 
REMARK    4  A    between atoms: C5_4  and  C6_5 
REMARK    5  A    between atoms: C22_17  and  O24_18 
REMARK    6  A    between atoms: C32_25  and  O34_26 
ROOT
ATOM      1  C9  ZIN A   1      18.334   1.714  10.523  0.00  0.00     0.000 C 
ATOM      2  C11 ZIN A   1      18.449   0.452  11.414  0.00  0.00     0.006 C 
ATOM      3  C12 ZIN A   1      18.783   0.956  12.845  0.00  0.00     0.006 C 
ATOM      4  C13 ZIN A   1      18.245   2.391  12.837  0.00  0.00     0.001 C 
ATOM      5  C15 ZIN A   1      18.846   3.329  13.868  0.00  0.00    -0.005 C 
ATOM      6  C17 ZIN A   1      18.528   2.843  15.282  0.00  0.00     0.006 C 
ATOM      7  C18 ZIN A   1      19.106   3.828  16.300  0.00  0.00     0.006 C 
ATOM      8  C19 ZIN A   1      18.485   5.208  16.086  0.00  0.00    -0.004 C 
ATOM      9  C21 ZIN A   1      16.968   5.119  16.275  0.00  0.00     0.037 C 
ATOM     10  C22 ZIN A   1      16.346   6.501  16.063  0.00  0.00     0.118 C 
ATOM     11  C25 ZIN A   1      16.655   6.988  14.647  0.00  0.00     0.032 C 
ATOM     12  C26 ZIN A   1      18.171   7.076  14.457  0.00  0.00     0.012 C 
ATOM     13  C27 ZIN A   1      18.792   5.695  14.668  0.00  0.00    -0.036 C 
ATOM     14  C28 ZIN A   1      20.308   5.783  14.478  0.00  0.00     0.016 C 
ATOM     15  C29 ZIN A   1      18.227   4.716  13.639  0.00  0.00     0.001 C 
ATOM     16  C31 ZIN A   1      18.497   5.230  12.228  0.00  0.00     0.038 C 
ATOM     17  C32 ZIN A   1      18.028   4.222  11.165  0.00  0.00     0.127 C 
ATOM     18  C35 ZIN A   1      18.686   2.886  11.433  0.00  0.00    -0.010 C 
ATOM     19  C36 ZIN A   1      20.205   3.061  11.490  0.00  0.00     0.018 C 
ENDROOT
BRANCH   1  20
ATOM     20  C2  ZIN A   1      19.322   1.632   9.357  0.00  0.00    -0.013 C 
ATOM     21  C1  ZIN A   1      18.757   2.391   8.156  0.00  0.00     0.010 C 
BRANCH  20  22
ATOM     22  C4  ZIN A   1      19.542   0.167   8.978  0.00  0.00     0.015 C 
BRANCH  22  23
ATOM     23  C5  ZIN A   1      18.932  -0.101   7.600  0.00  0.00     0.113 C 
BRANCH  23  24
ATOM     24  C6  ZIN A   1      19.283  -1.498   7.158  0.00  0.00     0.172 C 
ATOM     25  O7  ZIN A   1      19.241  -2.419   7.957  0.00  0.00    -0.648 OA
ATOM     26  O8  ZIN A   1      19.609  -1.709   6.002  0.00  0.00    -0.648 OA
ENDBRANCH  23  24
ENDBRANCH  22  23
ENDBRANCH  20  22
ENDBRANCH   1  20
BRANCH  17  27
ATOM     27  O34 ZIN A   1      16.615   4.032  11.265  0.00  0.00    -0.395 OA
ATOM     28  H64 ZIN A   1      16.313   3.786  12.150  0.00  0.00     0.210 HD
ENDBRANCH  17  27
BRANCH  10  29
ATOM     29  O24 ZIN A   1      14.930   6.418  16.240  0.00  0.00    -0.396 OA
ATOM     30  H54 ZIN A   1      14.589   6.979  16.950  0.00  0.00     0.210 HD
ENDBRANCH  10  29
TORSDOF 6
ENDMDL
MODEL 9
REMARK VINA RESULT:      -7.3      2.527      3.652
REMARK  6 active torsions:
REMARK  status: ('A' for Active; 'I' for Inactive)
REMARK    1  A    between atoms: C2_2  and  C4_3 
REMARK    2  A    between atoms: C2_2  and  C9_8 
REMARK    3  A    between atoms: C4_3  and  C5_4 
REMARK    4  A    between atoms: C5_4  and  C6_5 
REMARK    5  A    between atoms: C22_17  and  O24_18 
REMARK    6  A    between atoms: C32_25  and  O34_26 
ROOT
ATOM      1  C9  ZIN A   1      17.749   3.806  13.228  0.00  0.00     0.000 C 
ATOM      2  C11 ZIN A   1      17.048   4.379  11.970  0.00  0.00     0.006 C 
ATOM      3  C12 ZIN A   1      17.387   3.414  10.802  0.00  0.00     0.006 C 
ATOM      4  C13 ZIN A   1      17.699   2.098  11.524  0.00  0.00     0.001 C 
ATOM      5  C15 ZIN A   1      18.550   1.105  10.754  0.00  0.00    -0.005 C 
ATOM      6  C17 ZIN A   1      17.822   0.648   9.490  0.00  0.00     0.006 C 
ATOM      7  C18 ZIN A   1      18.680  -0.384   8.755  0.00  0.00     0.006 C 
ATOM      8  C19 ZIN A   1      18.923  -1.589   9.665  0.00  0.00    -0.004 C 
ATOM      9  C21 ZIN A   1      17.581  -2.223  10.040  0.00  0.00     0.037 C 
ATOM     10  C22 ZIN A   1      17.825  -3.429  10.949  0.00  0.00     0.118 C 
ATOM     11  C25 ZIN A   1      18.545  -2.975  12.219  0.00  0.00     0.032 C 
ATOM     12  C26 ZIN A   1      19.886  -2.340  11.845  0.00  0.00     0.012 C 
ATOM     13  C27 ZIN A   1      19.643  -1.133  10.937  0.00  0.00    -0.036 C 
ATOM     14  C28 ZIN A   1      20.983  -0.498  10.563  0.00  0.00     0.016 C 
ATOM     15  C29 ZIN A   1      18.801  -0.096  11.679  0.00  0.00     0.001 C 
ATOM     16  C31 ZIN A   1      19.502   0.321  12.968  0.00  0.00     0.038 C 
ATOM     17  C32 ZIN A   1      18.729   1.436  13.692  0.00  0.00     0.127 C 
ATOM     18  C35 ZIN A   1      18.533   2.594  12.738  0.00  0.00    -0.010 C 
ATOM     19  C36 ZIN A   1      19.886   3.041  12.183  0.00  0.00     0.018 C 
ENDROOT
BRANCH   1  20
ATOM     20  C2  ZIN A   1      18.699   4.847  13.825  0.00  0.00    -0.013 C 
ATOM     21  C1  ZIN A   1      19.053   4.450  15.259  0.00  0.00     0.010 C 
BRANCH  20  22
ATOM     22  C4  ZIN A   1      18.019   6.216  13.828  0.00  0.00     0.015 C 
BRANCH  22  23
ATOM     23  C5  ZIN A   1      17.518   6.534  15.238  0.00  0.00     0.113 C 
BRANCH  23  24
ATOM     24  C6  ZIN A   1      17.990   7.907  15.641  0.00  0.00     0.172 C 
ATOM     25  O7  ZIN A   1      18.111   8.189  16.822  0.00  0.00    -0.648 OA
ATOM     26  O8  ZIN A   1      18.252   8.738  14.787  0.00  0.00    -0.648 OA
ENDBRANCH  23  24
ENDBRANCH  22  23
ENDBRANCH  20  22
ENDBRANCH   1  20
BRANCH  17  27
ATOM     27  O34 ZIN A   1      17.433   0.965  14.067  0.00  0.00    -0.395 OA
ATOM     28  H64 ZIN A   1      16.720   1.274  13.492  0.00  0.00     0.210 HD
ENDBRANCH  17  27
BRANCH  10  29
ATOM     29  O24 ZIN A   1      16.571  -4.023  11.298  0.00  0.00    -0.396 OA
ATOM     30  H54 ZIN A   1      16.653  -4.861  11.773  0.00  0.00     0.210 HD
ENDBRANCH  10  29
TORSDOF 6
ENDMDL
