MODEL 1
REMARK VINA RESULT:      -6.8      0.000      0.000
REMARK  1 active torsions:
REMARK  status: ('A' for Active; 'I' for Inactive)
REMARK    1  A    between atoms: C6_6  and  C8_8 
ROOT
ATOM      1  C1  <0> d   1      19.384  -2.060  12.032  0.00  0.00     0.162 C 
ATOM      2  N2  <0> d   1      18.775  -0.937  11.314  0.00  0.00    -0.292 N 
ATOM      3  C3  <0> d   1      17.506  -0.559  11.505  0.00  0.00     0.227 A 
ATOM      4  O4  <0> d   1      16.725  -1.081  12.271  0.00  0.00    -0.273 OA
ATOM      5  C5  <0> d   1      17.199   0.624  10.612  0.00  0.00     0.127 A 
ATOM      6  C6  <0> d   1      18.526   0.866   9.864  0.00  0.00     0.073 A 
ATOM      7  C7  <0> d   1      19.076   2.258  10.180  0.00  0.00     0.031 C 
ATOM      8  C14 <0> d   1      19.444  -0.203  10.418  0.00  0.00     0.239 A 
ATOM      9  O15 <0> d   1      20.601  -0.370  10.095  0.00  0.00    -0.272 OA
ENDROOT
BRANCH   6  10
ATOM     10  C8  <0> d   1      18.337   0.696   8.379  0.00  0.00    -0.040 A 
ATOM     11  C13 <0> d   1      19.185   1.340   7.497  0.00  0.00     0.008 A 
ATOM     12  C12 <0> d   1      19.015   1.181   6.133  0.00  0.00     0.001 A 
ATOM     13  C11 <0> d   1      17.991   0.386   5.653  0.00  0.00     0.000 A 
ATOM     14  C10 <0> d   1      17.140  -0.253   6.536  0.00  0.00     0.001 A 
ATOM     15  C9  <0> d   1      17.313  -0.098   7.899  0.00  0.00     0.008 A 
ENDBRANCH   6  10
TORSDOF 1
ENDMDL
MODEL 2
REMARK VINA RESULT:      -6.6      3.663      6.338
REMARK  1 active torsions:
REMARK  status: ('A' for Active; 'I' for Inactive)
REMARK    1  A    between atoms: C6_6  and  C8_8 
ROOT
ATOM      1  C1  <0> d   1      19.862   2.850  11.459  0.00  0.00     0.162 C 
ATOM      2  N2  <0> d   1      19.034   1.740  11.939  0.00  0.00    -0.292 N 
ATOM      3  C3  <0> d   1      17.707   1.702  11.772  0.00  0.00     0.227 A 
ATOM      4  O4  <0> d   1      17.043   2.554  11.220  0.00  0.00    -0.273 OA
ATOM      5  C5  <0> d   1      17.165   0.427  12.382  0.00  0.00     0.127 A 
ATOM      6  C6  <0> d   1      18.423  -0.272  12.936  0.00  0.00     0.073 A 
ATOM      7  C7  <0> d   1      18.631  -1.625  12.254  0.00  0.00     0.031 C 
ATOM      8  C14 <0> d   1      19.544   0.679  12.576  0.00  0.00     0.239 A 
ATOM      9  O15 <0> d   1      20.717   0.510  12.830  0.00  0.00    -0.272 OA
ENDROOT
BRANCH   6  10
ATOM     10  C8  <0> d   1      18.321  -0.442  14.430  0.00  0.00    -0.040 A 
ATOM     11  C13 <0> d   1      19.087  -1.399  15.069  0.00  0.00     0.008 A 
ATOM     12  C12 <0> d   1      18.996  -1.553  16.441  0.00  0.00     0.001 A 
ATOM     13  C11 <0> d   1      18.134  -0.756  17.170  0.00  0.00     0.000 A 
ATOM     14  C10 <0> d   1      17.365   0.197  16.529  0.00  0.00     0.001 A 
ATOM     15  C9  <0> d   1      17.458   0.354  15.159  0.00  0.00     0.008 A 
ENDBRANCH   6  10
TORSDOF 1
ENDMDL
MODEL 3
REMARK VINA RESULT:      -6.6      1.753      3.021
REMARK  1 active torsions:
REMARK  status: ('A' for Active; 'I' for Inactive)
REMARK    1  A    between atoms: C6_6  and  C8_8 
ROOT
ATOM      1  C1  <0> d   1      19.871   3.358  11.971  0.00  0.00     0.162 C 
ATOM      2  N2  <0> d   1      19.400   2.121  11.344  0.00  0.00    -0.292 N 
ATOM      3  C3  <0> d   1      20.055   0.959  11.451  0.00  0.00     0.227 A 
ATOM      4  O4  <0> d   1      21.090   0.789  12.061  0.00  0.00    -0.273 OA
ATOM      5  C5  <0> d   1      19.301  -0.110  10.689  0.00  0.00     0.127 A 
ATOM      6  C6  <0> d   1      18.083   0.643  10.118  0.00  0.00     0.073 A 
ATOM      7  C7  <0> d   1      16.781   0.054  10.664  0.00  0.00     0.031 C 
ATOM      8  C14 <0> d   1      18.275   2.058  10.622  0.00  0.00     0.239 A 
ATOM      9  O15 <0> d   1      17.530   2.989  10.400  0.00  0.00    -0.272 OA
ENDROOT
BRANCH   6  10
ATOM     10  C8  <0> d   1      18.093   0.602   8.612  0.00  0.00    -0.040 A 
ATOM     11  C13 <0> d   1      17.160  -0.162   7.936  0.00  0.00     0.008 A 
ATOM     12  C12 <0> d   1      17.165  -0.197   6.554  0.00  0.00     0.001 A 
ATOM     13  C11 <0> d   1      18.109   0.526   5.848  0.00  0.00     0.000 A 
ATOM     14  C10 <0> d   1      19.044   1.287   6.525  0.00  0.00     0.001 A 
ATOM     15  C9  <0> d   1      19.036   1.325   7.907  0.00  0.00     0.008 A 
ENDBRANCH   6  10
TORSDOF 1
ENDMDL
MODEL 4
REMARK VINA RESULT:      -6.4      3.222      6.123
REMARK  1 active torsions:
REMARK  status: ('A' for Active; 'I' for Inactive)
REMARK    1  A    between atoms: C6_6  and  C8_8 
ROOT
ATOM      1  C1  <0> d   1      19.137  -2.494  10.180  0.00  0.00     0.162 C 
ATOM      2  N2  <0> d   1      19.122  -1.384  11.137  0.00  0.00    -0.292 N 
ATOM      3  C3  <0> d   1      20.172  -0.575  11.324  0.00  0.00     0.227 A 
ATOM      4  O4  <0> d   1      21.233  -0.656  10.744  0.00  0.00    -0.273 OA
ATOM      5  C5  <0> d   1      19.823   0.457  12.375  0.00  0.00     0.127 A 
ATOM      6  C6  <0> d   1      18.375   0.100  12.766  0.00  0.00     0.073 A 
ATOM      7  C7  <0> d   1      17.430   1.261  12.451  0.00  0.00     0.031 C 
ATOM      8  C14 <0> d   1      18.055  -1.093  11.891  0.00  0.00     0.239 A 
ATOM      9  O15 <0> d   1      17.002  -1.693  11.880  0.00  0.00    -0.272 OA
ENDROOT
BRANCH   6  10
ATOM     10  C8  <0> d   1      18.294  -0.266  14.226  0.00  0.00    -0.040 A 
ATOM     11  C13 <0> d   1      19.130  -1.240  14.740  0.00  0.00     0.008 A 
ATOM     12  C12 <0> d   1      19.059  -1.574  16.081  0.00  0.00     0.001 A 
ATOM     13  C11 <0> d   1      18.146  -0.939  16.903  0.00  0.00     0.000 A 
ATOM     14  C10 <0> d   1      17.309   0.031  16.387  0.00  0.00     0.001 A 
ATOM     15  C9  <0> d   1      17.382   0.368  15.048  0.00  0.00     0.008 A 
ENDBRANCH   6  10
TORSDOF 1
ENDMDL
MODEL 5
REMARK VINA RESULT:      -6.2      1.694      2.823
REMARK  1 active torsions:
REMARK  status: ('A' for Active; 'I' for Inactive)
REMARK    1  A    between atoms: C6_6  and  C8_8 
ROOT
ATOM      1  C1  <0> d   1      17.519   0.919  13.961  0.00  0.00     0.162 C 
ATOM      2  N2  <0> d   1      18.099   0.175  12.840  0.00  0.00    -0.292 N 
ATOM      3  C3  <0> d   1      19.384  -0.196  12.804  0.00  0.00     0.227 A 
ATOM      4  O4  <0> d   1      20.205   0.029  13.668  0.00  0.00    -0.273 OA
ATOM      5  C5  <0> d   1      19.651  -0.941  11.514  0.00  0.00     0.127 A 
ATOM      6  C6  <0> d   1      18.283  -0.936  10.803  0.00  0.00     0.073 A 
ATOM      7  C7  <0> d   1      17.777  -2.365  10.597  0.00  0.00     0.031 C 
ATOM      8  C14 <0> d   1      17.385  -0.193  11.769  0.00  0.00     0.239 A 
ATOM      9  O15 <0> d   1      16.207   0.038  11.597  0.00  0.00    -0.272 OA
ENDROOT
BRANCH   6  10
ATOM     10  C8  <0> d   1      18.372  -0.211   9.485  0.00  0.00    -0.040 A 
ATOM     11  C13 <0> d   1      19.202   0.887   9.356  0.00  0.00     0.008 A 
ATOM     12  C12 <0> d   1      19.288   1.550   8.145  0.00  0.00     0.001 A 
ATOM     13  C11 <0> d   1      18.536   1.120   7.068  0.00  0.00     0.000 A 
ATOM     14  C10 <0> d   1      17.703   0.025   7.199  0.00  0.00     0.001 A 
ATOM     15  C9  <0> d   1      17.621  -0.641   8.408  0.00  0.00     0.008 A 
ENDBRANCH   6  10
TORSDOF 1
ENDMDL
MODEL 6
REMARK VINA RESULT:      -6.1      1.074      1.662
REMARK  1 active torsions:
REMARK  status: ('A' for Active; 'I' for Inactive)
REMARK    1  A    between atoms: C6_6  and  C8_8 
ROOT
ATOM      1  C1  <0> d   1      19.984  -3.141  11.564  0.00  0.00     0.162 C 
ATOM      2  N2  <0> d   1      19.110  -2.044  11.138  0.00  0.00    -0.292 N 
ATOM      3  C3  <0> d   1      17.775  -2.122  11.184  0.00  0.00     0.227 A 
ATOM      4  O4  <0> d   1      17.140  -3.080  11.572  0.00  0.00    -0.273 OA
ATOM      5  C5  <0> d   1      17.183  -0.825  10.676  0.00  0.00     0.127 A 
ATOM      6  C6  <0> d   1      18.420   0.025  10.325  0.00  0.00     0.073 A 
ATOM      7  C7  <0> d   1      18.458   1.297  11.174  0.00  0.00     0.031 C 
ATOM      8  C14 <0> d   1      19.582  -0.880  10.677  0.00  0.00     0.239 A 
ATOM      9  O15 <0> d   1      20.755  -0.596  10.554  0.00  0.00    -0.272 OA
ENDROOT
BRANCH   6  10
ATOM     10  C8  <0> d   1      18.430   0.367   8.858  0.00  0.00    -0.040 A 
ATOM     11  C13 <0> d   1      17.654  -0.359   7.974  0.00  0.00     0.008 A 
ATOM     12  C12 <0> d   1      17.659  -0.043   6.628  0.00  0.00     0.001 A 
ATOM     13  C11 <0> d   1      18.448   0.994   6.165  0.00  0.00     0.000 A 
ATOM     14  C10 <0> d   1      19.228   1.717   7.049  0.00  0.00     0.001 A 
ATOM     15  C9  <0> d   1      19.219   1.403   8.395  0.00  0.00     0.008 A 
ENDBRANCH   6  10
TORSDOF 1
ENDMDL
MODEL 7
REMARK VINA RESULT:      -6.1      1.767      2.415
REMARK  1 active torsions:
REMARK  status: ('A' for Active; 'I' for Inactive)
REMARK    1  A    between atoms: C6_6  and  C8_8 
ROOT
ATOM      1  C1  <0> d   1      19.618  -0.760  14.152  0.00  0.00     0.162 C 
ATOM      2  N2  <0> d   1      19.129   0.289  13.253  0.00  0.00    -0.292 N 
ATOM      3  C3  <0> d   1      17.948   0.894  13.421  0.00  0.00     0.227 A 
ATOM      4  O4  <0> d   1      17.158   0.658  14.311  0.00  0.00    -0.273 OA
ATOM      5  C5  <0> d   1      17.753   1.919  12.325  0.00  0.00     0.127 A 
ATOM      6  C6  <0> d   1      19.041   1.800  11.486  0.00  0.00     0.073 A 
ATOM      7  C7  <0> d   1      19.813   3.121  11.494  0.00  0.00     0.031 C 
ATOM      8  C14 <0> d   1      19.831   0.724  12.200  0.00  0.00     0.239 A 
ATOM      9  O15 <0> d   1      20.922   0.316  11.866  0.00  0.00    -0.272 OA
ENDROOT
BRANCH   6  10
ATOM     10  C8  <0> d   1      18.718   1.384  10.074  0.00  0.00    -0.040 A 
ATOM     11  C13 <0> d   1      17.892   0.300   9.846  0.00  0.00     0.008 A 
ATOM     12  C12 <0> d   1      17.592  -0.080   8.550  0.00  0.00     0.001 A 
ATOM     13  C11 <0> d   1      18.125   0.620   7.484  0.00  0.00     0.000 A 
ATOM     14  C10 <0> d   1      18.955   1.702   7.714  0.00  0.00     0.001 A 
ATOM     15  C9  <0> d   1      19.251   2.084   9.008  0.00  0.00     0.008 A 
ENDBRANCH   6  10
TORSDOF 1
ENDMDL
MODEL 8
REMARK VINA RESULT:      -6.0      2.614      4.771
REMARK  1 active torsions:
REMARK  status: ('A' for Active; 'I' for Inactive)
REMARK    1  A    between atoms: C6_6  and  C8_8 
ROOT
ATOM      1  C1  <0> d   1      19.714  -3.300   6.295  0.00  0.00     0.162 C 
ATOM      2  N2  <0> d   1      19.086  -1.977   6.343  0.00  0.00    -0.292 N 
ATOM      3  C3  <0> d   1      19.352  -1.016   5.449  0.00  0.00     0.227 A 
ATOM      4  O4  <0> d   1      20.121  -1.117   4.517  0.00  0.00    -0.273 OA
ATOM      5  C5  <0> d   1      18.540   0.216   5.787  0.00  0.00     0.127 A 
ATOM      6  C6  <0> d   1      17.751  -0.204   7.044  0.00  0.00     0.073 A 
ATOM      7  C7  <0> d   1      16.246  -0.152   6.777  0.00  0.00     0.031 C 
ATOM      8  C14 <0> d   1      18.196  -1.631   7.281  0.00  0.00     0.239 A 
ATOM      9  O15 <0> d   1      17.812  -2.346   8.182  0.00  0.00    -0.272 OA
ENDROOT
BRANCH   6  10
ATOM     10  C8  <0> d   1      18.112   0.674   8.214  0.00  0.00    -0.040 A 
ATOM     11  C13 <0> d   1      17.470   0.505   9.427  0.00  0.00     0.008 A 
ATOM     12  C12 <0> d   1      17.804   1.308  10.503  0.00  0.00     0.001 A 
ATOM     13  C11 <0> d   1      18.772   2.284  10.362  0.00  0.00     0.000 A 
ATOM     14  C10 <0> d   1      19.410   2.455   9.147  0.00  0.00     0.001 A 
ATOM     15  C9  <0> d   1      19.080   1.650   8.073  0.00  0.00     0.008 A 
ENDBRANCH   6  10
TORSDOF 1
ENDMDL
MODEL 9
REMARK VINA RESULT:      -5.9      2.607      3.937
REMARK  1 active torsions:
REMARK  status: ('A' for Active; 'I' for Inactive)
REMARK    1  A    between atoms: C6_6  and  C8_8 
ROOT
ATOM      1  C1  <0> d   1      17.217   4.332  12.706  0.00  0.00     0.162 C 
ATOM      2  N2  <0> d   1      18.280   3.467  12.186  0.00  0.00    -0.292 N 
ATOM      3  C3  <0> d   1      19.544   3.882  12.040  0.00  0.00     0.227 A 
ATOM      4  O4  <0> d   1      19.955   4.990  12.311  0.00  0.00    -0.273 OA
ATOM      5  C5  <0> d   1      20.378   2.749  11.483  0.00  0.00     0.127 A 
ATOM      6  C6  <0> d   1      19.366   1.595  11.331  0.00  0.00     0.073 A 
ATOM      7  C7  <0> d   1      19.769   0.407  12.206  0.00  0.00     0.031 C 
ATOM      8  C14 <0> d   1      18.067   2.197  11.824  0.00  0.00     0.239 A 
ATOM      9  O15 <0> d   1      17.002   1.620  11.876  0.00  0.00    -0.272 OA
ENDROOT
BRANCH   6  10
ATOM     10  C8  <0> d   1      19.252   1.176   9.889  0.00  0.00    -0.040 A 
ATOM     11  C13 <0> d   1      19.355  -0.160   9.548  0.00  0.00     0.008 A 
ATOM     12  C12 <0> d   1      19.246  -0.546   8.224  0.00  0.00     0.001 A 
ATOM     13  C11 <0> d   1      19.042   0.405   7.242  0.00  0.00     0.000 A 
ATOM     14  C10 <0> d   1      18.943   1.741   7.583  0.00  0.00     0.001 A 
ATOM     15  C9  <0> d   1      19.048   2.126   8.906  0.00  0.00     0.008 A 
ENDBRANCH   6  10
TORSDOF 1
ENDMDL
