MODEL 1
REMARK VINA RESULT:      -5.1      0.000      0.000
REMARK  3 active torsions:
REMARK  status: ('A' for Active; 'I' for Inactive)
REMARK    1  A    between atoms: N2_2  and  C5_5 
REMARK    2  A    between atoms: C5_5  and  C8_7 
REMARK    3  A    between atoms: C8_7  and  C9_8 
ROOT
ATOM      1  C8  <0> d   1      18.384   1.850  11.100  0.00  0.00     0.037 C 
ENDROOT
BRANCH   1   2
ATOM      2  C5  <0> d   1      19.664   2.682  11.202  0.00  0.00     0.181 C 
ATOM      3  C7  <0> d   1      19.358   4.006  11.905  0.00  0.00     0.040 C 
BRANCH   2   4
ATOM      4  N2  <0> d   1      20.671   1.940  11.973  0.00  0.00    -0.075 N 
ATOM      5  C1  <0> d   1      20.091   0.675  12.444  0.00  0.00     0.267 C 
ATOM      6  H3  <0> d   1      20.961   2.492  12.766  0.00  0.00     0.277 HD
ATOM      7  H4  <0> d   1      21.469   1.747  11.387  0.00  0.00     0.277 HD
ENDBRANCH   2   4
ENDBRANCH   1   2
BRANCH   1   8
ATOM      8  C9  <0> d   1      18.060   1.590   9.628  0.00  0.00    -0.013 C 
ATOM      9  C14 <0> d   1      17.620   0.136   9.452  0.00  0.00     0.005 C 
ATOM     10  C13 <0> d   1      17.295  -0.124   7.980  0.00  0.00     0.000 C 
ATOM     11  C12 <0> d   1      18.539   0.139   7.129  0.00  0.00     0.000 C 
ATOM     12  C11 <0> d   1      18.979   1.594   7.305  0.00  0.00     0.000 C 
ATOM     13  C10 <0> d   1      19.304   1.853   8.778  0.00  0.00     0.005 C 
ENDBRANCH   1   8
TORSDOF 3
ENDMDL
MODEL 2
REMARK VINA RESULT:      -5.0      1.264      2.099
REMARK  3 active torsions:
REMARK  status: ('A' for Active; 'I' for Inactive)
REMARK    1  A    between atoms: N2_2  and  C5_5 
REMARK    2  A    between atoms: C5_5  and  C8_7 
REMARK    3  A    between atoms: C8_7  and  C9_8 
ROOT
ATOM      1  C8  <0> d   1      18.135   1.408   9.921  0.00  0.00     0.037 C 
ENDROOT
BRANCH   1   2
ATOM      2  C5  <0> d   1      18.831   2.768   9.980  0.00  0.00     0.181 C 
ATOM      3  C7  <0> d   1      17.846   3.825  10.484  0.00  0.00     0.040 C 
BRANCH   2   4
ATOM      4  N2  <0> d   1      19.978   2.693  10.895  0.00  0.00    -0.075 N 
ATOM      5  C1  <0> d   1      19.607   1.909  12.081  0.00  0.00     0.267 C 
ATOM      6  H3  <0> d   1      20.244   3.623  11.178  0.00  0.00     0.277 HD
ATOM      7  H4  <0> d   1      20.753   2.248  10.427  0.00  0.00     0.277 HD
ENDBRANCH   2   4
ENDBRANCH   1   2
BRANCH   1   8
ATOM      8  C9  <0> d   1      18.481   0.714   8.602  0.00  0.00    -0.013 C 
ATOM      9  C14 <0> d   1      18.856   1.765   7.556  0.00  0.00     0.005 C 
ATOM     10  C13 <0> d   1      19.203   1.071   6.237  0.00  0.00     0.000 C 
ATOM     11  C12 <0> d   1      17.993   0.273   5.747  0.00  0.00     0.000 C 
ATOM     12  C11 <0> d   1      17.617  -0.778   6.793  0.00  0.00     0.000 C 
ATOM     13  C10 <0> d   1      17.271  -0.083   8.112  0.00  0.00     0.005 C 
ENDBRANCH   1   8
TORSDOF 3
ENDMDL
MODEL 3
REMARK VINA RESULT:      -4.9      3.831      6.518
REMARK  3 active torsions:
REMARK  status: ('A' for Active; 'I' for Inactive)
REMARK    1  A    between atoms: N2_2  and  C5_5 
REMARK    2  A    between atoms: C5_5  and  C8_7 
REMARK    3  A    between atoms: C8_7  and  C9_8 
ROOT
ATOM      1  C8  <0> d   1      18.718  -1.138  12.587  0.00  0.00     0.037 C 
ENDROOT
BRANCH   1   2
ATOM      2  C5  <0> d   1      19.533  -2.389  12.255  0.00  0.00     0.181 C 
ATOM      3  C7  <0> d   1      18.595  -3.493  11.762  0.00  0.00     0.040 C 
BRANCH   2   4
ATOM      4  N2  <0> d   1      20.511  -2.072  11.204  0.00  0.00    -0.075 N 
ATOM      5  C1  <0> d   1      20.498  -0.626  10.944  0.00  0.00     0.267 C 
ATOM      6  H3  <0> d   1      20.269  -2.567  10.360  0.00  0.00     0.277 HD
ATOM      7  H4  <0> d   1      21.432  -2.352  11.507  0.00  0.00     0.277 HD
ENDBRANCH   2   4
ENDBRANCH   1   2
BRANCH   1   8
ATOM      8  C9  <0> d   1      18.307  -1.173  14.060  0.00  0.00    -0.013 C 
ATOM      9  C14 <0> d   1      17.770   0.199  14.472  0.00  0.00     0.005 C 
ATOM     10  C13 <0> d   1      17.358   0.164  15.945  0.00  0.00     0.000 C 
ATOM     11  C12 <0> d   1      18.572  -0.189  16.806  0.00  0.00     0.000 C 
ATOM     12  C11 <0> d   1      19.108  -1.561  16.394  0.00  0.00     0.000 C 
ATOM     13  C10 <0> d   1      19.521  -1.525  14.921  0.00  0.00     0.005 C 
ENDBRANCH   1   8
TORSDOF 3
ENDMDL
MODEL 4
REMARK VINA RESULT:      -4.9      2.898      5.490
REMARK  3 active torsions:
REMARK  status: ('A' for Active; 'I' for Inactive)
REMARK    1  A    between atoms: N2_2  and  C5_5 
REMARK    2  A    between atoms: C5_5  and  C8_7 
REMARK    3  A    between atoms: C8_7  and  C9_8 
ROOT
ATOM      1  C8  <0> d   1      18.632  -0.347   7.092  0.00  0.00     0.037 C 
ENDROOT
BRANCH   1   2
ATOM      2  C5  <0> d   1      18.007  -0.012   5.737  0.00  0.00     0.181 C 
ATOM      3  C7  <0> d   1      19.095  -0.002   4.661  0.00  0.00     0.040 C 
BRANCH   2   4
ATOM      4  N2  <0> d   1      16.996  -1.024   5.401  0.00  0.00    -0.075 N 
ATOM      5  C1  <0> d   1      17.497  -1.874   4.313  0.00  0.00     0.267 C 
ATOM      6  H3  <0> d   1      16.148  -0.566   5.105  0.00  0.00     0.277 HD
ATOM      7  H4  <0> d   1      16.807  -1.593   6.212  0.00  0.00     0.277 HD
ENDBRANCH   2   4
ENDBRANCH   1   2
BRANCH   1   8
ATOM      8  C9  <0> d   1      18.167   0.672   8.135  0.00  0.00    -0.013 C 
ATOM      9  C14 <0> d   1      19.245   1.743   8.318  0.00  0.00     0.005 C 
ATOM     10  C13 <0> d   1      18.778   2.762   9.360  0.00  0.00     0.000 C 
ATOM     11  C12 <0> d   1      18.532   2.053  10.692  0.00  0.00     0.000 C 
ATOM     12  C11 <0> d   1      17.455   0.982  10.509  0.00  0.00     0.000 C 
ATOM     13  C10 <0> d   1      17.921  -0.037   9.467  0.00  0.00     0.005 C 
ENDBRANCH   1   8
TORSDOF 3
ENDMDL
MODEL 5
REMARK VINA RESULT:      -4.9      1.713      4.328
REMARK  3 active torsions:
REMARK  status: ('A' for Active; 'I' for Inactive)
REMARK    1  A    between atoms: N2_2  and  C5_5 
REMARK    2  A    between atoms: C5_5  and  C8_7 
REMARK    3  A    between atoms: C8_7  and  C9_8 
ROOT
ATOM      1  C8  <0> d   1      19.179   2.218   9.171  0.00  0.00     0.037 C 
ENDROOT
BRANCH   1   2
ATOM      2  C5  <0> d   1      19.038   0.695   9.149  0.00  0.00     0.181 C 
ATOM      3  C7  <0> d   1      18.490   0.253   7.791  0.00  0.00     0.040 C 
BRANCH   2   4
ATOM      4  N2  <0> d   1      20.353   0.078   9.370  0.00  0.00    -0.075 N 
ATOM      5  C1  <0> d   1      20.391  -0.528  10.708  0.00  0.00     0.267 C 
ATOM      6  H3  <0> d   1      21.071   0.783   9.300  0.00  0.00     0.277 HD
ATOM      7  H4  <0> d   1      20.512  -0.635   8.674  0.00  0.00     0.277 HD
ENDBRANCH   2   4
ENDBRANCH   1   2
BRANCH   1   8
ATOM      8  C9  <0> d   1      18.600   2.765  10.477  0.00  0.00    -0.013 C 
ATOM      9  C14 <0> d   1      17.784   4.026  10.185  0.00  0.00     0.005 C 
ATOM     10  C13 <0> d   1      17.205   4.571  11.492  0.00  0.00     0.000 C 
ATOM     11  C12 <0> d   1      18.345   4.913  12.452  0.00  0.00     0.000 C 
ATOM     12  C11 <0> d   1      19.161   3.653  12.744  0.00  0.00     0.000 C 
ATOM     13  C10 <0> d   1      19.740   3.107  11.438  0.00  0.00     0.005 C 
ENDBRANCH   1   8
TORSDOF 3
ENDMDL
MODEL 6
REMARK VINA RESULT:      -4.8      2.029      3.080
REMARK  3 active torsions:
REMARK  status: ('A' for Active; 'I' for Inactive)
REMARK    1  A    between atoms: N2_2  and  C5_5 
REMARK    2  A    between atoms: C5_5  and  C8_7 
REMARK    3  A    between atoms: C8_7  and  C9_8 
ROOT
ATOM      1  C8  <0> d   1      17.974   0.340   8.367  0.00  0.00     0.037 C 
ENDROOT
BRANCH   1   2
ATOM      2  C5  <0> d   1      19.243   1.171   8.558  0.00  0.00     0.181 C 
ATOM      3  C7  <0> d   1      18.899   2.469   9.291  0.00  0.00     0.040 C 
BRANCH   2   4
ATOM      4  N2  <0> d   1      20.216   0.405   9.350  0.00  0.00    -0.075 N 
ATOM      5  C1  <0> d   1      19.501  -0.444  10.314  0.00  0.00     0.267 C 
ATOM      6  H3  <0> d   1      20.819   1.041   9.848  0.00  0.00     0.277 HD
ATOM      7  H4  <0> d   1      20.768  -0.174   8.736  0.00  0.00     0.277 HD
ENDBRANCH   2   4
ENDBRANCH   1   2
BRANCH   1   8
ATOM      8  C9  <0> d   1      17.924  -0.194   6.934  0.00  0.00    -0.013 C 
ATOM      9  C14 <0> d   1      18.365  -1.659   6.920  0.00  0.00     0.005 C 
ATOM     10  C13 <0> d   1      18.313  -2.192   5.486  0.00  0.00     0.000 C 
ATOM     11  C12 <0> d   1      19.250  -1.368   4.602  0.00  0.00     0.000 C 
ATOM     12  C11 <0> d   1      18.809   0.097   4.616  0.00  0.00     0.000 C 
ATOM     13  C10 <0> d   1      18.860   0.630   6.050  0.00  0.00     0.005 C 
ENDBRANCH   1   8
TORSDOF 3
ENDMDL
MODEL 7
REMARK VINA RESULT:      -4.8      1.095      2.430
REMARK  3 active torsions:
REMARK  status: ('A' for Active; 'I' for Inactive)
REMARK    1  A    between atoms: N2_2  and  C5_5 
REMARK    2  A    between atoms: C5_5  and  C8_7 
REMARK    3  A    between atoms: C8_7  and  C9_8 
ROOT
ATOM      1  C8  <0> d   1      18.390   1.281  10.335  0.00  0.00     0.037 C 
ENDROOT
BRANCH   1   2
ATOM      2  C5  <0> d   1      19.547   0.894  11.257  0.00  0.00     0.181 C 
ATOM      3  C7  <0> d   1      20.311  -0.285  10.652  0.00  0.00     0.040 C 
BRANCH   2   4
ATOM      4  N2  <0> d   1      20.456   2.039  11.409  0.00  0.00    -0.075 N 
ATOM      5  C1  <0> d   1      19.671   3.279  11.497  0.00  0.00     0.267 C 
ATOM      6  H3  <0> d   1      21.071   2.088  10.612  0.00  0.00     0.277 HD
ATOM      7  H4  <0> d   1      21.001   1.926  12.250  0.00  0.00     0.277 HD
ENDBRANCH   2   4
ENDBRANCH   1   2
BRANCH   1   8
ATOM      8  C9  <0> d   1      18.626   0.688   8.944  0.00  0.00    -0.013 C 
ATOM      9  C14 <0> d   1      18.966   1.810   7.962  0.00  0.00     0.005 C 
ATOM     10  C13 <0> d   1      19.203   1.217   6.572  0.00  0.00     0.000 C 
ATOM     11  C12 <0> d   1      17.938   0.495   6.103  0.00  0.00     0.000 C 
ATOM     12  C11 <0> d   1      17.598  -0.627   7.085  0.00  0.00     0.000 C 
ATOM     13  C10 <0> d   1      17.361  -0.033   8.476  0.00  0.00     0.005 C 
ENDBRANCH   1   8
TORSDOF 3
ENDMDL
MODEL 8
REMARK VINA RESULT:      -4.7      2.912      5.239
REMARK  3 active torsions:
REMARK  status: ('A' for Active; 'I' for Inactive)
REMARK    1  A    between atoms: N2_2  and  C5_5 
REMARK    2  A    between atoms: C5_5  and  C8_7 
REMARK    3  A    between atoms: C8_7  and  C9_8 
ROOT
ATOM      1  C8  <0> d   1      18.081  -0.871   6.924  0.00  0.00     0.037 C 
ENDROOT
BRANCH   1   2
ATOM      2  C5  <0> d   1      19.338  -1.490   6.310  0.00  0.00     0.181 C 
ATOM      3  C7  <0> d   1      19.505  -2.921   6.824  0.00  0.00     0.040 C 
BRANCH   2   4
ATOM      4  N2  <0> d   1      19.210  -1.508   4.846  0.00  0.00    -0.075 N 
ATOM      5  C1  <0> d   1      18.758  -0.190   4.379  0.00  0.00     0.267 C 
ATOM      6  H3  <0> d   1      18.537  -2.209   4.576  0.00  0.00     0.277 HD
ATOM      7  H4  <0> d   1      20.105  -1.722   4.433  0.00  0.00     0.277 HD
ENDBRANCH   2   4
ENDBRANCH   1   2
BRANCH   1   8
ATOM      8  C9  <0> d   1      18.462  -0.080   8.178  0.00  0.00    -0.013 C 
ATOM      9  C14 <0> d   1      17.255   0.004   9.114  0.00  0.00     0.005 C 
ATOM     10  C13 <0> d   1      17.637   0.794  10.367  0.00  0.00     0.000 C 
ATOM     11  C12 <0> d   1      18.074   2.205   9.968  0.00  0.00     0.000 C 
ATOM     12  C11 <0> d   1      19.281   2.120   9.032  0.00  0.00     0.000 C 
ATOM     13  C10 <0> d   1      18.899   1.330   7.779  0.00  0.00     0.005 C 
ENDBRANCH   1   8
TORSDOF 3
ENDMDL
MODEL 9
REMARK VINA RESULT:      -4.6      2.418      4.848
REMARK  3 active torsions:
REMARK  status: ('A' for Active; 'I' for Inactive)
REMARK    1  A    between atoms: N2_2  and  C5_5 
REMARK    2  A    between atoms: C5_5  and  C8_7 
REMARK    3  A    between atoms: C8_7  and  C9_8 
ROOT
ATOM      1  C8  <0> d   1      19.072   1.183   7.119  0.00  0.00     0.037 C 
ENDROOT
BRANCH   1   2
ATOM      2  C5  <0> d   1      18.487  -0.226   7.007  0.00  0.00     0.181 C 
ATOM      3  C7  <0> d   1      17.006  -0.135   6.636  0.00  0.00     0.040 C 
BRANCH   2   4
ATOM      4  N2  <0> d   1      19.207  -0.974   5.966  0.00  0.00    -0.075 N 
ATOM      5  C1  <0> d   1      19.252  -0.176   4.733  0.00  0.00     0.267 C 
ATOM      6  H3  <0> d   1      18.729  -1.843   5.786  0.00  0.00     0.277 HD
ATOM      7  H4  <0> d   1      20.147  -1.164   6.278  0.00  0.00     0.277 HD
ENDBRANCH   2   4
ENDBRANCH   1   2
BRANCH   1   8
ATOM      8  C9  <0> d   1      19.585   1.411   8.543  0.00  0.00    -0.013 C 
ATOM      9  C14 <0> d   1      19.484   0.107   9.336  0.00  0.00     0.005 C 
ATOM     10  C13 <0> d   1      19.997   0.335  10.759  0.00  0.00     0.000 C 
ATOM     11  C12 <0> d   1      19.151   1.413  11.439  0.00  0.00     0.000 C 
ATOM     12  C11 <0> d   1      19.252   2.717  10.646  0.00  0.00     0.000 C 
ATOM     13  C10 <0> d   1      18.738   2.488   9.223  0.00  0.00     0.005 C 
ENDBRANCH   1   8
TORSDOF 3
ENDMDL
