MODEL 1
REMARK VINA RESULT:      -8.9      0.000      0.000
REMARK  7 active torsions:
REMARK  status: ('A' for Active; 'I' for Inactive)
REMARK    1  A    between atoms: C8_8  and  O9_9 
REMARK    2  A    between atoms: O9_9  and  C10_10 
REMARK    3  A    between atoms: C10_10  and  C11_11 
REMARK    4  A    between atoms: C11_11  and  C12_12 
REMARK    5  A    between atoms: C12_12  and  C13_13 
REMARK    6  A    between atoms: C13_13  and  N14_14 
REMARK    7  A    between atoms: N17_17  and  C18_18 
ROOT
ATOM      1  C12 ZIN A   1      19.264  -0.258   8.786  0.00  0.00     0.032 C 
ENDROOT
BRANCH   1   2
ATOM      2  C11 ZIN A   1      18.639   0.873   7.966  0.00  0.00     0.028 C 
BRANCH   2   3
ATOM      3  C10 ZIN A   1      19.110   2.221   8.515  0.00  0.00     0.175 C 
BRANCH   3   4
ATOM      4  O9  ZIN A   1      19.507   2.067   9.879  0.00  0.00    -0.351 OA
BRANCH   4   5
ATOM      5  C8  ZIN A   1      19.028   2.975  10.767  0.00  0.00     0.070 A 
ATOM      6  C7  ZIN A   1      17.671   3.296  10.763  0.00  0.00     0.038 A 
ATOM      7  C6  ZIN A   1      17.171   4.207  11.647  0.00  0.00     0.016 A 
ATOM      8  C5  ZIN A   1      18.027   4.826  12.566  0.00  0.00    -0.009 A 
ATOM      9  C4  ZIN A   1      17.522   5.806  13.527  0.00  0.00     0.019 A 
ATOM     10  C30 ZIN A   1      19.400   4.506  12.575  0.00  0.00     0.048 A 
ATOM     11  C3  ZIN A   1      18.397   6.375  14.394  0.00  0.00     0.075 A 
ATOM     12  C2  ZIN A   1      19.761   6.021  14.362  0.00  0.00     0.245 A 
ATOM     13  O1  ZIN A   1      20.530   6.543  15.151  0.00  0.00    -0.268 OA
ATOM     14  N31 ZIN A   1      20.237   5.124  13.480  0.00  0.00    -0.323 N 
ATOM     15  H58 ZIN A   1      21.182   4.907  13.482  0.00  0.00     0.169 HD
ATOM     16  C29 ZIN A   1      19.890   3.577  11.667  0.00  0.00     0.067 A 
ENDBRANCH   4   5
ENDBRANCH   3   4
ENDBRANCH   2   3
ENDBRANCH   1   2
BRANCH   1  17
ATOM     17  C13 ZIN A   1      18.160  -1.175   9.314  0.00  0.00     0.272 C 
BRANCH  17  18
ATOM     18  N14 ZIN A   1      18.250  -1.257  10.778  0.00  0.00     0.090 N 
ATOM     19  C28 ZIN A   1      19.632  -1.051  11.233  0.00  0.00     0.287 C 
ATOM     20  C27 ZIN A   1      19.697  -1.222  12.753  0.00  0.00     0.126 C 
ATOM     21  N17 ZIN A   1      18.787  -0.260  13.391  0.00  0.00    -0.279 NA
ATOM     22  C16 ZIN A   1      17.405  -0.466  12.936  0.00  0.00     0.126 C 
ATOM     23  C15 ZIN A   1      17.340  -0.295  11.416  0.00  0.00     0.287 C 
BRANCH  21  24
ATOM     24  C18 ZIN A   1      18.873  -0.337  14.781  0.00  0.00     0.022 A 
ATOM     25  C26 ZIN A   1      19.008  -1.565  15.394  0.00  0.00     0.024 A 
ATOM     26  C25 ZIN A   1      19.101  -1.652  16.776  0.00  0.00     0.003 A 
ATOM     27  C24 ZIN A   1      19.046  -0.516  17.547  0.00  0.00     0.020 A 
ATOM     28  C23 ZIN A   1      18.903   0.742  16.949  0.00  0.00     0.016 A 
ATOM     29  C19 ZIN A   1      18.815   0.845  15.560  0.00  0.00     0.003 A 
ATOM     30  S22 ZIN A   1      18.804   2.344  17.669  0.00  0.00    -0.101 SA
ATOM     31  C20 ZIN A   1      18.670   2.225  15.128  0.00  0.00     0.021 A 
ATOM     32  C21 ZIN A   1      18.648   3.112  16.101  0.00  0.00     0.051 A 
ENDBRANCH  21  24
ENDBRANCH  17  18
ENDBRANCH   1  17
TORSDOF 7
ENDMDL
MODEL 2
REMARK VINA RESULT:      -8.6      3.552      6.344
REMARK  7 active torsions:
REMARK  status: ('A' for Active; 'I' for Inactive)
REMARK    1  A    between atoms: C8_8  and  O9_9 
REMARK    2  A    between atoms: O9_9  and  C10_10 
REMARK    3  A    between atoms: C10_10  and  C11_11 
REMARK    4  A    between atoms: C11_11  and  C12_12 
REMARK    5  A    between atoms: C12_12  and  C13_13 
REMARK    6  A    between atoms: C13_13  and  N14_14 
REMARK    7  A    between atoms: N17_17  and  C18_18 
ROOT
ATOM      1  C12 ZIN A   1      18.424   3.036   9.587  0.00  0.00     0.032 C 
ENDROOT
BRANCH   1   2
ATOM      2  C11 ZIN A   1      18.970   3.405  10.968  0.00  0.00     0.028 C 
BRANCH   2   3
ATOM      3  C10 ZIN A   1      17.842   3.330  11.999  0.00  0.00     0.175 C 
BRANCH   3   4
ATOM      4  O9  ZIN A   1      17.328   1.998  12.046  0.00  0.00    -0.351 OA
BRANCH   4   5
ATOM      5  C8  ZIN A   1      17.684   1.235  13.111  0.00  0.00     0.070 A 
ATOM      6  C7  ZIN A   1      17.596  -0.153  13.027  0.00  0.00     0.038 A 
ATOM      7  C6  ZIN A   1      17.948  -0.936  14.088  0.00  0.00     0.016 A 
ATOM      8  C5  ZIN A   1      18.403  -0.340  15.271  0.00  0.00    -0.009 A 
ATOM      9  C4  ZIN A   1      18.789  -1.151  16.425  0.00  0.00     0.019 A 
ATOM     10  C30 ZIN A   1      18.495   1.063  15.361  0.00  0.00     0.048 A 
ATOM     11  C3  ZIN A   1      19.223  -0.521  17.545  0.00  0.00     0.075 A 
ATOM     12  C2  ZIN A   1      19.295   0.886  17.585  0.00  0.00     0.245 A 
ATOM     13  O1  ZIN A   1      19.688   1.433  18.602  0.00  0.00    -0.268 OA
ATOM     14  N31 ZIN A   1      18.939   1.643  16.531  0.00  0.00    -0.323 N 
ATOM     15  H58 ZIN A   1      18.997   2.609  16.595  0.00  0.00     0.169 HD
ATOM     16  C29 ZIN A   1      18.131   1.843  14.272  0.00  0.00     0.067 A 
ENDBRANCH   4   5
ENDBRANCH   3   4
ENDBRANCH   2   3
ENDBRANCH   1   2
BRANCH   1  17
ATOM     17  C13 ZIN A   1      19.282   1.925   8.980  0.00  0.00     0.272 C 
BRANCH  17  18
ATOM     18  N14 ZIN A   1      18.863   0.628   9.529  0.00  0.00     0.090 N 
ATOM     19  C28 ZIN A   1      17.832   0.007   8.686  0.00  0.00     0.287 C 
ATOM     20  C27 ZIN A   1      17.368  -1.301   9.332  0.00  0.00     0.126 C 
ATOM     21  N17 ZIN A   1      18.520  -2.199   9.497  0.00  0.00    -0.279 NA
ATOM     22  C16 ZIN A   1      19.551  -1.577  10.340  0.00  0.00     0.126 C 
ATOM     23  C15 ZIN A   1      20.015  -0.270   9.694  0.00  0.00     0.287 C 
BRANCH  21  24
ATOM     24  C18 ZIN A   1      18.123  -3.430  10.018  0.00  0.00     0.022 A 
ATOM     25  C26 ZIN A   1      18.010  -3.595  11.382  0.00  0.00     0.024 A 
ATOM     26  C25 ZIN A   1      17.610  -4.815  11.910  0.00  0.00     0.003 A 
ATOM     27  C24 ZIN A   1      17.334  -5.873  11.078  0.00  0.00     0.020 A 
ATOM     28  C23 ZIN A   1      17.446  -5.733   9.689  0.00  0.00     0.016 A 
ATOM     29  C19 ZIN A   1      17.842  -4.510   9.144  0.00  0.00     0.003 A 
ATOM     30  S22 ZIN A   1      17.164  -6.893   8.397  0.00  0.00    -0.101 SA
ATOM     31  C20 ZIN A   1      17.902  -4.558   7.693  0.00  0.00     0.021 A 
ATOM     32  C21 ZIN A   1      17.580  -5.720   7.162  0.00  0.00     0.051 A 
ENDBRANCH  21  24
ENDBRANCH  17  18
ENDBRANCH   1  17
TORSDOF 7
ENDMDL
MODEL 3
REMARK VINA RESULT:      -8.5      4.113      8.950
REMARK  7 active torsions:
REMARK  status: ('A' for Active; 'I' for Inactive)
REMARK    1  A    between atoms: C8_8  and  O9_9 
REMARK    2  A    between atoms: O9_9  and  C10_10 
REMARK    3  A    between atoms: C10_10  and  C11_11 
REMARK    4  A    between atoms: C11_11  and  C12_12 
REMARK    5  A    between atoms: C12_12  and  C13_13 
REMARK    6  A    between atoms: C13_13  and  N14_14 
REMARK    7  A    between atoms: N17_17  and  C18_18 
ROOT
ATOM      1  C12 ZIN A   1      18.820   1.415  13.437  0.00  0.00     0.032 C 
ENDROOT
BRANCH   1   2
ATOM      2  C11 ZIN A   1      19.101   0.358  14.507  0.00  0.00     0.028 C 
BRANCH   2   3
ATOM      3  C10 ZIN A   1      18.566  -0.997  14.039  0.00  0.00     0.175 C 
BRANCH   3   4
ATOM      4  O9  ZIN A   1      19.570  -1.667  13.275  0.00  0.00    -0.351 OA
BRANCH   4   5
ATOM      5  C8  ZIN A   1      19.152  -2.637  12.423  0.00  0.00     0.070 A 
ATOM      6  C7  ZIN A   1      17.824  -3.061  12.457  0.00  0.00     0.038 A 
ATOM      7  C6  ZIN A   1      17.386  -4.036  11.609  0.00  0.00     0.016 A 
ATOM      8  C5  ZIN A   1      18.276  -4.616  10.697  0.00  0.00    -0.009 A 
ATOM      9  C4  ZIN A   1      17.836  -5.663   9.774  0.00  0.00     0.019 A 
ATOM     10  C30 ZIN A   1      19.619  -4.191  10.658  0.00  0.00     0.048 A 
ATOM     11  C3  ZIN A   1      18.742  -6.189   8.912  0.00  0.00     0.075 A 
ATOM     12  C2  ZIN A   1      20.074  -5.730   8.913  0.00  0.00     0.245 A 
ATOM     13  O1  ZIN A   1      20.872  -6.216   8.129  0.00  0.00    -0.268 OA
ATOM     14  N31 ZIN A   1      20.491  -4.771   9.760  0.00  0.00    -0.323 N 
ATOM     15  H58 ZIN A   1      21.416  -4.482   9.737  0.00  0.00     0.169 HD
ATOM     16  C29 ZIN A   1      20.047  -3.199  11.529  0.00  0.00     0.067 A 
ENDBRANCH   4   5
ENDBRANCH   3   4
ENDBRANCH   2   3
ENDBRANCH   1   2
BRANCH   1  17
ATOM     17  C13 ZIN A   1      17.503   1.089  12.732  0.00  0.00     0.272 C 
BRANCH  17  18
ATOM     18  N14 ZIN A   1      17.720   1.058  11.279  0.00  0.00     0.090 N 
ATOM     19  C28 ZIN A   1      19.153   0.988  10.962  0.00  0.00     0.287 C 
ATOM     20  C27 ZIN A   1      19.339   1.036   9.443  0.00  0.00     0.126 C 
ATOM     21  N17 ZIN A   1      18.612  -0.082   8.827  0.00  0.00    -0.279 NA
ATOM     22  C16 ZIN A   1      17.178  -0.012   9.144  0.00  0.00     0.126 C 
ATOM     23  C15 ZIN A   1      16.992  -0.061  10.663  0.00  0.00     0.287 C 
BRANCH  21  24
ATOM     24  C18 ZIN A   1      18.818  -0.113   7.448  0.00  0.00     0.022 A 
ATOM     25  C26 ZIN A   1      19.038   1.062   6.759  0.00  0.00     0.024 A 
ATOM     26  C25 ZIN A   1      19.250   1.041   5.388  0.00  0.00     0.003 A 
ATOM     27  C24 ZIN A   1      19.231  -0.149   4.701  0.00  0.00     0.020 A 
ATOM     28  C23 ZIN A   1      19.003  -1.354   5.376  0.00  0.00     0.016 A 
ATOM     29  C19 ZIN A   1      18.794  -1.349   6.756  0.00  0.00     0.003 A 
ATOM     30  S22 ZIN A   1      18.924  -3.004   4.771  0.00  0.00    -0.101 SA
ATOM     31  C20 ZIN A   1      18.576  -2.690   7.275  0.00  0.00     0.021 A 
ATOM     32  C21 ZIN A   1      18.614  -3.647   6.372  0.00  0.00     0.051 A 
ENDBRANCH  21  24
ENDBRANCH  17  18
ENDBRANCH   1  17
TORSDOF 7
ENDMDL
MODEL 4
REMARK VINA RESULT:      -8.4      3.269      6.404
REMARK  7 active torsions:
REMARK  status: ('A' for Active; 'I' for Inactive)
REMARK    1  A    between atoms: C8_8  and  O9_9 
REMARK    2  A    between atoms: O9_9  and  C10_10 
REMARK    3  A    between atoms: C10_10  and  C11_11 
REMARK    4  A    between atoms: C11_11  and  C12_12 
REMARK    5  A    between atoms: C12_12  and  C13_13 
REMARK    6  A    between atoms: C13_13  and  N14_14 
REMARK    7  A    between atoms: N17_17  and  C18_18 
ROOT
ATOM      1  C12 ZIN A   1      19.192   2.696  10.039  0.00  0.00     0.032 C 
ENDROOT
BRANCH   1   2
ATOM      2  C11 ZIN A   1      17.954   3.481  10.478  0.00  0.00     0.028 C 
BRANCH   2   3
ATOM      3  C10 ZIN A   1      17.593   3.101  11.915  0.00  0.00     0.175 C 
BRANCH   3   4
ATOM      4  O9  ZIN A   1      17.209   1.725  11.962  0.00  0.00    -0.351 OA
BRANCH   4   5
ATOM      5  C8  ZIN A   1      17.621   1.007  13.037  0.00  0.00     0.070 A 
ATOM      6  C7  ZIN A   1      17.626  -0.386  12.977  0.00  0.00     0.038 A 
ATOM      7  C6  ZIN A   1      18.034  -1.126  14.048  0.00  0.00     0.016 A 
ATOM      8  C5  ZIN A   1      18.454  -0.481  15.218  0.00  0.00    -0.009 A 
ATOM      9  C4  ZIN A   1      18.898  -1.245  16.384  0.00  0.00     0.019 A 
ATOM     10  C30 ZIN A   1      18.451   0.926  15.285  0.00  0.00     0.048 A 
ATOM     11  C3  ZIN A   1      19.294  -0.569  17.491  0.00  0.00     0.075 A 
ATOM     12  C2  ZIN A   1      19.272   0.841  17.508  0.00  0.00     0.245 A 
ATOM     13  O1  ZIN A   1      19.631   1.429  18.513  0.00  0.00    -0.268 OA
ATOM     14  N31 ZIN A   1      18.861   1.554  16.444  0.00  0.00    -0.323 N 
ATOM     15  H58 ZIN A   1      18.854   2.522  16.491  0.00  0.00     0.169 HD
ATOM     16  C29 ZIN A   1      18.031   1.662  14.185  0.00  0.00     0.067 A 
ENDBRANCH   4   5
ENDBRANCH   3   4
ENDBRANCH   2   3
ENDBRANCH   1   2
BRANCH   1  17
ATOM     17  C13 ZIN A   1      19.103   2.400   8.541  0.00  0.00     0.272 C 
BRANCH  17  18
ATOM     18  N14 ZIN A   1      19.163   0.948   8.324  0.00  0.00     0.090 N 
ATOM     19  C28 ZIN A   1      19.553   0.247   9.555  0.00  0.00     0.287 C 
ATOM     20  C27 ZIN A   1      19.681  -1.251   9.267  0.00  0.00     0.126 C 
ATOM     21  N17 ZIN A   1      18.400  -1.761   8.758  0.00  0.00    -0.279 NA
ATOM     22  C16 ZIN A   1      18.010  -1.060   7.527  0.00  0.00     0.126 C 
ATOM     23  C15 ZIN A   1      17.882   0.438   7.815  0.00  0.00     0.287 C 
BRANCH  21  24
ATOM     24  C18 ZIN A   1      18.458  -3.139   8.553  0.00  0.00     0.022 A 
ATOM     25  C26 ZIN A   1      19.012  -3.639   7.393  0.00  0.00     0.024 A 
ATOM     26  C25 ZIN A   1      19.080  -5.009   7.182  0.00  0.00     0.003 A 
ATOM     27  C24 ZIN A   1      18.582  -5.880   8.121  0.00  0.00     0.020 A 
ATOM     28  C23 ZIN A   1      18.008  -5.398   9.304  0.00  0.00     0.016 A 
ATOM     29  C19 ZIN A   1      17.939  -4.022   9.532  0.00  0.00     0.003 A 
ATOM     30  S22 ZIN A   1      17.300  -6.260  10.664  0.00  0.00    -0.101 SA
ATOM     31  C20 ZIN A   1      17.313  -3.716  10.808  0.00  0.00     0.021 A 
ATOM     32  C21 ZIN A   1      16.930  -4.767  11.504  0.00  0.00     0.051 A 
ENDBRANCH  21  24
ENDBRANCH  17  18
ENDBRANCH   1  17
TORSDOF 7
ENDMDL
MODEL 5
REMARK VINA RESULT:      -8.4      2.690      6.294
REMARK  7 active torsions:
REMARK  status: ('A' for Active; 'I' for Inactive)
REMARK    1  A    between atoms: C8_8  and  O9_9 
REMARK    2  A    between atoms: O9_9  and  C10_10 
REMARK    3  A    between atoms: C10_10  and  C11_11 
REMARK    4  A    between atoms: C11_11  and  C12_12 
REMARK    5  A    between atoms: C12_12  and  C13_13 
REMARK    6  A    between atoms: C13_13  and  N14_14 
REMARK    7  A    between atoms: N17_17  and  C18_18 
ROOT
ATOM      1  C12 ZIN A   1      17.376  -0.442  16.758  0.00  0.00     0.032 C 
ENDROOT
BRANCH   1   2
ATOM      2  C11 ZIN A   1      17.758   0.201  18.093  0.00  0.00     0.028 C 
BRANCH   2   3
ATOM      3  C10 ZIN A   1      19.280   0.324  18.183  0.00  0.00     0.175 C 
BRANCH   3   4
ATOM      4  O9  ZIN A   1      19.627   1.650  18.588  0.00  0.00    -0.351 OA
BRANCH   4   5
ATOM      5  C8  ZIN A   1      19.181   2.669  17.811  0.00  0.00     0.070 A 
ATOM      6  C7  ZIN A   1      18.377   3.662  18.369  0.00  0.00     0.038 A 
ATOM      7  C6  ZIN A   1      17.917   4.694  17.604  0.00  0.00     0.016 A 
ATOM      8  C5  ZIN A   1      18.256   4.758  16.247  0.00  0.00    -0.009 A 
ATOM      9  C4  ZIN A   1      17.780   5.851  15.400  0.00  0.00     0.019 A 
ATOM     10  C30 ZIN A   1      19.069   3.757  15.678  0.00  0.00     0.048 A 
ATOM     11  C3  ZIN A   1      18.140   5.863  14.092  0.00  0.00     0.075 A 
ATOM     12  C2  ZIN A   1      18.954   4.837  13.571  0.00  0.00     0.245 A 
ATOM     13  O1  ZIN A   1      19.266   4.867  12.392  0.00  0.00    -0.268 OA
ATOM     14  N31 ZIN A   1      19.394   3.824  14.339  0.00  0.00    -0.323 N 
ATOM     15  H58 ZIN A   1      19.949   3.133  13.946  0.00  0.00     0.169 HD
ATOM     16  C29 ZIN A   1      19.526   2.714  16.472  0.00  0.00     0.067 A 
ENDBRANCH   4   5
ENDBRANCH   3   4
ENDBRANCH   2   3
ENDBRANCH   1   2
BRANCH   1  17
ATOM     17  C13 ZIN A   1      18.623  -1.041  16.106  0.00  0.00     0.272 C 
BRANCH  17  18
ATOM     18  N14 ZIN A   1      18.834  -0.420  14.792  0.00  0.00     0.090 N 
ATOM     19  C28 ZIN A   1      19.378  -1.390  13.831  0.00  0.00     0.287 C 
ATOM     20  C27 ZIN A   1      19.658  -0.686  12.501  0.00  0.00     0.126 C 
ATOM     21  N17 ZIN A   1      18.413  -0.090  11.994  0.00  0.00    -0.279 NA
ATOM     22  C16 ZIN A   1      17.869   0.881  12.955  0.00  0.00     0.126 C 
ATOM     23  C15 ZIN A   1      17.590   0.176  14.285  0.00  0.00     0.287 C 
BRANCH  21  24
ATOM     24  C18 ZIN A   1      18.614   0.500  10.746  0.00  0.00     0.022 A 
ATOM     25  C26 ZIN A   1      18.895   1.847  10.660  0.00  0.00     0.024 A 
ATOM     26  C25 ZIN A   1      19.102   2.442   9.423  0.00  0.00     0.003 A 
ATOM     27  C24 ZIN A   1      19.017   1.696   8.272  0.00  0.00     0.020 A 
ATOM     28  C23 ZIN A   1      18.727   0.327   8.333  0.00  0.00     0.016 A 
ATOM     29  C19 ZIN A   1      18.522  -0.285   9.570  0.00  0.00     0.003 A 
ATOM     30  S22 ZIN A   1      18.556  -0.861   7.048  0.00  0.00    -0.101 SA
ATOM     31  C20 ZIN A   1      18.233  -1.703   9.431  0.00  0.00     0.021 A 
ATOM     32  C21 ZIN A   1      18.216  -2.146   8.191  0.00  0.00     0.051 A 
ENDBRANCH  21  24
ENDBRANCH  17  18
ENDBRANCH   1  17
TORSDOF 7
ENDMDL
MODEL 6
REMARK VINA RESULT:      -8.2      3.368      7.513
REMARK  7 active torsions:
REMARK  status: ('A' for Active; 'I' for Inactive)
REMARK    1  A    between atoms: C8_8  and  O9_9 
REMARK    2  A    between atoms: O9_9  and  C10_10 
REMARK    3  A    between atoms: C10_10  and  C11_11 
REMARK    4  A    between atoms: C11_11  and  C12_12 
REMARK    5  A    between atoms: C12_12  and  C13_13 
REMARK    6  A    between atoms: C13_13  and  N14_14 
REMARK    7  A    between atoms: N17_17  and  C18_18 
ROOT
ATOM      1  C12 ZIN A   1      17.212   4.451  11.353  0.00  0.00     0.032 C 
ENDROOT
BRANCH   1   2
ATOM      2  C11 ZIN A   1      17.338   5.212  12.674  0.00  0.00     0.028 C 
BRANCH   2   3
ATOM      3  C10 ZIN A   1      18.625   4.790  13.385  0.00  0.00     0.175 C 
BRANCH   3   4
ATOM      4  O9  ZIN A   1      18.514   5.073  14.781  0.00  0.00    -0.351 OA
BRANCH   4   5
ATOM      5  C8  ZIN A   1      18.691   4.034  15.637  0.00  0.00     0.070 A 
ATOM      6  C7  ZIN A   1      18.973   4.286  16.979  0.00  0.00     0.038 A 
ATOM      7  C6  ZIN A   1      19.156   3.255  17.854  0.00  0.00     0.016 A 
ATOM      8  C5  ZIN A   1      19.059   1.933  17.401  0.00  0.00    -0.009 A 
ATOM      9  C4  ZIN A   1      19.250   0.807  18.314  0.00  0.00     0.019 A 
ATOM     10  C30 ZIN A   1      18.775   1.673  16.046  0.00  0.00     0.048 A 
ATOM     11  C3  ZIN A   1      19.145  -0.453  17.821  0.00  0.00     0.075 A 
ATOM     12  C2  ZIN A   1      18.859  -0.660  16.456  0.00  0.00     0.245 A 
ATOM     13  O1  ZIN A   1      18.769  -1.800  16.034  0.00  0.00    -0.268 OA
ATOM     14  N31 ZIN A   1      18.687   0.369  15.606  0.00  0.00    -0.323 N 
ATOM     15  H58 ZIN A   1      18.496   0.190  14.673  0.00  0.00     0.169 HD
ATOM     16  C29 ZIN A   1      18.593   2.735  15.170  0.00  0.00     0.067 A 
ENDBRANCH   4   5
ENDBRANCH   3   4
ENDBRANCH   2   3
ENDBRANCH   1   2
BRANCH   1  17
ATOM     17  C13 ZIN A   1      17.705   3.016  11.541  0.00  0.00     0.272 C 
BRANCH  17  18
ATOM     18  N14 ZIN A   1      17.819   2.361  10.232  0.00  0.00     0.090 N 
ATOM     19  C28 ZIN A   1      19.186   2.474   9.703  0.00  0.00     0.287 C 
ATOM     20  C27 ZIN A   1      19.242   1.850   8.306  0.00  0.00     0.126 C 
ATOM     21  N17 ZIN A   1      18.827   0.443   8.384  0.00  0.00    -0.279 NA
ATOM     22  C16 ZIN A   1      17.460   0.329   8.913  0.00  0.00     0.126 C 
ATOM     23  C15 ZIN A   1      17.403   0.953  10.309  0.00  0.00     0.287 C 
BRANCH  21  24
ATOM     24  C18 ZIN A   1      18.935  -0.180   7.140  0.00  0.00     0.022 A 
ATOM     25  C26 ZIN A   1      18.944   0.580   5.990  0.00  0.00     0.024 A 
ATOM     26  C25 ZIN A   1      19.058  -0.029   4.748  0.00  0.00     0.003 A 
ATOM     27  C24 ZIN A   1      19.149  -1.397   4.653  0.00  0.00     0.020 A 
ATOM     28  C23 ZIN A   1      19.137  -2.191   5.806  0.00  0.00     0.016 A 
ATOM     29  C19 ZIN A   1      19.029  -1.591   7.061  0.00  0.00     0.003 A 
ATOM     30  S22 ZIN A   1      19.237  -3.937   5.990  0.00  0.00    -0.101 SA
ATOM     31  C20 ZIN A   1      19.032  -2.574   8.133  0.00  0.00     0.021 A 
ATOM     32  C21 ZIN A   1      19.133  -3.826   7.736  0.00  0.00     0.051 A 
ENDBRANCH  21  24
ENDBRANCH  17  18
ENDBRANCH   1  17
TORSDOF 7
ENDMDL
MODEL 7
REMARK VINA RESULT:      -8.2      4.304      8.057
REMARK  7 active torsions:
REMARK  status: ('A' for Active; 'I' for Inactive)
REMARK    1  A    between atoms: C8_8  and  O9_9 
REMARK    2  A    between atoms: O9_9  and  C10_10 
REMARK    3  A    between atoms: C10_10  and  C11_11 
REMARK    4  A    between atoms: C11_11  and  C12_12 
REMARK    5  A    between atoms: C12_12  and  C13_13 
REMARK    6  A    between atoms: C13_13  and  N14_14 
REMARK    7  A    between atoms: N17_17  and  C18_18 
ROOT
ATOM      1  C12 ZIN A   1      18.044  -0.745  13.460  0.00  0.00     0.032 C 
ENDROOT
BRANCH   1   2
ATOM      2  C11 ZIN A   1      18.524   0.675  13.767  0.00  0.00     0.028 C 
BRANCH   2   3
ATOM      3  C10 ZIN A   1      18.522   1.503  12.481  0.00  0.00     0.175 C 
BRANCH   3   4
ATOM      4  O9  ZIN A   1      17.628   0.912  11.535  0.00  0.00    -0.351 OA
BRANCH   4   5
ATOM      5  C8  ZIN A   1      17.999   0.947  10.230  0.00  0.00     0.070 A 
ATOM      6  C7  ZIN A   1      19.038   1.785   9.830  0.00  0.00     0.038 A 
ATOM      7  C6  ZIN A   1      19.424   1.835   8.522  0.00  0.00     0.016 A 
ATOM      8  C5  ZIN A   1      18.773   1.036   7.574  0.00  0.00    -0.009 A 
ATOM      9  C4  ZIN A   1      19.163   1.066   6.165  0.00  0.00     0.019 A 
ATOM     10  C30 ZIN A   1      17.722   0.187   7.973  0.00  0.00     0.048 A 
ATOM     11  C3  ZIN A   1      18.497   0.272   5.289  0.00  0.00     0.075 A 
ATOM     12  C2  ZIN A   1      17.452  -0.560   5.740  0.00  0.00     0.245 A 
ATOM     13  O1  ZIN A   1      16.867  -1.267   4.937  0.00  0.00    -0.268 OA
ATOM     14  N31 ZIN A   1      17.081  -0.592   7.032  0.00  0.00    -0.323 N 
ATOM     15  H58 ZIN A   1      16.355  -1.174   7.307  0.00  0.00     0.169 HD
ATOM     16  C29 ZIN A   1      17.342   0.151   9.308  0.00  0.00     0.067 A 
ENDBRANCH   4   5
ENDBRANCH   3   4
ENDBRANCH   2   3
ENDBRANCH   1   2
BRANCH   1  17
ATOM     17  C13 ZIN A   1      19.254  -1.661  13.266  0.00  0.00     0.272 C 
BRANCH  17  18
ATOM     18  N14 ZIN A   1      18.882  -2.785  12.396  0.00  0.00     0.090 N 
ATOM     19  C28 ZIN A   1      17.576  -2.552  11.763  0.00  0.00     0.287 C 
ATOM     20  C27 ZIN A   1      17.191  -3.778  10.930  0.00  0.00     0.126 C 
ATOM     21  N17 ZIN A   1      18.227  -4.024   9.917  0.00  0.00    -0.279 NA
ATOM     22  C16 ZIN A   1      19.532  -4.257  10.551  0.00  0.00     0.126 C 
ATOM     23  C15 ZIN A   1      19.918  -3.032  11.383  0.00  0.00     0.287 C 
BRANCH  21  24
ATOM     24  C18 ZIN A   1      17.873  -5.091   9.091  0.00  0.00     0.022 A 
ATOM     25  C26 ZIN A   1      17.336  -6.236   9.640  0.00  0.00     0.024 A 
ATOM     26  C25 ZIN A   1      16.975  -7.301   8.826  0.00  0.00     0.003 A 
ATOM     27  C24 ZIN A   1      17.163  -7.229   7.466  0.00  0.00     0.020 A 
ATOM     28  C23 ZIN A   1      17.713  -6.079   6.886  0.00  0.00     0.016 A 
ATOM     29  C19 ZIN A   1      18.075  -4.999   7.692  0.00  0.00     0.003 A 
ATOM     30  S22 ZIN A   1      18.065  -5.707   5.203  0.00  0.00    -0.101 SA
ATOM     31  C20 ZIN A   1      18.626  -3.903   6.912  0.00  0.00     0.021 A 
ATOM     32  C21 ZIN A   1      18.685  -4.120   5.614  0.00  0.00     0.051 A 
ENDBRANCH  21  24
ENDBRANCH  17  18
ENDBRANCH   1  17
TORSDOF 7
ENDMDL
MODEL 8
REMARK VINA RESULT:      -8.0      3.137      6.908
REMARK  7 active torsions:
REMARK  status: ('A' for Active; 'I' for Inactive)
REMARK    1  A    between atoms: C8_8  and  O9_9 
REMARK    2  A    between atoms: O9_9  and  C10_10 
REMARK    3  A    between atoms: C10_10  and  C11_11 
REMARK    4  A    between atoms: C11_11  and  C12_12 
REMARK    5  A    between atoms: C12_12  and  C13_13 
REMARK    6  A    between atoms: C13_13  and  N14_14 
REMARK    7  A    between atoms: N17_17  and  C18_18 
ROOT
ATOM      1  C12 ZIN A   1      18.202  -3.387  12.137  0.00  0.00     0.032 C 
ENDROOT
BRANCH   1   2
ATOM      2  C11 ZIN A   1      18.315  -4.680  11.327  0.00  0.00     0.028 C 
BRANCH   2   3
ATOM      3  C10 ZIN A   1      17.759  -4.451   9.921  0.00  0.00     0.175 C 
BRANCH   3   4
ATOM      4  O9  ZIN A   1      18.780  -4.713   8.956  0.00  0.00    -0.351 OA
BRANCH   4   5
ATOM      5  C8  ZIN A   1      18.903  -3.830   7.933  0.00  0.00     0.070 A 
ATOM      6  C7  ZIN A   1      19.129  -4.298   6.639  0.00  0.00     0.038 A 
ATOM      7  C6  ZIN A   1      19.257  -3.425   5.598  0.00  0.00     0.016 A 
ATOM      8  C5  ZIN A   1      19.161  -2.047   5.830  0.00  0.00    -0.009 A 
ATOM      9  C4  ZIN A   1      19.293  -1.086   4.736  0.00  0.00     0.019 A 
ATOM     10  C30 ZIN A   1      18.933  -1.568   7.136  0.00  0.00     0.048 A 
ATOM     11  C3  ZIN A   1      19.192   0.237   5.019  0.00  0.00     0.075 A 
ATOM     12  C2  ZIN A   1      18.964   0.665   6.342  0.00  0.00     0.245 A 
ATOM     13  O1  ZIN A   1      18.876   1.859   6.574  0.00  0.00    -0.268 OA
ATOM     14  N31 ZIN A   1      18.845  -0.210   7.357  0.00  0.00    -0.323 N 
ATOM     15  H58 ZIN A   1      18.693   0.120   8.257  0.00  0.00     0.169 HD
ATOM     16  C29 ZIN A   1      18.806  -2.472   8.183  0.00  0.00     0.067 A 
ENDBRANCH   4   5
ENDBRANCH   3   4
ENDBRANCH   2   3
ENDBRANCH   1   2
BRANCH   1  17
ATOM     17  C13 ZIN A   1      19.399  -2.487  11.829  0.00  0.00     0.272 C 
BRANCH  17  18
ATOM     18  N14 ZIN A   1      18.928  -1.121  11.560  0.00  0.00     0.090 N 
ATOM     19  C28 ZIN A   1      17.788  -0.778  12.421  0.00  0.00     0.287 C 
ATOM     20  C27 ZIN A   1      17.279   0.619  12.056  0.00  0.00     0.126 C 
ATOM     21  N17 ZIN A   1      18.368   1.592  12.217  0.00  0.00    -0.279 NA
ATOM     22  C16 ZIN A   1      19.508   1.249  11.355  0.00  0.00     0.126 C 
ATOM     23  C15 ZIN A   1      20.017  -0.148  11.721  0.00  0.00     0.287 C 
BRANCH  21  24
ATOM     24  C18 ZIN A   1      17.921   2.889  11.962  0.00  0.00     0.022 A 
ATOM     25  C26 ZIN A   1      17.636   3.276  10.669  0.00  0.00     0.024 A 
ATOM     26  C25 ZIN A   1      17.185   4.561  10.406  0.00  0.00     0.003 A 
ATOM     27  C24 ZIN A   1      17.030   5.465  11.430  0.00  0.00     0.020 A 
ATOM     28  C23 ZIN A   1      17.319   5.098  12.750  0.00  0.00     0.016 A 
ATOM     29  C19 ZIN A   1      17.768   3.807  13.030  0.00  0.00     0.003 A 
ATOM     30  S22 ZIN A   1      17.217   6.027  14.241  0.00  0.00    -0.101 SA
ATOM     31  C20 ZIN A   1      18.014   3.616  14.450  0.00  0.00     0.021 A 
ATOM     32  C21 ZIN A   1      17.775   4.671  15.202  0.00  0.00     0.051 A 
ENDBRANCH  21  24
ENDBRANCH  17  18
ENDBRANCH   1  17
TORSDOF 7
ENDMDL
MODEL 9
REMARK VINA RESULT:      -8.0      2.068      5.444
REMARK  7 active torsions:
REMARK  status: ('A' for Active; 'I' for Inactive)
REMARK    1  A    between atoms: C8_8  and  O9_9 
REMARK    2  A    between atoms: O9_9  and  C10_10 
REMARK    3  A    between atoms: C10_10  and  C11_11 
REMARK    4  A    between atoms: C11_11  and  C12_12 
REMARK    5  A    between atoms: C12_12  and  C13_13 
REMARK    6  A    between atoms: C13_13  and  N14_14 
REMARK    7  A    between atoms: N17_17  and  C18_18 
ROOT
ATOM      1  C12 ZIN A   1      18.134   1.139   8.828  0.00  0.00     0.032 C 
ENDROOT
BRANCH   1   2
ATOM      2  C11 ZIN A   1      18.608  -0.311   8.722  0.00  0.00     0.028 C 
BRANCH   2   3
ATOM      3  C10 ZIN A   1      17.896  -1.160   9.777  0.00  0.00     0.175 C 
BRANCH   3   4
ATOM      4  O9  ZIN A   1      17.449  -0.319  10.842  0.00  0.00    -0.351 OA
BRANCH   4   5
ATOM      5  C8  ZIN A   1      17.884  -0.621  12.091  0.00  0.00     0.070 A 
ATOM      6  C7  ZIN A   1      18.835  -1.625  12.267  0.00  0.00     0.038 A 
ATOM      7  C6  ZIN A   1      19.284  -1.945  13.516  0.00  0.00     0.016 A 
ATOM      8  C5  ZIN A   1      18.786  -1.258  14.630  0.00  0.00    -0.009 A 
ATOM      9  C4  ZIN A   1      19.247  -1.576  15.981  0.00  0.00     0.019 A 
ATOM     10  C30 ZIN A   1      17.825  -0.242  14.458  0.00  0.00     0.048 A 
ATOM     11  C3  ZIN A   1      18.731  -0.880  17.024  0.00  0.00     0.075 A 
ATOM     12  C2  ZIN A   1      17.770   0.127  16.799  0.00  0.00     0.245 A 
ATOM     13  O1  ZIN A   1      17.319   0.742  17.750  0.00  0.00    -0.268 OA
ATOM     14  N31 ZIN A   1      17.335   0.425  15.561  0.00  0.00    -0.323 N 
ATOM     15  H58 ZIN A   1      16.670   1.121  15.443  0.00  0.00     0.169 HD
ATOM     16  C29 ZIN A   1      17.379   0.068  13.180  0.00  0.00     0.067 A 
ENDBRANCH   4   5
ENDBRANCH   3   4
ENDBRANCH   2   3
ENDBRANCH   1   2
BRANCH   1  17
ATOM     17  C13 ZIN A   1      19.327   2.046   9.135  0.00  0.00     0.272 C 
BRANCH  17  18
ATOM     18  N14 ZIN A   1      18.932   3.058  10.124  0.00  0.00     0.090 N 
ATOM     19  C28 ZIN A   1      17.541   2.858  10.556  0.00  0.00     0.287 C 
ATOM     20  C27 ZIN A   1      17.145   3.976  11.524  0.00  0.00     0.126 C 
ATOM     21  N17 ZIN A   1      18.057   3.970  12.676  0.00  0.00    -0.279 NA
ATOM     22  C16 ZIN A   1      19.448   4.170  12.244  0.00  0.00     0.126 C 
ATOM     23  C15 ZIN A   1      19.844   3.051  11.276  0.00  0.00     0.287 C 
BRANCH  21  24
ATOM     24  C18 ZIN A   1      17.682   4.930  13.615  0.00  0.00     0.022 A 
ATOM     25  C26 ZIN A   1      17.009   6.063  13.209  0.00  0.00     0.024 A 
ATOM     26  C25 ZIN A   1      16.626   7.021  14.136  0.00  0.00     0.003 A 
ATOM     27  C24 ZIN A   1      16.926   6.857  15.467  0.00  0.00     0.020 A 
ATOM     28  C23 ZIN A   1      17.614   5.718  15.905  0.00  0.00     0.016 A 
ATOM     29  C19 ZIN A   1      18.000   4.744  14.983  0.00  0.00     0.003 A 
ATOM     30  S22 ZIN A   1      18.127   5.245  17.519  0.00  0.00    -0.101 SA
ATOM     31  C20 ZIN A   1      18.701   3.642  15.623  0.00  0.00     0.021 A 
ATOM     32  C21 ZIN A   1      18.844   3.758  16.927  0.00  0.00     0.051 A 
ENDBRANCH  21  24
ENDBRANCH  17  18
ENDBRANCH   1  17
TORSDOF 7
ENDMDL
