MODEL 1
REMARK VINA RESULT:      -9.1      0.000      0.000
REMARK  20 active torsions:
REMARK  status: ('A' for Active; 'I' for Inactive)
REMARK    1  A    between atoms: C2_2  and  C4_4 
REMARK    2  A    between atoms: C6_6  and  C7_7 
REMARK    3  A    between atoms: C7_7  and  N8_8 
REMARK       I    between atoms: N8_8  and  C10_10 
REMARK       I    between atoms: C10_10  and  N12_12 
REMARK    4  A    between atoms: N12_12  and  C13_13 
REMARK    5  A    between atoms: C13_13  and  C15_14 
REMARK    6  A    between atoms: C13_13  and  C23_22 
REMARK    7  A    between atoms: C15_14  and  C16_15 
REMARK    8  A    between atoms: C16_15  and  N17_16 
REMARK       I    between atoms: C23_22  and  N25_24 
REMARK    9  A    between atoms: N25_24  and  C26_25 
REMARK   10  A    between atoms: C26_25  and  C28_26 
REMARK   11  A    between atoms: C26_25  and  C49_46 
REMARK   12  A    between atoms: C28_26  and  C29_27 
REMARK   13  A    between atoms: C29_27  and  C30_28 
REMARK   14  A    between atoms: C30_28  and  C32_29 
REMARK   15  A    between atoms: C30_28  and  N39_36 
REMARK   16  A    between atoms: C32_29  and  C33_30 
REMARK       I    between atoms: N39_36  and  C40_37 
REMARK   17  A    between atoms: C40_37  and  O42_39 
REMARK   18  A    between atoms: O42_39  and  C43_40 
REMARK   19  A    between atoms: C43_40  and  C44_41 
REMARK   20  A    between atoms: C49_46  and  C50_47 
ROOT
ATOM      1  C26 ZIN A   1      20.008  -2.157  11.107  0.00  0.00     0.088 C 
ENDROOT
BRANCH   1   2
ATOM      2  N25 ZIN A   1      19.399  -1.387  12.195  0.00  0.00    -0.354 N 
ATOM      3  C23 ZIN A   1      19.882  -0.168  12.509  0.00  0.00     0.240 C 
ATOM      4  O24 ZIN A   1      20.820   0.290  11.892  0.00  0.00    -0.271 OA
ATOM      5  H83 ZIN A   1      18.649  -1.753  12.688  0.00  0.00     0.162 HD
BRANCH   3   6
ATOM      6  C13 ZIN A   1      19.257   0.624  13.627  0.00  0.00     0.180 C 
BRANCH   6   7
ATOM      7  N12 ZIN A   1      19.289   2.050  13.293  0.00  0.00    -0.330 N 
ATOM      8  C10 ZIN A   1      19.199   2.974  14.271  0.00  0.00     0.319 C 
ATOM      9  N8  ZIN A   1      19.230   4.286  13.964  0.00  0.00    -0.333 N 
ATOM     10  O11 ZIN A   1      19.092   2.623  15.430  0.00  0.00    -0.247 OA
ATOM     11  C9  ZIN A   1      19.360   4.708  12.567  0.00  0.00     0.154 C 
ATOM     12  H70 ZIN A   1      19.375   2.330  12.368  0.00  0.00     0.165 HD
BRANCH   9  13
ATOM     13  C7  ZIN A   1      19.134   5.289  15.027  0.00  0.00     0.186 C 
BRANCH  13  14
ATOM     14  C6  ZIN A   1      17.686   5.643  15.254  0.00  0.00     0.060 A 
ATOM     15  N5  ZIN A   1      17.132   5.649  16.449  0.00  0.00    -0.248 NA
ATOM     16  C4  ZIN A   1      15.884   5.969  16.517  0.00  0.00     0.078 A 
ATOM     17  S57 ZIN A   1      15.276   6.306  14.955  0.00  0.00    -0.084 SA
ATOM     18  C56 ZIN A   1      16.860   5.978  14.258  0.00  0.00     0.080 A 
BRANCH  16  19
ATOM     19  C2  ZIN A   1      15.078   6.031  17.789  0.00  0.00     0.037 C 
ATOM     20  C1  ZIN A   1      15.804   6.908  18.811  0.00  0.00     0.016 C 
ATOM     21  C3  ZIN A   1      13.701   6.629  17.491  0.00  0.00     0.016 C 
ENDBRANCH  16  19
ENDBRANCH  13  14
ENDBRANCH   9  13
ENDBRANCH   6   7
BRANCH   6  22
ATOM     22  C15 ZIN A   1      17.805   0.179  13.818  0.00  0.00     0.065 C 
BRANCH  22  23
ATOM     23  C16 ZIN A   1      17.720  -0.793  14.997  0.00  0.00     0.275 C 
BRANCH  23  24
ATOM     24  N17 ZIN A   1      18.107  -0.100  16.232  0.00  0.00     0.092 N 
ATOM     25  C22 ZIN A   1      16.927   0.225  17.046  0.00  0.00     0.298 C 
ATOM     26  C21 ZIN A   1      17.369   0.998  18.292  0.00  0.00     0.198 C 
ATOM     27  O20 ZIN A   1      18.327   0.220  19.014  0.00  0.00    -0.388 OA
ATOM     28  C19 ZIN A   1      19.490  -0.115  18.252  0.00  0.00     0.198 C 
ATOM     29  C18 ZIN A   1      19.070  -0.898  17.006  0.00  0.00     0.298 C 
ENDBRANCH  23  24
ENDBRANCH  22  23
ENDBRANCH   6  22
ENDBRANCH   3   6
ENDBRANCH   1   2
BRANCH   1  30
ATOM     30  C28 ZIN A   1      19.042  -2.215   9.921  0.00  0.00     0.027 C 
BRANCH  30  31
ATOM     31  C29 ZIN A   1      19.724  -1.640   8.678  0.00  0.00     0.027 C 
BRANCH  31  32
ATOM     32  C30 ZIN A   1      18.724  -1.596   7.522  0.00  0.00     0.091 C 
BRANCH  32  33
ATOM     33  C32 ZIN A   1      17.466  -0.846   7.965  0.00  0.00     0.063 C 
BRANCH  33  34
ATOM     34  C33 ZIN A   1      17.857   0.474   8.576  0.00  0.00    -0.056 A 
ATOM     35  C38 ZIN A   1      18.724   1.317   7.906  0.00  0.00     0.007 A 
ATOM     36  C37 ZIN A   1      19.080   2.530   8.465  0.00  0.00     0.001 A 
ATOM     37  C36 ZIN A   1      18.576   2.898   9.699  0.00  0.00     0.000 A 
ATOM     38  C35 ZIN A   1      17.713   2.052  10.372  0.00  0.00     0.001 A 
ATOM     39  C34 ZIN A   1      17.354   0.841   9.810  0.00  0.00     0.007 A 
ENDBRANCH  33  34
ENDBRANCH  32  33
BRANCH  32  40
ATOM     40  N39 ZIN A   1      18.366  -2.962   7.134  0.00  0.00    -0.332 N 
ATOM     41  C40 ZIN A   1      18.931  -3.523   6.046  0.00  0.00     0.361 C 
ATOM     42  O41 ZIN A   1      19.736  -2.896   5.387  0.00  0.00    -0.239 OA
ATOM     43  H95 ZIN A   1      17.724  -3.463   7.659  0.00  0.00     0.165 HD
BRANCH  41  44
ATOM     44  O42 ZIN A   1      18.602  -4.780   5.690  0.00  0.00    -0.299 OA
BRANCH  44  45
ATOM     45  C43 ZIN A   1      17.234  -5.198   5.944  0.00  0.00     0.228 C 
BRANCH  45  46
ATOM     46  C44 ZIN A   1      16.433  -5.093   4.672  0.00  0.00     0.025 A 
ATOM     47  S48 ZIN A   1      15.496  -6.386   3.926  0.00  0.00    -0.084 SA
ATOM     48  C47 ZIN A   1      15.028  -5.330   2.665  0.00  0.00     0.166 A 
ATOM     49  N46 ZIN A   1      15.554  -4.165   2.842  0.00  0.00    -0.265 NA
ATOM     50  C45 ZIN A   1      16.313  -4.004   3.907  0.00  0.00     0.133 A 
ENDBRANCH  45  46
ENDBRANCH  44  45
ENDBRANCH  41  44
ENDBRANCH  32  40
ENDBRANCH  31  32
ENDBRANCH  30  31
ENDBRANCH   1  30
BRANCH   1  51
ATOM     51  C49 ZIN A   1      20.305  -3.577  11.592  0.00  0.00     0.063 C 
BRANCH  51  52
ATOM     52  C50 ZIN A   1      19.299  -4.530  11.000  0.00  0.00    -0.056 A 
ATOM     53  C55 ZIN A   1      19.576  -5.176   9.811  0.00  0.00     0.007 A 
ATOM     54  C54 ZIN A   1      18.655  -6.055   9.270  0.00  0.00     0.001 A 
ATOM     55  C53 ZIN A   1      17.453  -6.279   9.915  0.00  0.00     0.000 A 
ATOM     56  C52 ZIN A   1      17.173  -5.628  11.102  0.00  0.00     0.001 A 
ATOM     57  C51 ZIN A   1      18.096  -4.754  11.645  0.00  0.00     0.007 A 
ENDBRANCH  51  52
ENDBRANCH   1  51
TORSDOF 20
ENDMDL
MODEL 2
REMARK VINA RESULT:      -9.0      2.090     11.866
REMARK  20 active torsions:
REMARK  status: ('A' for Active; 'I' for Inactive)
REMARK    1  A    between atoms: C2_2  and  C4_4 
REMARK    2  A    between atoms: C6_6  and  C7_7 
REMARK    3  A    between atoms: C7_7  and  N8_8 
REMARK       I    between atoms: N8_8  and  C10_10 
REMARK       I    between atoms: C10_10  and  N12_12 
REMARK    4  A    between atoms: N12_12  and  C13_13 
REMARK    5  A    between atoms: C13_13  and  C15_14 
REMARK    6  A    between atoms: C13_13  and  C23_22 
REMARK    7  A    between atoms: C15_14  and  C16_15 
REMARK    8  A    between atoms: C16_15  and  N17_16 
REMARK       I    between atoms: C23_22  and  N25_24 
REMARK    9  A    between atoms: N25_24  and  C26_25 
REMARK   10  A    between atoms: C26_25  and  C28_26 
REMARK   11  A    between atoms: C26_25  and  C49_46 
REMARK   12  A    between atoms: C28_26  and  C29_27 
REMARK   13  A    between atoms: C29_27  and  C30_28 
REMARK   14  A    between atoms: C30_28  and  C32_29 
REMARK   15  A    between atoms: C30_28  and  N39_36 
REMARK   16  A    between atoms: C32_29  and  C33_30 
REMARK       I    between atoms: N39_36  and  C40_37 
REMARK   17  A    between atoms: C40_37  and  O42_39 
REMARK   18  A    between atoms: O42_39  and  C43_40 
REMARK   19  A    between atoms: C43_40  and  C44_41 
REMARK   20  A    between atoms: C49_46  and  C50_47 
ROOT
ATOM      1  C26 ZIN A   1      18.473  -0.912  13.786  0.00  0.00     0.088 C 
ENDROOT
BRANCH   1   2
ATOM      2  N25 ZIN A   1      19.011  -1.542  12.578  0.00  0.00    -0.354 N 
ATOM      3  C23 ZIN A   1      18.199  -1.792  11.531  0.00  0.00     0.240 C 
ATOM      4  O24 ZIN A   1      17.025  -1.495  11.590  0.00  0.00    -0.271 OA
ATOM      5  H83 ZIN A   1      19.951  -1.778  12.531  0.00  0.00     0.162 HD
BRANCH   3   6
ATOM      6  C13 ZIN A   1      18.752  -2.439  10.288  0.00  0.00     0.180 C 
BRANCH   6   7
ATOM      7  N12 ZIN A   1      17.820  -3.467   9.817  0.00  0.00    -0.330 N 
ATOM      8  C10 ZIN A   1      18.292  -4.601   9.261  0.00  0.00     0.319 C 
ATOM      9  N8  ZIN A   1      17.434  -5.546   8.829  0.00  0.00    -0.333 N 
ATOM     10  O11 ZIN A   1      19.490  -4.771   9.152  0.00  0.00    -0.247 OA
ATOM     11  C9  ZIN A   1      15.990  -5.341   8.961  0.00  0.00     0.154 C 
ATOM     12  H70 ZIN A   1      16.863  -3.331   9.904  0.00  0.00     0.165 HD
BRANCH   9  13
ATOM     13  C7  ZIN A   1      17.947  -6.779   8.226  0.00  0.00     0.186 C 
BRANCH  13  14
ATOM     14  C6  ZIN A   1      17.530  -6.842   6.779  0.00  0.00     0.060 A 
ATOM     15  N5  ZIN A   1      17.356  -5.765   6.040  0.00  0.00    -0.248 NA
ATOM     16  C4  ZIN A   1      16.998  -5.945   4.813  0.00  0.00     0.078 A 
ATOM     17  S57 ZIN A   1      16.839  -7.615   4.484  0.00  0.00    -0.084 SA
ATOM     18  C56 ZIN A   1      17.307  -7.994   6.140  0.00  0.00     0.080 A 
BRANCH  16  19
ATOM     19  C2  ZIN A   1      16.751  -4.842   3.816  0.00  0.00     0.037 C 
ATOM     20  C1  ZIN A   1      17.802  -4.912   2.706  0.00  0.00     0.016 C 
ATOM     21  C3  ZIN A   1      15.355  -5.008   3.209  0.00  0.00     0.016 C 
ENDBRANCH  16  19
ENDBRANCH  13  14
ENDBRANCH   9  13
ENDBRANCH   6   7
BRANCH   6  22
ATOM     22  C15 ZIN A   1      18.936  -1.380   9.199  0.00  0.00     0.065 C 
BRANCH  22  23
ATOM     23  C16 ZIN A   1      17.688  -1.337   8.313  0.00  0.00     0.275 C 
BRANCH  23  24
ATOM     24  N17 ZIN A   1      18.088  -1.154   6.912  0.00  0.00     0.092 N 
ATOM     25  C22 ZIN A   1      18.958   0.021   6.762  0.00  0.00     0.298 C 
ATOM     26  C21 ZIN A   1      19.302   0.210   5.282  0.00  0.00     0.198 C 
ATOM     27  O20 ZIN A   1      19.913  -0.984   4.784  0.00  0.00    -0.388 OA
ATOM     28  C19 ZIN A   1      19.093  -2.148   4.914  0.00  0.00     0.198 C 
ATOM     29  C18 ZIN A   1      18.747  -2.361   6.390  0.00  0.00     0.298 C 
ENDBRANCH  23  24
ENDBRANCH  22  23
ENDBRANCH   6  22
ENDBRANCH   3   6
ENDBRANCH   1   2
BRANCH   1  30
ATOM     30  C28 ZIN A   1      18.856   0.570  13.802  0.00  0.00     0.027 C 
BRANCH  30  31
ATOM     31  C29 ZIN A   1      17.595   1.424  13.649  0.00  0.00     0.027 C 
BRANCH  31  32
ATOM     32  C30 ZIN A   1      17.960   2.902  13.797  0.00  0.00     0.091 C 
BRANCH  32  33
ATOM     33  C32 ZIN A   1      19.226   3.198  12.990  0.00  0.00     0.063 C 
BRANCH  33  34
ATOM     34  C33 ZIN A   1      18.860   3.413  11.544  0.00  0.00    -0.056 A 
ATOM     35  C38 ZIN A   1      18.116   4.518  11.175  0.00  0.00     0.007 A 
ATOM     36  C37 ZIN A   1      17.785   4.717   9.848  0.00  0.00     0.001 A 
ATOM     37  C36 ZIN A   1      18.190   3.807   8.890  0.00  0.00     0.000 A 
ATOM     38  C35 ZIN A   1      18.929   2.698   9.259  0.00  0.00     0.001 A 
ATOM     39  C34 ZIN A   1      19.264   2.502  10.586  0.00  0.00     0.007 A 
ENDBRANCH  33  34
ENDBRANCH  32  33
BRANCH  32  40
ATOM     40  N39 ZIN A   1      18.200   3.206  15.209  0.00  0.00    -0.332 N 
ATOM     41  C40 ZIN A   1      18.006   4.458  15.671  0.00  0.00     0.361 C 
ATOM     42  O41 ZIN A   1      17.632   5.333  14.916  0.00  0.00    -0.239 OA
ATOM     43  H95 ZIN A   1      18.498   2.508  15.812  0.00  0.00     0.165 HD
BRANCH  41  44
ATOM     44  O42 ZIN A   1      18.226   4.737  16.970  0.00  0.00    -0.299 OA
BRANCH  44  45
ATOM     45  C43 ZIN A   1      18.253   6.140  17.346  0.00  0.00     0.228 C 
BRANCH  45  46
ATOM     46  C44 ZIN A   1      17.257   6.381  18.452  0.00  0.00     0.025 A 
ATOM     47  S48 ZIN A   1      15.690   5.594  18.626  0.00  0.00    -0.084 SA
ATOM     48  C47 ZIN A   1      15.393   6.484  20.057  0.00  0.00     0.166 A 
ATOM     49  N46 ZIN A   1      16.390   7.264  20.309  0.00  0.00    -0.265 NA
ATOM     50  C45 ZIN A   1      17.405   7.235  19.470  0.00  0.00     0.133 A 
ENDBRANCH  45  46
ENDBRANCH  44  45
ENDBRANCH  41  44
ENDBRANCH  32  40
ENDBRANCH  31  32
ENDBRANCH  30  31
ENDBRANCH   1  30
BRANCH   1  51
ATOM     51  C49 ZIN A   1      19.055  -1.601  15.022  0.00  0.00     0.063 C 
BRANCH  51  52
ATOM     52  C50 ZIN A   1      18.625  -0.858  16.260  0.00  0.00    -0.056 A 
ATOM     53  C55 ZIN A   1      17.293  -0.537  16.445  0.00  0.00     0.007 A 
ATOM     54  C54 ZIN A   1      16.897   0.141  17.584  0.00  0.00     0.001 A 
ATOM     55  C53 ZIN A   1      17.835   0.504  18.533  0.00  0.00     0.000 A 
ATOM     56  C52 ZIN A   1      19.168   0.188  18.345  0.00  0.00     0.001 A 
ATOM     57  C51 ZIN A   1      19.563  -0.494  17.209  0.00  0.00     0.007 A 
ENDBRANCH  51  52
ENDBRANCH   1  51
TORSDOF 20
ENDMDL
MODEL 3
REMARK VINA RESULT:      -9.0      2.327     11.071
REMARK  20 active torsions:
REMARK  status: ('A' for Active; 'I' for Inactive)
REMARK    1  A    between atoms: C2_2  and  C4_4 
REMARK    2  A    between atoms: C6_6  and  C7_7 
REMARK    3  A    between atoms: C7_7  and  N8_8 
REMARK       I    between atoms: N8_8  and  C10_10 
REMARK       I    between atoms: C10_10  and  N12_12 
REMARK    4  A    between atoms: N12_12  and  C13_13 
REMARK    5  A    between atoms: C13_13  and  C15_14 
REMARK    6  A    between atoms: C13_13  and  C23_22 
REMARK    7  A    between atoms: C15_14  and  C16_15 
REMARK    8  A    between atoms: C16_15  and  N17_16 
REMARK       I    between atoms: C23_22  and  N25_24 
REMARK    9  A    between atoms: N25_24  and  C26_25 
REMARK   10  A    between atoms: C26_25  and  C28_26 
REMARK   11  A    between atoms: C26_25  and  C49_46 
REMARK   12  A    between atoms: C28_26  and  C29_27 
REMARK   13  A    between atoms: C29_27  and  C30_28 
REMARK   14  A    between atoms: C30_28  and  C32_29 
REMARK   15  A    between atoms: C30_28  and  N39_36 
REMARK   16  A    between atoms: C32_29  and  C33_30 
REMARK       I    between atoms: N39_36  and  C40_37 
REMARK   17  A    between atoms: C40_37  and  O42_39 
REMARK   18  A    between atoms: O42_39  and  C43_40 
REMARK   19  A    between atoms: C43_40  and  C44_41 
REMARK   20  A    between atoms: C49_46  and  C50_47 
ROOT
ATOM      1  C26 ZIN A   1      19.205   3.279  14.601  0.00  0.00     0.088 C 
ENDROOT
BRANCH   1   2
ATOM      2  N25 ZIN A   1      18.492   2.343  13.727  0.00  0.00    -0.354 N 
ATOM      3  C23 ZIN A   1      18.900   1.062  13.636  0.00  0.00     0.240 C 
ATOM      4  O24 ZIN A   1      19.858   0.684  14.276  0.00  0.00    -0.271 OA
ATOM      5  H83 ZIN A   1      17.725   2.646  13.215  0.00  0.00     0.162 HD
BRANCH   3   6
ATOM      6  C13 ZIN A   1      18.167   0.100  12.738  0.00  0.00     0.180 C 
BRANCH   6   7
ATOM      7  N12 ZIN A   1      18.666   0.235  11.367  0.00  0.00    -0.330 N 
ATOM      8  C10 ZIN A   1      17.803   0.224  10.331  0.00  0.00     0.319 C 
ATOM      9  N8  ZIN A   1      18.263   0.349   9.070  0.00  0.00    -0.333 N 
ATOM     10  O11 ZIN A   1      16.611   0.104  10.535  0.00  0.00    -0.247 OA
ATOM     11  C9  ZIN A   1      19.700   0.494   8.825  0.00  0.00     0.154 C 
ATOM     12  H70 ZIN A   1      19.618   0.330  11.205  0.00  0.00     0.165 HD
BRANCH   9  13
ATOM     13  C7  ZIN A   1      17.325   0.339   7.945  0.00  0.00     0.186 C 
BRANCH  13  14
ATOM     14  C6  ZIN A   1      17.974  -0.324   6.756  0.00  0.00     0.060 A 
ATOM     15  N5  ZIN A   1      18.191  -1.622   6.694  0.00  0.00    -0.248 NA
ATOM     16  C4  ZIN A   1      18.754  -2.073   5.624  0.00  0.00     0.078 A 
ATOM     17  S57 ZIN A   1      19.078  -0.789   4.542  0.00  0.00    -0.084 SA
ATOM     18  C56 ZIN A   1      18.375   0.358   5.680  0.00  0.00     0.080 A 
BRANCH  16  19
ATOM     19  C2  ZIN A   1      19.084  -3.521   5.369  0.00  0.00     0.037 C 
ATOM     20  C1  ZIN A   1      18.965  -4.310   6.674  0.00  0.00     0.016 C 
ATOM     21  C3  ZIN A   1      18.108  -4.092   4.337  0.00  0.00     0.016 C 
ENDBRANCH  16  19
ENDBRANCH  13  14
ENDBRANCH   9  13
ENDBRANCH   6   7
BRANCH   6  22
ATOM     22  C15 ZIN A   1      18.398  -1.332  13.226  0.00  0.00     0.065 C 
BRANCH  22  23
ATOM     23  C16 ZIN A   1      19.414  -2.024  12.315  0.00  0.00     0.275 C 
BRANCH  23  24
ATOM     24  N17 ZIN A   1      18.872  -3.313  11.867  0.00  0.00     0.092 N 
ATOM     25  C22 ZIN A   1      17.414  -3.240  11.696  0.00  0.00     0.298 C 
ATOM     26  C21 ZIN A   1      16.884  -4.617  11.287  0.00  0.00     0.198 C 
ATOM     27  O20 ZIN A   1      17.548  -5.043  10.095  0.00  0.00    -0.388 OA
ATOM     28  C19 ZIN A   1      18.970  -5.125  10.225  0.00  0.00     0.198 C 
ATOM     29  C18 ZIN A   1      19.521  -3.754  10.623  0.00  0.00     0.298 C 
ENDBRANCH  23  24
ENDBRANCH  22  23
ENDBRANCH   6  22
ENDBRANCH   3   6
ENDBRANCH   1   2
BRANCH   1  30
ATOM     30  C28 ZIN A   1      18.450   3.415  15.925  0.00  0.00     0.027 C 
BRANCH  30  31
ATOM     31  C29 ZIN A   1      19.332   2.911  17.069  0.00  0.00     0.027 C 
BRANCH  31  32
ATOM     32  C30 ZIN A   1      18.619   3.145  18.403  0.00  0.00     0.091 C 
BRANCH  32  33
ATOM     33  C32 ZIN A   1      18.578   1.837  19.195  0.00  0.00     0.063 C 
BRANCH  33  34
ATOM     34  C33 ZIN A   1      18.359   0.684  18.250  0.00  0.00    -0.056 A 
ATOM     35  C38 ZIN A   1      17.134   0.519  17.632  0.00  0.00     0.007 A 
ATOM     36  C37 ZIN A   1      16.935  -0.536  16.762  0.00  0.00     0.001 A 
ATOM     37  C36 ZIN A   1      17.958  -1.432  16.515  0.00  0.00     0.000 A 
ATOM     38  C35 ZIN A   1      19.183  -1.270  17.137  0.00  0.00     0.001 A 
ATOM     39  C34 ZIN A   1      19.383  -0.212  18.004  0.00  0.00     0.007 A 
ENDBRANCH  33  34
ENDBRANCH  32  33
BRANCH  32  40
ATOM     40  N39 ZIN A   1      17.253   3.607  18.152  0.00  0.00    -0.332 N 
ATOM     41  C40 ZIN A   1      16.661   4.460  19.011  0.00  0.00     0.361 C 
ATOM     42  O41 ZIN A   1      17.261   4.846  19.995  0.00  0.00    -0.239 OA
ATOM     43  H95 ZIN A   1      16.773   3.300  17.367  0.00  0.00     0.165 HD
BRANCH  41  44
ATOM     44  O42 ZIN A   1      15.404   4.885  18.780  0.00  0.00    -0.299 OA
BRANCH  44  45
ATOM     45  C43 ZIN A   1      15.237   6.283  18.425  0.00  0.00     0.228 C 
BRANCH  45  46
ATOM     46  C44 ZIN A   1      14.441   6.384  17.149  0.00  0.00     0.025 A 
ATOM     47  S48 ZIN A   1      15.080   6.236  15.513  0.00  0.00    -0.084 SA
ATOM     48  C47 ZIN A   1      13.515   6.481  14.870  0.00  0.00     0.166 A 
ATOM     49  N46 ZIN A   1      12.664   6.655  15.825  0.00  0.00    -0.265 NA
ATOM     50  C45 ZIN A   1      13.127   6.610  17.058  0.00  0.00     0.133 A 
ENDBRANCH  45  46
ENDBRANCH  44  45
ENDBRANCH  41  44
ENDBRANCH  32  40
ENDBRANCH  31  32
ENDBRANCH  30  31
ENDBRANCH   1  30
BRANCH   1  51
ATOM     51  C49 ZIN A   1      19.292   4.646  13.920  0.00  0.00     0.063 C 
BRANCH  51  52
ATOM     52  C50 ZIN A   1      18.460   4.635  12.664  0.00  0.00    -0.056 A 
ATOM     53  C55 ZIN A   1      17.191   5.183  12.671  0.00  0.00     0.007 A 
ATOM     54  C54 ZIN A   1      16.428   5.177  11.517  0.00  0.00     0.001 A 
ATOM     55  C53 ZIN A   1      16.933   4.615  10.359  0.00  0.00     0.000 A 
ATOM     56  C52 ZIN A   1      18.200   4.062  10.354  0.00  0.00     0.001 A 
ATOM     57  C51 ZIN A   1      18.964   4.072  11.506  0.00  0.00     0.007 A 
ENDBRANCH  51  52
ENDBRANCH   1  51
TORSDOF 20
ENDMDL
MODEL 4
REMARK VINA RESULT:      -8.7      2.051      3.380
REMARK  20 active torsions:
REMARK  status: ('A' for Active; 'I' for Inactive)
REMARK    1  A    between atoms: C2_2  and  C4_4 
REMARK    2  A    between atoms: C6_6  and  C7_7 
REMARK    3  A    between atoms: C7_7  and  N8_8 
REMARK       I    between atoms: N8_8  and  C10_10 
REMARK       I    between atoms: C10_10  and  N12_12 
REMARK    4  A    between atoms: N12_12  and  C13_13 
REMARK    5  A    between atoms: C13_13  and  C15_14 
REMARK    6  A    between atoms: C13_13  and  C23_22 
REMARK    7  A    between atoms: C15_14  and  C16_15 
REMARK    8  A    between atoms: C16_15  and  N17_16 
REMARK       I    between atoms: C23_22  and  N25_24 
REMARK    9  A    between atoms: N25_24  and  C26_25 
REMARK   10  A    between atoms: C26_25  and  C28_26 
REMARK   11  A    between atoms: C26_25  and  C49_46 
REMARK   12  A    between atoms: C28_26  and  C29_27 
REMARK   13  A    between atoms: C29_27  and  C30_28 
REMARK   14  A    between atoms: C30_28  and  C32_29 
REMARK   15  A    between atoms: C30_28  and  N39_36 
REMARK   16  A    between atoms: C32_29  and  C33_30 
REMARK       I    between atoms: N39_36  and  C40_37 
REMARK   17  A    between atoms: C40_37  and  O42_39 
REMARK   18  A    between atoms: O42_39  and  C43_40 
REMARK   19  A    between atoms: C43_40  and  C44_41 
REMARK   20  A    between atoms: C49_46  and  C50_47 
ROOT
ATOM      1  C26 ZIN A   1      17.975  -4.149  10.336  0.00  0.00     0.088 C 
ENDROOT
BRANCH   1   2
ATOM      2  N25 ZIN A   1      18.138  -2.933  11.137  0.00  0.00    -0.354 N 
ATOM      3  C23 ZIN A   1      19.307  -2.692  11.763  0.00  0.00     0.240 C 
ATOM      4  O24 ZIN A   1      20.222  -3.480  11.664  0.00  0.00    -0.271 OA
ATOM      5  H83 ZIN A   1      17.406  -2.302  11.215  0.00  0.00     0.162 HD
BRANCH   3   6
ATOM      6  C13 ZIN A   1      19.475  -1.441  12.586  0.00  0.00     0.180 C 
BRANCH   6   7
ATOM      7  N12 ZIN A   1      18.836  -0.315  11.900  0.00  0.00    -0.330 N 
ATOM      8  C10 ZIN A   1      19.431   0.894  11.890  0.00  0.00     0.319 C 
ATOM      9  N8  ZIN A   1      18.844   1.929  11.258  0.00  0.00    -0.333 N 
ATOM     10  O11 ZIN A   1      20.500   1.050  12.449  0.00  0.00    -0.247 OA
ATOM     11  C9  ZIN A   1      17.557   1.741  10.584  0.00  0.00     0.154 C 
ATOM     12  H70 ZIN A   1      17.983  -0.440  11.454  0.00  0.00     0.165 HD
BRANCH   9  13
ATOM     13  C7  ZIN A   1      19.492   3.243  11.246  0.00  0.00     0.186 C 
BRANCH  13  14
ATOM     14  C6  ZIN A   1      18.833   4.138  12.265  0.00  0.00     0.060 A 
ATOM     15  N5  ZIN A   1      19.362   4.380  13.448  0.00  0.00    -0.248 NA
ATOM     16  C4  ZIN A   1      18.705   5.163  14.236  0.00  0.00     0.078 A 
ATOM     17  S57 ZIN A   1      17.261   5.682  13.482  0.00  0.00    -0.084 SA
ATOM     18  C56 ZIN A   1      17.667   4.749  12.043  0.00  0.00     0.080 A 
BRANCH  16  19
ATOM     19  C2  ZIN A   1      19.144   5.557  15.623  0.00  0.00     0.037 C 
ATOM     20  C1  ZIN A   1      20.668   5.684  15.658  0.00  0.00     0.016 C 
ATOM     21  C3  ZIN A   1      18.511   6.900  15.995  0.00  0.00     0.016 C 
ENDBRANCH  16  19
ENDBRANCH  13  14
ENDBRANCH   9  13
ENDBRANCH   6   7
BRANCH   6  22
ATOM     22  C15 ZIN A   1      18.822  -1.640  13.956  0.00  0.00     0.065 C 
BRANCH  22  23
ATOM     23  C16 ZIN A   1      17.834  -0.501  14.221  0.00  0.00     0.275 C 
BRANCH  23  24
ATOM     24  N17 ZIN A   1      18.076   0.056  15.558  0.00  0.00     0.092 N 
ATOM     25  C22 ZIN A   1      18.804  -0.901  16.404  0.00  0.00     0.298 C 
ATOM     26  C21 ZIN A   1      18.982  -0.305  17.803  0.00  0.00     0.198 C 
ATOM     27  O20 ZIN A   1      19.661   0.950  17.698  0.00  0.00    -0.388 OA
ATOM     28  C19 ZIN A   1      18.980   1.906  16.882  0.00  0.00     0.198 C 
ATOM     29  C18 ZIN A   1      18.801   1.333  15.473  0.00  0.00     0.298 C 
ENDBRANCH  23  24
ENDBRANCH  22  23
ENDBRANCH   6  22
ENDBRANCH   3   6
ENDBRANCH   1   2
BRANCH   1  30
ATOM     30  C28 ZIN A   1      18.017  -3.790   8.849  0.00  0.00     0.027 C 
BRANCH  30  31
ATOM     31  C29 ZIN A   1      19.373  -4.195   8.265  0.00  0.00     0.027 C 
BRANCH  31  32
ATOM     32  C30 ZIN A   1      19.238  -4.391   6.754  0.00  0.00     0.091 C 
BRANCH  32  33
ATOM     33  C32 ZIN A   1      20.015  -3.292   6.026  0.00  0.00     0.063 C 
BRANCH  33  34
ATOM     34  C33 ZIN A   1      19.181  -2.039   5.972  0.00  0.00    -0.056 A 
ATOM     35  C38 ZIN A   1      18.418  -1.763   4.853  0.00  0.00     0.007 A 
ATOM     36  C37 ZIN A   1      17.650  -0.615   4.806  0.00  0.00     0.001 A 
ATOM     37  C36 ZIN A   1      17.649   0.262   5.874  0.00  0.00     0.000 A 
ATOM     38  C35 ZIN A   1      18.417  -0.011   6.992  0.00  0.00     0.001 A 
ATOM     39  C34 ZIN A   1      19.182  -1.161   7.041  0.00  0.00     0.007 A 
ENDBRANCH  33  34
ENDBRANCH  32  33
BRANCH  32  40
ATOM     40  N39 ZIN A   1      17.825  -4.321   6.376  0.00  0.00    -0.332 N 
ATOM     41  C40 ZIN A   1      17.321  -5.198   5.485  0.00  0.00     0.361 C 
ATOM     42  O41 ZIN A   1      18.039  -6.046   4.995  0.00  0.00    -0.239 OA
ATOM     43  H95 ZIN A   1      17.251  -3.644   6.768  0.00  0.00     0.165 HD
BRANCH  41  44
ATOM     44  O42 ZIN A   1      16.021  -5.133   5.139  0.00  0.00    -0.299 OA
BRANCH  44  45
ATOM     45  C43 ZIN A   1      15.726  -4.888   3.738  0.00  0.00     0.228 C 
BRANCH  45  46
ATOM     46  C44 ZIN A   1      14.616  -5.806   3.292  0.00  0.00     0.025 A 
ATOM     47  S48 ZIN A   1      13.607  -5.596   1.863  0.00  0.00    -0.084 SA
ATOM     48  C47 ZIN A   1      12.759  -7.032   2.240  0.00  0.00     0.166 A 
ATOM     49  N46 ZIN A   1      13.224  -7.551   3.326  0.00  0.00    -0.265 NA
ATOM     50  C45 ZIN A   1      14.219  -6.919   3.916  0.00  0.00     0.133 A 
ENDBRANCH  45  46
ENDBRANCH  44  45
ENDBRANCH  41  44
ENDBRANCH  32  40
ENDBRANCH  31  32
ENDBRANCH  30  31
ENDBRANCH   1  30
BRANCH   1  51
ATOM     51  C49 ZIN A   1      16.628  -4.799  10.665  0.00  0.00     0.063 C 
BRANCH  51  52
ATOM     52  C50 ZIN A   1      16.272  -5.787   9.586  0.00  0.00    -0.056 A 
ATOM     53  C55 ZIN A   1      17.140  -6.819   9.280  0.00  0.00     0.007 A 
ATOM     54  C54 ZIN A   1      16.810  -7.730   8.292  0.00  0.00     0.001 A 
ATOM     55  C53 ZIN A   1      15.617  -7.603   7.606  0.00  0.00     0.000 A 
ATOM     56  C52 ZIN A   1      14.752  -6.568   7.908  0.00  0.00     0.001 A 
ATOM     57  C51 ZIN A   1      15.079  -5.660   8.898  0.00  0.00     0.007 A 
ENDBRANCH  51  52
ENDBRANCH   1  51
TORSDOF 20
ENDMDL
MODEL 5
REMARK VINA RESULT:      -8.6      2.596     11.885
REMARK  20 active torsions:
REMARK  status: ('A' for Active; 'I' for Inactive)
REMARK    1  A    between atoms: C2_2  and  C4_4 
REMARK    2  A    between atoms: C6_6  and  C7_7 
REMARK    3  A    between atoms: C7_7  and  N8_8 
REMARK       I    between atoms: N8_8  and  C10_10 
REMARK       I    between atoms: C10_10  and  N12_12 
REMARK    4  A    between atoms: N12_12  and  C13_13 
REMARK    5  A    between atoms: C13_13  and  C15_14 
REMARK    6  A    between atoms: C13_13  and  C23_22 
REMARK    7  A    between atoms: C15_14  and  C16_15 
REMARK    8  A    between atoms: C16_15  and  N17_16 
REMARK       I    between atoms: C23_22  and  N25_24 
REMARK    9  A    between atoms: N25_24  and  C26_25 
REMARK   10  A    between atoms: C26_25  and  C28_26 
REMARK   11  A    between atoms: C26_25  and  C49_46 
REMARK   12  A    between atoms: C28_26  and  C29_27 
REMARK   13  A    between atoms: C29_27  and  C30_28 
REMARK   14  A    between atoms: C30_28  and  C32_29 
REMARK   15  A    between atoms: C30_28  and  N39_36 
REMARK   16  A    between atoms: C32_29  and  C33_30 
REMARK       I    between atoms: N39_36  and  C40_37 
REMARK   17  A    between atoms: C40_37  and  O42_39 
REMARK   18  A    between atoms: O42_39  and  C43_40 
REMARK   19  A    between atoms: C43_40  and  C44_41 
REMARK   20  A    between atoms: C49_46  and  C50_47 
ROOT
ATOM      1  C26 ZIN A   1      18.106   0.602  13.472  0.00  0.00     0.088 C 
ENDROOT
BRANCH   1   2
ATOM      2  N25 ZIN A   1      18.503   0.065  12.168  0.00  0.00    -0.354 N 
ATOM      3  C23 ZIN A   1      17.843  -0.987  11.644  0.00  0.00     0.240 C 
ATOM      4  O24 ZIN A   1      16.922  -1.489  12.251  0.00  0.00    -0.271 OA
ATOM      5  H83 ZIN A   1      19.240   0.468  11.681  0.00  0.00     0.162 HD
BRANCH   3   6
ATOM      6  C13 ZIN A   1      18.251  -1.538  10.302  0.00  0.00     0.180 C 
BRANCH   6   7
ATOM      7  N12 ZIN A   1      17.616  -2.843  10.097  0.00  0.00    -0.330 N 
ATOM      8  C10 ZIN A   1      18.358  -3.900   9.711  0.00  0.00     0.319 C 
ATOM      9  N8  ZIN A   1      17.775  -5.100   9.523  0.00  0.00    -0.333 N 
ATOM     10  O11 ZIN A   1      19.554  -3.771   9.534  0.00  0.00    -0.247 OA
ATOM     11  C9  ZIN A   1      16.334  -5.256   9.738  0.00  0.00     0.154 C 
ATOM     12  H70 ZIN A   1      16.662  -2.946  10.239  0.00  0.00     0.165 HD
BRANCH   9  13
ATOM     13  C7  ZIN A   1      18.581  -6.249   9.105  0.00  0.00     0.186 C 
BRANCH  13  14
ATOM     14  C6  ZIN A   1      18.145  -6.696   7.733  0.00  0.00     0.060 A 
ATOM     15  N5  ZIN A   1      17.662  -7.898   7.495  0.00  0.00    -0.248 NA
ATOM     16  C4  ZIN A   1      17.322  -8.166   6.279  0.00  0.00     0.078 A 
ATOM     17  S57 ZIN A   1      17.618  -6.814   5.274  0.00  0.00    -0.084 SA
ATOM     18  C56 ZIN A   1      18.217  -5.905   6.659  0.00  0.00     0.080 A 
BRANCH  16  19
ATOM     19  C2  ZIN A   1      16.753  -9.481   5.812  0.00  0.00     0.037 C 
ATOM     20  C1  ZIN A   1      17.029  -9.653   4.316  0.00  0.00     0.016 C 
ATOM     21  C3  ZIN A   1      17.410 -10.625   6.587  0.00  0.00     0.016 C 
ENDBRANCH  16  19
ENDBRANCH  13  14
ENDBRANCH   9  13
ENDBRANCH   6   7
BRANCH   6  22
ATOM     22  C15 ZIN A   1      17.806  -0.577   9.198  0.00  0.00     0.065 C 
BRANCH  22  23
ATOM     23  C16 ZIN A   1      19.007  -0.214   8.322  0.00  0.00     0.275 C 
BRANCH  23  24
ATOM     24  N17 ZIN A   1      18.766  -0.669   6.947  0.00  0.00     0.092 N 
ATOM     25  C22 ZIN A   1      19.229   0.330   5.973  0.00  0.00     0.298 C 
ATOM     26  C21 ZIN A   1      18.905  -0.156   4.558  0.00  0.00     0.198 C 
ATOM     27  O20 ZIN A   1      19.507  -1.437   4.349  0.00  0.00    -0.388 OA
ATOM     28  C19 ZIN A   1      19.078  -2.433   5.280  0.00  0.00     0.198 C 
ATOM     29  C18 ZIN A   1      19.404  -1.971   6.702  0.00  0.00     0.298 C 
ENDBRANCH  23  24
ENDBRANCH  22  23
ENDBRANCH   6  22
ENDBRANCH   3   6
ENDBRANCH   1   2
BRANCH   1  30
ATOM     30  C28 ZIN A   1      17.309   1.892  13.271  0.00  0.00     0.027 C 
BRANCH  30  31
ATOM     31  C29 ZIN A   1      17.823   2.965  14.233  0.00  0.00     0.027 C 
BRANCH  31  32
ATOM     32  C30 ZIN A   1      17.299   4.335  13.797  0.00  0.00     0.091 C 
BRANCH  32  33
ATOM     33  C32 ZIN A   1      18.372   5.052  12.975  0.00  0.00     0.063 C 
BRANCH  33  34
ATOM     34  C33 ZIN A   1      18.674   4.251  11.735  0.00  0.00    -0.056 A 
ATOM     35  C38 ZIN A   1      19.799   3.449  11.687  0.00  0.00     0.007 A 
ATOM     36  C37 ZIN A   1      20.073   2.711  10.550  0.00  0.00     0.001 A 
ATOM     37  C36 ZIN A   1      19.228   2.781   9.459  0.00  0.00     0.000 A 
ATOM     38  C35 ZIN A   1      18.106   3.589   9.505  0.00  0.00     0.001 A 
ATOM     39  C34 ZIN A   1      17.829   4.323  10.643  0.00  0.00     0.007 A 
ENDBRANCH  33  34
ENDBRANCH  32  33
BRANCH  32  40
ATOM     40  N39 ZIN A   1      16.977   5.134  14.981  0.00  0.00    -0.332 N 
ATOM     41  C40 ZIN A   1      15.831   5.842  15.025  0.00  0.00     0.361 C 
ATOM     42  O41 ZIN A   1      15.065   5.817  14.081  0.00  0.00    -0.239 OA
ATOM     43  H95 ZIN A   1      17.587   5.153  15.735  0.00  0.00     0.165 HD
BRANCH  41  44
ATOM     44  O42 ZIN A   1      15.534   6.576  16.114  0.00  0.00    -0.299 OA
BRANCH  44  45
ATOM     45  C43 ZIN A   1      16.568   6.696  17.127  0.00  0.00     0.228 C 
BRANCH  45  46
ATOM     46  C44 ZIN A   1      16.352   5.650  18.190  0.00  0.00     0.025 A 
ATOM     47  S48 ZIN A   1      17.476   4.365  18.626  0.00  0.00    -0.084 SA
ATOM     48  C47 ZIN A   1      16.383   3.799  19.814  0.00  0.00     0.166 A 
ATOM     49  N46 ZIN A   1      15.319   4.529  19.822  0.00  0.00    -0.265 NA
ATOM     50  C45 ZIN A   1      15.268   5.529  18.965  0.00  0.00     0.133 A 
ENDBRANCH  45  46
ENDBRANCH  44  45
ENDBRANCH  41  44
ENDBRANCH  32  40
ENDBRANCH  31  32
ENDBRANCH  30  31
ENDBRANCH   1  30
BRANCH   1  51
ATOM     51  C49 ZIN A   1      19.357   0.900  14.302  0.00  0.00     0.063 C 
BRANCH  51  52
ATOM     52  C50 ZIN A   1      19.177   0.352  15.694  0.00  0.00    -0.056 A 
ATOM     53  C55 ZIN A   1      19.228   1.202  16.783  0.00  0.00     0.007 A 
ATOM     54  C54 ZIN A   1      19.058   0.700  18.060  0.00  0.00     0.001 A 
ATOM     55  C53 ZIN A   1      18.846  -0.653  18.248  0.00  0.00     0.000 A 
ATOM     56  C52 ZIN A   1      18.801  -1.504  17.160  0.00  0.00     0.001 A 
ATOM     57  C51 ZIN A   1      18.966  -1.001  15.883  0.00  0.00     0.007 A 
ENDBRANCH  51  52
ENDBRANCH   1  51
TORSDOF 20
ENDMDL
MODEL 6
REMARK VINA RESULT:      -8.6      2.630      6.057
REMARK  20 active torsions:
REMARK  status: ('A' for Active; 'I' for Inactive)
REMARK    1  A    between atoms: C2_2  and  C4_4 
REMARK    2  A    between atoms: C6_6  and  C7_7 
REMARK    3  A    between atoms: C7_7  and  N8_8 
REMARK       I    between atoms: N8_8  and  C10_10 
REMARK       I    between atoms: C10_10  and  N12_12 
REMARK    4  A    between atoms: N12_12  and  C13_13 
REMARK    5  A    between atoms: C13_13  and  C15_14 
REMARK    6  A    between atoms: C13_13  and  C23_22 
REMARK    7  A    between atoms: C15_14  and  C16_15 
REMARK    8  A    between atoms: C16_15  and  N17_16 
REMARK       I    between atoms: C23_22  and  N25_24 
REMARK    9  A    between atoms: N25_24  and  C26_25 
REMARK   10  A    between atoms: C26_25  and  C28_26 
REMARK   11  A    between atoms: C26_25  and  C49_46 
REMARK   12  A    between atoms: C28_26  and  C29_27 
REMARK   13  A    between atoms: C29_27  and  C30_28 
REMARK   14  A    between atoms: C30_28  and  C32_29 
REMARK   15  A    between atoms: C30_28  and  N39_36 
REMARK   16  A    between atoms: C32_29  and  C33_30 
REMARK       I    between atoms: N39_36  and  C40_37 
REMARK   17  A    between atoms: C40_37  and  O42_39 
REMARK   18  A    between atoms: O42_39  and  C43_40 
REMARK   19  A    between atoms: C43_40  and  C44_41 
REMARK   20  A    between atoms: C49_46  and  C50_47 
ROOT
ATOM      1  C26 ZIN A   1      17.969   2.518  14.244  0.00  0.00     0.088 C 
ENDROOT
BRANCH   1   2
ATOM      2  N25 ZIN A   1      18.382   2.567  15.649  0.00  0.00    -0.354 N 
ATOM      3  C23 ZIN A   1      18.180   3.686  16.371  0.00  0.00     0.240 C 
ATOM      4  O24 ZIN A   1      17.657   4.653  15.859  0.00  0.00    -0.271 OA
ATOM      5  H83 ZIN A   1      18.799   1.793  16.059  0.00  0.00     0.162 HD
BRANCH   3   6
ATOM      6  C13 ZIN A   1      18.603   3.736  17.816  0.00  0.00     0.180 C 
BRANCH   6   7
ATOM      7  N12 ZIN A   1      18.056   4.941  18.444  0.00  0.00    -0.330 N 
ATOM      8  C10 ZIN A   1      16.827   4.912  19.000  0.00  0.00     0.319 C 
ATOM      9  N8  ZIN A   1      16.324   6.021  19.579  0.00  0.00    -0.333 N 
ATOM     10  O11 ZIN A   1      16.176   3.886  18.981  0.00  0.00    -0.247 OA
ATOM     11  C9  ZIN A   1      17.110   7.257  19.602  0.00  0.00     0.154 C 
ATOM     12  H70 ZIN A   1      18.576   5.760  18.460  0.00  0.00     0.165 HD
BRANCH   9  13
ATOM     13  C7  ZIN A   1      14.990   5.989  20.184  0.00  0.00     0.186 C 
BRANCH  13  14
ATOM     14  C6  ZIN A   1      13.954   6.290  19.131  0.00  0.00     0.060 A 
ATOM     15  N5  ZIN A   1      14.253   6.431  17.856  0.00  0.00    -0.248 NA
ATOM     16  C4  ZIN A   1      13.280   6.688  17.048  0.00  0.00     0.078 A 
ATOM     17  S57 ZIN A   1      11.807   6.781  17.911  0.00  0.00    -0.084 SA
ATOM     18  C56 ZIN A   1      12.656   6.435  19.415  0.00  0.00     0.080 A 
BRANCH  16  19
ATOM     19  C2  ZIN A   1      13.423   6.884  15.560  0.00  0.00     0.037 C 
ATOM     20  C1  ZIN A   1      14.824   6.453  15.121  0.00  0.00     0.016 C 
ATOM     21  C3  ZIN A   1      12.377   6.036  14.832  0.00  0.00     0.016 C 
ENDBRANCH  16  19
ENDBRANCH  13  14
ENDBRANCH   9  13
ENDBRANCH   6   7
BRANCH   6  22
ATOM     22  C15 ZIN A   1      18.077   2.498  18.546  0.00  0.00     0.065 C 
BRANCH  22  23
ATOM     23  C16 ZIN A   1      19.180   1.438  18.613  0.00  0.00     0.275 C 
BRANCH  23  24
ATOM     24  N17 ZIN A   1      18.671   0.167  18.082  0.00  0.00     0.092 N 
ATOM     25  C22 ZIN A   1      17.308   0.326  17.553  0.00  0.00     0.298 C 
ATOM     26  C21 ZIN A   1      16.795  -1.032  17.065  0.00  0.00     0.198 C 
ATOM     27  O20 ZIN A   1      17.698  -1.554  16.087  0.00  0.00    -0.388 OA
ATOM     28  C19 ZIN A   1      19.034  -1.721  16.569  0.00  0.00     0.198 C 
ATOM     29  C18 ZIN A   1      19.571  -0.371  17.051  0.00  0.00     0.298 C 
ENDBRANCH  23  24
ENDBRANCH  22  23
ENDBRANCH   6  22
ENDBRANCH   3   6
ENDBRANCH   1   2
BRANCH   1  30
ATOM     30  C28 ZIN A   1      17.817   1.059  13.807  0.00  0.00     0.027 C 
BRANCH  30  31
ATOM     31  C29 ZIN A   1      19.166   0.531  13.316  0.00  0.00     0.027 C 
BRANCH  31  32
ATOM     32  C30 ZIN A   1      18.934  -0.570  12.278  0.00  0.00     0.091 C 
BRANCH  32  33
ATOM     33  C32 ZIN A   1      19.465  -1.899  12.818  0.00  0.00     0.063 C 
BRANCH  33  34
ATOM     34  C33 ZIN A   1      18.936  -3.031  11.976  0.00  0.00    -0.056 A 
ATOM     35  C38 ZIN A   1      17.579  -3.137  11.734  0.00  0.00     0.007 A 
ATOM     36  C37 ZIN A   1      17.095  -4.173  10.957  0.00  0.00     0.001 A 
ATOM     37  C36 ZIN A   1      17.965  -5.108  10.430  0.00  0.00     0.000 A 
ATOM     38  C35 ZIN A   1      19.322  -5.005  10.677  0.00  0.00     0.001 A 
ATOM     39  C34 ZIN A   1      19.807  -3.967  11.450  0.00  0.00     0.007 A 
ENDBRANCH  33  34
ENDBRANCH  32  33
BRANCH  32  40
ATOM     40  N39 ZIN A   1      19.640  -0.230  11.041  0.00  0.00    -0.332 N 
ATOM     41  C40 ZIN A   1      18.942   0.124   9.943  0.00  0.00     0.361 C 
ATOM     42  O41 ZIN A   1      17.728   0.160   9.979  0.00  0.00    -0.239 OA
ATOM     43  H95 ZIN A   1      20.609  -0.258  11.011  0.00  0.00     0.165 HD
BRANCH  41  44
ATOM     44  O42 ZIN A   1      19.592   0.437   8.805  0.00  0.00    -0.299 OA
BRANCH  44  45
ATOM     45  C43 ZIN A   1      18.775   0.710   7.635  0.00  0.00     0.228 C 
BRANCH  45  46
ATOM     46  C44 ZIN A   1      19.026  -0.348   6.591  0.00  0.00     0.025 A 
ATOM     47  S48 ZIN A   1      18.891  -2.090   6.825  0.00  0.00    -0.084 SA
ATOM     48  C47 ZIN A   1      19.337  -2.352   5.195  0.00  0.00     0.166 A 
ATOM     49  N46 ZIN A   1      19.554  -1.224   4.607  0.00  0.00    -0.265 NA
ATOM     50  C45 ZIN A   1      19.398  -0.131   5.326  0.00  0.00     0.133 A 
ENDBRANCH  45  46
ENDBRANCH  44  45
ENDBRANCH  41  44
ENDBRANCH  32  40
ENDBRANCH  31  32
ENDBRANCH  30  31
ENDBRANCH   1  30
BRANCH   1  51
ATOM     51  C49 ZIN A   1      19.030   3.201  13.378  0.00  0.00     0.063 C 
BRANCH  51  52
ATOM     52  C50 ZIN A   1      18.363   3.881  12.210  0.00  0.00    -0.056 A 
ATOM     53  C55 ZIN A   1      18.707   3.530  10.918  0.00  0.00     0.007 A 
ATOM     54  C54 ZIN A   1      18.091   4.150   9.846  0.00  0.00     0.001 A 
ATOM     55  C53 ZIN A   1      17.138   5.127  10.068  0.00  0.00     0.000 A 
ATOM     56  C52 ZIN A   1      16.798   5.482  11.360  0.00  0.00     0.001 A 
ATOM     57  C51 ZIN A   1      17.410   4.858  12.431  0.00  0.00     0.007 A 
ENDBRANCH  51  52
ENDBRANCH   1  51
TORSDOF 20
ENDMDL
MODEL 7
REMARK VINA RESULT:      -8.6      1.961      2.930
REMARK  20 active torsions:
REMARK  status: ('A' for Active; 'I' for Inactive)
REMARK    1  A    between atoms: C2_2  and  C4_4 
REMARK    2  A    between atoms: C6_6  and  C7_7 
REMARK    3  A    between atoms: C7_7  and  N8_8 
REMARK       I    between atoms: N8_8  and  C10_10 
REMARK       I    between atoms: C10_10  and  N12_12 
REMARK    4  A    between atoms: N12_12  and  C13_13 
REMARK    5  A    between atoms: C13_13  and  C15_14 
REMARK    6  A    between atoms: C13_13  and  C23_22 
REMARK    7  A    between atoms: C15_14  and  C16_15 
REMARK    8  A    between atoms: C16_15  and  N17_16 
REMARK       I    between atoms: C23_22  and  N25_24 
REMARK    9  A    between atoms: N25_24  and  C26_25 
REMARK   10  A    between atoms: C26_25  and  C28_26 
REMARK   11  A    between atoms: C26_25  and  C49_46 
REMARK   12  A    between atoms: C28_26  and  C29_27 
REMARK   13  A    between atoms: C29_27  and  C30_28 
REMARK   14  A    between atoms: C30_28  and  C32_29 
REMARK   15  A    between atoms: C30_28  and  N39_36 
REMARK   16  A    between atoms: C32_29  and  C33_30 
REMARK       I    between atoms: N39_36  and  C40_37 
REMARK   17  A    between atoms: C40_37  and  O42_39 
REMARK   18  A    between atoms: O42_39  and  C43_40 
REMARK   19  A    between atoms: C43_40  and  C44_41 
REMARK   20  A    between atoms: C49_46  and  C50_47 
ROOT
ATOM      1  C26 ZIN A   1      17.926  -0.284  12.285  0.00  0.00     0.088 C 
ENDROOT
BRANCH   1   2
ATOM      2  N25 ZIN A   1      17.913   0.556  13.486  0.00  0.00    -0.354 N 
ATOM      3  C23 ZIN A   1      19.061   0.799  14.149  0.00  0.00     0.240 C 
ATOM      4  O24 ZIN A   1      20.103   0.323  13.753  0.00  0.00    -0.271 OA
ATOM      5  H83 ZIN A   1      17.079   0.937  13.803  0.00  0.00     0.162 HD
BRANCH   3   6
ATOM      6  C13 ZIN A   1      19.048   1.662  15.384  0.00  0.00     0.180 C 
BRANCH   6   7
ATOM      7  N12 ZIN A   1      18.260   2.870  15.127  0.00  0.00    -0.330 N 
ATOM      8  C10 ZIN A   1      18.806   4.086  15.326  0.00  0.00     0.319 C 
ATOM      9  N8  ZIN A   1      18.082   5.198  15.089  0.00  0.00    -0.333 N 
ATOM     10  O11 ZIN A   1      19.953   4.180  15.719  0.00  0.00    -0.247 OA
ATOM     11  C9  ZIN A   1      16.700   5.084  14.615  0.00  0.00     0.154 C 
ATOM     12  H70 ZIN A   1      17.345   2.795  14.814  0.00  0.00     0.165 HD
BRANCH   9  13
ATOM     13  C7  ZIN A   1      18.676   6.519  15.305  0.00  0.00     0.186 C 
BRANCH  13  14
ATOM     14  C6  ZIN A   1      17.783   7.330  16.208  0.00  0.00     0.060 A 
ATOM     15  N5  ZIN A   1      17.286   6.856  17.332  0.00  0.00    -0.248 NA
ATOM     16  C4  ZIN A   1      16.533   7.645  18.022  0.00  0.00     0.078 A 
ATOM     17  S57 ZIN A   1      16.385   9.156  17.235  0.00  0.00    -0.084 SA
ATOM     18  C56 ZIN A   1      17.430   8.590  15.934  0.00  0.00     0.080 A 
BRANCH  16  19
ATOM     19  C2  ZIN A   1      15.875   7.285  19.329  0.00  0.00     0.037 C 
ATOM     20  C1  ZIN A   1      15.596   8.560  20.128  0.00  0.00     0.016 C 
ATOM     21  C3  ZIN A   1      14.558   6.557  19.053  0.00  0.00     0.016 C 
ENDBRANCH  16  19
ENDBRANCH  13  14
ENDBRANCH   9  13
ENDBRANCH   6   7
BRANCH   6  22
ATOM     22  C15 ZIN A   1      18.423   0.884  16.545  0.00  0.00     0.065 C 
BRANCH  22  23
ATOM     23  C16 ZIN A   1      19.282   1.061  17.799  0.00  0.00     0.275 C 
BRANCH  23  24
ATOM     24  N17 ZIN A   1      18.573   1.912  18.763  0.00  0.00     0.092 N 
ATOM     25  C22 ZIN A   1      18.992   3.315  18.634  0.00  0.00     0.298 C 
ATOM     26  C21 ZIN A   1      18.274   4.155  19.694  0.00  0.00     0.198 C 
ATOM     27  O20 ZIN A   1      16.861   3.997  19.545  0.00  0.00    -0.388 OA
ATOM     28  C19 ZIN A   1      16.418   2.643  19.663  0.00  0.00     0.198 C 
ATOM     29  C18 ZIN A   1      17.116   1.786  18.604  0.00  0.00     0.298 C 
ENDBRANCH  23  24
ENDBRANCH  22  23
ENDBRANCH   6  22
ENDBRANCH   3   6
ENDBRANCH   1   2
BRANCH   1  30
ATOM     30  C28 ZIN A   1      17.015   0.334  11.222  0.00  0.00     0.027 C 
BRANCH  30  31
ATOM     31  C29 ZIN A   1      17.505  -0.074   9.831  0.00  0.00     0.027 C 
BRANCH  31  32
ATOM     32  C30 ZIN A   1      19.020   0.122   9.746  0.00  0.00     0.091 C 
BRANCH  32  33
ATOM     33  C32 ZIN A   1      19.325   1.427   9.008  0.00  0.00     0.063 C 
BRANCH  33  34
ATOM     34  C33 ZIN A   1      19.094   2.593   9.934  0.00  0.00    -0.056 A 
ATOM     35  C38 ZIN A   1      19.862   2.734  11.074  0.00  0.00     0.007 A 
ATOM     36  C37 ZIN A   1      19.652   3.806  11.921  0.00  0.00     0.001 A 
ATOM     37  C36 ZIN A   1      18.669   4.733  11.633  0.00  0.00     0.000 A 
ATOM     38  C35 ZIN A   1      17.896   4.590  10.495  0.00  0.00     0.001 A 
ATOM     39  C34 ZIN A   1      18.109   3.520   9.646  0.00  0.00     0.007 A 
ENDBRANCH  33  34
ENDBRANCH  32  33
BRANCH  32  40
ATOM     40  N39 ZIN A   1      19.618  -1.000   9.019  0.00  0.00    -0.332 N 
ATOM     41  C40 ZIN A   1      18.981  -1.529   7.955  0.00  0.00     0.361 C 
ATOM     42  O41 ZIN A   1      17.911  -1.076   7.600  0.00  0.00    -0.239 OA
ATOM     43  H95 ZIN A   1      20.472  -1.363   9.302  0.00  0.00     0.165 HD
BRANCH  41  44
ATOM     44  O42 ZIN A   1      19.531  -2.561   7.287  0.00  0.00    -0.299 OA
BRANCH  44  45
ATOM     45  C43 ZIN A   1      19.334  -2.592   5.848  0.00  0.00     0.228 C 
BRANCH  45  46
ATOM     46  C44 ZIN A   1      18.470  -3.773   5.486  0.00  0.00     0.025 A 
ATOM     47  S48 ZIN A   1      17.848  -4.150   3.882  0.00  0.00    -0.084 SA
ATOM     48  C47 ZIN A   1      17.072  -5.544   4.500  0.00  0.00     0.166 A 
ATOM     49  N46 ZIN A   1      17.290  -5.647   5.768  0.00  0.00    -0.265 NA
ATOM     50  C45 ZIN A   1      18.034  -4.716   6.329  0.00  0.00     0.133 A 
ENDBRANCH  45  46
ENDBRANCH  44  45
ENDBRANCH  41  44
ENDBRANCH  32  40
ENDBRANCH  31  32
ENDBRANCH  30  31
ENDBRANCH   1  30
BRANCH   1  51
ATOM     51  C49 ZIN A   1      17.420  -1.685  12.638  0.00  0.00     0.063 C 
BRANCH  51  52
ATOM     52  C50 ZIN A   1      18.250  -2.714  11.914  0.00  0.00    -0.056 A 
ATOM     53  C55 ZIN A   1      19.606  -2.808  12.164  0.00  0.00     0.007 A 
ATOM     54  C54 ZIN A   1      20.367  -3.756  11.504  0.00  0.00     0.001 A 
ATOM     55  C53 ZIN A   1      19.772  -4.603  10.588  0.00  0.00     0.000 A 
ATOM     56  C52 ZIN A   1      18.416  -4.505  10.334  0.00  0.00     0.001 A 
ATOM     57  C51 ZIN A   1      17.655  -3.561  10.997  0.00  0.00     0.007 A 
ENDBRANCH  51  52
ENDBRANCH   1  51
TORSDOF 20
ENDMDL
MODEL 8
REMARK VINA RESULT:      -8.5      2.818      5.746
REMARK  20 active torsions:
REMARK  status: ('A' for Active; 'I' for Inactive)
REMARK    1  A    between atoms: C2_2  and  C4_4 
REMARK    2  A    between atoms: C6_6  and  C7_7 
REMARK    3  A    between atoms: C7_7  and  N8_8 
REMARK       I    between atoms: N8_8  and  C10_10 
REMARK       I    between atoms: C10_10  and  N12_12 
REMARK    4  A    between atoms: N12_12  and  C13_13 
REMARK    5  A    between atoms: C13_13  and  C15_14 
REMARK    6  A    between atoms: C13_13  and  C23_22 
REMARK    7  A    between atoms: C15_14  and  C16_15 
REMARK    8  A    between atoms: C16_15  and  N17_16 
REMARK       I    between atoms: C23_22  and  N25_24 
REMARK    9  A    between atoms: N25_24  and  C26_25 
REMARK   10  A    between atoms: C26_25  and  C28_26 
REMARK   11  A    between atoms: C26_25  and  C49_46 
REMARK   12  A    between atoms: C28_26  and  C29_27 
REMARK   13  A    between atoms: C29_27  and  C30_28 
REMARK   14  A    between atoms: C30_28  and  C32_29 
REMARK   15  A    between atoms: C30_28  and  N39_36 
REMARK   16  A    between atoms: C32_29  and  C33_30 
REMARK       I    between atoms: N39_36  and  C40_37 
REMARK   17  A    between atoms: C40_37  and  O42_39 
REMARK   18  A    between atoms: O42_39  and  C43_40 
REMARK   19  A    between atoms: C43_40  and  C44_41 
REMARK   20  A    between atoms: C49_46  and  C50_47 
ROOT
ATOM      1  C26 ZIN A   1      18.562   2.448  14.114  0.00  0.00     0.088 C 
ENDROOT
BRANCH   1   2
ATOM      2  N25 ZIN A   1      18.930   2.588  15.525  0.00  0.00    -0.354 N 
ATOM      3  C23 ZIN A   1      18.343   3.536  16.283  0.00  0.00     0.240 C 
ATOM      4  O24 ZIN A   1      17.512   4.272  15.797  0.00  0.00    -0.271 OA
ATOM      5  H83 ZIN A   1      19.594   1.998  15.914  0.00  0.00     0.162 HD
BRANCH   3   6
ATOM      6  C13 ZIN A   1      18.721   3.680  17.735  0.00  0.00     0.180 C 
BRANCH   6   7
ATOM      7  N12 ZIN A   1      18.220   4.958  18.245  0.00  0.00    -0.330 N 
ATOM      8  C10 ZIN A   1      16.985   5.033  18.781  0.00  0.00     0.319 C 
ATOM      9  N8  ZIN A   1      16.524   6.209  19.251  0.00  0.00    -0.333 N 
ATOM     10  O11 ZIN A   1      16.288   4.038  18.841  0.00  0.00    -0.247 OA
ATOM     11  C9  ZIN A   1      17.365   7.406  19.179  0.00  0.00     0.154 C 
ATOM     12  H70 ZIN A   1      18.777   5.752  18.197  0.00  0.00     0.165 HD
BRANCH   9  13
ATOM     13  C7  ZIN A   1      15.183   6.289  19.834  0.00  0.00     0.186 C 
BRANCH  13  14
ATOM     14  C6  ZIN A   1      14.227   6.863  18.819  0.00  0.00     0.060 A 
ATOM     15  N5  ZIN A   1      14.260   6.534  17.543  0.00  0.00    -0.248 NA
ATOM     16  C4  ZIN A   1      13.391   7.092  16.769  0.00  0.00     0.078 A 
ATOM     17  S57 ZIN A   1      12.400   8.156  17.667  0.00  0.00    -0.084 SA
ATOM     18  C56 ZIN A   1      13.278   7.746  19.139  0.00  0.00     0.080 A 
BRANCH  16  19
ATOM     19  C2  ZIN A   1      13.272   6.845  15.287  0.00  0.00     0.037 C 
ATOM     20  C1  ZIN A   1      14.510   6.093  14.794  0.00  0.00     0.016 C 
ATOM     21  C3  ZIN A   1      12.022   6.007  15.009  0.00  0.00     0.016 C 
ENDBRANCH  16  19
ENDBRANCH  13  14
ENDBRANCH   9  13
ENDBRANCH   6   7
BRANCH   6  22
ATOM     22  C15 ZIN A   1      18.104   2.533  18.539  0.00  0.00     0.065 C 
BRANCH  22  23
ATOM     23  C16 ZIN A   1      19.141   1.422  18.722  0.00  0.00     0.275 C 
BRANCH  23  24
ATOM     24  N17 ZIN A   1      18.637   0.179  18.123  0.00  0.00     0.092 N 
ATOM     25  C22 ZIN A   1      17.300   0.377  17.547  0.00  0.00     0.298 C 
ATOM     26  C21 ZIN A   1      16.789  -0.954  16.988  0.00  0.00     0.198 C 
ATOM     27  O20 ZIN A   1      17.724  -1.452  16.027  0.00  0.00    -0.388 OA
ATOM     28  C19 ZIN A   1      19.038  -1.656  16.554  0.00  0.00     0.198 C 
ATOM     29  C18 ZIN A   1      19.571  -0.333  17.109  0.00  0.00     0.298 C 
ENDBRANCH  23  24
ENDBRANCH  22  23
ENDBRANCH   6  22
ENDBRANCH   3   6
ENDBRANCH   1   2
BRANCH   1  30
ATOM     30  C28 ZIN A   1      18.848   1.017  13.652  0.00  0.00     0.027 C 
BRANCH  30  31
ATOM     31  C29 ZIN A   1      17.666   0.500  12.830  0.00  0.00     0.027 C 
BRANCH  31  32
ATOM     32  C30 ZIN A   1      18.161   0.049  11.454  0.00  0.00     0.091 C 
BRANCH  32  33
ATOM     33  C32 ZIN A   1      17.051   0.253  10.421  0.00  0.00     0.063 C 
BRANCH  33  34
ATOM     34  C33 ZIN A   1      17.663   0.455   9.059  0.00  0.00    -0.056 A 
ATOM     35  C38 ZIN A   1      17.164  -0.231   7.968  0.00  0.00     0.007 A 
ATOM     36  C37 ZIN A   1      17.723  -0.043   6.718  0.00  0.00     0.001 A 
ATOM     37  C36 ZIN A   1      18.787   0.825   6.559  0.00  0.00     0.000 A 
ATOM     38  C35 ZIN A   1      19.291   1.507   7.652  0.00  0.00     0.001 A 
ATOM     39  C34 ZIN A   1      18.728   1.322   8.901  0.00  0.00     0.007 A 
ENDBRANCH  33  34
ENDBRANCH  32  33
BRANCH  32  40
ATOM     40  N39 ZIN A   1      18.524  -1.368  11.506  0.00  0.00    -0.332 N 
ATOM     41  C40 ZIN A   1      19.786  -1.752  11.227  0.00  0.00     0.361 C 
ATOM     42  O41 ZIN A   1      20.622  -0.922  10.931  0.00  0.00    -0.239 OA
ATOM     43  H95 ZIN A   1      17.857  -2.032  11.743  0.00  0.00     0.165 HD
BRANCH  41  44
ATOM     44  O42 ZIN A   1      20.119  -3.056  11.276  0.00  0.00    -0.299 OA
BRANCH  44  45
ATOM     45  C43 ZIN A   1      19.039  -4.003  11.497  0.00  0.00     0.228 C 
BRANCH  45  46
ATOM     46  C44 ZIN A   1      18.950  -4.944  10.323  0.00  0.00     0.025 A 
ATOM     47  S48 ZIN A   1      17.489  -5.735   9.737  0.00  0.00    -0.084 SA
ATOM     48  C47 ZIN A   1      18.389  -6.500   8.500  0.00  0.00     0.166 A 
ATOM     49  N46 ZIN A   1      19.632  -6.163   8.582  0.00  0.00    -0.265 NA
ATOM     50  C45 ZIN A   1      19.968  -5.332   9.548  0.00  0.00     0.133 A 
ENDBRANCH  45  46
ENDBRANCH  44  45
ENDBRANCH  41  44
ENDBRANCH  32  40
ENDBRANCH  31  32
ENDBRANCH  30  31
ENDBRANCH   1  30
BRANCH   1  51
ATOM     51  C49 ZIN A   1      19.382   3.429  13.274  0.00  0.00     0.063 C 
BRANCH  51  52
ATOM     52  C50 ZIN A   1      18.483   4.106  12.273  0.00  0.00    -0.056 A 
ATOM     53  C55 ZIN A   1      18.697   3.927  10.919  0.00  0.00     0.007 A 
ATOM     54  C54 ZIN A   1      17.868   4.545  10.000  0.00  0.00     0.001 A 
ATOM     55  C53 ZIN A   1      16.831   5.348  10.436  0.00  0.00     0.000 A 
ATOM     56  C52 ZIN A   1      16.620   5.532  11.790  0.00  0.00     0.001 A 
ATOM     57  C51 ZIN A   1      17.445   4.910  12.708  0.00  0.00     0.007 A 
ENDBRANCH  51  52
ENDBRANCH   1  51
TORSDOF 20
ENDMDL
MODEL 9
REMARK VINA RESULT:      -8.4      1.822      2.466
REMARK  20 active torsions:
REMARK  status: ('A' for Active; 'I' for Inactive)
REMARK    1  A    between atoms: C2_2  and  C4_4 
REMARK    2  A    between atoms: C6_6  and  C7_7 
REMARK    3  A    between atoms: C7_7  and  N8_8 
REMARK       I    between atoms: N8_8  and  C10_10 
REMARK       I    between atoms: C10_10  and  N12_12 
REMARK    4  A    between atoms: N12_12  and  C13_13 
REMARK    5  A    between atoms: C13_13  and  C15_14 
REMARK    6  A    between atoms: C13_13  and  C23_22 
REMARK    7  A    between atoms: C15_14  and  C16_15 
REMARK    8  A    between atoms: C16_15  and  N17_16 
REMARK       I    between atoms: C23_22  and  N25_24 
REMARK    9  A    between atoms: N25_24  and  C26_25 
REMARK   10  A    between atoms: C26_25  and  C28_26 
REMARK   11  A    between atoms: C26_25  and  C49_46 
REMARK   12  A    between atoms: C28_26  and  C29_27 
REMARK   13  A    between atoms: C29_27  and  C30_28 
REMARK   14  A    between atoms: C30_28  and  C32_29 
REMARK   15  A    between atoms: C30_28  and  N39_36 
REMARK   16  A    between atoms: C32_29  and  C33_30 
REMARK       I    between atoms: N39_36  and  C40_37 
REMARK   17  A    between atoms: C40_37  and  O42_39 
REMARK   18  A    between atoms: O42_39  and  C43_40 
REMARK   19  A    between atoms: C43_40  and  C44_41 
REMARK   20  A    between atoms: C49_46  and  C50_47 
ROOT
ATOM      1  C26 ZIN A   1      18.626  -3.948  10.917  0.00  0.00     0.088 C 
ENDROOT
BRANCH   1   2
ATOM      2  N25 ZIN A   1      18.607  -2.957  11.996  0.00  0.00    -0.354 N 
ATOM      3  C23 ZIN A   1      19.474  -1.925  11.978  0.00  0.00     0.240 C 
ATOM      4  O24 ZIN A   1      20.270  -1.818  11.069  0.00  0.00    -0.271 OA
ATOM      5  H83 ZIN A   1      17.970  -3.043  12.722  0.00  0.00     0.162 HD
BRANCH   3   6
ATOM      6  C13 ZIN A   1      19.455  -0.906  13.087  0.00  0.00     0.180 C 
BRANCH   6   7
ATOM      7  N12 ZIN A   1      18.732   0.288  12.641  0.00  0.00    -0.330 N 
ATOM      8  C10 ZIN A   1      19.396   1.445  12.445  0.00  0.00     0.319 C 
ATOM      9  N8  ZIN A   1      18.731   2.542  12.034  0.00  0.00    -0.333 N 
ATOM     10  O11 ZIN A   1      20.596   1.496  12.639  0.00  0.00    -0.247 OA
ATOM     11  C9  ZIN A   1      17.287   2.479  11.800  0.00  0.00     0.154 C 
ATOM     12  H70 ZIN A   1      17.775   0.246  12.486  0.00  0.00     0.165 HD
BRANCH   9  13
ATOM     13  C7  ZIN A   1      19.454   3.798  11.820  0.00  0.00     0.186 C 
BRANCH  13  14
ATOM     14  C6  ZIN A   1      19.242   4.707  13.004  0.00  0.00     0.060 A 
ATOM     15  N5  ZIN A   1      18.060   5.187  13.332  0.00  0.00    -0.248 NA
ATOM     16  C4  ZIN A   1      18.003   5.955  14.367  0.00  0.00     0.078 A 
ATOM     17  S57 ZIN A   1      19.560   6.144  15.047  0.00  0.00    -0.084 SA
ATOM     18  C56 ZIN A   1      20.238   5.092  13.807  0.00  0.00     0.080 A 
BRANCH  16  19
ATOM     19  C2  ZIN A   1      16.747   6.598  14.896  0.00  0.00     0.037 C 
ATOM     20  C1  ZIN A   1      16.781   8.100  14.606  0.00  0.00     0.016 C 
ATOM     21  C3  ZIN A   1      15.528   5.974  14.213  0.00  0.00     0.016 C 
ENDBRANCH  16  19
ENDBRANCH  13  14
ENDBRANCH   9  13
ENDBRANCH   6   7
BRANCH   6  22
ATOM     22  C15 ZIN A   1      18.753  -1.498  14.312  0.00  0.00     0.065 C 
BRANCH  22  23
ATOM     23  C16 ZIN A   1      17.921  -0.412  14.998  0.00  0.00     0.275 C 
BRANCH  23  24
ATOM     24  N17 ZIN A   1      18.762   0.316  15.958  0.00  0.00     0.092 N 
ATOM     25  C22 ZIN A   1      18.479   1.757  15.919  0.00  0.00     0.298 C 
ATOM     26  C21 ZIN A   1      19.416   2.482  16.889  0.00  0.00     0.198 C 
ATOM     27  O20 ZIN A   1      19.255   1.934  18.200  0.00  0.00    -0.388 OA
ATOM     28  C19 ZIN A   1      19.523   0.531  18.274  0.00  0.00     0.198 C 
ATOM     29  C18 ZIN A   1      18.588  -0.214  17.319  0.00  0.00     0.298 C 
ENDBRANCH  23  24
ENDBRANCH  22  23
ENDBRANCH   6  22
ENDBRANCH   3   6
ENDBRANCH   1   2
BRANCH   1  30
ATOM     30  C28 ZIN A   1      18.085  -3.314   9.634  0.00  0.00     0.027 C 
BRANCH  30  31
ATOM     31  C29 ZIN A   1      19.099  -3.503   8.504  0.00  0.00     0.027 C 
BRANCH  31  32
ATOM     32  C30 ZIN A   1      18.642  -2.719   7.272  0.00  0.00     0.091 C 
BRANCH  32  33
ATOM     33  C32 ZIN A   1      17.583  -1.694   7.684  0.00  0.00     0.063 C 
BRANCH  33  34
ATOM     34  C33 ZIN A   1      18.167  -0.308   7.602  0.00  0.00    -0.056 A 
ATOM     35  C38 ZIN A   1      18.499   0.231   6.373  0.00  0.00     0.007 A 
ATOM     36  C37 ZIN A   1      19.031   1.505   6.298  0.00  0.00     0.001 A 
ATOM     37  C36 ZIN A   1      19.239   2.237   7.451  0.00  0.00     0.000 A 
ATOM     38  C35 ZIN A   1      18.912   1.696   8.682  0.00  0.00     0.001 A 
ATOM     39  C34 ZIN A   1      18.376   0.424   8.756  0.00  0.00     0.007 A 
ENDBRANCH  33  34
ENDBRANCH  32  33
BRANCH  32  40
ATOM     40  N39 ZIN A   1      18.071  -3.643   6.290  0.00  0.00    -0.332 N 
ATOM     41  C40 ZIN A   1      18.515  -3.634   5.018  0.00  0.00     0.361 C 
ATOM     42  O41 ZIN A   1      19.389  -2.858   4.685  0.00  0.00    -0.239 OA
ATOM     43  H95 ZIN A   1      17.374  -4.263   6.555  0.00  0.00     0.165 HD
BRANCH  41  44
ATOM     44  O42 ZIN A   1      17.989  -4.484   4.115  0.00  0.00    -0.299 OA
BRANCH  44  45
ATOM     45  C43 ZIN A   1      16.583  -4.815   4.265  0.00  0.00     0.228 C 
BRANCH  45  46
ATOM     46  C44 ZIN A   1      16.139  -5.658   3.097  0.00  0.00     0.025 A 
ATOM     47  S48 ZIN A   1      16.938  -5.759   1.529  0.00  0.00    -0.084 SA
ATOM     48  C47 ZIN A   1      15.755  -6.871   0.989  0.00  0.00     0.166 A 
ATOM     49  N46 ZIN A   1      14.891  -7.089   1.923  0.00  0.00    -0.265 NA
ATOM     50  C45 ZIN A   1      15.066  -6.454   3.064  0.00  0.00     0.133 A 
ENDBRANCH  45  46
ENDBRANCH  44  45
ENDBRANCH  41  44
ENDBRANCH  32  40
ENDBRANCH  31  32
ENDBRANCH  30  31
ENDBRANCH   1  30
BRANCH   1  51
ATOM     51  C49 ZIN A   1      17.750  -5.141  11.306  0.00  0.00     0.063 C 
BRANCH  51  52
ATOM     52  C50 ZIN A   1      17.154  -5.751  10.064  0.00  0.00    -0.056 A 
ATOM     53  C55 ZIN A   1      17.880  -6.668   9.327  0.00  0.00     0.007 A 
ATOM     54  C54 ZIN A   1      17.331  -7.232   8.190  0.00  0.00     0.001 A 
ATOM     55  C53 ZIN A   1      16.059  -6.871   7.785  0.00  0.00     0.000 A 
ATOM     56  C52 ZIN A   1      15.335  -5.949   8.519  0.00  0.00     0.001 A 
ATOM     57  C51 ZIN A   1      15.882  -5.390   9.658  0.00  0.00     0.007 A 
ENDBRANCH  51  52
ENDBRANCH   1  51
TORSDOF 20
ENDMDL
