MODEL 1
REMARK VINA RESULT:      -5.6      0.000      0.000
REMARK  4 active torsions:
REMARK  status: ('A' for Active; 'I' for Inactive)
REMARK    1  A    between atoms: C2_2  and  C3_3 
REMARK    2  A    between atoms: C3_3  and  C4_4 
REMARK    3  A    between atoms: C7_7  and  O8_8 
REMARK    4  A    between atoms: C9_9  and  O10_10 
ROOT
ATOM      1  C4  <0> d   1      18.661   0.181   7.582  0.00  0.00    -0.052 A 
ATOM      2  C5  <0> d   1      18.626   0.888   6.395  0.00  0.00     0.010 A 
ATOM      3  C6  <0> d   1      18.969   0.269   5.207  0.00  0.00     0.040 A 
ATOM      4  C7  <0> d   1      19.350  -1.062   5.205  0.00  0.00     0.099 A 
ATOM      5  C9  <0> d   1      19.387  -1.775   6.401  0.00  0.00     0.101 A 
ATOM      6  C12 <0> d   1      19.046  -1.147   7.587  0.00  0.00     0.047 A 
ENDROOT
BRANCH   1   7
ATOM      7  C3  <0> d   1      18.284   0.860   8.873  0.00  0.00     0.065 C 
BRANCH   7   8
ATOM      8  C2  <0> d   1      18.997   2.185   8.970  0.00  0.00    -0.032 C 
ATOM      9  C1  <0> d   1      18.618   3.068   9.860  0.00  0.00     0.007 C 
ENDBRANCH   7   8
ENDBRANCH   1   7
BRANCH   5  10
ATOM     10  O10 <0> d   1      19.761  -3.082   6.404  0.00  0.00    -0.353 OA
ATOM     11  C11 <0> d   1      19.394  -3.859   7.545  0.00  0.00     0.210 C 
ENDBRANCH   5  10
BRANCH   4  12
ATOM     12  O8  <0> d   1      19.690  -1.672   4.037  0.00  0.00    -0.358 OA
ATOM     13  H20 <0> d   1      19.774  -1.067   3.288  0.00  0.00     0.217 HD
ENDBRANCH   4  12
TORSDOF 4
ENDMDL
MODEL 2
REMARK VINA RESULT:      -5.4      3.401      5.227
REMARK  4 active torsions:
REMARK  status: ('A' for Active; 'I' for Inactive)
REMARK    1  A    between atoms: C2_2  and  C3_3 
REMARK    2  A    between atoms: C3_3  and  C4_4 
REMARK    3  A    between atoms: C7_7  and  O8_8 
REMARK    4  A    between atoms: C9_9  and  O10_10 
ROOT
ATOM      1  C4  <0> d   1      18.612   0.686   8.361  0.00  0.00    -0.052 A 
ATOM      2  C5  <0> d   1      19.040   1.995   8.477  0.00  0.00     0.010 A 
ATOM      3  C6  <0> d   1      18.616   2.772   9.539  0.00  0.00     0.040 A 
ATOM      4  C7  <0> d   1      17.760   2.240  10.489  0.00  0.00     0.099 A 
ATOM      5  C9  <0> d   1      17.329   0.921  10.372  0.00  0.00     0.101 A 
ATOM      6  C12 <0> d   1      17.753   0.150   9.303  0.00  0.00     0.047 A 
ENDROOT
BRANCH   1   7
ATOM      7  C3  <0> d   1      19.079  -0.158   7.202  0.00  0.00     0.065 C 
BRANCH   7   8
ATOM      8  C2  <0> d   1      18.804   0.568   5.911  0.00  0.00    -0.032 C 
ATOM      9  C1  <0> d   1      19.239   0.075   4.777  0.00  0.00     0.007 C 
ENDBRANCH   7   8
ENDBRANCH   1   7
BRANCH   5  10
ATOM     10  O10 <0> d   1      16.488   0.394  11.302  0.00  0.00    -0.353 OA
ATOM     11  C11 <0> d   1      17.061  -0.487  12.269  0.00  0.00     0.210 C 
ENDBRANCH   5  10
BRANCH   4  12
ATOM     12  O8  <0> d   1      17.341   3.004  11.533  0.00  0.00    -0.358 OA
ATOM     13  H20 <0> d   1      17.973   3.053  12.263  0.00  0.00     0.217 HD
ENDBRANCH   4  12
TORSDOF 4
ENDMDL
MODEL 3
REMARK VINA RESULT:      -5.3      8.001     10.283
REMARK  4 active torsions:
REMARK  status: ('A' for Active; 'I' for Inactive)
REMARK    1  A    between atoms: C2_2  and  C3_3 
REMARK    2  A    between atoms: C3_3  and  C4_4 
REMARK    3  A    between atoms: C7_7  and  O8_8 
REMARK    4  A    between atoms: C9_9  and  O10_10 
ROOT
ATOM      1  C4  <0> d   1      18.825  -0.491  15.676  0.00  0.00    -0.052 A 
ATOM      2  C5  <0> d   1      18.997  -1.050  16.928  0.00  0.00     0.010 A 
ATOM      3  C6  <0> d   1      19.254  -0.241  18.020  0.00  0.00     0.040 A 
ATOM      4  C7  <0> d   1      19.341   1.132  17.860  0.00  0.00     0.099 A 
ATOM      5  C9  <0> d   1      19.168   1.695  16.598  0.00  0.00     0.101 A 
ATOM      6  C12 <0> d   1      18.916   0.879  15.508  0.00  0.00     0.047 A 
ENDROOT
BRANCH   1   7
ATOM      7  C3  <0> d   1      18.543  -1.376  14.489  0.00  0.00     0.065 C 
BRANCH   7   8
ATOM      8  C2  <0> d   1      18.117  -0.527  13.319  0.00  0.00    -0.032 C 
ATOM      9  C1  <0> d   1      17.407  -1.054  12.352  0.00  0.00     0.007 C 
ENDBRANCH   7   8
ENDBRANCH   1   7
BRANCH   5  10
ATOM     10  O10 <0> d   1      19.253   3.042  16.436  0.00  0.00    -0.353 OA
ATOM     11  C11 <0> d   1      18.810   3.575  15.186  0.00  0.00     0.210 C 
ENDBRANCH   5  10
BRANCH   4  12
ATOM     12  O8  <0> d   1      19.596   1.928  18.933  0.00  0.00    -0.358 OA
ATOM     13  H20 <0> d   1      18.869   1.976  19.568  0.00  0.00     0.217 HD
ENDBRANCH   4  12
TORSDOF 4
ENDMDL
MODEL 4
REMARK VINA RESULT:      -5.2      5.218      6.252
REMARK  4 active torsions:
REMARK  status: ('A' for Active; 'I' for Inactive)
REMARK    1  A    between atoms: C2_2  and  C3_3 
REMARK    2  A    between atoms: C3_3  and  C4_4 
REMARK    3  A    between atoms: C7_7  and  O8_8 
REMARK    4  A    between atoms: C9_9  and  O10_10 
ROOT
ATOM      1  C4  <0> d   1      19.390  -0.999  13.869  0.00  0.00    -0.052 A 
ATOM      2  C5  <0> d   1      20.030   0.185  13.555  0.00  0.00     0.010 A 
ATOM      3  C6  <0> d   1      20.519   0.393  12.278  0.00  0.00     0.040 A 
ATOM      4  C7  <0> d   1      20.369  -0.588  11.311  0.00  0.00     0.099 A 
ATOM      5  C9  <0> d   1      19.725  -1.782  11.628  0.00  0.00     0.101 A 
ATOM      6  C12 <0> d   1      19.242  -1.984  12.910  0.00  0.00     0.047 A 
ENDROOT
BRANCH   1   7
ATOM      7  C3  <0> d   1      18.857  -1.219  15.262  0.00  0.00     0.065 C 
BRANCH   7   8
ATOM      8  C2  <0> d   1      17.732  -0.252  15.527  0.00  0.00    -0.032 C 
ATOM      9  C1  <0> d   1      17.119  -0.263  16.685  0.00  0.00     0.007 C 
ENDBRANCH   7   8
ENDBRANCH   1   7
BRANCH   5  10
ATOM     10  O10 <0> d   1      19.577  -2.747  10.683  0.00  0.00    -0.353 OA
ATOM     11  C11 <0> d   1      19.864  -4.090  11.077  0.00  0.00     0.210 C 
ENDBRANCH   5  10
BRANCH   4  12
ATOM     12  O8  <0> d   1      20.851  -0.386  10.056  0.00  0.00    -0.358 OA
ATOM     13  H20 <0> d   1      20.527   0.421   9.635  0.00  0.00     0.217 HD
ENDBRANCH   4  12
TORSDOF 4
ENDMDL
MODEL 5
REMARK VINA RESULT:      -5.0      2.948      4.210
REMARK  4 active torsions:
REMARK  status: ('A' for Active; 'I' for Inactive)
REMARK    1  A    between atoms: C2_2  and  C3_3 
REMARK    2  A    between atoms: C3_3  and  C4_4 
REMARK    3  A    between atoms: C7_7  and  O8_8 
REMARK    4  A    between atoms: C9_9  and  O10_10 
ROOT
ATOM      1  C4  <0> d   1      18.523   2.518   9.785  0.00  0.00    -0.052 A 
ATOM      2  C5  <0> d   1      19.115   2.171   8.585  0.00  0.00     0.010 A 
ATOM      3  C6  <0> d   1      19.562   0.879   8.380  0.00  0.00     0.040 A 
ATOM      4  C7  <0> d   1      19.419  -0.071   9.378  0.00  0.00     0.099 A 
ATOM      5  C9  <0> d   1      18.823   0.279  10.587  0.00  0.00     0.101 A 
ATOM      6  C12 <0> d   1      18.382   1.576  10.788  0.00  0.00     0.047 A 
ENDROOT
BRANCH   1   7
ATOM      7  C3  <0> d   1      18.036   3.928  10.002  0.00  0.00     0.065 C 
BRANCH   7   8
ATOM      8  C2  <0> d   1      17.394   4.032  11.362  0.00  0.00    -0.032 C 
ATOM      9  C1  <0> d   1      16.640   5.063  11.653  0.00  0.00     0.007 C 
ENDBRANCH   7   8
ENDBRANCH   1   7
BRANCH   5  10
ATOM     10  O10 <0> d   1      18.681  -0.650  11.570  0.00  0.00    -0.353 OA
ATOM     11  C11 <0> d   1      17.349  -0.947  11.993  0.00  0.00     0.210 C 
ENDBRANCH   5  10
BRANCH   4  12
ATOM     12  O8  <0> d   1      19.860  -1.341   9.178  0.00  0.00    -0.358 OA
ATOM     13  H20 <0> d   1      20.347  -1.711   9.926  0.00  0.00     0.217 HD
ENDBRANCH   4  12
TORSDOF 4
ENDMDL
MODEL 6
REMARK VINA RESULT:      -4.9      6.759      8.588
REMARK  4 active torsions:
REMARK  status: ('A' for Active; 'I' for Inactive)
REMARK    1  A    between atoms: C2_2  and  C3_3 
REMARK    2  A    between atoms: C3_3  and  C4_4 
REMARK    3  A    between atoms: C7_7  and  O8_8 
REMARK    4  A    between atoms: C9_9  and  O10_10 
ROOT
ATOM      1  C4  <0> d   1      17.883  -0.293  15.668  0.00  0.00    -0.052 A 
ATOM      2  C5  <0> d   1      18.744  -1.353  15.459  0.00  0.00     0.010 A 
ATOM      3  C6  <0> d   1      19.593  -1.353  14.368  0.00  0.00     0.040 A 
ATOM      4  C7  <0> d   1      19.581  -0.290  13.480  0.00  0.00     0.099 A 
ATOM      5  C9  <0> d   1      18.712   0.778  13.690  0.00  0.00     0.101 A 
ATOM      6  C12 <0> d   1      17.862   0.770  14.782  0.00  0.00     0.047 A 
ENDROOT
BRANCH   1   7
ATOM      7  C3  <0> d   1      16.961  -0.296  16.860  0.00  0.00     0.065 C 
BRANCH   7   8
ATOM      8  C2  <0> d   1      17.475   0.671  17.895  0.00  0.00    -0.032 C 
ATOM      9  C1  <0> d   1      18.463   0.324  18.682  0.00  0.00     0.007 C 
ENDBRANCH   7   8
ENDBRANCH   1   7
BRANCH   5  10
ATOM     10  O10 <0> d   1      18.696   1.823  12.820  0.00  0.00    -0.353 OA
ATOM     11  C11 <0> d   1      18.819   3.133  13.378  0.00  0.00     0.210 C 
ENDBRANCH   5  10
BRANCH   4  12
ATOM     12  O8  <0> d   1      20.414  -0.290  12.405  0.00  0.00    -0.358 OA
ATOM     13  H20 <0> d   1      21.039  -1.027  12.392  0.00  0.00     0.217 HD
ENDBRANCH   4  12
TORSDOF 4
ENDMDL
MODEL 7
REMARK VINA RESULT:      -4.9      1.878      3.421
REMARK  4 active torsions:
REMARK  status: ('A' for Active; 'I' for Inactive)
REMARK    1  A    between atoms: C2_2  and  C3_3 
REMARK    2  A    between atoms: C3_3  and  C4_4 
REMARK    3  A    between atoms: C7_7  and  O8_8 
REMARK    4  A    between atoms: C9_9  and  O10_10 
ROOT
ATOM      1  C4  <0> d   1      18.436   1.788   9.442  0.00  0.00    -0.052 A 
ATOM      2  C5  <0> d   1      17.599   0.952  10.155  0.00  0.00     0.010 A 
ATOM      3  C6  <0> d   1      17.318  -0.317   9.683  0.00  0.00     0.040 A 
ATOM      4  C7  <0> d   1      17.875  -0.752   8.492  0.00  0.00     0.099 A 
ATOM      5  C9  <0> d   1      18.718   0.092   7.772  0.00  0.00     0.101 A 
ATOM      6  C12 <0> d   1      18.992   1.362   8.249  0.00  0.00     0.047 A 
ENDROOT
BRANCH   1   7
ATOM      7  C3  <0> d   1      18.741   3.170   9.963  0.00  0.00     0.065 C 
BRANCH   7   8
ATOM      8  C2  <0> d   1      19.622   3.064  11.181  0.00  0.00    -0.032 C 
ATOM      9  C1  <0> d   1      19.572   3.987  12.108  0.00  0.00     0.007 C 
ENDBRANCH   7   8
ENDBRANCH   1   7
BRANCH   5  10
ATOM     10  O10 <0> d   1      19.267  -0.330   6.602  0.00  0.00    -0.353 OA
ATOM     11  C11 <0> d   1      18.873   0.360   5.415  0.00  0.00     0.210 C 
ENDBRANCH   5  10
BRANCH   4  12
ATOM     12  O8  <0> d   1      17.598  -1.998   8.025  0.00  0.00    -0.358 OA
ATOM     13  H20 <0> d   1      18.379  -2.550   7.887  0.00  0.00     0.217 HD
ENDBRANCH   4  12
TORSDOF 4
ENDMDL
MODEL 8
REMARK VINA RESULT:      -4.8      5.456      6.874
REMARK  4 active torsions:
REMARK  status: ('A' for Active; 'I' for Inactive)
REMARK    1  A    between atoms: C2_2  and  C3_3 
REMARK    2  A    between atoms: C3_3  and  C4_4 
REMARK    3  A    between atoms: C7_7  and  O8_8 
REMARK    4  A    between atoms: C9_9  and  O10_10 
ROOT
ATOM      1  C4  <0> d   1      19.196  -1.215  13.858  0.00  0.00    -0.052 A 
ATOM      2  C5  <0> d   1      19.256  -2.249  12.942  0.00  0.00     0.010 A 
ATOM      3  C6  <0> d   1      19.764  -2.026  11.676  0.00  0.00     0.040 A 
ATOM      4  C7  <0> d   1      20.214  -0.765  11.321  0.00  0.00     0.099 A 
ATOM      5  C9  <0> d   1      20.153   0.277  12.243  0.00  0.00     0.101 A 
ATOM      6  C12 <0> d   1      19.638   0.048  13.508  0.00  0.00     0.047 A 
ENDROOT
BRANCH   1   7
ATOM      7  C3  <0> d   1      18.643  -1.464  15.237  0.00  0.00     0.065 C 
BRANCH   7   8
ATOM      8  C2  <0> d   1      17.799  -0.288  15.659  0.00  0.00    -0.032 C 
ATOM      9  C1  <0> d   1      16.990  -0.397  16.683  0.00  0.00     0.007 C 
ENDBRANCH   7   8
ENDBRANCH   1   7
BRANCH   5  10
ATOM     10  O10 <0> d   1      20.592   1.517  11.900  0.00  0.00    -0.353 OA
ATOM     11  C11 <0> d   1      19.622   2.565  11.875  0.00  0.00     0.210 C 
ENDBRANCH   5  10
BRANCH   4  12
ATOM     12  O8  <0> d   1      20.712  -0.545  10.075  0.00  0.00    -0.358 OA
ATOM     13  H20 <0> d   1      21.120  -1.322   9.672  0.00  0.00     0.217 HD
ENDBRANCH   4  12
TORSDOF 4
ENDMDL
MODEL 9
REMARK VINA RESULT:      -4.8      3.937      6.032
REMARK  4 active torsions:
REMARK  status: ('A' for Active; 'I' for Inactive)
REMARK    1  A    between atoms: C2_2  and  C3_3 
REMARK    2  A    between atoms: C3_3  and  C4_4 
REMARK    3  A    between atoms: C7_7  and  O8_8 
REMARK    4  A    between atoms: C9_9  and  O10_10 
ROOT
ATOM      1  C4  <0> d   1      19.264   1.413   8.933  0.00  0.00    -0.052 A 
ATOM      2  C5  <0> d   1      19.661   0.212   9.488  0.00  0.00     0.010 A 
ATOM      3  C6  <0> d   1      19.967   0.136  10.835  0.00  0.00     0.040 A 
ATOM      4  C7  <0> d   1      19.877   1.267  11.630  0.00  0.00     0.099 A 
ATOM      5  C9  <0> d   1      19.478   2.478  11.069  0.00  0.00     0.101 A 
ATOM      6  C12 <0> d   1      19.177   2.547   9.720  0.00  0.00     0.047 A 
ENDROOT
BRANCH   1   7
ATOM      7  C3  <0> d   1      18.929   1.488   7.465  0.00  0.00     0.065 C 
BRANCH   7   8
ATOM      8  C2  <0> d   1      18.489   0.131   6.980  0.00  0.00    -0.032 C 
ATOM      9  C1  <0> d   1      17.361   0.003   6.326  0.00  0.00     0.007 C 
ENDBRANCH   7   8
ENDBRANCH   1   7
BRANCH   5  10
ATOM     10  O10 <0> d   1      19.389   3.591  11.846  0.00  0.00    -0.353 OA
ATOM     11  C11 <0> d   1      18.327   4.502  11.554  0.00  0.00     0.210 C 
ENDBRANCH   5  10
BRANCH   4  12
ATOM     12  O8  <0> d   1      20.180   1.195  12.953  0.00  0.00    -0.358 OA
ATOM     13  H20 <0> d   1      20.814   1.862  13.249  0.00  0.00     0.217 HD
ENDBRANCH   4  12
TORSDOF 4
ENDMDL
