MODEL 1
REMARK VINA RESULT:      -4.4      0.000      0.000
REMARK  6 active torsions:
REMARK  status: ('A' for Active; 'I' for Inactive)
REMARK    1  A    between atoms: N1_1  and  C5_5 
REMARK    2  A    between atoms: C5_5  and  C6_6 
REMARK    3  A    between atoms: C6_6  and  C7_7 
REMARK    4  A    between atoms: C7_7  and  C8_8 
REMARK    5  A    between atoms: C8_8  and  C9_9 
REMARK    6  A    between atoms: C9_9  and  C10_10 
ROOT
ATOM      1  C6  <0> d   1      19.945   0.201  14.025  0.00  0.00     0.027 C 
ENDROOT
BRANCH   1   2
ATOM      2  C5  <0> d   1      20.164   0.106  12.515  0.00  0.00     0.229 C 
BRANCH   2   3
ATOM      3  N1  <0> d   1      21.509   0.593  12.183  0.00  0.00    -0.079 N 
ATOM      4  H2  <0> d   1      21.947   0.966  13.012  0.00  0.00     0.274 HD
ATOM      5  H3  <0> d   1      21.442   1.318  11.484  0.00  0.00     0.274 HD
ATOM      6  H4  <0> d   1      22.064  -0.169  11.824  0.00  0.00     0.274 HD
ENDBRANCH   2   3
ENDBRANCH   1   2
BRANCH   1   7
ATOM      7  C7  <0> d   1      19.326  -1.101  14.535  0.00  0.00     0.002 C 
BRANCH   7   8
ATOM      8  C8  <0> d   1      18.403  -0.801  15.717  0.00  0.00     0.010 C 
BRANCH   8   9
ATOM      9  C9  <0> d   1      19.153  -1.052  17.027  0.00  0.00     0.113 C 
BRANCH   9  10
ATOM     10  C10 <0> d   1      18.967   0.128  17.946  0.00  0.00     0.172 C 
ATOM     11  O11 <0> d   1      17.845   0.493  18.252  0.00  0.00    -0.648 OA
ATOM     12  O12 <0> d   1      19.940   0.717  18.384  0.00  0.00    -0.648 OA
ENDBRANCH   9  10
ENDBRANCH   8   9
ENDBRANCH   7   8
ENDBRANCH   1   7
TORSDOF 6
ENDMDL
MODEL 2
REMARK VINA RESULT:      -4.3      5.411      6.421
REMARK  6 active torsions:
REMARK  status: ('A' for Active; 'I' for Inactive)
REMARK    1  A    between atoms: N1_1  and  C5_5 
REMARK    2  A    between atoms: C5_5  and  C6_6 
REMARK    3  A    between atoms: C6_6  and  C7_7 
REMARK    4  A    between atoms: C7_7  and  C8_8 
REMARK    5  A    between atoms: C8_8  and  C9_9 
REMARK    6  A    between atoms: C9_9  and  C10_10 
ROOT
ATOM      1  C6  <0> d   1      19.965  -0.050   9.146  0.00  0.00     0.027 C 
ENDROOT
BRANCH   1   2
ATOM      2  C5  <0> d   1      20.178  -0.149  10.657  0.00  0.00     0.229 C 
BRANCH   2   3
ATOM      3  N1  <0> d   1      21.544  -0.612  10.930  0.00  0.00    -0.079 N 
ATOM      4  H2  <0> d   1      21.524  -1.310  11.659  0.00  0.00     0.274 HD
ATOM      5  H3  <0> d   1      22.111   0.168  11.228  0.00  0.00     0.274 HD
ATOM      6  H4  <0> d   1      21.938  -1.013  10.092  0.00  0.00     0.274 HD
ENDBRANCH   2   3
ENDBRANCH   1   2
BRANCH   1   7
ATOM      7  C7  <0> d   1      19.345   1.306   8.805  0.00  0.00     0.002 C 
BRANCH   7   8
ATOM      8  C8  <0> d   1      19.293   2.176  10.063  0.00  0.00     0.010 C 
BRANCH   8   9
ATOM      9  C9  <0> d   1      18.352   3.358   9.827  0.00  0.00     0.113 C 
BRANCH   9  10
ATOM     10  C10 <0> d   1      17.322   3.406  10.926  0.00  0.00     0.172 C 
ATOM     11  O11 <0> d   1      17.209   2.469  11.698  0.00  0.00    -0.648 OA
ATOM     12  O12 <0> d   1      16.601   4.383  11.043  0.00  0.00    -0.648 OA
ENDBRANCH   9  10
ENDBRANCH   8   9
ENDBRANCH   7   8
ENDBRANCH   1   7
TORSDOF 6
ENDMDL
MODEL 3
REMARK VINA RESULT:      -4.3      7.632      9.269
REMARK  6 active torsions:
REMARK  status: ('A' for Active; 'I' for Inactive)
REMARK    1  A    between atoms: N1_1  and  C5_5 
REMARK    2  A    between atoms: C5_5  and  C6_6 
REMARK    3  A    between atoms: C6_6  and  C7_7 
REMARK    4  A    between atoms: C7_7  and  C8_8 
REMARK    5  A    between atoms: C8_8  and  C9_9 
REMARK    6  A    between atoms: C9_9  and  C10_10 
ROOT
ATOM      1  C6  <0> d   1      19.436   0.644   9.618  0.00  0.00     0.027 C 
ENDROOT
BRANCH   1   2
ATOM      2  C5  <0> d   1      20.337  -0.592   9.608  0.00  0.00     0.229 C 
BRANCH   2   3
ATOM      3  N1  <0> d   1      21.286  -0.516  10.725  0.00  0.00    -0.079 N 
ATOM      4  H2  <0> d   1      21.089   0.303  11.280  0.00  0.00     0.274 HD
ATOM      5  H3  <0> d   1      22.227  -0.458  10.365  0.00  0.00     0.274 HD
ATOM      6  H4  <0> d   1      21.196  -1.341  11.300  0.00  0.00     0.274 HD
ENDBRANCH   2   3
ENDBRANCH   1   2
BRANCH   1   7
ATOM      7  C7  <0> d   1      19.451   1.299   8.236  0.00  0.00     0.002 C 
BRANCH   7   8
ATOM      8  C8  <0> d   1      18.397   0.637   7.345  0.00  0.00     0.010 C 
BRANCH   8   9
ATOM      9  C9  <0> d   1      18.909   0.582   5.904  0.00  0.00     0.113 C 
BRANCH   9  10
ATOM     10  C10 <0> d   1      19.341  -0.824   5.579  0.00  0.00     0.172 C 
ATOM     11  O11 <0> d   1      19.096  -1.733   6.354  0.00  0.00    -0.648 OA
ATOM     12  O12 <0> d   1      19.935  -1.053   4.539  0.00  0.00    -0.648 OA
ENDBRANCH   9  10
ENDBRANCH   8   9
ENDBRANCH   7   8
ENDBRANCH   1   7
TORSDOF 6
ENDMDL
MODEL 4
REMARK VINA RESULT:      -4.2      1.503      1.861
REMARK  6 active torsions:
REMARK  status: ('A' for Active; 'I' for Inactive)
REMARK    1  A    between atoms: N1_1  and  C5_5 
REMARK    2  A    between atoms: C5_5  and  C6_6 
REMARK    3  A    between atoms: C6_6  and  C7_7 
REMARK    4  A    between atoms: C7_7  and  C8_8 
REMARK    5  A    between atoms: C8_8  and  C9_9 
REMARK    6  A    between atoms: C9_9  and  C10_10 
ROOT
ATOM      1  C6  <0> d   1      19.213  -1.318  14.804  0.00  0.00     0.027 C 
ENDROOT
BRANCH   1   2
ATOM      2  C5  <0> d   1      18.760  -0.005  14.165  0.00  0.00     0.229 C 
BRANCH   2   3
ATOM      3  N1  <0> d   1      19.898   0.919  14.082  0.00  0.00    -0.079 N 
ATOM      4  H2  <0> d   1      19.598   1.848  14.337  0.00  0.00     0.274 HD
ATOM      5  H3  <0> d   1      20.256   0.929  13.139  0.00  0.00     0.274 HD
ATOM      6  H4  <0> d   1      20.624   0.616  14.714  0.00  0.00     0.274 HD
ENDBRANCH   2   3
ENDBRANCH   1   2
BRANCH   1   7
ATOM      7  C7  <0> d   1      18.715  -1.382  16.248  0.00  0.00     0.002 C 
BRANCH   7   8
ATOM      8  C8  <0> d   1      17.592  -0.361  16.448  0.00  0.00     0.010 C 
BRANCH   8   9
ATOM      9  C9  <0> d   1      17.792   0.362  17.781  0.00  0.00     0.113 C 
BRANCH   9  10
ATOM     10  C10 <0> d   1      19.034   1.213  17.709  0.00  0.00     0.172 C 
ATOM     11  O11 <0> d   1      19.142   2.063  16.842  0.00  0.00    -0.648 OA
ATOM     12  O12 <0> d   1      19.930   1.051  18.520  0.00  0.00    -0.648 OA
ENDBRANCH   9  10
ENDBRANCH   8   9
ENDBRANCH   7   8
ENDBRANCH   1   7
TORSDOF 6
ENDMDL
MODEL 5
REMARK VINA RESULT:      -4.1      5.528      6.619
REMARK  6 active torsions:
REMARK  status: ('A' for Active; 'I' for Inactive)
REMARK    1  A    between atoms: N1_1  and  C5_5 
REMARK    2  A    between atoms: C5_5  and  C6_6 
REMARK    3  A    between atoms: C6_6  and  C7_7 
REMARK    4  A    between atoms: C7_7  and  C8_8 
REMARK    5  A    between atoms: C8_8  and  C9_9 
REMARK    6  A    between atoms: C9_9  and  C10_10 
ROOT
ATOM      1  C6  <0> d   1      19.309   0.984  11.323  0.00  0.00     0.027 C 
ENDROOT
BRANCH   1   2
ATOM      2  C5  <0> d   1      20.459  -0.023  11.350  0.00  0.00     0.229 C 
BRANCH   2   3
ATOM      3  N1  <0> d   1      21.568   0.520  12.144  0.00  0.00    -0.079 N 
ATOM      4  H2  <0> d   1      21.383   1.488  12.364  0.00  0.00     0.274 HD
ATOM      5  H3  <0> d   1      22.425   0.455  11.616  0.00  0.00     0.274 HD
ATOM      6  H4  <0> d   1      21.660  -0.007  13.000  0.00  0.00     0.274 HD
ENDBRANCH   2   3
ENDBRANCH   1   2
BRANCH   1   7
ATOM      7  C7  <0> d   1      19.026   1.398   9.878  0.00  0.00     0.002 C 
BRANCH   7   8
ATOM      8  C8  <0> d   1      18.684   2.889   9.831  0.00  0.00     0.010 C 
BRANCH   8   9
ATOM      9  C9  <0> d   1      17.740   3.232  10.985  0.00  0.00     0.113 C 
BRANCH   9  10
ATOM     10  C10 <0> d   1      17.053   4.542  10.699  0.00  0.00     0.172 C 
ATOM     11  O11 <0> d   1      17.428   5.238   9.770  0.00  0.00    -0.648 OA
ATOM     12  O12 <0> d   1      16.120   4.906  11.395  0.00  0.00    -0.648 OA
ENDBRANCH   9  10
ENDBRANCH   8   9
ENDBRANCH   7   8
ENDBRANCH   1   7
TORSDOF 6
ENDMDL
MODEL 6
REMARK VINA RESULT:      -4.1      6.981      7.571
REMARK  6 active torsions:
REMARK  status: ('A' for Active; 'I' for Inactive)
REMARK    1  A    between atoms: N1_1  and  C5_5 
REMARK    2  A    between atoms: C5_5  and  C6_6 
REMARK    3  A    between atoms: C6_6  and  C7_7 
REMARK    4  A    between atoms: C7_7  and  C8_8 
REMARK    5  A    between atoms: C8_8  and  C9_9 
REMARK    6  A    between atoms: C9_9  and  C10_10 
ROOT
ATOM      1  C6  <0> d   1      18.901   0.861   7.812  0.00  0.00     0.027 C 
ENDROOT
BRANCH   1   2
ATOM      2  C5  <0> d   1      17.642   0.179   8.349  0.00  0.00     0.229 C 
BRANCH   2   3
ATOM      3  N1  <0> d   1      16.926  -0.470   7.244  0.00  0.00    -0.079 N 
ATOM      4  H2  <0> d   1      16.926  -1.470   7.383  0.00  0.00     0.274 HD
ATOM      5  H3  <0> d   1      17.385  -0.253   6.372  0.00  0.00     0.274 HD
ATOM      6  H4  <0> d   1      15.975  -0.134   7.215  0.00  0.00     0.274 HD
ENDBRANCH   2   3
ENDBRANCH   1   2
BRANCH   1   7
ATOM      7  C7  <0> d   1      19.216   2.094   8.660  0.00  0.00     0.002 C 
BRANCH   7   8
ATOM      8  C8  <0> d   1      18.181   2.223   9.779  0.00  0.00     0.010 C 
BRANCH   8   9
ATOM      9  C9  <0> d   1      18.502   3.452  10.632  0.00  0.00     0.113 C 
BRANCH   9  10
ATOM     10  C10 <0> d   1      17.419   4.485  10.451  0.00  0.00     0.172 C 
ATOM     11  O11 <0> d   1      17.538   5.351   9.601  0.00  0.00    -0.648 OA
ATOM     12  O12 <0> d   1      16.423   4.453  11.154  0.00  0.00    -0.648 OA
ENDBRANCH   9  10
ENDBRANCH   8   9
ENDBRANCH   7   8
ENDBRANCH   1   7
TORSDOF 6
ENDMDL
MODEL 7
REMARK VINA RESULT:      -4.1      1.618      1.971
REMARK  6 active torsions:
REMARK  status: ('A' for Active; 'I' for Inactive)
REMARK    1  A    between atoms: N1_1  and  C5_5 
REMARK    2  A    between atoms: C5_5  and  C6_6 
REMARK    3  A    between atoms: C6_6  and  C7_7 
REMARK    4  A    between atoms: C7_7  and  C8_8 
REMARK    5  A    between atoms: C8_8  and  C9_9 
REMARK    6  A    between atoms: C9_9  and  C10_10 
ROOT
ATOM      1  C6  <0> d   1      19.377  -0.100  14.424  0.00  0.00     0.027 C 
ENDROOT
BRANCH   1   2
ATOM      2  C5  <0> d   1      18.616   1.216  14.585  0.00  0.00     0.229 C 
BRANCH   2   3
ATOM      3  N1  <0> d   1      19.472   2.198  15.262  0.00  0.00    -0.079 N 
ATOM      4  H2  <0> d   1      20.187   1.717  15.787  0.00  0.00     0.274 HD
ATOM      5  H3  <0> d   1      18.913   2.756  15.891  0.00  0.00     0.274 HD
ATOM      6  H4  <0> d   1      19.905   2.798  14.576  0.00  0.00     0.274 HD
ENDBRANCH   2   3
ENDBRANCH   1   2
BRANCH   1   7
ATOM      7  C7  <0> d   1      18.516  -1.255  14.937  0.00  0.00     0.002 C 
BRANCH   7   8
ATOM      8  C8  <0> d   1      18.011  -0.930  16.344  0.00  0.00     0.010 C 
BRANCH   8   9
ATOM      9  C9  <0> d   1      19.185  -0.950  17.325  0.00  0.00     0.113 C 
BRANCH   9  10
ATOM     10  C10 <0> d   1      19.062   0.211  18.278  0.00  0.00     0.172 C 
ATOM     11  O11 <0> d   1      19.922   1.075  18.300  0.00  0.00    -0.648 OA
ATOM     12  O12 <0> d   1      18.102   0.287  19.025  0.00  0.00    -0.648 OA
ENDBRANCH   9  10
ENDBRANCH   8   9
ENDBRANCH   7   8
ENDBRANCH   1   7
TORSDOF 6
ENDMDL
MODEL 8
REMARK VINA RESULT:      -3.9      6.057      7.296
REMARK  6 active torsions:
REMARK  status: ('A' for Active; 'I' for Inactive)
REMARK    1  A    between atoms: N1_1  and  C5_5 
REMARK    2  A    between atoms: C5_5  and  C6_6 
REMARK    3  A    between atoms: C6_6  and  C7_7 
REMARK    4  A    between atoms: C7_7  and  C8_8 
REMARK    5  A    between atoms: C8_8  and  C9_9 
REMARK    6  A    between atoms: C9_9  and  C10_10 
ROOT
ATOM      1  C6  <0> d   1      18.595   2.308  10.937  0.00  0.00     0.027 C 
ENDROOT
BRANCH   1   2
ATOM      2  C5  <0> d   1      19.851   2.790  11.665  0.00  0.00     0.229 C 
BRANCH   2   3
ATOM      3  N1  <0> d   1      20.747   1.652  11.902  0.00  0.00    -0.079 N 
ATOM      4  H2  <0> d   1      20.829   1.487  12.895  0.00  0.00     0.274 HD
ATOM      5  H3  <0> d   1      21.659   1.855  11.519  0.00  0.00     0.274 HD
ATOM      6  H4  <0> d   1      20.372   0.828  11.456  0.00  0.00     0.274 HD
ENDBRANCH   2   3
ENDBRANCH   1   2
BRANCH   1   7
ATOM      7  C7  <0> d   1      18.533   2.946   9.548  0.00  0.00     0.002 C 
BRANCH   7   8
ATOM      8  C8  <0> d   1      19.168   2.002   8.524  0.00  0.00     0.010 C 
BRANCH   8   9
ATOM      9  C9  <0> d   1      18.478   0.638   8.592  0.00  0.00     0.113 C 
BRANCH   9  10
ATOM     10  C10 <0> d   1      19.520  -0.444   8.716  0.00  0.00     0.172 C 
ATOM     11  O11 <0> d   1      19.493  -1.406   7.967  0.00  0.00    -0.648 OA
ATOM     12  O12 <0> d   1      20.390  -0.357   9.566  0.00  0.00    -0.648 OA
ENDBRANCH   9  10
ENDBRANCH   8   9
ENDBRANCH   7   8
ENDBRANCH   1   7
TORSDOF 6
ENDMDL
MODEL 9
REMARK VINA RESULT:      -3.9      4.199      5.237
REMARK  6 active torsions:
REMARK  status: ('A' for Active; 'I' for Inactive)
REMARK    1  A    between atoms: N1_1  and  C5_5 
REMARK    2  A    between atoms: C5_5  and  C6_6 
REMARK    3  A    between atoms: C6_6  and  C7_7 
REMARK    4  A    between atoms: C7_7  and  C8_8 
REMARK    5  A    between atoms: C8_8  and  C9_9 
REMARK    6  A    between atoms: C9_9  and  C10_10 
ROOT
ATOM      1  C6  <0> d   1      17.875  -1.224  16.567  0.00  0.00     0.027 C 
ENDROOT
BRANCH   1   2
ATOM      2  C5  <0> d   1      18.413  -0.017  17.336  0.00  0.00     0.229 C 
BRANCH   2   3
ATOM      3  N1  <0> d   1      19.519  -0.442  18.204  0.00  0.00    -0.079 N 
ATOM      4  H2  <0> d   1      20.131  -1.060  17.692  0.00  0.00     0.274 HD
ATOM      5  H3  <0> d   1      19.149  -0.926  19.009  0.00  0.00     0.274 HD
ATOM      6  H4  <0> d   1      20.038   0.368  18.509  0.00  0.00     0.274 HD
ENDBRANCH   2   3
ENDBRANCH   1   2
BRANCH   1   7
ATOM      7  C7  <0> d   1      18.408  -1.195  15.133  0.00  0.00     0.002 C 
BRANCH   7   8
ATOM      8  C8  <0> d   1      17.755  -0.042  14.368  0.00  0.00     0.010 C 
BRANCH   8   9
ATOM      9  C9  <0> d   1      18.180  -0.099  12.900  0.00  0.00     0.113 C 
BRANCH   9  10
ATOM     10  C10 <0> d   1      17.041  -0.634  12.069  0.00  0.00     0.172 C 
ATOM     11  O11 <0> d   1      16.141   0.108  11.717  0.00  0.00    -0.648 OA
ATOM     12  O12 <0> d   1      17.023  -1.811  11.748  0.00  0.00    -0.648 OA
ENDBRANCH   9  10
ENDBRANCH   8   9
ENDBRANCH   7   8
ENDBRANCH   1   7
TORSDOF 6
ENDMDL
