MODEL 1
REMARK VINA RESULT:      -7.7      0.000      0.000
REMARK  5 active torsions:
REMARK  status: ('A' for Active; 'I' for Inactive)
REMARK    1  A    between atoms: N2_2  and  C3_3 
REMARK    2  A    between atoms: N2_2  and  C12_12 
REMARK    3  A    between atoms: C3_3  and  C4_4 
REMARK    4  A    between atoms: C5_5  and  C6_6 
REMARK    5  A    between atoms: C12_12  and  C13_13 
ROOT
ATOM      1  C1  <0> d   1      18.787  -5.867   6.368  0.00  0.00     0.310 C 
ATOM      2  N2  <0> d   1      18.411  -4.487   6.705  0.00  0.00     0.091 N 
ENDROOT
BRANCH   2   3
ATOM      3  C3  <0> d   1      17.584  -4.448   7.918  0.00  0.00     0.299 C 
BRANCH   3   4
ATOM      4  C4  <0> d   1      17.531  -5.822   8.534  0.00  0.00     0.004 C 
ATOM      5  C5  <0> d   1      18.002  -6.018   9.758  0.00  0.00     0.009 C 
BRANCH   5   6
ATOM      6  C6  <0> d   1      18.413  -4.864  10.585  0.00  0.00    -0.036 A 
ATOM      7  C11 <0> d   1      19.766  -4.584  10.774  0.00  0.00     0.011 A 
ATOM      8  C10 <0> d   1      20.144  -3.501  11.541  0.00  0.00     0.001 A 
ATOM      9  C9  <0> d   1      19.183  -2.702  12.135  0.00  0.00     0.000 A 
ATOM     10  C8  <0> d   1      17.839  -2.979  11.957  0.00  0.00     0.001 A 
ATOM     11  C7  <0> d   1      17.448  -4.054  11.185  0.00  0.00     0.011 A 
ENDBRANCH   5   6
ENDBRANCH   3   4
ENDBRANCH   2   3
BRANCH   2  12
ATOM     12  C12 <0> d   1      19.602  -3.639   6.852  0.00  0.00     0.311 C 
BRANCH  12  13
ATOM     13  C13 <0> d   1      19.308  -2.262   6.314  0.00  0.00    -0.019 A 
ATOM     14  C22 <0> d   1      19.109  -2.076   4.981  0.00  0.00     0.010 A 
ATOM     15  C21 <0> d   1      18.831  -0.812   4.466  0.00  0.00     0.002 A 
ATOM     16  C20 <0> d   1      18.760   0.277   5.280  0.00  0.00     0.012 A 
ATOM     17  C19 <0> d   1      18.967   0.125   6.662  0.00  0.00    -0.025 A 
ATOM     18  C14 <0> d   1      19.244  -1.162   7.186  0.00  0.00    -0.018 A 
ATOM     19  C18 <0> d   1      18.902   1.225   7.535  0.00  0.00     0.012 A 
ATOM     20  C15 <0> d   1      19.451  -1.314   8.568  0.00  0.00     0.013 A 
ATOM     21  C16 <0> d   1      19.382  -0.226   9.383  0.00  0.00     0.001 A 
ATOM     22  C17 <0> d   1      19.109   1.041   8.867  0.00  0.00     0.001 A 
ENDBRANCH  12  13
ENDBRANCH   2  12
TORSDOF 5
ENDMDL
MODEL 2
REMARK VINA RESULT:      -7.6      1.698      4.239
REMARK  5 active torsions:
REMARK  status: ('A' for Active; 'I' for Inactive)
REMARK    1  A    between atoms: N2_2  and  C3_3 
REMARK    2  A    between atoms: N2_2  and  C12_12 
REMARK    3  A    between atoms: C3_3  and  C4_4 
REMARK    4  A    between atoms: C5_5  and  C6_6 
REMARK    5  A    between atoms: C12_12  and  C13_13 
ROOT
ATOM      1  C1  <0> d   1      19.243   1.764  10.614  0.00  0.00     0.310 C 
ATOM      2  N2  <0> d   1      19.578   0.641   9.729  0.00  0.00     0.091 N 
ENDROOT
BRANCH   2   3
ATOM      3  C3  <0> d   1      20.242  -0.437  10.474  0.00  0.00     0.299 C 
BRANCH   3   4
ATOM      4  C4  <0> d   1      20.019  -0.237  11.951  0.00  0.00     0.004 C 
ATOM      5  C5  <0> d   1      19.352  -1.146  12.648  0.00  0.00     0.009 C 
BRANCH   5   6
ATOM      6  C6  <0> d   1      18.982  -2.434  12.023  0.00  0.00    -0.036 A 
ATOM      7  C11 <0> d   1      17.654  -2.692  11.684  0.00  0.00     0.011 A 
ATOM      8  C10 <0> d   1      17.317  -3.893  11.093  0.00  0.00     0.001 A 
ATOM      9  C9  <0> d   1      18.291  -4.845  10.851  0.00  0.00     0.000 A 
ATOM     10  C8  <0> d   1      19.609  -4.598  11.192  0.00  0.00     0.001 A 
ATOM     11  C7  <0> d   1      19.960  -3.398  11.776  0.00  0.00     0.011 A 
ENDBRANCH   5   6
ENDBRANCH   3   4
ENDBRANCH   2   3
BRANCH   2  12
ATOM     12  C12 <0> d   1      18.383   0.143   9.036  0.00  0.00     0.311 C 
BRANCH  12  13
ATOM     13  C13 <0> d   1      18.704  -0.090   7.582  0.00  0.00    -0.019 A 
ATOM     14  C22 <0> d   1      18.887   0.967   6.744  0.00  0.00     0.010 A 
ATOM     15  C21 <0> d   1      19.190   0.772   5.398  0.00  0.00     0.002 A 
ATOM     16  C20 <0> d   1      19.303  -0.481   4.879  0.00  0.00     0.012 A 
ATOM     17  C19 <0> d   1      19.115  -1.598   5.712  0.00  0.00    -0.025 A 
ATOM     18  C14 <0> d   1      18.811  -1.399   7.083  0.00  0.00    -0.018 A 
ATOM     19  C18 <0> d   1      19.223  -2.907   5.214  0.00  0.00     0.012 A 
ATOM     20  C15 <0> d   1      18.623  -2.515   7.916  0.00  0.00     0.013 A 
ATOM     21  C16 <0> d   1      18.734  -3.768   7.398  0.00  0.00     0.001 A 
ATOM     22  C17 <0> d   1      19.033  -3.964   6.050  0.00  0.00     0.001 A 
ENDBRANCH  12  13
ENDBRANCH   2  12
TORSDOF 5
ENDMDL
MODEL 3
REMARK VINA RESULT:      -7.6      2.165      4.630
REMARK  5 active torsions:
REMARK  status: ('A' for Active; 'I' for Inactive)
REMARK    1  A    between atoms: N2_2  and  C3_3 
REMARK    2  A    between atoms: N2_2  and  C12_12 
REMARK    3  A    between atoms: C3_3  and  C4_4 
REMARK    4  A    between atoms: C5_5  and  C6_6 
REMARK    5  A    between atoms: C12_12  and  C13_13 
ROOT
ATOM      1  C1  <0> d   1      17.629  -0.258  13.744  0.00  0.00     0.310 C 
ATOM      2  N2  <0> d   1      17.952  -0.620  12.357  0.00  0.00     0.091 N 
ENDROOT
BRANCH   2   3
ATOM      3  C3  <0> d   1      18.071  -2.076  12.207  0.00  0.00     0.299 C 
BRANCH   3   4
ATOM      4  C4  <0> d   1      19.524  -2.470  12.262  0.00  0.00     0.004 C 
ATOM      5  C5  <0> d   1      19.925  -3.602  11.700  0.00  0.00     0.009 C 
BRANCH   5   6
ATOM      6  C6  <0> d   1      18.988  -4.388  10.870  0.00  0.00    -0.036 A 
ATOM      7  C11 <0> d   1      19.002  -4.254   9.482  0.00  0.00     0.011 A 
ATOM      8  C10 <0> d   1      18.130  -4.997   8.711  0.00  0.00     0.001 A 
ATOM      9  C9  <0> d   1      17.234  -5.863   9.315  0.00  0.00     0.000 A 
ATOM     10  C8  <0> d   1      17.212  -5.995  10.692  0.00  0.00     0.001 A 
ATOM     11  C7  <0> d   1      18.084  -5.264  11.473  0.00  0.00     0.011 A 
ENDBRANCH   5   6
ENDBRANCH   3   4
ENDBRANCH   2   3
BRANCH   2  12
ATOM     12  C12 <0> d   1      16.957  -0.074  11.425  0.00  0.00     0.311 C 
BRANCH  12  13
ATOM     13  C13 <0> d   1      17.627   0.892  10.482  0.00  0.00    -0.019 A 
ATOM     14  C22 <0> d   1      17.881   2.169  10.875  0.00  0.00     0.010 A 
ATOM     15  C21 <0> d   1      18.505   3.074  10.019  0.00  0.00     0.002 A 
ATOM     16  C20 <0> d   1      18.871   2.709   8.760  0.00  0.00     0.012 A 
ATOM     17  C19 <0> d   1      18.620   1.400   8.315  0.00  0.00    -0.025 A 
ATOM     18  C14 <0> d   1      17.990   0.478   9.188  0.00  0.00    -0.018 A 
ATOM     19  C18 <0> d   1      18.983   0.986   7.022  0.00  0.00     0.012 A 
ATOM     20  C15 <0> d   1      17.739  -0.831   8.744  0.00  0.00     0.013 A 
ATOM     21  C16 <0> d   1      18.103  -1.196   7.485  0.00  0.00     0.001 A 
ATOM     22  C17 <0> d   1      18.723  -0.290   6.625  0.00  0.00     0.001 A 
ENDBRANCH  12  13
ENDBRANCH   2  12
TORSDOF 5
ENDMDL
MODEL 4
REMARK VINA RESULT:      -7.6      2.751      4.730
REMARK  5 active torsions:
REMARK  status: ('A' for Active; 'I' for Inactive)
REMARK    1  A    between atoms: N2_2  and  C3_3 
REMARK    2  A    between atoms: N2_2  and  C12_12 
REMARK    3  A    between atoms: C3_3  and  C4_4 
REMARK    4  A    between atoms: C5_5  and  C6_6 
REMARK    5  A    between atoms: C12_12  and  C13_13 
ROOT
ATOM      1  C1  <0> d   1      17.667  -3.381  10.290  0.00  0.00     0.310 C 
ATOM      2  N2  <0> d   1      18.089  -2.092  10.855  0.00  0.00     0.091 N 
ENDROOT
BRANCH   2   3
ATOM      3  C3  <0> d   1      18.115  -2.144  12.323  0.00  0.00     0.299 C 
BRANCH   3   4
ATOM      4  C4  <0> d   1      19.543  -2.241  12.795  0.00  0.00     0.004 C 
ATOM      5  C5  <0> d   1      19.907  -1.651  13.926  0.00  0.00     0.009 C 
BRANCH   5   6
ATOM      6  C6  <0> d   1      18.886  -1.052  14.810  0.00  0.00    -0.036 A 
ATOM      7  C11 <0> d   1      18.433  -1.749  15.930  0.00  0.00     0.011 A 
ATOM      8  C10 <0> d   1      17.485  -1.181  16.756  0.00  0.00     0.001 A 
ATOM      9  C9  <0> d   1      16.974   0.072  16.468  0.00  0.00     0.000 A 
ATOM     10  C8  <0> d   1      17.415   0.766  15.356  0.00  0.00     0.001 A 
ATOM     11  C7  <0> d   1      18.368   0.212  14.526  0.00  0.00     0.011 A 
ENDBRANCH   5   6
ENDBRANCH   3   4
ENDBRANCH   2   3
BRANCH   2  12
ATOM     12  C12 <0> d   1      19.394  -1.684  10.319  0.00  0.00     0.311 C 
BRANCH  12  13
ATOM     13  C13 <0> d   1      19.266  -0.338   9.653  0.00  0.00    -0.019 A 
ATOM     14  C22 <0> d   1      19.217   0.795  10.404  0.00  0.00     0.010 A 
ATOM     15  C21 <0> d   1      19.105   2.049   9.806  0.00  0.00     0.002 A 
ATOM     16  C20 <0> d   1      19.033   2.176   8.453  0.00  0.00     0.012 A 
ATOM     17  C19 <0> d   1      19.074   1.027   7.644  0.00  0.00    -0.025 A 
ATOM     18  C14 <0> d   1      19.193  -0.247   8.252  0.00  0.00    -0.018 A 
ATOM     19  C18 <0> d   1      19.001   1.118   6.243  0.00  0.00     0.012 A 
ATOM     20  C15 <0> d   1      19.234  -1.396   7.443  0.00  0.00     0.013 A 
ATOM     21  C16 <0> d   1      19.160  -1.270   6.091  0.00  0.00     0.001 A 
ATOM     22  C17 <0> d   1      19.043  -0.016   5.492  0.00  0.00     0.001 A 
ENDBRANCH  12  13
ENDBRANCH   2  12
TORSDOF 5
ENDMDL
MODEL 5
REMARK VINA RESULT:      -7.5      4.492      7.186
REMARK  5 active torsions:
REMARK  status: ('A' for Active; 'I' for Inactive)
REMARK    1  A    between atoms: N2_2  and  C3_3 
REMARK    2  A    between atoms: N2_2  and  C12_12 
REMARK    3  A    between atoms: C3_3  and  C4_4 
REMARK    4  A    between atoms: C5_5  and  C6_6 
REMARK    5  A    between atoms: C12_12  and  C13_13 
ROOT
ATOM      1  C1  <0> d   1      19.246   4.753  12.817  0.00  0.00     0.310 C 
ATOM      2  N2  <0> d   1      18.519   3.476  12.845  0.00  0.00     0.091 N 
ENDROOT
BRANCH   2   3
ATOM      3  C3  <0> d   1      17.898   3.252  14.156  0.00  0.00     0.299 C 
BRANCH   3   4
ATOM      4  C4  <0> d   1      18.882   3.599  15.243  0.00  0.00     0.004 C 
ATOM      5  C5  <0> d   1      19.298   2.662  16.084  0.00  0.00     0.009 C 
BRANCH   5   6
ATOM      6  C6  <0> d   1      18.939   1.247  15.852  0.00  0.00    -0.036 A 
ATOM      7  C11 <0> d   1      17.951   0.639  16.626  0.00  0.00     0.011 A 
ATOM      8  C10 <0> d   1      17.615  -0.680  16.399  0.00  0.00     0.001 A 
ATOM      9  C9  <0> d   1      18.266  -1.403  15.415  0.00  0.00     0.000 A 
ATOM     10  C8  <0> d   1      19.251  -0.807  14.648  0.00  0.00     0.001 A 
ATOM     11  C7  <0> d   1      19.591   0.513  14.860  0.00  0.00     0.011 A 
ENDBRANCH   5   6
ENDBRANCH   3   4
ENDBRANCH   2   3
BRANCH   2  12
ATOM     12  C12 <0> d   1      17.519   3.418  11.771  0.00  0.00     0.311 C 
BRANCH  12  13
ATOM     13  C13 <0> d   1      18.004   2.499  10.679  0.00  0.00    -0.019 A 
ATOM     14  C22 <0> d   1      18.626   3.009   9.582  0.00  0.00     0.010 A 
ATOM     15  C21 <0> d   1      19.087   2.175   8.565  0.00  0.00     0.002 A 
ATOM     16  C20 <0> d   1      18.920   0.826   8.635  0.00  0.00     0.012 A 
ATOM     17  C19 <0> d   1      18.277   0.263   9.751  0.00  0.00    -0.025 A 
ATOM     18  C14 <0> d   1      17.813   1.111  10.787  0.00  0.00    -0.018 A 
ATOM     19  C18 <0> d   1      18.086  -1.125   9.859  0.00  0.00     0.012 A 
ATOM     20  C15 <0> d   1      17.169   0.548  11.902  0.00  0.00     0.013 A 
ATOM     21  C16 <0> d   1      17.000  -0.800  11.973  0.00  0.00     0.001 A 
ATOM     22  C17 <0> d   1      17.457  -1.635  10.953  0.00  0.00     0.001 A 
ENDBRANCH  12  13
ENDBRANCH   2  12
TORSDOF 5
ENDMDL
MODEL 6
REMARK VINA RESULT:      -7.5      4.599      8.512
REMARK  5 active torsions:
REMARK  status: ('A' for Active; 'I' for Inactive)
REMARK    1  A    between atoms: N2_2  and  C3_3 
REMARK    2  A    between atoms: N2_2  and  C12_12 
REMARK    3  A    between atoms: C3_3  and  C4_4 
REMARK    4  A    between atoms: C5_5  and  C6_6 
REMARK    5  A    between atoms: C12_12  and  C13_13 
ROOT
ATOM      1  C1  <0> d   1      19.208  -1.582  12.077  0.00  0.00     0.310 C 
ATOM      2  N2  <0> d   1      19.647  -0.318  12.683  0.00  0.00     0.091 N 
ENDROOT
BRANCH   2   3
ATOM      3  C3  <0> d   1      20.148   0.610  11.660  0.00  0.00     0.299 C 
BRANCH   3   4
ATOM      4  C4  <0> d   1      19.488   1.953  11.835  0.00  0.00     0.004 C 
ATOM      5  C5  <0> d   1      18.815   2.496  10.829  0.00  0.00     0.009 C 
BRANCH   5   6
ATOM      6  C6  <0> d   1      18.562   1.714   9.601  0.00  0.00    -0.036 A 
ATOM      7  C11 <0> d   1      17.596   0.708   9.599  0.00  0.00     0.011 A 
ATOM      8  C10 <0> d   1      17.359  -0.013   8.446  0.00  0.00     0.001 A 
ATOM      9  C9  <0> d   1      18.086   0.251   7.299  0.00  0.00     0.000 A 
ATOM     10  C8  <0> d   1      19.050   1.243   7.298  0.00  0.00     0.001 A 
ATOM     11  C7  <0> d   1      19.292   1.977   8.441  0.00  0.00     0.011 A 
ENDBRANCH   5   6
ENDBRANCH   3   4
ENDBRANCH   2   3
BRANCH   2  12
ATOM     12  C12 <0> d   1      18.565   0.294  13.465  0.00  0.00     0.311 C 
BRANCH  12  13
ATOM     13  C13 <0> d   1      18.779   0.010  14.930  0.00  0.00    -0.019 A 
ATOM     14  C22 <0> d   1      18.857  -1.273  15.373  0.00  0.00     0.010 A 
ATOM     15  C21 <0> d   1      19.060  -1.556  16.723  0.00  0.00     0.002 A 
ATOM     16  C20 <0> d   1      19.178  -0.555  17.638  0.00  0.00     0.012 A 
ATOM     17  C19 <0> d   1      19.096   0.784  17.218  0.00  0.00    -0.025 A 
ATOM     18  C14 <0> d   1      18.894   1.070  15.845  0.00  0.00    -0.018 A 
ATOM     19  C18 <0> d   1      19.212   1.844  18.133  0.00  0.00     0.012 A 
ATOM     20  C15 <0> d   1      18.812   2.409  15.425  0.00  0.00     0.013 A 
ATOM     21  C16 <0> d   1      18.928   3.410  16.340  0.00  0.00     0.001 A 
ATOM     22  C17 <0> d   1      19.127   3.128  17.691  0.00  0.00     0.001 A 
ENDBRANCH  12  13
ENDBRANCH   2  12
TORSDOF 5
ENDMDL
MODEL 7
REMARK VINA RESULT:      -7.4      4.578      8.405
REMARK  5 active torsions:
REMARK  status: ('A' for Active; 'I' for Inactive)
REMARK    1  A    between atoms: N2_2  and  C3_3 
REMARK    2  A    between atoms: N2_2  and  C12_12 
REMARK    3  A    between atoms: C3_3  and  C4_4 
REMARK    4  A    between atoms: C5_5  and  C6_6 
REMARK    5  A    between atoms: C12_12  and  C13_13 
ROOT
ATOM      1  C1  <0> d   1      18.809  -1.351  11.476  0.00  0.00     0.310 C 
ATOM      2  N2  <0> d   1      18.194  -0.102  11.945  0.00  0.00     0.091 N 
ENDROOT
BRANCH   2   3
ATOM      3  C3  <0> d   1      17.362   0.502  10.895  0.00  0.00     0.299 C 
BRANCH   3   4
ATOM      4  C4  <0> d   1      18.165   0.621   9.626  0.00  0.00     0.004 C 
ATOM      5  C5  <0> d   1      18.741   1.774   9.314  0.00  0.00     0.009 C 
BRANCH   5   6
ATOM      6  C6  <0> d   1      18.748   2.886  10.288  0.00  0.00    -0.036 A 
ATOM      7  C11 <0> d   1      17.680   3.782  10.336  0.00  0.00     0.011 A 
ATOM      8  C10 <0> d   1      17.689   4.813  11.253  0.00  0.00     0.001 A 
ATOM      9  C9  <0> d   1      18.761   4.967  12.114  0.00  0.00     0.000 A 
ATOM     10  C8  <0> d   1      19.826   4.085  12.067  0.00  0.00     0.001 A 
ATOM     11  C7  <0> d   1      19.826   3.045  11.160  0.00  0.00     0.011 A 
ENDBRANCH   5   6
ENDBRANCH   3   4
ENDBRANCH   2   3
BRANCH   2  12
ATOM     12  C12 <0> d   1      17.416  -0.326  13.170  0.00  0.00     0.311 C 
BRANCH  12  13
ATOM     13  C13 <0> d   1      17.870   0.635  14.239  0.00  0.00    -0.019 A 
ATOM     14  C22 <0> d   1      17.799   1.977  14.027  0.00  0.00     0.010 A 
ATOM     15  C21 <0> d   1      18.209   2.881  15.005  0.00  0.00     0.002 A 
ATOM     16  C20 <0> d   1      18.702   2.448  16.197  0.00  0.00     0.012 A 
ATOM     17  C19 <0> d   1      18.797   1.069  16.450  0.00  0.00    -0.025 A 
ATOM     18  C14 <0> d   1      18.375   0.150  15.457  0.00  0.00    -0.018 A 
ATOM     19  C18 <0> d   1      19.300   0.583  17.669  0.00  0.00     0.012 A 
ATOM     20  C15 <0> d   1      18.469  -1.230  15.710  0.00  0.00     0.013 A 
ATOM     21  C16 <0> d   1      18.963  -1.664  16.901  0.00  0.00     0.001 A 
ATOM     22  C17 <0> d   1      19.379  -0.759  17.878  0.00  0.00     0.001 A 
ENDBRANCH  12  13
ENDBRANCH   2  12
TORSDOF 5
ENDMDL
MODEL 8
REMARK VINA RESULT:      -7.3      1.704      3.434
REMARK  5 active torsions:
REMARK  status: ('A' for Active; 'I' for Inactive)
REMARK    1  A    between atoms: N2_2  and  C3_3 
REMARK    2  A    between atoms: N2_2  and  C12_12 
REMARK    3  A    between atoms: C3_3  and  C4_4 
REMARK    4  A    between atoms: C5_5  and  C6_6 
REMARK    5  A    between atoms: C12_12  and  C13_13 
ROOT
ATOM      1  C1  <0> d   1      19.052  -1.594   5.845  0.00  0.00     0.310 C 
ATOM      2  N2  <0> d   1      18.569  -1.748   7.224  0.00  0.00     0.091 N 
ENDROOT
BRANCH   2   3
ATOM      3  C3  <0> d   1      18.188  -3.141   7.495  0.00  0.00     0.299 C 
BRANCH   3   4
ATOM      4  C4  <0> d   1      19.345  -4.050   7.168  0.00  0.00     0.004 C 
ATOM      5  C5  <0> d   1      19.768  -4.930   8.065  0.00  0.00     0.009 C 
BRANCH   5   6
ATOM      6  C6  <0> d   1      19.002  -5.146   9.310  0.00  0.00    -0.036 A 
ATOM      7  C11 <0> d   1      19.379  -4.497  10.486  0.00  0.00     0.011 A 
ATOM      8  C10 <0> d   1      18.654  -4.697  11.643  0.00  0.00     0.001 A 
ATOM      9  C9  <0> d   1      17.565  -5.549  11.642  0.00  0.00     0.000 A 
ATOM     10  C8  <0> d   1      17.190  -6.201  10.481  0.00  0.00     0.001 A 
ATOM     11  C7  <0> d   1      17.901  -6.004   9.315  0.00  0.00     0.011 A 
ENDBRANCH   5   6
ENDBRANCH   3   4
ENDBRANCH   2   3
BRANCH   2  12
ATOM     12  C12 <0> d   1      19.572  -1.279   8.188  0.00  0.00     0.311 C 
BRANCH  12  13
ATOM     13  C13 <0> d   1      19.116   0.022   8.797  0.00  0.00    -0.019 A 
ATOM     14  C22 <0> d   1      19.395   1.202   8.179  0.00  0.00     0.010 A 
ATOM     15  C21 <0> d   1      18.976   2.414   8.724  0.00  0.00     0.002 A 
ATOM     16  C20 <0> d   1      18.284   2.454   9.895  0.00  0.00     0.012 A 
ATOM     17  C19 <0> d   1      17.982   1.256  10.566  0.00  0.00    -0.025 A 
ATOM     18  C14 <0> d   1      18.404   0.023  10.009  0.00  0.00    -0.018 A 
ATOM     19  C18 <0> d   1      17.270   1.257  11.777  0.00  0.00     0.012 A 
ATOM     20  C15 <0> d   1      18.103  -1.175  10.679  0.00  0.00     0.013 A 
ATOM     21  C16 <0> d   1      17.412  -1.135  11.851  0.00  0.00     0.001 A 
ATOM     22  C17 <0> d   1      16.997   0.078  12.399  0.00  0.00     0.001 A 
ENDBRANCH  12  13
ENDBRANCH   2  12
TORSDOF 5
ENDMDL
MODEL 9
REMARK VINA RESULT:      -7.3      4.325      8.188
REMARK  5 active torsions:
REMARK  status: ('A' for Active; 'I' for Inactive)
REMARK    1  A    between atoms: N2_2  and  C3_3 
REMARK    2  A    between atoms: N2_2  and  C12_12 
REMARK    3  A    between atoms: C3_3  and  C4_4 
REMARK    4  A    between atoms: C5_5  and  C6_6 
REMARK    5  A    between atoms: C12_12  and  C13_13 
ROOT
ATOM      1  C1  <0> d   1      17.836   3.947  12.867  0.00  0.00     0.310 C 
ATOM      2  N2  <0> d   1      17.945   2.497  12.652  0.00  0.00     0.091 N 
ENDROOT
BRANCH   2   3
ATOM      3  C3  <0> d   1      17.702   2.154  11.245  0.00  0.00     0.299 C 
BRANCH   3   4
ATOM      4  C4  <0> d   1      18.591   2.992  10.364  0.00  0.00     0.004 C 
ATOM      5  C5  <0> d   1      19.255   2.428   9.364  0.00  0.00     0.009 C 
BRANCH   5   6
ATOM      6  C6  <0> d   1      18.991   1.019   9.002  0.00  0.00    -0.036 A 
ATOM      7  C11 <0> d   1      19.619  -0.013   9.699  0.00  0.00     0.011 A 
ATOM      8  C10 <0> d   1      19.362  -1.326   9.362  0.00  0.00     0.001 A 
ATOM      9  C9  <0> d   1      18.493  -1.619   8.325  0.00  0.00     0.000 A 
ATOM     10  C8  <0> d   1      17.873  -0.600   7.626  0.00  0.00     0.001 A 
ATOM     11  C7  <0> d   1      18.115   0.717   7.959  0.00  0.00     0.011 A 
ENDBRANCH   5   6
ENDBRANCH   3   4
ENDBRANCH   2   3
BRANCH   2  12
ATOM     12  C12 <0> d   1      19.252   1.996  13.099  0.00  0.00     0.311 C 
BRANCH  12  13
ATOM     13  C13 <0> d   1      19.056   0.767  13.949  0.00  0.00    -0.019 A 
ATOM     14  C22 <0> d   1      18.872  -0.447  13.364  0.00  0.00     0.010 A 
ATOM     15  C21 <0> d   1      18.695  -1.596  14.133  0.00  0.00     0.002 A 
ATOM     16  C20 <0> d   1      18.692  -1.535  15.493  0.00  0.00     0.012 A 
ATOM     17  C19 <0> d   1      18.872  -0.297  16.133  0.00  0.00    -0.025 A 
ATOM     18  C14 <0> d   1      19.058   0.870  15.351  0.00  0.00    -0.018 A 
ATOM     19  C18 <0> d   1      18.875  -0.193  17.535  0.00  0.00     0.012 A 
ATOM     20  C15 <0> d   1      19.238   2.108  15.991  0.00  0.00     0.013 A 
ATOM     21  C16 <0> d   1      19.233   2.170  17.350  0.00  0.00     0.001 A 
ATOM     22  C17 <0> d   1      19.052   1.022  18.121  0.00  0.00     0.001 A 
ENDBRANCH  12  13
ENDBRANCH   2  12
TORSDOF 5
ENDMDL
