MODEL 1
REMARK VINA RESULT:      -5.5      0.000      0.000
REMARK  4 active torsions:
REMARK  status: ('A' for Active; 'I' for Inactive)
REMARK    1  A    between atoms: N2_2  and  C5_5 
REMARK    2  A    between atoms: C5_5  and  C8_7 
REMARK    3  A    between atoms: C8_7  and  O10_8 
REMARK    4  A    between atoms: C8_7  and  C11_9 
ROOT
ATOM      1  C8  <0> d   1      18.592  -0.377   4.997  0.00  0.00     0.181 C 
ENDROOT
BRANCH   1   2
ATOM      2  C5  <0> d   1      18.008  -1.790   4.936  0.00  0.00     0.214 C 
ATOM      3  C7  <0> d   1      19.143  -2.814   4.990  0.00  0.00     0.043 C 
BRANCH   2   4
ATOM      4  N2  <0> d   1      17.258  -1.955   3.684  0.00  0.00    -0.072 N 
ATOM      5  C1  <0> d   1      16.716  -3.319   3.614  0.00  0.00     0.267 C 
ATOM      6  H3  <0> d   1      17.873  -1.797   2.900  0.00  0.00     0.277 HD
ATOM      7  H4  <0> d   1      16.498  -1.291   3.656  0.00  0.00     0.277 HD
ENDBRANCH   2   4
ENDBRANCH   1   2
BRANCH   1   8
ATOM      8  O10 <0> d   1      19.974  -0.417   4.636  0.00  0.00    -0.389 OA
ATOM      9  H23 <0> d   1      20.353  -1.306   4.630  0.00  0.00     0.210 HD
ENDBRANCH   1   8
BRANCH   1  10
ATOM     10  C11 <0> d   1      18.455   0.163   6.398  0.00  0.00    -0.028 A 
ATOM     11  C16 <0> d   1      19.224   1.237   6.803  0.00  0.00     0.010 A 
ATOM     12  C15 <0> d   1      19.096   1.735   8.087  0.00  0.00     0.001 A 
ATOM     13  C14 <0> d   1      18.204   1.152   8.967  0.00  0.00     0.000 A 
ATOM     14  C13 <0> d   1      17.437   0.075   8.564  0.00  0.00     0.001 A 
ATOM     15  C12 <0> d   1      17.564  -0.420   7.279  0.00  0.00     0.010 A 
ENDBRANCH   1  10
TORSDOF 4
ENDMDL
MODEL 2
REMARK VINA RESULT:      -5.3      4.308      6.469
REMARK  4 active torsions:
REMARK  status: ('A' for Active; 'I' for Inactive)
REMARK    1  A    between atoms: N2_2  and  C5_5 
REMARK    2  A    between atoms: C5_5  and  C8_7 
REMARK    3  A    between atoms: C8_7  and  O10_8 
REMARK    4  A    between atoms: C8_7  and  C11_9 
ROOT
ATOM      1  C8  <0> d   1      18.416   2.863  10.797  0.00  0.00     0.181 C 
ENDROOT
BRANCH   1   2
ATOM      2  C5  <0> d   1      18.976   2.135  12.022  0.00  0.00     0.214 C 
ATOM      3  C7  <0> d   1      18.696   2.961  13.278  0.00  0.00     0.043 C 
BRANCH   2   4
ATOM      4  N2  <0> d   1      20.426   1.957  11.865  0.00  0.00    -0.072 N 
ATOM      5  C1  <0> d   1      20.782   0.561  12.156  0.00  0.00     0.267 C 
ATOM      6  H3  <0> d   1      20.910   2.569  12.504  0.00  0.00     0.277 HD
ATOM      7  H4  <0> d   1      20.692   2.181  10.917  0.00  0.00     0.277 HD
ENDBRANCH   2   4
ENDBRANCH   1   2
BRANCH   1   8
ATOM      8  O10 <0> d   1      17.100   3.339  11.088  0.00  0.00    -0.389 OA
ATOM      9  H23 <0> d   1      16.586   2.751  11.658  0.00  0.00     0.210 HD
ENDBRANCH   1   8
BRANCH   1  10
ATOM     10  C11 <0> d   1      18.360   1.911   9.630  0.00  0.00    -0.028 A 
ATOM     11  C16 <0> d   1      19.093   2.174   8.488  0.00  0.00     0.010 A 
ATOM     12  C15 <0> d   1      19.045   1.300   7.418  0.00  0.00     0.001 A 
ATOM     13  C14 <0> d   1      18.256   0.167   7.488  0.00  0.00     0.000 A 
ATOM     14  C13 <0> d   1      17.519  -0.094   8.628  0.00  0.00     0.001 A 
ATOM     15  C12 <0> d   1      17.570   0.779   9.699  0.00  0.00     0.010 A 
ENDBRANCH   1  10
TORSDOF 4
ENDMDL
MODEL 3
REMARK VINA RESULT:      -5.3      3.876      6.109
REMARK  4 active torsions:
REMARK  status: ('A' for Active; 'I' for Inactive)
REMARK    1  A    between atoms: N2_2  and  C5_5 
REMARK    2  A    between atoms: C5_5  and  C8_7 
REMARK    3  A    between atoms: C8_7  and  O10_8 
REMARK    4  A    between atoms: C8_7  and  C11_9 
ROOT
ATOM      1  C8  <0> d   1      18.838   1.652  10.344  0.00  0.00     0.181 C 
ENDROOT
BRANCH   1   2
ATOM      2  C5  <0> d   1      17.695   2.528  10.862  0.00  0.00     0.214 C 
ATOM      3  C7  <0> d   1      17.905   3.969  10.394  0.00  0.00     0.043 C 
BRANCH   2   4
ATOM      4  N2  <0> d   1      17.673   2.486  12.330  0.00  0.00    -0.072 N 
ATOM      5  C1  <0> d   1      17.696   1.088  12.780  0.00  0.00     0.267 C 
ATOM      6  H3  <0> d   1      16.834   2.935  12.666  0.00  0.00     0.277 HD
ATOM      7  H4  <0> d   1      18.482   2.969  12.692  0.00  0.00     0.277 HD
ENDBRANCH   2   4
ENDBRANCH   1   2
BRANCH   1   8
ATOM      8  O10 <0> d   1      20.045   2.417  10.307  0.00  0.00    -0.389 OA
ATOM      9  H23 <0> d   1      19.904   3.373  10.302  0.00  0.00     0.210 HD
ENDBRANCH   1   8
BRANCH   1  10
ATOM     10  C11 <0> d   1      18.509   1.165   8.956  0.00  0.00    -0.028 A 
ATOM     11  C16 <0> d   1      17.508   0.231   8.770  0.00  0.00     0.010 A 
ATOM     12  C15 <0> d   1      17.203  -0.213   7.497  0.00  0.00     0.001 A 
ATOM     13  C14 <0> d   1      17.907   0.272   6.410  0.00  0.00     0.000 A 
ATOM     14  C13 <0> d   1      18.911   1.203   6.596  0.00  0.00     0.001 A 
ATOM     15  C12 <0> d   1      19.213   1.649   7.869  0.00  0.00     0.010 A 
ENDBRANCH   1  10
TORSDOF 4
ENDMDL
MODEL 4
REMARK VINA RESULT:      -5.2      5.465      7.273
REMARK  4 active torsions:
REMARK  status: ('A' for Active; 'I' for Inactive)
REMARK    1  A    between atoms: N2_2  and  C5_5 
REMARK    2  A    between atoms: C5_5  and  C8_7 
REMARK    3  A    between atoms: C8_7  and  O10_8 
REMARK    4  A    between atoms: C8_7  and  C11_9 
ROOT
ATOM      1  C8  <0> d   1      20.249   1.064  12.170  0.00  0.00     0.181 C 
ENDROOT
BRANCH   1   2
ATOM      2  C5  <0> d   1      19.588   0.689  10.841  0.00  0.00     0.214 C 
ATOM      3  C7  <0> d   1      20.335  -0.489  10.213  0.00  0.00     0.043 C 
BRANCH   2   4
ATOM      4  N2  <0> d   1      19.634   1.841   9.930  0.00  0.00    -0.072 N 
ATOM      5  C1  <0> d   1      19.146   3.037  10.628  0.00  0.00     0.267 C 
ATOM      6  H3  <0> d   1      19.051   1.657   9.127  0.00  0.00     0.277 HD
ATOM      7  H4  <0> d   1      20.585   1.993   9.628  0.00  0.00     0.277 HD
ENDBRANCH   2   4
ENDBRANCH   1   2
BRANCH   1   8
ATOM      8  O10 <0> d   1      21.580   0.542  12.202  0.00  0.00    -0.389 OA
ATOM      9  H23 <0> d   1      21.794   0.064  13.015  0.00  0.00     0.210 HD
ENDBRANCH   1   8
BRANCH   1  10
ATOM     10  C11 <0> d   1      19.453   0.481  13.309  0.00  0.00    -0.028 A 
ATOM     11  C16 <0> d   1      18.348   1.153  13.795  0.00  0.00     0.010 A 
ATOM     12  C15 <0> d   1      17.614   0.617  14.837  0.00  0.00     0.001 A 
ATOM     13  C14 <0> d   1      17.993  -0.588  15.398  0.00  0.00     0.000 A 
ATOM     14  C13 <0> d   1      19.100  -1.259  14.915  0.00  0.00     0.001 A 
ATOM     15  C12 <0> d   1      19.831  -0.724  13.871  0.00  0.00     0.010 A 
ENDBRANCH   1  10
TORSDOF 4
ENDMDL
MODEL 5
REMARK VINA RESULT:      -5.2      3.838      6.226
REMARK  4 active torsions:
REMARK  status: ('A' for Active; 'I' for Inactive)
REMARK    1  A    between atoms: N2_2  and  C5_5 
REMARK    2  A    between atoms: C5_5  and  C8_7 
REMARK    3  A    between atoms: C8_7  and  O10_8 
REMARK    4  A    between atoms: C8_7  and  C11_9 
ROOT
ATOM      1  C8  <0> d   1      18.892   1.824  10.676  0.00  0.00     0.181 C 
ENDROOT
BRANCH   1   2
ATOM      2  C5  <0> d   1      18.732   3.346  10.671  0.00  0.00     0.214 C 
ATOM      3  C7  <0> d   1      19.345   3.928  11.946  0.00  0.00     0.043 C 
BRANCH   2   4
ATOM      4  N2  <0> d   1      17.304   3.687  10.614  0.00  0.00    -0.072 N 
ATOM      5  C1  <0> d   1      17.109   5.060  11.099  0.00  0.00     0.267 C 
ATOM      6  H3  <0> d   1      16.783   3.048  11.195  0.00  0.00     0.277 HD
ATOM      7  H4  <0> d   1      16.979   3.618   9.661  0.00  0.00     0.277 HD
ENDBRANCH   2   4
ENDBRANCH   1   2
BRANCH   1   8
ATOM      8  O10 <0> d   1      20.239   1.489  11.018  0.00  0.00    -0.389 OA
ATOM      9  H23 <0> d   1      20.696   0.965  10.346  0.00  0.00     0.210 HD
ENDBRANCH   1   8
BRANCH   1  10
ATOM     10  C11 <0> d   1      18.572   1.281   9.307  0.00  0.00    -0.028 A 
ATOM     11  C16 <0> d   1      19.255   1.750   8.200  0.00  0.00     0.010 A 
ATOM     12  C15 <0> d   1      18.964   1.249   6.944  0.00  0.00     0.001 A 
ATOM     13  C14 <0> d   1      17.983   0.286   6.796  0.00  0.00     0.000 A 
ATOM     14  C13 <0> d   1      17.298  -0.180   7.902  0.00  0.00     0.001 A 
ATOM     15  C12 <0> d   1      17.591   0.319   9.158  0.00  0.00     0.010 A 
ENDBRANCH   1  10
TORSDOF 4
ENDMDL
MODEL 6
REMARK VINA RESULT:      -5.2      5.455      6.350
REMARK  4 active torsions:
REMARK  status: ('A' for Active; 'I' for Inactive)
REMARK    1  A    between atoms: N2_2  and  C5_5 
REMARK    2  A    between atoms: C5_5  and  C8_7 
REMARK    3  A    between atoms: C8_7  and  O10_8 
REMARK    4  A    between atoms: C8_7  and  C11_9 
ROOT
ATOM      1  C8  <0> d   1      20.569   0.129  11.764  0.00  0.00     0.181 C 
ENDROOT
BRANCH   1   2
ATOM      2  C5  <0> d   1      19.729  -1.148  11.675  0.00  0.00     0.214 C 
ATOM      3  C7  <0> d   1      19.118  -1.452  13.044  0.00  0.00     0.043 C 
BRANCH   2   4
ATOM      4  N2  <0> d   1      20.583  -2.268  11.259  0.00  0.00    -0.072 N 
ATOM      5  C1  <0> d   1      19.973  -3.534  11.688  0.00  0.00     0.267 C 
ATOM      6  H3  <0> d   1      21.493  -2.171  11.683  0.00  0.00     0.277 HD
ATOM      7  H4  <0> d   1      20.677  -2.264  10.254  0.00  0.00     0.277 HD
ENDBRANCH   2   4
ENDBRANCH   1   2
BRANCH   1   8
ATOM      8  O10 <0> d   1      20.895   0.391  13.131  0.00  0.00    -0.389 OA
ATOM      9  H23 <0> d   1      20.189   0.829  13.625  0.00  0.00     0.210 HD
ENDBRANCH   1   8
BRANCH   1  10
ATOM     10  C11 <0> d   1      19.784   1.287  11.203  0.00  0.00    -0.028 A 
ATOM     11  C16 <0> d   1      19.319   1.241   9.903  0.00  0.00     0.010 A 
ATOM     12  C15 <0> d   1      18.595   2.302   9.389  0.00  0.00     0.001 A 
ATOM     13  C14 <0> d   1      18.345   3.411  10.175  0.00  0.00     0.000 A 
ATOM     14  C13 <0> d   1      18.814   3.459  11.474  0.00  0.00     0.001 A 
ATOM     15  C12 <0> d   1      19.535   2.397  11.988  0.00  0.00     0.010 A 
ENDBRANCH   1  10
TORSDOF 4
ENDMDL
MODEL 7
REMARK VINA RESULT:      -5.2      4.019      5.747
REMARK  4 active torsions:
REMARK  status: ('A' for Active; 'I' for Inactive)
REMARK    1  A    between atoms: N2_2  and  C5_5 
REMARK    2  A    between atoms: C5_5  and  C8_7 
REMARK    3  A    between atoms: C8_7  and  O10_8 
REMARK    4  A    between atoms: C8_7  and  C11_9 
ROOT
ATOM      1  C8  <0> d   1      20.090  -0.719  10.618  0.00  0.00     0.181 C 
ENDROOT
BRANCH   1   2
ATOM      2  C5  <0> d   1      19.369   0.011  11.754  0.00  0.00     0.214 C 
ATOM      3  C7  <0> d   1      20.380   0.401  12.834  0.00  0.00     0.043 C 
BRANCH   2   4
ATOM      4  N2  <0> d   1      18.349  -0.874  12.334  0.00  0.00    -0.072 N 
ATOM      5  C1  <0> d   1      18.977  -2.132  12.757  0.00  0.00     0.267 C 
ATOM      6  H3  <0> d   1      17.640  -1.067  11.642  0.00  0.00     0.277 HD
ATOM      7  H4  <0> d   1      17.927  -0.423  13.132  0.00  0.00     0.277 HD
ENDBRANCH   2   4
ENDBRANCH   1   2
BRANCH   1   8
ATOM      8  O10 <0> d   1      21.502  -0.551  10.767  0.00  0.00    -0.389 OA
ATOM      9  H23 <0> d   1      22.011  -1.359  10.617  0.00  0.00     0.210 HD
ENDBRANCH   1   8
BRANCH   1  10
ATOM     10  C11 <0> d   1      19.652  -0.145   9.295  0.00  0.00    -0.028 A 
ATOM     11  C16 <0> d   1      19.494   1.220   9.152  0.00  0.00     0.010 A 
ATOM     12  C15 <0> d   1      19.096   1.747   7.937  0.00  0.00     0.001 A 
ATOM     13  C14 <0> d   1      18.848   0.906   6.868  0.00  0.00     0.000 A 
ATOM     14  C13 <0> d   1      19.003  -0.460   7.012  0.00  0.00     0.001 A 
ATOM     15  C12 <0> d   1      19.404  -0.986   8.227  0.00  0.00     0.010 A 
ENDBRANCH   1  10
TORSDOF 4
ENDMDL
MODEL 8
REMARK VINA RESULT:      -5.2      6.408      8.237
REMARK  4 active torsions:
REMARK  status: ('A' for Active; 'I' for Inactive)
REMARK    1  A    between atoms: N2_2  and  C5_5 
REMARK    2  A    between atoms: C5_5  and  C8_7 
REMARK    3  A    between atoms: C8_7  and  O10_8 
REMARK    4  A    between atoms: C8_7  and  C11_9 
ROOT
ATOM      1  C8  <0> d   1      19.029   0.125  12.628  0.00  0.00     0.181 C 
ENDROOT
BRANCH   1   2
ATOM      2  C5  <0> d   1      20.183   1.130  12.621  0.00  0.00     0.214 C 
ATOM      3  C7  <0> d   1      19.794   2.348  11.781  0.00  0.00     0.043 C 
BRANCH   2   4
ATOM      4  N2  <0> d   1      21.378   0.499  12.045  0.00  0.00    -0.072 N 
ATOM      5  C1  <0> d   1      20.971  -0.493  11.040  0.00  0.00     0.267 C 
ATOM      6  H3  <0> d   1      21.902   0.042  12.776  0.00  0.00     0.277 HD
ATOM      7  H4  <0> d   1      21.953   1.203  11.607  0.00  0.00     0.277 HD
ENDBRANCH   2   4
ENDBRANCH   1   2
BRANCH   1   8
ATOM      8  O10 <0> d   1      17.884   0.710  12.002  0.00  0.00    -0.389 OA
ATOM      9  H23 <0> d   1      18.014   0.925  11.069  0.00  0.00     0.210 HD
ENDBRANCH   1   8
BRANCH   1  10
ATOM     10  C11 <0> d   1      18.691  -0.242  14.050  0.00  0.00    -0.028 A 
ATOM     11  C16 <0> d   1      19.377  -1.262  14.683  0.00  0.00     0.010 A 
ATOM     12  C15 <0> d   1      19.070  -1.596  15.989  0.00  0.00     0.001 A 
ATOM     13  C14 <0> d   1      18.071  -0.914  16.659  0.00  0.00     0.000 A 
ATOM     14  C13 <0> d   1      17.382   0.103  16.025  0.00  0.00     0.001 A 
ATOM     15  C12 <0> d   1      17.691   0.438  14.720  0.00  0.00     0.010 A 
ENDBRANCH   1  10
TORSDOF 4
ENDMDL
MODEL 9
REMARK VINA RESULT:      -5.1      4.214      6.243
REMARK  4 active torsions:
REMARK  status: ('A' for Active; 'I' for Inactive)
REMARK    1  A    between atoms: N2_2  and  C5_5 
REMARK    2  A    between atoms: C5_5  and  C8_7 
REMARK    3  A    between atoms: C8_7  and  O10_8 
REMARK    4  A    between atoms: C8_7  and  C11_9 
ROOT
ATOM      1  C8  <0> d   1      17.430   0.770  11.158  0.00  0.00     0.181 C 
ENDROOT
BRANCH   1   2
ATOM      2  C5  <0> d   1      18.446  -0.052  11.954  0.00  0.00     0.214 C 
ATOM      3  C7  <0> d   1      17.709  -0.957  12.941  0.00  0.00     0.043 C 
BRANCH   2   4
ATOM      4  N2  <0> d   1      19.338   0.853  12.691  0.00  0.00    -0.072 N 
ATOM      5  C1  <0> d   1      20.728   0.615  12.277  0.00  0.00     0.267 C 
ATOM      6  H3  <0> d   1      19.248   0.681  13.681  0.00  0.00     0.277 HD
ATOM      7  H4  <0> d   1      19.087   1.810  12.491  0.00  0.00     0.277 HD
ENDBRANCH   2   4
ENDBRANCH   1   2
BRANCH   1   8
ATOM      8  O10 <0> d   1      16.140   0.162  11.261  0.00  0.00    -0.389 OA
ATOM      9  H23 <0> d   1      16.151  -0.800  11.165  0.00  0.00     0.210 HD
ENDBRANCH   1   8
BRANCH   1  10
ATOM     10  C11 <0> d   1      17.848   0.820   9.710  0.00  0.00    -0.028 A 
ATOM     11  C16 <0> d   1      17.329  -0.092   8.810  0.00  0.00     0.010 A 
ATOM     12  C15 <0> d   1      17.708  -0.045   7.481  0.00  0.00     0.001 A 
ATOM     13  C14 <0> d   1      18.614   0.910   7.056  0.00  0.00     0.000 A 
ATOM     14  C13 <0> d   1      19.136   1.818   7.957  0.00  0.00     0.001 A 
ATOM     15  C12 <0> d   1      18.753   1.773   9.285  0.00  0.00     0.010 A 
ENDBRANCH   1  10
TORSDOF 4
ENDMDL
