MODEL 1
REMARK VINA RESULT:      -7.8      0.000      0.000
REMARK  3 active torsions:
REMARK  status: ('A' for Active; 'I' for Inactive)
REMARK       I    between atoms: N6_5  and  C7_6 
REMARK    1  A    between atoms: C7_6  and  C9_8 
REMARK    2  A    between atoms: C13_12  and  N15_13 
REMARK    3  A    between atoms: N15_13  and  C17_15 
ROOT
ATOM      1  C9  <0> d   1      19.599  -3.131   6.756  0.00  0.00     0.226 C 
ATOM      2  C10 <0> d   1      19.557  -2.286   5.552  0.00  0.00     0.068 C 
ATOM      3  N11 <0> d   1      19.524  -1.633   4.622  0.00  0.00    -0.197 NA
ENDROOT
BRANCH   1   4
ATOM      4  C7  <0> d   1      18.900  -2.426   7.890  0.00  0.00     0.232 C 
ATOM      5  N6  <0> d   1      18.056  -3.108   8.689  0.00  0.00    -0.349 N 
ATOM      6  C5  <0> d   1      17.807  -4.538   8.468  0.00  0.00     0.126 C 
ATOM      7  C12 <0> d   1      17.367  -2.434   9.798  0.00  0.00     0.151 C 
ATOM      8  C4  <0> d   1      18.071  -5.293   9.775  0.00  0.00     0.026 C 
ATOM      9  C2  <0> d   1      17.230  -4.674  10.894  0.00  0.00     0.007 C 
ATOM     10  C1  <0> d   1      17.464  -5.447  12.194  0.00  0.00     0.012 C 
ATOM     11  C13 <0> d   1      17.636  -3.212  11.091  0.00  0.00     0.107 C 
ATOM     12  O8  <0> d   1      19.097  -1.245   8.083  0.00  0.00    -0.272 OA
BRANCH  11  13
ATOM     13  N15 <0> d   1      19.062  -3.139  11.418  0.00  0.00    -0.364 N 
ATOM     14  C16 <0> d   1      19.873  -4.358  11.437  0.00  0.00     0.152 C 
BRANCH  13  15
ATOM     15  C17 <0> d   1      19.643  -1.917  11.710  0.00  0.00     0.118 A 
ATOM     16  N25 <0> d   1      20.491  -1.345  10.859  0.00  0.00    -0.336 N 
ATOM     17  C24 <0> d   1      21.044  -0.177  11.132  0.00  0.00     0.211 A 
ATOM     18  H26 <0> d   1      20.701  -1.790  10.023  0.00  0.00     0.168 HD
ATOM     19  N23 <0> d   1      20.803   0.481  12.246  0.00  0.00    -0.225 NA
ATOM     20  C22 <0> d   1      19.972  -0.013  13.161  0.00  0.00     0.142 A 
ATOM     21  C18 <0> d   1      19.356  -1.254  12.912  0.00  0.00     0.055 A 
ATOM     22  N21 <0> d   1      19.531   0.418  14.383  0.00  0.00    -0.350 N 
ATOM     23  C19 <0> d   1      18.514  -1.532  14.073  0.00  0.00     0.036 A 
ATOM     24  C20 <0> d   1      18.661  -0.497  14.917  0.00  0.00     0.091 A 
ATOM     25  H43 <0> d   1      19.795   1.249  14.808  0.00  0.00     0.166 HD
ENDBRANCH  13  15
ENDBRANCH  11  13
ENDBRANCH   1   4
TORSDOF 3
ENDMDL
MODEL 2
REMARK VINA RESULT:      -7.7      3.366      6.923
REMARK  3 active torsions:
REMARK  status: ('A' for Active; 'I' for Inactive)
REMARK       I    between atoms: N6_5  and  C7_6 
REMARK    1  A    between atoms: C7_6  and  C9_8 
REMARK    2  A    between atoms: C13_12  and  N15_13 
REMARK    3  A    between atoms: N15_13  and  C17_15 
ROOT
ATOM      1  C9  <0> d   1      18.259   1.063  16.592  0.00  0.00     0.226 C 
ATOM      2  C10 <0> d   1      19.069   1.507  17.738  0.00  0.00     0.068 C 
ATOM      3  N11 <0> d   1      19.695   1.850  18.622  0.00  0.00    -0.197 NA
ENDROOT
BRANCH   1   4
ATOM      4  C7  <0> d   1      19.046   1.246  15.320  0.00  0.00     0.232 C 
ATOM      5  N6  <0> d   1      19.489   0.169  14.641  0.00  0.00    -0.349 N 
ATOM      6  C5  <0> d   1      19.213  -1.189  15.128  0.00  0.00     0.126 C 
ATOM      7  C12 <0> d   1      20.257   0.331  13.399  0.00  0.00     0.151 C 
ATOM      8  C4  <0> d   1      18.553  -1.992  14.003  0.00  0.00     0.026 C 
ATOM      9  C2  <0> d   1      19.440  -1.940  12.756  0.00  0.00     0.007 C 
ATOM     10  C1  <0> d   1      18.802  -2.770  11.641  0.00  0.00     0.012 C 
ATOM     11  C13 <0> d   1      19.585  -0.489  12.292  0.00  0.00     0.107 C 
ATOM     12  O8  <0> d   1      19.280   2.362  14.907  0.00  0.00    -0.272 OA
BRANCH  11  13
ATOM     13  N15 <0> d   1      18.261   0.069  12.005  0.00  0.00    -0.364 N 
ATOM     14  C16 <0> d   1      17.059  -0.723  12.273  0.00  0.00     0.152 C 
BRANCH  13  15
ATOM     15  C17 <0> d   1      18.147   1.344  11.481  0.00  0.00     0.118 A 
ATOM     16  N25 <0> d   1      17.664   2.342  12.215  0.00  0.00    -0.336 N 
ATOM     17  C24 <0> d   1      17.558   3.562  11.720  0.00  0.00     0.211 A 
ATOM     18  H26 <0> d   1      17.392   2.173  13.131  0.00  0.00     0.168 HD
ATOM     19  N23 <0> d   1      17.907   3.862  10.488  0.00  0.00    -0.225 NA
ATOM     20  C22 <0> d   1      18.397   2.929   9.674  0.00  0.00     0.142 A 
ATOM     21  C18 <0> d   1      18.533   1.615  10.160  0.00  0.00     0.055 A 
ATOM     22  N21 <0> d   1      18.837   2.927   8.378  0.00  0.00    -0.350 N 
ATOM     23  C19 <0> d   1      19.086   0.829   9.060  0.00  0.00     0.036 A 
ATOM     24  C20 <0> d   1      19.246   1.667   8.023  0.00  0.00     0.091 A 
ATOM     25  H43 <0> d   1      18.857   3.702   7.796  0.00  0.00     0.166 HD
ENDBRANCH  13  15
ENDBRANCH  11  13
ENDBRANCH   1   4
TORSDOF 3
ENDMDL
MODEL 3
REMARK VINA RESULT:      -7.7      3.513      5.191
REMARK  3 active torsions:
REMARK  status: ('A' for Active; 'I' for Inactive)
REMARK       I    between atoms: N6_5  and  C7_6 
REMARK    1  A    between atoms: C7_6  and  C9_8 
REMARK    2  A    between atoms: C13_12  and  N15_13 
REMARK    3  A    between atoms: N15_13  and  C17_15 
ROOT
ATOM      1  C9  <0> d   1      18.139   3.754   9.886  0.00  0.00     0.226 C 
ATOM      2  C10 <0> d   1      17.579   5.097  10.105  0.00  0.00     0.068 C 
ATOM      3  N11 <0> d   1      17.146   6.134  10.276  0.00  0.00    -0.197 NA
ENDROOT
BRANCH   1   4
ATOM      4  C7  <0> d   1      17.626   2.816  10.947  0.00  0.00     0.232 C 
ATOM      5  N6  <0> d   1      17.700   1.483  10.762  0.00  0.00    -0.349 N 
ATOM      6  C5  <0> d   1      18.278   0.929   9.530  0.00  0.00     0.126 C 
ATOM      7  C12 <0> d   1      17.204   0.555  11.787  0.00  0.00     0.151 C 
ATOM      8  C4  <0> d   1      19.382  -0.064   9.906  0.00  0.00     0.026 C 
ATOM      9  C2  <0> d   1      18.812  -1.116  10.860  0.00  0.00     0.007 C 
ATOM     10  C1  <0> d   1      19.902  -2.131  11.211  0.00  0.00     0.012 C 
ATOM     11  C13 <0> d   1      18.320  -0.434  12.139  0.00  0.00     0.107 C 
ATOM     12  O8  <0> d   1      17.146   3.260  11.969  0.00  0.00    -0.272 OA
BRANCH  11  13
ATOM     13  N15 <0> d   1      19.430   0.284  12.770  0.00  0.00    -0.364 N 
ATOM     14  C16 <0> d   1      20.725   0.373  12.091  0.00  0.00     0.152 C 
BRANCH  13  15
ATOM     15  C17 <0> d   1      19.255   0.879  14.006  0.00  0.00     0.118 A 
ATOM     16  N25 <0> d   1      19.215   2.203  14.126  0.00  0.00    -0.336 N 
ATOM     17  C24 <0> d   1      19.044   2.775  15.304  0.00  0.00     0.211 A 
ATOM     18  H26 <0> d   1      19.307   2.757  13.335  0.00  0.00     0.168 HD
ATOM     19  N23 <0> d   1      18.913   2.085  16.417  0.00  0.00    -0.225 NA
ATOM     20  C22 <0> d   1      18.944   0.754  16.400  0.00  0.00     0.142 A 
ATOM     21  C18 <0> d   1      19.120   0.100  15.166  0.00  0.00     0.055 A 
ATOM     22  N21 <0> d   1      18.840  -0.217  17.358  0.00  0.00    -0.350 N 
ATOM     23  C19 <0> d   1      19.113  -1.331  15.457  0.00  0.00     0.036 A 
ATOM     24  C20 <0> d   1      18.942  -1.457  16.784  0.00  0.00     0.091 A 
ATOM     25  H43 <0> d   1      18.711  -0.052  18.305  0.00  0.00     0.166 HD
ENDBRANCH  13  15
ENDBRANCH  11  13
ENDBRANCH   1   4
TORSDOF 3
ENDMDL
MODEL 4
REMARK VINA RESULT:      -7.5      2.828      5.854
REMARK  3 active torsions:
REMARK  status: ('A' for Active; 'I' for Inactive)
REMARK       I    between atoms: N6_5  and  C7_6 
REMARK    1  A    between atoms: C7_6  and  C9_8 
REMARK    2  A    between atoms: C13_12  and  N15_13 
REMARK    3  A    between atoms: N15_13  and  C17_15 
ROOT
ATOM      1  C9  <0> d   1      17.444   3.666  11.504  0.00  0.00     0.226 C 
ATOM      2  C10 <0> d   1      17.458   4.763  10.524  0.00  0.00     0.068 C 
ATOM      3  N11 <0> d   1      17.468   5.610   9.766  0.00  0.00    -0.197 NA
ENDROOT
BRANCH   1   4
ATOM      4  C7  <0> d   1      18.501   2.655  11.141  0.00  0.00     0.232 C 
ATOM      5  N6  <0> d   1      19.164   1.995  12.112  0.00  0.00    -0.349 N 
ATOM      6  C5  <0> d   1      18.868   2.250  13.528  0.00  0.00     0.126 C 
ATOM      7  C12 <0> d   1      20.198   1.007  11.775  0.00  0.00     0.151 C 
ATOM      8  C4  <0> d   1      18.552   0.918  14.214  0.00  0.00     0.026 C 
ATOM      9  C2  <0> d   1      19.708  -0.058  13.980  0.00  0.00     0.007 C 
ATOM     10  C1  <0> d   1      19.414  -1.379  14.694  0.00  0.00     0.012 C 
ATOM     11  C13 <0> d   1      19.867  -0.313  12.480  0.00  0.00     0.107 C 
ATOM     12  O8  <0> d   1      18.756   2.435   9.976  0.00  0.00    -0.272 OA
BRANCH  11  13
ATOM     13  N15 <0> d   1      18.619  -0.857  11.940  0.00  0.00    -0.364 N 
ATOM     14  C16 <0> d   1      17.407  -0.863  12.762  0.00  0.00     0.152 C 
BRANCH  13  15
ATOM     15  C17 <0> d   1      18.585  -1.365  10.654  0.00  0.00     0.118 A 
ATOM     16  N25 <0> d   1      18.106  -0.640   9.647  0.00  0.00    -0.336 N 
ATOM     17  C24 <0> d   1      18.076  -1.120   8.417  0.00  0.00     0.211 A 
ATOM     18  H26 <0> d   1      17.781   0.257   9.818  0.00  0.00     0.168 HD
ATOM     19  N23 <0> d   1      18.502  -2.328   8.114  0.00  0.00    -0.225 NA
ATOM     20  C22 <0> d   1      18.994  -3.131   9.055  0.00  0.00     0.142 A 
ATOM     21  C18 <0> d   1      19.049  -2.661  10.381  0.00  0.00     0.055 A 
ATOM     22  N21 <0> d   1      19.499  -4.403   9.058  0.00  0.00    -0.350 N 
ATOM     23  C19 <0> d   1      19.626  -3.743  11.174  0.00  0.00     0.036 A 
ATOM     24  C20 <0> d   1      19.874  -4.757  10.328  0.00  0.00     0.091 A 
ATOM     25  H43 <0> d   1      19.582  -4.970   8.275  0.00  0.00     0.166 HD
ENDBRANCH  13  15
ENDBRANCH  11  13
ENDBRANCH   1   4
TORSDOF 3
ENDMDL
MODEL 5
REMARK VINA RESULT:      -7.4      2.304      6.360
REMARK  3 active torsions:
REMARK  status: ('A' for Active; 'I' for Inactive)
REMARK       I    between atoms: N6_5  and  C7_6 
REMARK    1  A    between atoms: C7_6  and  C9_8 
REMARK    2  A    between atoms: C13_12  and  N15_13 
REMARK    3  A    between atoms: N15_13  and  C17_15 
ROOT
ATOM      1  C9  <0> d   1      18.191  -3.634  12.078  0.00  0.00     0.226 C 
ATOM      2  C10 <0> d   1      17.710  -5.019  12.196  0.00  0.00     0.068 C 
ATOM      3  N11 <0> d   1      17.338  -6.089  12.286  0.00  0.00    -0.197 NA
ENDROOT
BRANCH   1   4
ATOM      4  C7  <0> d   1      17.677  -3.030  10.797  0.00  0.00     0.232 C 
ATOM      5  N6  <0> d   1      17.470  -1.700  10.714  0.00  0.00    -0.349 N 
ATOM      6  C5  <0> d   1      17.743  -0.827  11.863  0.00  0.00     0.126 C 
ATOM      7  C12 <0> d   1      16.969  -1.097   9.472  0.00  0.00     0.151 C 
ATOM      8  C4  <0> d   1      18.684   0.296  11.417  0.00  0.00     0.026 C 
ATOM      9  C2  <0> d   1      18.077   1.016  10.211  0.00  0.00     0.007 C 
ATOM     10  C1  <0> d   1      18.996   2.162   9.784  0.00  0.00     0.012 C 
ATOM     11  C13 <0> d   1      17.919   0.030   9.052  0.00  0.00     0.107 C 
ATOM     12  O8  <0> d   1      17.448  -3.740   9.841  0.00  0.00    -0.272 OA
BRANCH  11  13
ATOM     13  N15 <0> d   1      19.227  -0.535   8.708  0.00  0.00    -0.364 N 
ATOM     14  C16 <0> d   1      20.414  -0.151   9.474  0.00  0.00     0.152 C 
BRANCH  13  15
ATOM     15  C17 <0> d   1      19.338  -1.433   7.661  0.00  0.00     0.118 A 
ATOM     16  N25 <0> d   1      19.681  -2.699   7.881  0.00  0.00    -0.336 N 
ATOM     17  C24 <0> d   1      19.785  -3.559   6.885  0.00  0.00     0.211 A 
ATOM     18  H26 <0> d   1      19.851  -2.996   8.789  0.00  0.00     0.168 HD
ATOM     19  N23 <0> d   1      19.569  -3.224   5.631  0.00  0.00    -0.225 NA
ATOM     20  C22 <0> d   1      19.225  -1.979   5.310  0.00  0.00     0.142 A 
ATOM     21  C18 <0> d   1      19.099  -1.027   6.339  0.00  0.00     0.055 A 
ATOM     22  N21 <0> d   1      18.943  -1.338   4.133  0.00  0.00    -0.350 N 
ATOM     23  C19 <0> d   1      18.719   0.226   5.693  0.00  0.00     0.036 A 
ATOM     24  C20 <0> d   1      18.642  -0.023   4.375  0.00  0.00     0.091 A 
ATOM     25  H43 <0> d   1      18.953  -1.754   3.257  0.00  0.00     0.166 HD
ENDBRANCH  13  15
ENDBRANCH  11  13
ENDBRANCH   1   4
TORSDOF 3
ENDMDL
MODEL 6
REMARK VINA RESULT:      -7.3      2.685      4.955
REMARK  3 active torsions:
REMARK  status: ('A' for Active; 'I' for Inactive)
REMARK       I    between atoms: N6_5  and  C7_6 
REMARK    1  A    between atoms: C7_6  and  C9_8 
REMARK    2  A    between atoms: C13_12  and  N15_13 
REMARK    3  A    between atoms: N15_13  and  C17_15 
ROOT
ATOM      1  C9  <0> d   1      17.361  -3.938  10.959  0.00  0.00     0.226 C 
ATOM      2  C10 <0> d   1      17.375  -5.115  11.843  0.00  0.00     0.068 C 
ATOM      3  N11 <0> d   1      17.387  -6.023  12.526  0.00  0.00    -0.197 NA
ENDROOT
BRANCH   1   4
ATOM      4  C7  <0> d   1      18.383  -2.938  11.436  0.00  0.00     0.232 C 
ATOM      5  N6  <0> d   1      19.080  -2.209  10.542  0.00  0.00    -0.349 N 
ATOM      6  C5  <0> d   1      18.854  -2.376   9.100  0.00  0.00     0.126 C 
ATOM      7  C12 <0> d   1      20.080  -1.231  10.991  0.00  0.00     0.151 C 
ATOM      8  C4  <0> d   1      18.550  -1.007   8.486  0.00  0.00     0.026 C 
ATOM      9  C2  <0> d   1      19.677  -0.033   8.837  0.00  0.00     0.007 C 
ATOM     10  C1  <0> d   1      19.395   1.327   8.196  0.00  0.00     0.012 C 
ATOM     11  C13 <0> d   1      19.761   0.127  10.357  0.00  0.00     0.107 C 
ATOM     12  O8  <0> d   1      18.578  -2.791  12.624  0.00  0.00    -0.272 OA
BRANCH  11  13
ATOM     13  N15 <0> d   1      18.480   0.619  10.869  0.00  0.00    -0.364 N 
ATOM     14  C16 <0> d   1      17.294   0.604  10.011  0.00  0.00     0.152 C 
BRANCH  13  15
ATOM     15  C17 <0> d   1      18.391   1.097  12.165  0.00  0.00     0.118 A 
ATOM     16  N25 <0> d   1      17.857   0.354  13.130  0.00  0.00    -0.336 N 
ATOM     17  C24 <0> d   1      17.775   0.805  14.369  0.00  0.00     0.211 A 
ATOM     18  H26 <0> d   1      17.530  -0.535  12.922  0.00  0.00     0.168 HD
ATOM     19  N23 <0> d   1      18.199   2.000  14.720  0.00  0.00    -0.225 NA
ATOM     20  C22 <0> d   1      18.744   2.819  13.823  0.00  0.00     0.142 A 
ATOM     21  C18 <0> d   1      18.857   2.379  12.491  0.00  0.00     0.055 A 
ATOM     22  N21 <0> d   1      19.263   4.084  13.875  0.00  0.00    -0.350 N 
ATOM     23  C19 <0> d   1      19.482   3.473  11.752  0.00  0.00     0.036 A 
ATOM     24  C20 <0> d   1      19.701   4.463  12.633  0.00  0.00     0.091 A 
ATOM     25  H43 <0> d   1      19.315   4.631  14.674  0.00  0.00     0.166 HD
ENDBRANCH  13  15
ENDBRANCH  11  13
ENDBRANCH   1   4
TORSDOF 3
ENDMDL
MODEL 7
REMARK VINA RESULT:      -7.3      2.360      6.828
REMARK  3 active torsions:
REMARK  status: ('A' for Active; 'I' for Inactive)
REMARK       I    between atoms: N6_5  and  C7_6 
REMARK    1  A    between atoms: C7_6  and  C9_8 
REMARK    2  A    between atoms: C13_12  and  N15_13 
REMARK    3  A    between atoms: N15_13  and  C17_15 
ROOT
ATOM      1  C9  <0> d   1      19.516  -1.214  13.738  0.00  0.00     0.226 C 
ATOM      2  C10 <0> d   1      18.721  -1.272  14.975  0.00  0.00     0.068 C 
ATOM      3  N11 <0> d   1      18.107  -1.318  15.930  0.00  0.00    -0.197 NA
ENDROOT
BRANCH   1   4
ATOM      4  C7  <0> d   1      18.612  -1.417  12.549  0.00  0.00     0.232 C 
ATOM      5  N6  <0> d   1      18.196  -0.356  11.830  0.00  0.00    -0.349 N 
ATOM      6  C5  <0> d   1      18.615   1.005  12.191  0.00  0.00     0.126 C 
ATOM      7  C12 <0> d   1      17.314  -0.537  10.669  0.00  0.00     0.151 C 
ATOM      8  C4  <0> d   1      19.236   1.673  10.961  0.00  0.00     0.026 C 
ATOM      9  C2  <0> d   1      18.245   1.610   9.797  0.00  0.00     0.007 C 
ATOM     10  C1  <0> d   1      18.847   2.308   8.576  0.00  0.00     0.012 C 
ATOM     11  C13 <0> d   1      17.950   0.148   9.455  0.00  0.00     0.107 C 
ATOM     12  O8  <0> d   1      18.259  -2.535  12.240  0.00  0.00    -0.272 OA
BRANCH  11  13
ATOM     13  N15 <0> d   1      19.198  -0.535   9.105  0.00  0.00    -0.364 N 
ATOM     14  C16 <0> d   1      20.450  -0.158   9.765  0.00  0.00     0.152 C 
BRANCH  13  15
ATOM     15  C17 <0> d   1      19.194  -1.537   8.150  0.00  0.00     0.118 A 
ATOM     16  N25 <0> d   1      19.224  -2.817   8.507  0.00  0.00    -0.336 N 
ATOM     17  C24 <0> d   1      19.216  -3.777   7.599  0.00  0.00     0.211 A 
ATOM     18  H26 <0> d   1      19.245  -3.051   9.448  0.00  0.00     0.168 HD
ATOM     19  N23 <0> d   1      19.187  -3.532   6.307  0.00  0.00    -0.225 NA
ATOM     20  C22 <0> d   1      19.161  -2.282   5.852  0.00  0.00     0.142 A 
ATOM     21  C18 <0> d   1      19.164  -1.226   6.783  0.00  0.00     0.055 A 
ATOM     22  N21 <0> d   1      19.130  -1.718   4.605  0.00  0.00    -0.350 N 
ATOM     23  C19 <0> d   1      19.131   0.008   6.001  0.00  0.00     0.036 A 
ATOM     24  C20 <0> d   1      19.112  -0.351   4.707  0.00  0.00     0.091 A 
ATOM     25  H43 <0> d   1      19.120  -2.214   3.771  0.00  0.00     0.166 HD
ENDBRANCH  13  15
ENDBRANCH  11  13
ENDBRANCH   1   4
TORSDOF 3
ENDMDL
MODEL 8
REMARK VINA RESULT:      -7.2      2.844      6.067
REMARK  3 active torsions:
REMARK  status: ('A' for Active; 'I' for Inactive)
REMARK       I    between atoms: N6_5  and  C7_6 
REMARK    1  A    between atoms: C7_6  and  C9_8 
REMARK    2  A    between atoms: C13_12  and  N15_13 
REMARK    3  A    between atoms: N15_13  and  C17_15 
ROOT
ATOM      1  C9  <0> d   1      17.554   3.264  11.436  0.00  0.00     0.226 C 
ATOM      2  C10 <0> d   1      17.448   4.427  10.541  0.00  0.00     0.068 C 
ATOM      3  N11 <0> d   1      17.367   5.325   9.849  0.00  0.00    -0.197 NA
ENDROOT
BRANCH   1   4
ATOM      4  C7  <0> d   1      18.675   2.371  10.968  0.00  0.00     0.232 C 
ATOM      5  N6  <0> d   1      18.931   1.216  11.616  0.00  0.00    -0.349 N 
ATOM      6  C5  <0> d   1      18.126   0.815  12.778  0.00  0.00     0.126 C 
ATOM      7  C12 <0> d   1      20.020   0.335  11.173  0.00  0.00     0.151 C 
ATOM      8  C4  <0> d   1      17.584  -0.597  12.538  0.00  0.00     0.026 C 
ATOM      9  C2  <0> d   1      18.748  -1.540  12.224  0.00  0.00     0.007 C 
ATOM     10  C1  <0> d   1      18.214  -2.959  12.018  0.00  0.00     0.012 C 
ATOM     11  C13 <0> d   1      19.456  -1.072  10.950  0.00  0.00     0.107 C 
ATOM     12  O8  <0> d   1      19.346   2.690  10.010  0.00  0.00    -0.272 OA
BRANCH  11  13
ATOM     13  N15 <0> d   1      18.501  -1.047   9.840  0.00  0.00    -0.364 N 
ATOM     14  C16 <0> d   1      17.157  -0.500  10.041  0.00  0.00     0.152 C 
BRANCH  13  15
ATOM     15  C17 <0> d   1      18.869  -1.540   8.600  0.00  0.00     0.118 A 
ATOM     16  N25 <0> d   1      19.158  -2.827   8.436  0.00  0.00    -0.336 N 
ATOM     17  C24 <0> d   1      19.506  -3.302   7.254  0.00  0.00     0.211 A 
ATOM     18  H26 <0> d   1      19.107  -3.428   9.196  0.00  0.00     0.168 HD
ATOM     19  N23 <0> d   1      19.595  -2.544   6.182  0.00  0.00    -0.225 NA
ATOM     20  C22 <0> d   1      19.330  -1.241   6.247  0.00  0.00     0.142 A 
ATOM     21  C18 <0> d   1      18.951  -0.691   7.486  0.00  0.00     0.055 A 
ATOM     22  N21 <0> d   1      19.333  -0.219   5.337  0.00  0.00    -0.350 N 
ATOM     23  C19 <0> d   1      18.728   0.733   7.249  0.00  0.00     0.036 A 
ATOM     24  C20 <0> d   1      18.972   0.954   5.947  0.00  0.00     0.091 A 
ATOM     25  H43 <0> d   1      19.557  -0.311   4.398  0.00  0.00     0.166 HD
ENDBRANCH  13  15
ENDBRANCH  11  13
ENDBRANCH   1   4
TORSDOF 3
ENDMDL
MODEL 9
REMARK VINA RESULT:      -7.2      2.942      4.362
REMARK  3 active torsions:
REMARK  status: ('A' for Active; 'I' for Inactive)
REMARK       I    between atoms: N6_5  and  C7_6 
REMARK    1  A    between atoms: C7_6  and  C9_8 
REMARK    2  A    between atoms: C13_12  and  N15_13 
REMARK    3  A    between atoms: N15_13  and  C17_15 
ROOT
ATOM      1  C9  <0> d   1      18.910  -3.381   9.467  0.00  0.00     0.226 C 
ATOM      2  C10 <0> d   1      18.060  -4.301   8.696  0.00  0.00     0.068 C 
ATOM      3  N11 <0> d   1      17.403  -5.012   8.100  0.00  0.00    -0.197 NA
ENDROOT
BRANCH   1   4
ATOM      4  C7  <0> d   1      18.112  -2.163   9.853  0.00  0.00     0.232 C 
ATOM      5  N6  <0> d   1      17.844  -1.915  11.150  0.00  0.00    -0.349 N 
ATOM      6  C5  <0> d   1      18.324  -2.823  12.201  0.00  0.00     0.126 C 
ATOM      7  C12 <0> d   1      17.066  -0.732  11.542  0.00  0.00     0.151 C 
ATOM      8  C4  <0> d   1      19.106  -2.011  13.236  0.00  0.00     0.026 C 
ATOM      9  C2  <0> d   1      18.229  -0.866  13.749  0.00  0.00     0.007 C 
ATOM     10  C1  <0> d   1      18.994  -0.072  14.810  0.00  0.00     0.012 C 
ATOM     11  C13 <0> d   1      17.863   0.059  12.586  0.00  0.00     0.107 C 
ATOM     12  O8  <0> d   1      17.710  -1.405   8.995  0.00  0.00    -0.272 OA
BRANCH  11  13
ATOM     13  N15 <0> d   1      19.086   0.583  11.973  0.00  0.00    -0.364 N 
ATOM     14  C16 <0> d   1      20.390   0.282  12.567  0.00  0.00     0.152 C 
BRANCH  13  15
ATOM     15  C17 <0> d   1      19.009   1.363  10.833  0.00  0.00     0.118 A 
ATOM     16  N25 <0> d   1      19.514   0.936   9.679  0.00  0.00    -0.336 N 
ATOM     17  C24 <0> d   1      19.438   1.675   8.587  0.00  0.00     0.211 A 
ATOM     18  H26 <0> d   1      19.938   0.065   9.638  0.00  0.00     0.168 HD
ATOM     19  N23 <0> d   1      18.877   2.865   8.572  0.00  0.00    -0.225 NA
ATOM     20  C22 <0> d   1      18.347   3.381   9.679  0.00  0.00     0.142 A 
ATOM     21  C18 <0> d   1      18.400   2.627  10.867  0.00  0.00     0.055 A 
ATOM     22  N21 <0> d   1      17.713   4.557   9.977  0.00  0.00    -0.350 N 
ATOM     23  C19 <0> d   1      17.751   3.437  11.894  0.00  0.00     0.036 A 
ATOM     24  C20 <0> d   1      17.361   4.578  11.302  0.00  0.00     0.091 A 
ATOM     25  H43 <0> d   1      17.536   5.269   9.344  0.00  0.00     0.166 HD
ENDBRANCH  13  15
ENDBRANCH  11  13
ENDBRANCH   1   4
TORSDOF 3
ENDMDL
