MODEL 1
REMARK VINA RESULT:      -7.5      0.000      0.000
REMARK  2 active torsions:
REMARK  status: ('A' for Active; 'I' for Inactive)
REMARK    1  A    between atoms: N1_1  and  C2_2 
REMARK    2  A    between atoms: N9_9  and  C10_10 
ROOT
ATOM      1  C2  ZIN A   1      19.326  -1.416   7.084  0.00  0.00     0.034 A 
ATOM      2  C3  ZIN A   1      19.274  -0.801   5.837  0.00  0.00     0.029 A 
ATOM      3  C4  ZIN A   1      19.016   0.553   5.742  0.00  0.00     0.003 A 
ATOM      4  C5  ZIN A   1      18.808   1.307   6.880  0.00  0.00     0.018 A 
ATOM      5  C6  ZIN A   1      18.857   0.700   8.137  0.00  0.00     0.042 A 
ATOM      6  C7  ZIN A   1      19.113  -0.669   8.228  0.00  0.00     0.002 A 
ATOM      7  C8  ZIN A   1      19.100  -1.010   9.696  0.00  0.00     0.169 A 
ATOM      8  N9  ZIN A   1      18.826   0.245  10.407  0.00  0.00    -0.330 N 
ATOM      9  C19 ZIN A   1      18.681   1.230   9.503  0.00  0.00     0.255 A 
ATOM     10  O20 ZIN A   1      18.446   2.391   9.773  0.00  0.00    -0.267 OA
ENDROOT
BRANCH   8  11
ATOM     11  C10 ZIN A   1      18.722   0.398  11.860  0.00  0.00     0.180 C 
ATOM     12  C17 ZIN A   1      20.077   0.189  12.486  0.00  0.00     0.247 C 
ATOM     13  N16 ZIN A   1      20.202  -0.329  13.717  0.00  0.00    -0.296 N 
ATOM     14  O18 ZIN A   1      21.072   0.493  11.864  0.00  0.00    -0.271 OA
ATOM     15  C14 ZIN A   1      19.145  -0.697  14.457  0.00  0.00     0.224 C 
ATOM     16  H32 ZIN A   1      21.092  -0.441  14.086  0.00  0.00     0.171 HD
ATOM     17  C13 ZIN A   1      17.738  -0.538  13.945  0.00  0.00     0.106 C 
ATOM     18  O15 ZIN A   1      19.328  -1.167  15.559  0.00  0.00    -0.273 OA
ATOM     19  C12 ZIN A   1      17.745  -0.643  12.416  0.00  0.00     0.044 C 
ENDBRANCH   8  11
BRANCH   1  20
ATOM     20  N1  ZIN A   1      19.586  -2.786   7.179  0.00  0.00    -0.399 N 
ATOM     21  H21 ZIN A   1      20.498  -3.098   7.291  0.00  0.00     0.156 HD
ATOM     22  H22 ZIN A   1      18.856  -3.422   7.139  0.00  0.00     0.156 HD
ENDBRANCH   1  20
TORSDOF 2
ENDMDL
MODEL 2
REMARK VINA RESULT:      -7.5      2.077      6.757
REMARK  2 active torsions:
REMARK  status: ('A' for Active; 'I' for Inactive)
REMARK    1  A    between atoms: N1_1  and  C2_2 
REMARK    2  A    between atoms: N9_9  and  C10_10 
ROOT
ATOM      1  C2  ZIN A   1      18.243   1.155  15.737  0.00  0.00     0.034 A 
ATOM      2  C3  ZIN A   1      18.258   0.487  16.957  0.00  0.00     0.029 A 
ATOM      3  C4  ZIN A   1      18.363  -0.891  16.992  0.00  0.00     0.003 A 
ATOM      4  C5  ZIN A   1      18.453  -1.615  15.821  0.00  0.00     0.018 A 
ATOM      5  C6  ZIN A   1      18.438  -0.956  14.590  0.00  0.00     0.042 A 
ATOM      6  C7  ZIN A   1      18.327   0.436  14.558  0.00  0.00     0.002 A 
ATOM      7  C8  ZIN A   1      18.341   0.833  13.105  0.00  0.00     0.169 A 
ATOM      8  N9  ZIN A   1      18.466  -0.413  12.339  0.00  0.00    -0.330 N 
ATOM      9  C19 ZIN A   1      18.518  -1.444  13.199  0.00  0.00     0.255 A 
ATOM     10  O20 ZIN A   1      18.622  -2.612  12.879  0.00  0.00    -0.267 OA
ENDROOT
BRANCH   8  11
ATOM     11  C10 ZIN A   1      18.522  -0.516  10.879  0.00  0.00     0.180 C 
ATOM     12  C17 ZIN A   1      19.890  -0.105  10.398  0.00  0.00     0.247 C 
ATOM     13  N16 ZIN A   1      20.060   0.478   9.201  0.00  0.00    -0.296 N 
ATOM     14  O18 ZIN A   1      20.854  -0.302  11.106  0.00  0.00    -0.271 OA
ATOM     15  C14 ZIN A   1      19.039   0.736   8.371  0.00  0.00     0.224 C 
ATOM     16  H32 ZIN A   1      20.958   0.720   8.926  0.00  0.00     0.171 HD
ATOM     17  C13 ZIN A   1      17.624   0.372   8.735  0.00  0.00     0.106 C 
ATOM     18  O15 ZIN A   1      19.260   1.272   7.307  0.00  0.00    -0.273 OA
ATOM     19  C12 ZIN A   1      17.471   0.411  10.259  0.00  0.00     0.044 C 
ENDBRANCH   8  11
BRANCH   1  20
ATOM     20  N1  ZIN A   1      18.138   2.548  15.702  0.00  0.00    -0.399 N 
ATOM     21  H21 ZIN A   1      17.440   2.968  15.174  0.00  0.00     0.156 HD
ATOM     22  H22 ZIN A   1      18.758   3.093  16.209  0.00  0.00     0.156 HD
ENDBRANCH   1  20
TORSDOF 2
ENDMDL
MODEL 3
REMARK VINA RESULT:      -7.3      2.966      3.853
REMARK  2 active torsions:
REMARK  status: ('A' for Active; 'I' for Inactive)
REMARK    1  A    between atoms: N1_1  and  C2_2 
REMARK    2  A    between atoms: N9_9  and  C10_10 
ROOT
ATOM      1  C2  ZIN A   1      19.631  -2.714  11.078  0.00  0.00     0.034 A 
ATOM      2  C3  ZIN A   1      19.209  -2.780   9.754  0.00  0.00     0.029 A 
ATOM      3  C4  ZIN A   1      18.157  -1.995   9.322  0.00  0.00     0.003 A 
ATOM      4  C5  ZIN A   1      17.517  -1.140  10.196  0.00  0.00     0.018 A 
ATOM      5  C6  ZIN A   1      17.932  -1.064  11.527  0.00  0.00     0.042 A 
ATOM      6  C7  ZIN A   1      18.991  -1.863  11.962  0.00  0.00     0.002 A 
ATOM      7  C8  ZIN A   1      19.189  -1.552  13.423  0.00  0.00     0.169 A 
ATOM      8  N9  ZIN A   1      18.185  -0.540  13.768  0.00  0.00    -0.330 N 
ATOM      9  C19 ZIN A   1      17.457  -0.264  12.672  0.00  0.00     0.255 A 
ATOM     10  O20 ZIN A   1      16.543   0.536  12.628  0.00  0.00    -0.267 OA
ENDROOT
BRANCH   8  11
ATOM     11  C10 ZIN A   1      18.002   0.066  15.089  0.00  0.00     0.180 C 
ATOM     12  C17 ZIN A   1      18.909   1.262  15.223  0.00  0.00     0.247 C 
ATOM     13  N16 ZIN A   1      19.415   1.621  16.413  0.00  0.00    -0.296 N 
ATOM     14  O18 ZIN A   1      19.189   1.910  14.238  0.00  0.00    -0.271 OA
ATOM     15  C14 ZIN A   1      19.157   0.945  17.542  0.00  0.00     0.224 C 
ATOM     16  H32 ZIN A   1      19.990   2.401  16.457  0.00  0.00     0.171 HD
ATOM     17  C13 ZIN A   1      18.264  -0.268  17.541  0.00  0.00     0.106 C 
ATOM     18  O15 ZIN A   1      19.653   1.317  18.583  0.00  0.00    -0.273 OA
ATOM     19  C12 ZIN A   1      18.353  -0.956  16.175  0.00  0.00     0.044 C 
ENDBRANCH   8  11
BRANCH   1  20
ATOM     20  N1  ZIN A   1      20.694  -3.507  11.515  0.00  0.00    -0.399 N 
ATOM     21  H21 ZIN A   1      20.638  -3.965  12.369  0.00  0.00     0.156 HD
ATOM     22  H22 ZIN A   1      21.485  -3.605  10.963  0.00  0.00     0.156 HD
ENDBRANCH   1  20
TORSDOF 2
ENDMDL
MODEL 4
REMARK VINA RESULT:      -7.2      2.522      3.343
REMARK  2 active torsions:
REMARK  status: ('A' for Active; 'I' for Inactive)
REMARK    1  A    between atoms: N1_1  and  C2_2 
REMARK    2  A    between atoms: N9_9  and  C10_10 
ROOT
ATOM      1  C2  ZIN A   1      19.854   0.559   9.941  0.00  0.00     0.034 A 
ATOM      2  C3  ZIN A   1      19.726   1.309   8.776  0.00  0.00     0.029 A 
ATOM      3  C4  ZIN A   1      18.934   2.441   8.764  0.00  0.00     0.003 A 
ATOM      4  C5  ZIN A   1      18.266   2.840   9.903  0.00  0.00     0.018 A 
ATOM      5  C6  ZIN A   1      18.386   2.096  11.079  0.00  0.00     0.042 A 
ATOM      6  C7  ZIN A   1      19.182   0.949  11.086  0.00  0.00     0.002 A 
ATOM      7  C8  ZIN A   1      19.104   0.383  12.481  0.00  0.00     0.169 A 
ATOM      8  N9  ZIN A   1      18.224   1.280  13.239  0.00  0.00    -0.330 N 
ATOM      9  C19 ZIN A   1      17.808   2.265  12.426  0.00  0.00     0.255 A 
ATOM     10  O20 ZIN A   1      17.066   3.171  12.754  0.00  0.00    -0.267 OA
ENDROOT
BRANCH   8  11
ATOM     11  C10 ZIN A   1      17.858   1.125  14.649  0.00  0.00     0.180 C 
ATOM     12  C17 ZIN A   1      18.875   1.824  15.513  0.00  0.00     0.247 C 
ATOM     13  N16 ZIN A   1      19.168   1.376  16.744  0.00  0.00    -0.296 N 
ATOM     14  O18 ZIN A   1      19.441   2.808  15.088  0.00  0.00    -0.271 OA
ATOM     15  C14 ZIN A   1      18.589   0.289  17.274  0.00  0.00     0.224 C 
ATOM     16  H32 ZIN A   1      19.823   1.860  17.270  0.00  0.00     0.171 HD
ATOM     17  C13 ZIN A   1      17.555  -0.497  16.512  0.00  0.00     0.106 C 
ATOM     18  O15 ZIN A   1      18.904  -0.068  18.389  0.00  0.00    -0.273 OA
ATOM     19  C12 ZIN A   1      17.829  -0.364  15.010  0.00  0.00     0.044 C 
ENDBRANCH   8  11
BRANCH   1  20
ATOM     20  N1  ZIN A   1      20.654  -0.586   9.954  0.00  0.00    -0.399 N 
ATOM     21  H21 ZIN A   1      20.754  -1.098  10.772  0.00  0.00     0.156 HD
ATOM     22  H22 ZIN A   1      21.105  -0.870   9.145  0.00  0.00     0.156 HD
ENDBRANCH   1  20
TORSDOF 2
ENDMDL
MODEL 5
REMARK VINA RESULT:      -7.0      2.549      6.260
REMARK  2 active torsions:
REMARK  status: ('A' for Active; 'I' for Inactive)
REMARK    1  A    between atoms: N1_1  and  C2_2 
REMARK    2  A    between atoms: N9_9  and  C10_10 
ROOT
ATOM      1  C2  ZIN A   1      19.655   2.493  12.189  0.00  0.00     0.034 A 
ATOM      2  C3  ZIN A   1      19.184   2.535  13.498  0.00  0.00     0.029 A 
ATOM      3  C4  ZIN A   1      18.074   1.795  13.859  0.00  0.00     0.003 A 
ATOM      4  C5  ZIN A   1      17.425   1.008  12.929  0.00  0.00     0.018 A 
ATOM      5  C6  ZIN A   1      17.889   0.957  11.613  0.00  0.00     0.042 A 
ATOM      6  C7  ZIN A   1      19.007   1.711  11.250  0.00  0.00     0.002 A 
ATOM      7  C8  ZIN A   1      19.248   1.442   9.787  0.00  0.00     0.169 A 
ATOM      8  N9  ZIN A   1      18.204   0.500   9.365  0.00  0.00    -0.330 N 
ATOM      9  C19 ZIN A   1      17.418   0.226  10.421  0.00  0.00     0.255 A 
ATOM     10  O20 ZIN A   1      16.461  -0.523  10.399  0.00  0.00    -0.267 OA
ENDROOT
BRANCH   8  11
ATOM     11  C10 ZIN A   1      18.043  -0.048   8.016  0.00  0.00     0.180 C 
ATOM     12  C17 ZIN A   1      18.883  -1.291   7.874  0.00  0.00     0.247 C 
ATOM     13  N16 ZIN A   1      19.417  -1.638   6.693  0.00  0.00    -0.296 N 
ATOM     14  O18 ZIN A   1      19.082  -1.988   8.845  0.00  0.00    -0.271 OA
ATOM     15  C14 ZIN A   1      19.248  -0.908   5.581  0.00  0.00     0.224 C 
ATOM     16  H32 ZIN A   1      19.946  -2.449   6.643  0.00  0.00     0.171 HD
ATOM     17  C13 ZIN A   1      18.429   0.355   5.591  0.00  0.00     0.106 C 
ATOM     18  O15 ZIN A   1      19.765  -1.273   4.547  0.00  0.00    -0.273 OA
ATOM     19  C12 ZIN A   1      18.500   0.989   6.984  0.00  0.00     0.044 C 
ENDBRANCH   8  11
BRANCH   1  20
ATOM     20  N1  ZIN A   1      20.777   3.241  11.824  0.00  0.00    -0.399 N 
ATOM     21  H21 ZIN A   1      20.939   4.104  12.236  0.00  0.00     0.156 HD
ATOM     22  H22 ZIN A   1      21.396   2.895  11.163  0.00  0.00     0.156 HD
ENDBRANCH   1  20
TORSDOF 2
ENDMDL
MODEL 6
REMARK VINA RESULT:      -7.0      3.016      5.107
REMARK  2 active torsions:
REMARK  status: ('A' for Active; 'I' for Inactive)
REMARK    1  A    between atoms: N1_1  and  C2_2 
REMARK    2  A    between atoms: N9_9  and  C10_10 
ROOT
ATOM      1  C2  ZIN A   1      17.334  -4.685   9.096  0.00  0.00     0.034 A 
ATOM      2  C3  ZIN A   1      17.153  -5.938   9.673  0.00  0.00     0.029 A 
ATOM      3  C4  ZIN A   1      17.310  -6.102  11.037  0.00  0.00     0.003 A 
ATOM      4  C5  ZIN A   1      17.645  -5.028  11.836  0.00  0.00     0.018 A 
ATOM      5  C6  ZIN A   1      17.828  -3.766  11.268  0.00  0.00     0.042 A 
ATOM      6  C7  ZIN A   1      17.675  -3.605   9.889  0.00  0.00     0.002 A 
ATOM      7  C8  ZIN A   1      17.936  -2.150   9.597  0.00  0.00     0.169 A 
ATOM      8  N9  ZIN A   1      18.240  -1.519  10.887  0.00  0.00    -0.330 N 
ATOM      9  C19 ZIN A   1      18.181  -2.456  11.849  0.00  0.00     0.255 A 
ATOM     10  O20 ZIN A   1      18.383  -2.252  13.030  0.00  0.00    -0.267 OA
ENDROOT
BRANCH   8  11
ATOM     11  C10 ZIN A   1      18.558  -0.104  11.091  0.00  0.00     0.180 C 
ATOM     12  C17 ZIN A   1      17.281   0.693  11.169  0.00  0.00     0.247 C 
ATOM     13  N16 ZIN A   1      17.229   1.965  10.745  0.00  0.00    -0.296 N 
ATOM     14  O18 ZIN A   1      16.283   0.174  11.619  0.00  0.00    -0.271 OA
ATOM     15  C14 ZIN A   1      18.291   2.598  10.226  0.00  0.00     0.224 C 
ATOM     16  H32 ZIN A   1      16.389   2.444  10.818  0.00  0.00     0.171 HD
ATOM     17  C13 ZIN A   1      19.625   1.912  10.097  0.00  0.00     0.106 C 
ATOM     18  O15 ZIN A   1      18.174   3.746   9.854  0.00  0.00    -0.273 OA
ATOM     19  C12 ZIN A   1      19.400   0.407   9.918  0.00  0.00     0.044 C 
ENDBRANCH   8  11
BRANCH   1  20
ATOM     20  N1  ZIN A   1      17.175  -4.520   7.718  0.00  0.00    -0.399 N 
ATOM     21  H21 ZIN A   1      17.087  -5.297   7.143  0.00  0.00     0.156 HD
ATOM     22  H22 ZIN A   1      17.149  -3.629   7.337  0.00  0.00     0.156 HD
ENDBRANCH   1  20
TORSDOF 2
ENDMDL
MODEL 7
REMARK VINA RESULT:      -6.7      3.710      6.096
REMARK  2 active torsions:
REMARK  status: ('A' for Active; 'I' for Inactive)
REMARK    1  A    between atoms: N1_1  and  C2_2 
REMARK    2  A    between atoms: N9_9  and  C10_10 
ROOT
ATOM      1  C2  ZIN A   1      17.616   4.405  14.810  0.00  0.00     0.034 A 
ATOM      2  C3  ZIN A   1      17.184   5.714  14.619  0.00  0.00     0.029 A 
ATOM      3  C4  ZIN A   1      16.861   6.159  13.351  0.00  0.00     0.003 A 
ATOM      4  C5  ZIN A   1      16.964   5.314  12.266  0.00  0.00     0.018 A 
ATOM      5  C6  ZIN A   1      17.396   3.998  12.445  0.00  0.00     0.042 A 
ATOM      6  C7  ZIN A   1      17.727   3.553  13.726  0.00  0.00     0.002 A 
ATOM      7  C8  ZIN A   1      18.150   2.114  13.583  0.00  0.00     0.169 A 
ATOM      8  N9  ZIN A   1      18.033   1.791  12.156  0.00  0.00    -0.330 N 
ATOM      9  C19 ZIN A   1      17.602   2.882  11.501  0.00  0.00     0.255 A 
ATOM     10  O20 ZIN A   1      17.403   2.941  10.303  0.00  0.00    -0.267 OA
ENDROOT
BRANCH   8  11
ATOM     11  C10 ZIN A   1      18.339   0.494  11.547  0.00  0.00     0.180 C 
ATOM     12  C17 ZIN A   1      17.154  -0.425  11.697  0.00  0.00     0.247 C 
ATOM     13  N16 ZIN A   1      17.314  -1.752  11.815  0.00  0.00    -0.296 N 
ATOM     14  O18 ZIN A   1      16.036   0.044  11.714  0.00  0.00    -0.271 OA
ATOM     15  C14 ZIN A   1      18.520  -2.337  11.815  0.00  0.00     0.224 C 
ATOM     16  H32 ZIN A   1      16.525  -2.308  11.903  0.00  0.00     0.171 HD
ATOM     17  C13 ZIN A   1      19.782  -1.529  11.670  0.00  0.00     0.106 C 
ATOM     18  O15 ZIN A   1      18.596  -3.541  11.934  0.00  0.00    -0.273 OA
ATOM     19  C12 ZIN A   1      19.551  -0.128  12.247  0.00  0.00     0.044 C 
ENDBRANCH   8  11
BRANCH   1  20
ATOM     20  N1  ZIN A   1      17.943   3.955  16.092  0.00  0.00    -0.399 N 
ATOM     21  H21 ZIN A   1      17.270   3.519  16.638  0.00  0.00     0.156 HD
ATOM     22  H22 ZIN A   1      18.843   4.073  16.432  0.00  0.00     0.156 HD
ENDBRANCH   1  20
TORSDOF 2
ENDMDL
MODEL 8
REMARK VINA RESULT:      -6.6      3.170      5.151
REMARK  2 active torsions:
REMARK  status: ('A' for Active; 'I' for Inactive)
REMARK    1  A    between atoms: N1_1  and  C2_2 
REMARK    2  A    between atoms: N9_9  and  C10_10 
ROOT
ATOM      1  C2  ZIN A   1      17.313   4.324  13.196  0.00  0.00     0.034 A 
ATOM      2  C3  ZIN A   1      17.025   5.376  12.333  0.00  0.00     0.029 A 
ATOM      3  C4  ZIN A   1      17.077   5.185  10.965  0.00  0.00     0.003 A 
ATOM      4  C5  ZIN A   1      17.414   3.952  10.444  0.00  0.00     0.018 A 
ATOM      5  C6  ZIN A   1      17.705   2.888  11.301  0.00  0.00     0.042 A 
ATOM      6  C7  ZIN A   1      17.657   3.087  12.682  0.00  0.00     0.002 A 
ATOM      7  C8  ZIN A   1      18.016   1.768  13.316  0.00  0.00     0.169 A 
ATOM      8  N9  ZIN A   1      18.263   0.834  12.211  0.00  0.00    -0.330 N 
ATOM      9  C19 ZIN A   1      18.087   1.485  11.049  0.00  0.00     0.255 A 
ATOM     10  O20 ZIN A   1      18.217   0.988   9.947  0.00  0.00    -0.267 OA
ENDROOT
BRANCH   8  11
ATOM     11  C10 ZIN A   1      18.642  -0.574  12.352  0.00  0.00     0.180 C 
ATOM     12  C17 ZIN A   1      20.011  -0.788  11.759  0.00  0.00     0.247 C 
ATOM     13  N16 ZIN A   1      20.350  -1.959  11.197  0.00  0.00    -0.296 N 
ATOM     14  O18 ZIN A   1      20.819   0.115  11.788  0.00  0.00    -0.271 OA
ATOM     15  C14 ZIN A   1      19.503  -2.996  11.120  0.00  0.00     0.224 C 
ATOM     16  H32 ZIN A   1      21.243  -2.057  10.832  0.00  0.00     0.171 HD
ATOM     17  C13 ZIN A   1      18.107  -2.909  11.678  0.00  0.00     0.106 C 
ATOM     18  O15 ZIN A   1      19.869  -4.023  10.592  0.00  0.00    -0.273 OA
ATOM     19  C12 ZIN A   1      17.630  -1.454  11.612  0.00  0.00     0.044 C 
ENDBRANCH   8  11
BRANCH   1  20
ATOM     20  N1  ZIN A   1      17.260   4.517  14.579  0.00  0.00    -0.399 N 
ATOM     21  H21 ZIN A   1      16.684   3.959  15.125  0.00  0.00     0.156 HD
ATOM     22  H22 ZIN A   1      17.803   5.205  14.993  0.00  0.00     0.156 HD
ENDBRANCH   1  20
TORSDOF 2
ENDMDL
MODEL 9
REMARK VINA RESULT:      -6.5      2.323      6.174
REMARK  2 active torsions:
REMARK  status: ('A' for Active; 'I' for Inactive)
REMARK    1  A    between atoms: N1_1  and  C2_2 
REMARK    2  A    between atoms: N9_9  and  C10_10 
ROOT
ATOM      1  C2  ZIN A   1      19.446  -2.000  12.723  0.00  0.00     0.034 A 
ATOM      2  C3  ZIN A   1      19.067  -1.649  14.015  0.00  0.00     0.029 A 
ATOM      3  C4  ZIN A   1      18.147  -0.637  14.216  0.00  0.00     0.003 A 
ATOM      4  C5  ZIN A   1      17.597   0.032  13.142  0.00  0.00     0.018 A 
ATOM      5  C6  ZIN A   1      17.970  -0.312  11.841  0.00  0.00     0.042 A 
ATOM      6  C7  ZIN A   1      18.903  -1.330  11.641  0.00  0.00     0.002 A 
ATOM      7  C8  ZIN A   1      19.087  -1.456  10.151  0.00  0.00     0.169 A 
ATOM      8  N9  ZIN A   1      18.204  -0.453   9.542  0.00  0.00    -0.330 N 
ATOM      9  C19 ZIN A   1      17.564   0.209  10.521  0.00  0.00     0.255 A 
ATOM     10  O20 ZIN A   1      16.760   1.103  10.344  0.00  0.00    -0.267 OA
ENDROOT
BRANCH   8  11
ATOM     11  C10 ZIN A   1      18.050  -0.212   8.105  0.00  0.00     0.180 C 
ATOM     12  C17 ZIN A   1      18.284  -1.495   7.351  0.00  0.00     0.247 C 
ATOM     13  N16 ZIN A   1      18.805  -1.490   6.114  0.00  0.00    -0.296 N 
ATOM     14  O18 ZIN A   1      17.999  -2.552   7.872  0.00  0.00    -0.271 OA
ATOM     15  C14 ZIN A   1      19.153  -0.360   5.482  0.00  0.00     0.224 C 
ATOM     16  H32 ZIN A   1      18.933  -2.337   5.661  0.00  0.00     0.171 HD
ATOM     17  C13 ZIN A   1      18.968   0.988   6.128  0.00  0.00     0.106 C 
ATOM     18  O15 ZIN A   1      19.627  -0.425   4.368  0.00  0.00    -0.273 OA
ATOM     19  C12 ZIN A   1      19.072   0.834   7.649  0.00  0.00     0.044 C 
ENDBRANCH   8  11
BRANCH   1  20
ATOM     20  N1  ZIN A   1      20.376  -3.023  12.519  0.00  0.00    -0.399 N 
ATOM     21  H21 ZIN A   1      20.829  -3.102  11.664  0.00  0.00     0.156 HD
ATOM     22  H22 ZIN A   1      20.572  -3.649  13.232  0.00  0.00     0.156 HD
ENDBRANCH   1  20
TORSDOF 2
ENDMDL
