MODEL 1
REMARK VINA RESULT:      -7.4      0.000      0.000
REMARK  3 active torsions:
REMARK  status: ('A' for Active; 'I' for Inactive)
REMARK    1  A    between atoms: C3_3  and  C4_4 
REMARK       I    between atoms: C4_4  and  N6_6 
REMARK    2  A    between atoms: N6_6  and  C7_7 
REMARK    3  A    between atoms: C10_10  and  C11_11 
ROOT
ATOM      1  C7  <0> d   1      18.798   1.175   9.486  0.00  0.00     0.035 A 
ATOM      2  C8  <0> d   1      18.871   2.501   9.079  0.00  0.00     0.030 A 
ATOM      3  C9  <0> d   1      18.393   3.502   9.902  0.00  0.00     0.018 A 
ATOM      4  C10 <0> d   1      17.842   3.185  11.130  0.00  0.00     0.048 A 
ATOM      5  C15 <0> d   1      17.766   1.865  11.538  0.00  0.00     0.018 A 
ATOM      6  C16 <0> d   1      18.238   0.860  10.717  0.00  0.00     0.030 A 
ENDROOT
BRANCH   1   7
ATOM      7  N6  <0> d   1      19.280   0.159   8.655  0.00  0.00    -0.323 N 
ATOM      8  C4  <0> d   1      18.463  -0.419   7.752  0.00  0.00     0.260 C 
ATOM      9  O5  <0> d   1      17.285  -0.116   7.718  0.00  0.00    -0.267 OA
ATOM     10  H23 <0> d   1      20.203  -0.130   8.728  0.00  0.00     0.169 HD
BRANCH   8  11
ATOM     11  C3  <0> d   1      18.996  -1.416   6.808  0.00  0.00     0.083 A 
ATOM     12  C2  <0> d   1      19.278  -1.266   5.472  0.00  0.00     0.092 A 
ATOM     13  C1  <0> d   1      19.102  -0.017   4.647  0.00  0.00     0.080 C 
ATOM     14  O19 <0> d   1      19.732  -2.448   5.048  0.00  0.00    -0.217 OA
ATOM     15  N18 <0> d   1      19.774  -3.280   5.921  0.00  0.00    -0.140 NA
ATOM     16  C17 <0> d   1      19.356  -2.820   7.063  0.00  0.00     0.166 A 
ENDBRANCH   8  11
ENDBRANCH   1   7
BRANCH   4  17
ATOM     17  C11 <0> d   1      17.321   4.280  12.026  0.00  0.00     0.417 C 
ATOM     18  F12 <0> d   1      16.157   4.821  11.472  0.00  0.00    -0.166 F 
ATOM     19  F13 <0> d   1      17.036   3.752  13.290  0.00  0.00    -0.166 F 
ATOM     20  F14 <0> d   1      18.289   5.282  12.148  0.00  0.00    -0.166 F 
ENDBRANCH   4  17
TORSDOF 3
ENDMDL
MODEL 2
REMARK VINA RESULT:      -7.4      5.545      8.071
REMARK  3 active torsions:
REMARK  status: ('A' for Active; 'I' for Inactive)
REMARK    1  A    between atoms: C3_3  and  C4_4 
REMARK       I    between atoms: C4_4  and  N6_6 
REMARK    2  A    between atoms: N6_6  and  C7_7 
REMARK    3  A    between atoms: C10_10  and  C11_11 
ROOT
ATOM      1  C7  <0> d   1      19.583   1.301  12.821  0.00  0.00     0.035 A 
ATOM      2  C8  <0> d   1      19.540   2.448  12.039  0.00  0.00     0.030 A 
ATOM      3  C9  <0> d   1      19.257   2.353  10.690  0.00  0.00     0.018 A 
ATOM      4  C10 <0> d   1      19.017   1.117  10.119  0.00  0.00     0.048 A 
ATOM      5  C15 <0> d   1      19.060  -0.027  10.894  0.00  0.00     0.018 A 
ATOM      6  C16 <0> d   1      19.347   0.061  12.242  0.00  0.00     0.030 A 
ENDROOT
BRANCH   1   7
ATOM      7  N6  <0> d   1      19.871   1.394  14.187  0.00  0.00    -0.323 N 
ATOM      8  C4  <0> d   1      18.872   1.558  15.076  0.00  0.00     0.260 C 
ATOM      9  O5  <0> d   1      17.730   1.711  14.686  0.00  0.00    -0.267 OA
ATOM     10  H23 <0> d   1      20.790   1.340  14.494  0.00  0.00     0.169 HD
BRANCH   8  11
ATOM     11  C3  <0> d   1      19.163   1.554  16.520  0.00  0.00     0.083 A 
ATOM     12  C2  <0> d   1      19.251   0.482  17.373  0.00  0.00     0.092 A 
ATOM     13  C1  <0> d   1      19.066  -0.972  17.019  0.00  0.00     0.080 C 
ATOM     14  O19 <0> d   1      19.528   0.982  18.580  0.00  0.00    -0.217 OA
ATOM     15  N18 <0> d   1      19.627   2.184  18.583  0.00  0.00    -0.140 NA
ATOM     16  C17 <0> d   1      19.430   2.700  17.405  0.00  0.00     0.166 A 
ENDBRANCH   8  11
ENDBRANCH   1   7
BRANCH   4  17
ATOM     17  C11 <0> d   1      18.708   1.017   8.647  0.00  0.00     0.417 C 
ATOM     18  F12 <0> d   1      17.379   0.615   8.475  0.00  0.00    -0.166 F 
ATOM     19  F13 <0> d   1      18.899   2.265   8.044  0.00  0.00    -0.166 F 
ATOM     20  F14 <0> d   1      19.559   0.078   8.055  0.00  0.00    -0.166 F 
ENDBRANCH   4  17
TORSDOF 3
ENDMDL
MODEL 3
REMARK VINA RESULT:      -7.4      3.115      3.944
REMARK  3 active torsions:
REMARK  status: ('A' for Active; 'I' for Inactive)
REMARK    1  A    between atoms: C3_3  and  C4_4 
REMARK       I    between atoms: C4_4  and  N6_6 
REMARK    2  A    between atoms: N6_6  and  C7_7 
REMARK    3  A    between atoms: C10_10  and  C11_11 
ROOT
ATOM      1  C7  <0> d   1      19.750  -1.261  10.423  0.00  0.00     0.035 A 
ATOM      2  C8  <0> d   1      19.530  -2.364  11.239  0.00  0.00     0.030 A 
ATOM      3  C9  <0> d   1      19.302  -2.187  12.590  0.00  0.00     0.018 A 
ATOM      4  C10 <0> d   1      19.292  -0.914  13.130  0.00  0.00     0.048 A 
ATOM      5  C15 <0> d   1      19.512   0.186  12.320  0.00  0.00     0.018 A 
ATOM      6  C16 <0> d   1      19.745   0.015  10.970  0.00  0.00     0.030 A 
ENDROOT
BRANCH   1   7
ATOM      7  N6  <0> d   1      19.982  -1.437   9.054  0.00  0.00    -0.323 N 
ATOM      8  C4  <0> d   1      18.950  -1.425   8.189  0.00  0.00     0.260 C 
ATOM      9  O5  <0> d   1      17.809  -1.347   8.604  0.00  0.00    -0.267 OA
ATOM     10  H23 <0> d   1      20.887  -1.568   8.729  0.00  0.00     0.169 HD
BRANCH   8  11
ATOM     11  C3  <0> d   1      19.202  -1.509   6.739  0.00  0.00     0.083 A 
ATOM     12  C2  <0> d   1      19.278  -0.489   5.823  0.00  0.00     0.092 A 
ATOM     13  C1  <0> d   1      19.115   0.985   6.097  0.00  0.00     0.080 C 
ATOM     14  O19 <0> d   1      19.518  -1.061   4.641  0.00  0.00    -0.217 OA
ATOM     15  N18 <0> d   1      19.605  -2.263   4.706  0.00  0.00    -0.140 NA
ATOM     16  C17 <0> d   1      19.435  -2.706   5.917  0.00  0.00     0.166 A 
ENDBRANCH   8  11
ENDBRANCH   1   7
BRANCH   4  17
ATOM     17  C11 <0> d   1      19.043  -0.724  14.604  0.00  0.00     0.417 C 
ATOM     18  F12 <0> d   1      19.694  -1.733  15.321  0.00  0.00    -0.166 F 
ATOM     19  F13 <0> d   1      19.533   0.524  15.003  0.00  0.00    -0.166 F 
ATOM     20  F14 <0> d   1      17.669  -0.787  14.856  0.00  0.00    -0.166 F 
ENDBRANCH   4  17
TORSDOF 3
ENDMDL
MODEL 4
REMARK VINA RESULT:      -7.2      1.154      1.948
REMARK  3 active torsions:
REMARK  status: ('A' for Active; 'I' for Inactive)
REMARK    1  A    between atoms: C3_3  and  C4_4 
REMARK       I    between atoms: C4_4  and  N6_6 
REMARK    2  A    between atoms: N6_6  and  C7_7 
REMARK    3  A    between atoms: C10_10  and  C11_11 
ROOT
ATOM      1  C7  <0> d   1      19.066   2.245   9.379  0.00  0.00     0.035 A 
ATOM      2  C8  <0> d   1      19.396   1.931  10.691  0.00  0.00     0.030 A 
ATOM      3  C9  <0> d   1      18.979   2.750  11.722  0.00  0.00     0.018 A 
ATOM      4  C10 <0> d   1      18.233   3.882  11.449  0.00  0.00     0.048 A 
ATOM      5  C15 <0> d   1      17.902   4.198  10.143  0.00  0.00     0.018 A 
ATOM      6  C16 <0> d   1      18.321   3.385   9.108  0.00  0.00     0.030 A 
ENDROOT
BRANCH   1   7
ATOM      7  N6  <0> d   1      19.487   1.418   8.332  0.00  0.00    -0.323 N 
ATOM      8  C4  <0> d   1      18.624   0.549   7.770  0.00  0.00     0.260 C 
ATOM      9  O5  <0> d   1      17.504   0.424   8.226  0.00  0.00    -0.267 OA
ATOM     10  H23 <0> d   1      20.402   1.469   8.012  0.00  0.00     0.169 HD
BRANCH   8  11
ATOM     11  C3  <0> d   1      19.038  -0.249   6.602  0.00  0.00     0.083 A 
ATOM     12  C2  <0> d   1      19.266  -1.601   6.527  0.00  0.00     0.092 A 
ATOM     13  C1  <0> d   1      19.143  -2.602   7.648  0.00  0.00     0.080 C 
ATOM     14  O19 <0> d   1      19.624  -1.853   5.266  0.00  0.00    -0.217 OA
ATOM     15  N18 <0> d   1      19.639  -0.865   4.572  0.00  0.00    -0.140 NA
ATOM     16  C17 <0> d   1      19.309   0.207   5.230  0.00  0.00     0.166 A 
ENDBRANCH   8  11
ENDBRANCH   1   7
BRANCH   4  17
ATOM     17  C11 <0> d   1      17.779   4.774  12.576  0.00  0.00     0.417 C 
ATOM     18  F12 <0> d   1      16.909   5.748  12.078  0.00  0.00    -0.166 F 
ATOM     19  F13 <0> d   1      17.118   4.005  13.540  0.00  0.00    -0.166 F 
ATOM     20  F14 <0> d   1      18.890   5.393  13.156  0.00  0.00    -0.166 F 
ENDBRANCH   4  17
TORSDOF 3
ENDMDL
MODEL 5
REMARK VINA RESULT:      -7.2      5.459      8.097
REMARK  3 active torsions:
REMARK  status: ('A' for Active; 'I' for Inactive)
REMARK    1  A    between atoms: C3_3  and  C4_4 
REMARK       I    between atoms: C4_4  and  N6_6 
REMARK    2  A    between atoms: N6_6  and  C7_7 
REMARK    3  A    between atoms: C10_10  and  C11_11 
ROOT
ATOM      1  C7  <0> d   1      19.489   1.660  12.781  0.00  0.00     0.035 A 
ATOM      2  C8  <0> d   1      19.812   0.455  12.170  0.00  0.00     0.030 A 
ATOM      3  C9  <0> d   1      19.557   0.273  10.825  0.00  0.00     0.018 A 
ATOM      4  C10 <0> d   1      18.980   1.290  10.087  0.00  0.00     0.048 A 
ATOM      5  C15 <0> d   1      18.656   2.491  10.692  0.00  0.00     0.018 A 
ATOM      6  C16 <0> d   1      18.904   2.676  12.038  0.00  0.00     0.030 A 
ENDROOT
BRANCH   1   7
ATOM      7  N6  <0> d   1      19.745   1.846  14.144  0.00  0.00    -0.323 N 
ATOM      8  C4  <0> d   1      18.824   1.485  15.059  0.00  0.00     0.260 C 
ATOM      9  O5  <0> d   1      17.737   1.077  14.698  0.00  0.00    -0.267 OA
ATOM     10  H23 <0> d   1      20.587   2.235  14.430  0.00  0.00     0.169 HD
BRANCH   8  11
ATOM     11  C3  <0> d   1      19.133   1.586  16.496  0.00  0.00     0.083 A 
ATOM     12  C2  <0> d   1      19.396   2.711  17.238  0.00  0.00     0.092 A 
ATOM     13  C1  <0> d   1      19.428   4.135  16.741  0.00  0.00     0.080 C 
ATOM     14  O19 <0> d   1      19.622   2.295  18.486  0.00  0.00    -0.217 OA
ATOM     15  N18 <0> d   1      19.530   1.098  18.610  0.00  0.00    -0.140 NA
ATOM     16  C17 <0> d   1      19.239   0.506  17.489  0.00  0.00     0.166 A 
ENDBRANCH   8  11
ENDBRANCH   1   7
BRANCH   4  17
ATOM     17  C11 <0> d   1      18.702   1.089   8.619  0.00  0.00     0.417 C 
ATOM     18  F12 <0> d   1      19.566   0.114   8.110  0.00  0.00    -0.166 F 
ATOM     19  F13 <0> d   1      17.377   0.674   8.447  0.00  0.00    -0.166 F 
ATOM     20  F14 <0> d   1      18.905   2.294   7.937  0.00  0.00    -0.166 F 
ENDBRANCH   4  17
TORSDOF 3
ENDMDL
MODEL 6
REMARK VINA RESULT:      -7.1      3.756      5.112
REMARK  3 active torsions:
REMARK  status: ('A' for Active; 'I' for Inactive)
REMARK    1  A    between atoms: C3_3  and  C4_4 
REMARK       I    between atoms: C4_4  and  N6_6 
REMARK    2  A    between atoms: N6_6  and  C7_7 
REMARK    3  A    between atoms: C10_10  and  C11_11 
ROOT
ATOM      1  C7  <0> d   1      18.631  -0.131  12.912  0.00  0.00     0.035 A 
ATOM      2  C8  <0> d   1      19.065  -1.259  13.597  0.00  0.00     0.030 A 
ATOM      3  C9  <0> d   1      18.678  -1.461  14.907  0.00  0.00     0.018 A 
ATOM      4  C10 <0> d   1      17.860  -0.542  15.537  0.00  0.00     0.048 A 
ATOM      5  C15 <0> d   1      17.426   0.583  14.859  0.00  0.00     0.018 A 
ATOM      6  C16 <0> d   1      17.814   0.792  13.550  0.00  0.00     0.030 A 
ENDROOT
BRANCH   1   7
ATOM      7  N6  <0> d   1      19.022   0.077  11.585  0.00  0.00    -0.323 N 
ATOM      8  C4  <0> d   1      18.158  -0.174  10.581  0.00  0.00     0.260 C 
ATOM      9  O5  <0> d   1      17.070  -0.660  10.822  0.00  0.00    -0.267 OA
ATOM     10  H23 <0> d   1      19.914   0.401  11.387  0.00  0.00     0.169 HD
BRANCH   8  11
ATOM     11  C3  <0> d   1      18.533   0.141   9.191  0.00  0.00     0.083 A 
ATOM     12  C2  <0> d   1      18.808   1.365   8.634  0.00  0.00     0.092 A 
ATOM     13  C1  <0> d   1      18.789   2.701   9.335  0.00  0.00     0.080 C 
ATOM     14  O19 <0> d   1      19.090   1.140   7.349  0.00  0.00    -0.217 OA
ATOM     15  N18 <0> d   1      19.034  -0.027   7.049  0.00  0.00    -0.140 NA
ATOM     16  C17 <0> d   1      18.703  -0.781   8.056  0.00  0.00     0.166 A 
ENDBRANCH   8  11
ENDBRANCH   1   7
BRANCH   4  17
ATOM     17  C11 <0> d   1      17.439  -0.766  16.968  0.00  0.00     0.417 C 
ATOM     18  F12 <0> d   1      16.732  -1.968  17.063  0.00  0.00    -0.166 F 
ATOM     19  F13 <0> d   1      18.575  -0.825  17.783  0.00  0.00    -0.166 F 
ATOM     20  F14 <0> d   1      16.622   0.290  17.383  0.00  0.00    -0.166 F 
ENDBRANCH   4  17
TORSDOF 3
ENDMDL
MODEL 7
REMARK VINA RESULT:      -7.1      3.895      4.896
REMARK  3 active torsions:
REMARK  status: ('A' for Active; 'I' for Inactive)
REMARK    1  A    between atoms: C3_3  and  C4_4 
REMARK       I    between atoms: C4_4  and  N6_6 
REMARK    2  A    between atoms: N6_6  and  C7_7 
REMARK    3  A    between atoms: C10_10  and  C11_11 
ROOT
ATOM      1  C7  <0> d   1      18.380  -0.690  12.642  0.00  0.00     0.035 A 
ATOM      2  C8  <0> d   1      17.736   0.294  13.382  0.00  0.00     0.030 A 
ATOM      3  C9  <0> d   1      17.842   0.301  14.759  0.00  0.00     0.018 A 
ATOM      4  C10 <0> d   1      18.589  -0.669  15.401  0.00  0.00     0.048 A 
ATOM      5  C15 <0> d   1      19.232  -1.650  14.667  0.00  0.00     0.018 A 
ATOM      6  C16 <0> d   1      19.125  -1.665  13.290  0.00  0.00     0.030 A 
ENDROOT
BRANCH   1   7
ATOM      7  N6  <0> d   1      18.273  -0.700  11.247  0.00  0.00    -0.323 N 
ATOM      8  C4  <0> d   1      19.321  -0.322  10.488  0.00  0.00     0.260 C 
ATOM      9  O5  <0> d   1      20.329   0.108  11.015  0.00  0.00    -0.267 OA
ATOM     10  H23 <0> d   1      17.445  -0.980  10.826  0.00  0.00     0.169 HD
BRANCH   8  11
ATOM     11  C3  <0> d   1      19.244  -0.430   9.020  0.00  0.00     0.083 A 
ATOM     12  C2  <0> d   1      19.141   0.577   8.092  0.00  0.00     0.092 A 
ATOM     13  C1  <0> d   1      19.080   2.058   8.369  0.00  0.00     0.080 C 
ATOM     14  O19 <0> d   1      19.099  -0.016   6.897  0.00  0.00    -0.217 OA
ATOM     15  N18 <0> d   1      19.168  -1.219   6.962  0.00  0.00    -0.140 NA
ATOM     16  C17 <0> d   1      19.259  -1.643   8.188  0.00  0.00     0.166 A 
ENDBRANCH   8  11
ENDBRANCH   1   7
BRANCH   4  17
ATOM     17  C11 <0> d   1      18.704  -0.658  16.904  0.00  0.00     0.417 C 
ATOM     18  F12 <0> d   1      17.450  -0.913  17.469  0.00  0.00    -0.166 F 
ATOM     19  F13 <0> d   1      19.608  -1.645  17.310  0.00  0.00    -0.166 F 
ATOM     20  F14 <0> d   1      19.160   0.595  17.327  0.00  0.00    -0.166 F 
ENDBRANCH   4  17
TORSDOF 3
ENDMDL
MODEL 8
REMARK VINA RESULT:      -6.8      4.282      5.740
REMARK  3 active torsions:
REMARK  status: ('A' for Active; 'I' for Inactive)
REMARK    1  A    between atoms: C3_3  and  C4_4 
REMARK       I    between atoms: C4_4  and  N6_6 
REMARK    2  A    between atoms: N6_6  and  C7_7 
REMARK    3  A    between atoms: C10_10  and  C11_11 
ROOT
ATOM      1  C7  <0> d   1      18.550   0.752  13.835  0.00  0.00     0.035 A 
ATOM      2  C8  <0> d   1      18.607   1.874  14.652  0.00  0.00     0.030 A 
ATOM      3  C9  <0> d   1      18.732   1.725  16.020  0.00  0.00     0.018 A 
ATOM      4  C10 <0> d   1      18.801   0.461  16.575  0.00  0.00     0.048 A 
ATOM      5  C15 <0> d   1      18.744  -0.658  15.765  0.00  0.00     0.018 A 
ATOM      6  C16 <0> d   1      18.614  -0.516  14.397  0.00  0.00     0.030 A 
ENDROOT
BRANCH   1   7
ATOM      7  N6  <0> d   1      18.423   0.899  12.450  0.00  0.00    -0.323 N 
ATOM      8  C4  <0> d   1      19.510   0.801  11.659  0.00  0.00     0.260 C 
ATOM      9  O5  <0> d   1      20.612   0.668  12.154  0.00  0.00    -0.267 OA
ATOM     10  H23 <0> d   1      17.552   1.073  12.059  0.00  0.00     0.169 HD
BRANCH   8  11
ATOM     11  C3  <0> d   1      19.362   0.854  10.194  0.00  0.00     0.083 A 
ATOM     12  C2  <0> d   1      18.932   1.899   9.414  0.00  0.00     0.092 A 
ATOM     13  C1  <0> d   1      18.502   3.264   9.890  0.00  0.00     0.080 C 
ATOM     14  O19 <0> d   1      18.964   1.466   8.152  0.00  0.00    -0.217 OA
ATOM     15  N18 <0> d   1      19.352   0.328   8.051  0.00  0.00    -0.140 NA
ATOM     16  C17 <0> d   1      19.637  -0.201   9.205  0.00  0.00     0.166 A 
ENDBRANCH   8  11
ENDBRANCH   1   7
BRANCH   4  17
ATOM     17  C11 <0> d   1      18.937   0.302  18.068  0.00  0.00     0.417 C 
ATOM     18  F12 <0> d   1      19.622  -0.883  18.350  0.00  0.00    -0.166 F 
ATOM     19  F13 <0> d   1      19.649   1.389  18.589  0.00  0.00    -0.166 F 
ATOM     20  F14 <0> d   1      17.666   0.256  18.650  0.00  0.00    -0.166 F 
ENDBRANCH   4  17
TORSDOF 3
ENDMDL
MODEL 9
REMARK VINA RESULT:      -6.8      6.315      8.890
REMARK  3 active torsions:
REMARK  status: ('A' for Active; 'I' for Inactive)
REMARK    1  A    between atoms: C3_3  and  C4_4 
REMARK       I    between atoms: C4_4  and  N6_6 
REMARK    2  A    between atoms: N6_6  and  C7_7 
REMARK    3  A    between atoms: C10_10  and  C11_11 
ROOT
ATOM      1  C7  <0> d   1      18.772  -0.788  13.439  0.00  0.00     0.035 A 
ATOM      2  C8  <0> d   1      17.757  -0.508  12.533  0.00  0.00     0.030 A 
ATOM      3  C9  <0> d   1      17.418  -1.437  11.568  0.00  0.00     0.018 A 
ATOM      4  C10 <0> d   1      18.089  -2.645  11.504  0.00  0.00     0.048 A 
ATOM      5  C15 <0> d   1      19.101  -2.926  12.405  0.00  0.00     0.018 A 
ATOM      6  C16 <0> d   1      19.447  -1.999  13.368  0.00  0.00     0.030 A 
ENDROOT
BRANCH   1   7
ATOM      7  N6  <0> d   1      19.118   0.152  14.416  0.00  0.00    -0.323 N 
ATOM      8  C4  <0> d   1      18.540   0.102  15.633  0.00  0.00     0.260 C 
ATOM      9  O5  <0> d   1      17.659  -0.706  15.855  0.00  0.00    -0.267 OA
ATOM     10  H23 <0> d   1      19.773   0.839  14.217  0.00  0.00     0.169 HD
BRANCH   8  11
ATOM     11  C3  <0> d   1      18.977   1.026  16.694  0.00  0.00     0.083 A 
ATOM     12  C2  <0> d   1      19.209   2.377  16.611  0.00  0.00     0.092 A 
ATOM     13  C1  <0> d   1      19.065   3.245  15.386  0.00  0.00     0.080 C 
ATOM     14  O19 <0> d   1      19.591   2.769  17.828  0.00  0.00    -0.217 OA
ATOM     15  N18 <0> d   1      19.619   1.867  18.630  0.00  0.00    -0.140 NA
ATOM     16  C17 <0> d   1      19.275   0.729  18.104  0.00  0.00     0.166 A 
ENDBRANCH   8  11
ENDBRANCH   1   7
BRANCH   4  17
ATOM     17  C11 <0> d   1      17.717  -3.657  10.451  0.00  0.00     0.417 C 
ATOM     18  F12 <0> d   1      16.631  -4.417  10.897  0.00  0.00    -0.166 F 
ATOM     19  F13 <0> d   1      17.368  -2.993   9.270  0.00  0.00    -0.166 F 
ATOM     20  F14 <0> d   1      18.807  -4.498  10.208  0.00  0.00    -0.166 F 
ENDBRANCH   4  17
TORSDOF 3
ENDMDL
