MODEL 1
REMARK VINA RESULT:      -7.3      0.000      0.000
REMARK  7 active torsions:
REMARK  status: ('A' for Active; 'I' for Inactive)
REMARK    1  A    between atoms: C2_2  and  N5_5 
REMARK    2  A    between atoms: N5_5  and  C8_8 
REMARK    3  A    between atoms: C8_8  and  C9_9 
REMARK    4  A    between atoms: C9_9  and  O11_10 
REMARK    5  A    between atoms: C9_9  and  C12_11 
REMARK    6  A    between atoms: C12_11  and  O13_12 
REMARK    7  A    between atoms: O13_12  and  C14_13 
ROOT
ATOM      1  C12 ZIN A   1      18.049  -0.567  12.530  0.00  0.00     0.209 C 
ENDROOT
BRANCH   1   2
ATOM      2  C9  ZIN A   1      17.205  -0.427  11.261  0.00  0.00     0.168 C 
BRANCH   2   3
ATOM      3  C8  ZIN A   1      17.846   0.609  10.335  0.00  0.00     0.267 C 
BRANCH   3   4
ATOM      4  N5  ZIN A   1      17.493   1.959  10.794  0.00  0.00    -0.065 N 
ATOM      5  H6  ZIN A   1      17.467   1.977  11.802  0.00  0.00     0.278 HD
ATOM      6  H7  ZIN A   1      16.587   2.212  10.430  0.00  0.00     0.278 HD
BRANCH   4   7
ATOM      7  C2  ZIN A   1      18.499   2.917  10.314  0.00  0.00     0.115 C 
ATOM      8  C1  ZIN A   1      19.659   2.980  11.309  0.00  0.00     0.045 C 
ATOM      9  C3  ZIN A   1      17.862   4.303  10.183  0.00  0.00     0.045 C 
ATOM     10  C4  ZIN A   1      19.022   2.467   8.949  0.00  0.00     0.045 C 
ENDBRANCH   4   7
ENDBRANCH   3   4
ENDBRANCH   2   3
BRANCH   2  11
ATOM     11  O11 ZIN A   1      15.886  -0.003  11.610  0.00  0.00    -0.392 OA
ATOM     12  H36 ZIN A   1      15.459   0.547  10.938  0.00  0.00     0.210 HD
ENDBRANCH   2  11
ENDBRANCH   1   2
BRANCH   1  13
ATOM     13  O13 ZIN A   1      17.556   0.326  13.531  0.00  0.00    -0.348 OA
BRANCH  13  14
ATOM     14  C14 ZIN A   1      18.041   0.168  14.791  0.00  0.00     0.076 A 
ATOM     15  C19 ZIN A   1      18.484   1.274  15.504  0.00  0.00    -0.011 A 
ATOM     16  C18 ZIN A   1      18.971   1.098  16.799  0.00  0.00     0.019 A 
ATOM     17  C20 ZIN A   1      18.424   2.633  14.861  0.00  0.00     0.043 C 
ATOM     18  C17 ZIN A   1      19.025  -0.180  17.362  0.00  0.00     0.016 A 
ATOM     19  C23 ZIN A   1      19.433   2.263  17.581  0.00  0.00     0.160 C 
ATOM     20  C16 ZIN A   1      18.589  -1.270  16.638  0.00  0.00     0.004 A 
ATOM     21  C15 ZIN A   1      18.097  -1.096  15.357  0.00  0.00     0.037 A 
ATOM     22  C22 ZIN A   1      19.601   3.578  16.850  0.00  0.00     0.084 C 
ATOM     23  O24 ZIN A   1      19.664   2.169  18.768  0.00  0.00    -0.292 OA
ATOM     24  C21 ZIN A   1      18.399   3.741  15.910  0.00  0.00     0.012 C 
ENDBRANCH  13  14
ENDBRANCH   1  13
TORSDOF 7
ENDMDL
MODEL 2
REMARK VINA RESULT:      -7.3      0.697      2.479
REMARK  7 active torsions:
REMARK  status: ('A' for Active; 'I' for Inactive)
REMARK    1  A    between atoms: C2_2  and  N5_5 
REMARK    2  A    between atoms: N5_5  and  C8_8 
REMARK    3  A    between atoms: C8_8  and  C9_9 
REMARK    4  A    between atoms: C9_9  and  O11_10 
REMARK    5  A    between atoms: C9_9  and  C12_11 
REMARK    6  A    between atoms: C12_11  and  O13_12 
REMARK    7  A    between atoms: O13_12  and  C14_13 
ROOT
ATOM      1  C12 ZIN A   1      18.222  -0.353  12.247  0.00  0.00     0.209 C 
ENDROOT
BRANCH   1   2
ATOM      2  C9  ZIN A   1      17.199  -0.317  11.110  0.00  0.00     0.168 C 
BRANCH   2   3
ATOM      3  C8  ZIN A   1      17.620   0.735  10.080  0.00  0.00     0.267 C 
BRANCH   3   4
ATOM      4  N5  ZIN A   1      17.504   2.073  10.674  0.00  0.00    -0.065 N 
ATOM      5  H6  ZIN A   1      17.620   2.010  11.675  0.00  0.00     0.278 HD
ATOM      6  H7  ZIN A   1      16.595   2.457  10.465  0.00  0.00     0.278 HD
BRANCH   4   7
ATOM      7  C2  ZIN A   1      18.545   2.948  10.116  0.00  0.00     0.115 C 
ATOM      8  C1  ZIN A   1      19.040   2.368   8.789  0.00  0.00     0.045 C 
ATOM      9  C3  ZIN A   1      19.714   3.042  11.100  0.00  0.00     0.045 C 
ATOM     10  C4  ZIN A   1      17.965   4.343   9.879  0.00  0.00     0.045 C 
ENDBRANCH   4   7
ENDBRANCH   3   4
ENDBRANCH   2   3
BRANCH   2  11
ATOM     11  O11 ZIN A   1      15.913   0.018  11.635  0.00  0.00    -0.392 OA
ATOM     12  H36 ZIN A   1      15.679   0.951  11.535  0.00  0.00     0.210 HD
ENDBRANCH   2  11
ENDBRANCH   1   2
BRANCH   1  13
ATOM     13  O13 ZIN A   1      17.542  -0.277  13.502  0.00  0.00    -0.348 OA
BRANCH  13  14
ATOM     14  C14 ZIN A   1      17.962   0.676  14.374  0.00  0.00     0.076 A 
ATOM     15  C19 ZIN A   1      18.386   0.312  15.645  0.00  0.00    -0.011 A 
ATOM     16  C18 ZIN A   1      18.824   1.300  16.526  0.00  0.00     0.019 A 
ATOM     17  C20 ZIN A   1      18.366  -1.140  16.036  0.00  0.00     0.043 C 
ATOM     18  C17 ZIN A   1      18.818   2.643  16.135  0.00  0.00     0.016 A 
ATOM     19  C23 ZIN A   1      19.294   0.933  17.877  0.00  0.00     0.160 C 
ATOM     20  C16 ZIN A   1      18.386   2.990  14.873  0.00  0.00     0.004 A 
ATOM     21  C15 ZIN A   1      17.961   2.010  13.994  0.00  0.00     0.037 A 
ATOM     22  C22 ZIN A   1      19.041  -0.483  18.348  0.00  0.00     0.084 C 
ATOM     23  O24 ZIN A   1      19.867   1.737  18.581  0.00  0.00    -0.292 OA
ATOM     24  C21 ZIN A   1      19.344  -1.421  17.173  0.00  0.00     0.012 C 
ENDBRANCH  13  14
ENDBRANCH   1  13
TORSDOF 7
ENDMDL
MODEL 3
REMARK VINA RESULT:      -7.1      3.792      7.738
REMARK  7 active torsions:
REMARK  status: ('A' for Active; 'I' for Inactive)
REMARK    1  A    between atoms: C2_2  and  N5_5 
REMARK    2  A    between atoms: N5_5  and  C8_8 
REMARK    3  A    between atoms: C8_8  and  C9_9 
REMARK    4  A    between atoms: C9_9  and  O11_10 
REMARK    5  A    between atoms: C9_9  and  C12_11 
REMARK    6  A    between atoms: C12_11  and  O13_12 
REMARK    7  A    between atoms: O13_12  and  C14_13 
ROOT
ATOM      1  C12 ZIN A   1      19.155  -1.122  11.277  0.00  0.00     0.209 C 
ENDROOT
BRANCH   1   2
ATOM      2  C9  ZIN A   1      20.297  -0.129  11.500  0.00  0.00     0.168 C 
BRANCH   2   3
ATOM      3  C8  ZIN A   1      19.907   1.234  10.924  0.00  0.00     0.267 C 
BRANCH   3   4
ATOM      4  N5  ZIN A   1      20.331   2.294  11.848  0.00  0.00    -0.065 N 
ATOM      5  H6  ZIN A   1      21.063   2.842  11.420  0.00  0.00     0.278 HD
ATOM      6  H7  ZIN A   1      20.677   1.880  12.700  0.00  0.00     0.278 HD
BRANCH   4   7
ATOM      7  C2  ZIN A   1      19.186   3.163  12.155  0.00  0.00     0.115 C 
ATOM      8  C1  ZIN A   1      18.453   2.624  13.385  0.00  0.00     0.045 C 
ATOM      9  C3  ZIN A   1      18.230   3.187  10.960  0.00  0.00     0.045 C 
ATOM     10  C4  ZIN A   1      19.684   4.581  12.438  0.00  0.00     0.045 C 
ENDBRANCH   4   7
ENDBRANCH   3   4
ENDBRANCH   2   3
BRANCH   2  11
ATOM     11  O11 ZIN A   1      21.476  -0.604  10.846  0.00  0.00    -0.392 OA
ATOM     12  H36 ZIN A   1      21.866   0.032  10.230  0.00  0.00     0.210 HD
ENDBRANCH   2  11
ENDBRANCH   1   2
BRANCH   1  13
ATOM     13  O13 ZIN A   1      18.473  -0.800  10.063  0.00  0.00    -0.348 OA
BRANCH  13  14
ATOM     14  C14 ZIN A   1      18.763  -1.558   8.973  0.00  0.00     0.076 A 
ATOM     15  C19 ZIN A   1      18.809  -0.971   7.715  0.00  0.00    -0.011 A 
ATOM     16  C18 ZIN A   1      19.116  -1.760   6.607  0.00  0.00     0.019 A 
ATOM     17  C20 ZIN A   1      18.529   0.501   7.582  0.00  0.00     0.043 C 
ATOM     18  C17 ZIN A   1      19.359  -3.128   6.763  0.00  0.00     0.016 A 
ATOM     19  C23 ZIN A   1      19.186  -1.153   5.262  0.00  0.00     0.160 C 
ATOM     20  C16 ZIN A   1      19.301  -3.698   8.018  0.00  0.00     0.004 A 
ATOM     21  C15 ZIN A   1      19.005  -2.915   9.119  0.00  0.00     0.037 A 
ATOM     22  C22 ZIN A   1      18.667   0.260   5.101  0.00  0.00     0.084 C 
ATOM     23  O24 ZIN A   1      19.649  -1.764   4.322  0.00  0.00    -0.292 OA
ATOM     24  C21 ZIN A   1      19.151   1.070   6.311  0.00  0.00     0.012 C 
ENDBRANCH  13  14
ENDBRANCH   1  13
TORSDOF 7
ENDMDL
MODEL 4
REMARK VINA RESULT:      -7.1      2.471      6.110
REMARK  7 active torsions:
REMARK  status: ('A' for Active; 'I' for Inactive)
REMARK    1  A    between atoms: C2_2  and  N5_5 
REMARK    2  A    between atoms: N5_5  and  C8_8 
REMARK    3  A    between atoms: C8_8  and  C9_9 
REMARK    4  A    between atoms: C9_9  and  O11_10 
REMARK    5  A    between atoms: C9_9  and  C12_11 
REMARK    6  A    between atoms: C12_11  and  O13_12 
REMARK    7  A    between atoms: O13_12  and  C14_13 
ROOT
ATOM      1  C12 ZIN A   1      18.341  -1.077  11.792  0.00  0.00     0.209 C 
ENDROOT
BRANCH   1   2
ATOM      2  C9  ZIN A   1      19.013  -2.137  12.666  0.00  0.00     0.168 C 
BRANCH   2   3
ATOM      3  C8  ZIN A   1      19.299  -1.549  14.050  0.00  0.00     0.267 C 
BRANCH   3   4
ATOM      4  N5  ZIN A   1      18.096  -0.869  14.550  0.00  0.00    -0.065 N 
ATOM      5  H6  ZIN A   1      17.313  -1.504  14.520  0.00  0.00     0.278 HD
ATOM      6  H7  ZIN A   1      17.900  -0.065  13.974  0.00  0.00     0.278 HD
BRANCH   4   7
ATOM      7  C2  ZIN A   1      18.321  -0.435  15.936  0.00  0.00     0.115 C 
ATOM      8  C1  ZIN A   1      19.190  -1.466  16.659  0.00  0.00     0.045 C 
ATOM      9  C3  ZIN A   1      16.975  -0.308  16.655  0.00  0.00     0.045 C 
ATOM     10  C4  ZIN A   1      19.029   0.921  15.938  0.00  0.00     0.045 C 
ENDBRANCH   4   7
ENDBRANCH   3   4
ENDBRANCH   2   3
BRANCH   2  11
ATOM     11  O11 ZIN A   1      20.240  -2.548  12.060  0.00  0.00    -0.392 OA
ATOM     12  H36 ZIN A   1      20.157  -2.781  11.125  0.00  0.00     0.210 HD
ENDBRANCH   2  11
ENDBRANCH   1   2
BRANCH   1  13
ATOM     13  O13 ZIN A   1      19.034   0.166  11.931  0.00  0.00    -0.348 OA
BRANCH  13  14
ATOM     14  C14 ZIN A   1      18.910   1.058  10.914  0.00  0.00     0.076 A 
ATOM     15  C19 ZIN A   1      18.305   2.287  11.143  0.00  0.00    -0.011 A 
ATOM     16  C18 ZIN A   1      18.194   3.197  10.092  0.00  0.00     0.019 A 
ATOM     17  C20 ZIN A   1      17.789   2.605  12.520  0.00  0.00     0.043 C 
ATOM     18  C17 ZIN A   1      18.673   2.865   8.821  0.00  0.00     0.016 A 
ATOM     19  C23 ZIN A   1      17.568   4.515  10.317  0.00  0.00     0.160 C 
ATOM     20  C16 ZIN A   1      19.264   1.638   8.608  0.00  0.00     0.004 A 
ATOM     21  C15 ZIN A   1      19.383   0.738   9.651  0.00  0.00     0.037 A 
ATOM     22  C22 ZIN A   1      16.836   4.733  11.624  0.00  0.00     0.084 C 
ATOM     23  O24 ZIN A   1      17.643   5.395   9.485  0.00  0.00    -0.292 OA
ATOM     24  C21 ZIN A   1      17.688   4.112  12.739  0.00  0.00     0.012 C 
ENDBRANCH  13  14
ENDBRANCH   1  13
TORSDOF 7
ENDMDL
MODEL 5
REMARK VINA RESULT:      -7.0      1.830      2.443
REMARK  7 active torsions:
REMARK  status: ('A' for Active; 'I' for Inactive)
REMARK    1  A    between atoms: C2_2  and  N5_5 
REMARK    2  A    between atoms: N5_5  and  C8_8 
REMARK    3  A    between atoms: C8_8  and  C9_9 
REMARK    4  A    between atoms: C9_9  and  O11_10 
REMARK    5  A    between atoms: C9_9  and  C12_11 
REMARK    6  A    between atoms: C12_11  and  O13_12 
REMARK    7  A    between atoms: O13_12  and  C14_13 
ROOT
ATOM      1  C12 ZIN A   1      19.429  -0.848  12.303  0.00  0.00     0.209 C 
ENDROOT
BRANCH   1   2
ATOM      2  C9  ZIN A   1      20.375   0.159  11.646  0.00  0.00     0.168 C 
BRANCH   2   3
ATOM      3  C8  ZIN A   1      19.591   1.025  10.658  0.00  0.00     0.267 C 
BRANCH   3   4
ATOM      4  N5  ZIN A   1      20.117   0.819   9.302  0.00  0.00    -0.065 N 
ATOM      5  H6  ZIN A   1      20.843   0.118   9.325  0.00  0.00     0.278 HD
ATOM      6  H7  ZIN A   1      20.498   1.685   8.953  0.00  0.00     0.278 HD
BRANCH   4   7
ATOM      7  C2  ZIN A   1      19.032   0.370   8.419  0.00  0.00     0.115 C 
ATOM      8  C1  ZIN A   1      19.279  -1.082   8.004  0.00  0.00     0.045 C 
ATOM      9  C3  ZIN A   1      18.988   1.257   7.173  0.00  0.00     0.045 C 
ATOM     10  C4  ZIN A   1      17.697   0.468   9.161  0.00  0.00     0.045 C 
ENDBRANCH   4   7
ENDBRANCH   3   4
ENDBRANCH   2   3
BRANCH   2  11
ATOM     11  O11 ZIN A   1      21.409  -0.541  10.950  0.00  0.00    -0.392 OA
ATOM     12  H36 ZIN A   1      21.382  -1.501  11.070  0.00  0.00     0.210 HD
ENDBRANCH   2  11
ENDBRANCH   1   2
BRANCH   1  13
ATOM     13  O13 ZIN A   1      18.475  -0.151  13.107  0.00  0.00    -0.348 OA
BRANCH  13  14
ATOM     14  C14 ZIN A   1      18.660  -0.183  14.452  0.00  0.00     0.076 A 
ATOM     15  C19 ZIN A   1      18.895   0.997  15.146  0.00  0.00    -0.011 A 
ATOM     16  C18 ZIN A   1      19.074   0.951  16.528  0.00  0.00     0.019 A 
ATOM     17  C20 ZIN A   1      18.946   2.296  14.387  0.00  0.00     0.043 C 
ATOM     18  C17 ZIN A   1      19.034  -0.274  17.201  0.00  0.00     0.016 A 
ATOM     19  C23 ZIN A   1      19.310   2.195  17.287  0.00  0.00     0.160 C 
ATOM     20  C16 ZIN A   1      18.808  -1.439  16.497  0.00  0.00     0.004 A 
ATOM     21  C15 ZIN A   1      18.621  -1.393  15.128  0.00  0.00     0.037 A 
ATOM     22  C22 ZIN A   1      19.603   3.454  16.499  0.00  0.00     0.084 C 
ATOM     23  O24 ZIN A   1      19.263   2.209  18.499  0.00  0.00    -0.292 OA
ATOM     24  C21 ZIN A   1      18.647   3.482  15.300  0.00  0.00     0.012 C 
ENDBRANCH  13  14
ENDBRANCH   1  13
TORSDOF 7
ENDMDL
MODEL 6
REMARK VINA RESULT:      -7.0      3.699      7.027
REMARK  7 active torsions:
REMARK  status: ('A' for Active; 'I' for Inactive)
REMARK    1  A    between atoms: C2_2  and  N5_5 
REMARK    2  A    between atoms: N5_5  and  C8_8 
REMARK    3  A    between atoms: C8_8  and  C9_9 
REMARK    4  A    between atoms: C9_9  and  O11_10 
REMARK    5  A    between atoms: C9_9  and  C12_11 
REMARK    6  A    between atoms: C12_11  and  O13_12 
REMARK    7  A    between atoms: O13_12  and  C14_13 
ROOT
ATOM      1  C12 ZIN A   1      19.624  -0.675  12.437  0.00  0.00     0.209 C 
ENDROOT
BRANCH   1   2
ATOM      2  C9  ZIN A   1      20.331   0.659  12.687  0.00  0.00     0.168 C 
BRANCH   2   3
ATOM      3  C8  ZIN A   1      19.554   1.784  12.000  0.00  0.00     0.267 C 
BRANCH   3   4
ATOM      4  N5  ZIN A   1      19.932   1.845  10.582  0.00  0.00    -0.065 N 
ATOM      5  H6  ZIN A   1      20.310   0.954  10.295  0.00  0.00     0.278 HD
ATOM      6  H7  ZIN A   1      20.627   2.564  10.449  0.00  0.00     0.278 HD
BRANCH   4   7
ATOM      7  C2  ZIN A   1      18.746   2.156   9.772  0.00  0.00     0.115 C 
ATOM      8  C1  ZIN A   1      19.085   1.997   8.289  0.00  0.00     0.045 C 
ATOM      9  C3  ZIN A   1      18.306   3.596  10.044  0.00  0.00     0.045 C 
ATOM     10  C4  ZIN A   1      17.611   1.198  10.141  0.00  0.00     0.045 C 
ENDBRANCH   4   7
ENDBRANCH   3   4
ENDBRANCH   2   3
BRANCH   2  11
ATOM     11  O11 ZIN A   1      21.657   0.603  12.156  0.00  0.00    -0.392 OA
ATOM     12  H36 ZIN A   1      21.822  -0.164  11.590  0.00  0.00     0.210 HD
ENDBRANCH   2  11
ENDBRANCH   1   2
BRANCH   1  13
ATOM     13  O13 ZIN A   1      20.007  -1.185  11.158  0.00  0.00    -0.348 OA
BRANCH  13  14
ATOM     14  C14 ZIN A   1      19.582  -2.436  10.841  0.00  0.00     0.076 A 
ATOM     15  C19 ZIN A   1      19.217  -2.731   9.534  0.00  0.00    -0.011 A 
ATOM     16  C18 ZIN A   1      18.791  -4.022   9.221  0.00  0.00     0.019 A 
ATOM     17  C20 ZIN A   1      19.296  -1.652   8.490  0.00  0.00     0.043 C 
ATOM     18  C17 ZIN A   1      18.717  -4.999  10.218  0.00  0.00     0.016 A 
ATOM     19  C23 ZIN A   1      18.414  -4.361   7.835  0.00  0.00     0.160 C 
ATOM     20  C16 ZIN A   1      19.075  -4.688  11.514  0.00  0.00     0.004 A 
ATOM     21  C15 ZIN A   1      19.507  -3.411  11.824  0.00  0.00     0.037 A 
ATOM     22  C22 ZIN A   1      18.259  -3.222   6.849  0.00  0.00     0.084 C 
ATOM     23  O24 ZIN A   1      18.240  -5.513   7.496  0.00  0.00    -0.292 OA
ATOM     24  C21 ZIN A   1      19.416  -2.244   7.089  0.00  0.00     0.012 C 
ENDBRANCH  13  14
ENDBRANCH   1  13
TORSDOF 7
ENDMDL
MODEL 7
REMARK VINA RESULT:      -7.0      4.029      8.115
REMARK  7 active torsions:
REMARK  status: ('A' for Active; 'I' for Inactive)
REMARK    1  A    between atoms: C2_2  and  N5_5 
REMARK    2  A    between atoms: N5_5  and  C8_8 
REMARK    3  A    between atoms: C8_8  and  C9_9 
REMARK    4  A    between atoms: C9_9  and  O11_10 
REMARK    5  A    between atoms: C9_9  and  C12_11 
REMARK    6  A    between atoms: C12_11  and  O13_12 
REMARK    7  A    between atoms: O13_12  and  C14_13 
ROOT
ATOM      1  C12 ZIN A   1      18.494  -3.346  11.027  0.00  0.00     0.209 C 
ENDROOT
BRANCH   1   2
ATOM      2  C9  ZIN A   1      19.588  -2.835  11.966  0.00  0.00     0.168 C 
BRANCH   2   3
ATOM      3  C8  ZIN A   1      19.459  -1.318  12.120  0.00  0.00     0.267 C 
BRANCH   3   4
ATOM      4  N5  ZIN A   1      19.971  -0.916  13.437  0.00  0.00    -0.065 N 
ATOM      5  H6  ZIN A   1      20.700  -0.228  13.320  0.00  0.00     0.278 HD
ATOM      6  H7  ZIN A   1      20.343  -1.722  13.914  0.00  0.00     0.278 HD
BRANCH   4   7
ATOM      7  C2  ZIN A   1      18.877  -0.339  14.232  0.00  0.00     0.115 C 
ATOM      8  C1  ZIN A   1      18.530  -1.284  15.384  0.00  0.00     0.045 C 
ATOM      9  C3  ZIN A   1      17.647  -0.145  13.342  0.00  0.00     0.045 C 
ATOM     10  C4  ZIN A   1      19.316   1.014  14.796  0.00  0.00     0.045 C 
ENDBRANCH   4   7
ENDBRANCH   3   4
ENDBRANCH   2   3
BRANCH   2  11
ATOM     11  O11 ZIN A   1      20.871  -3.151  11.421  0.00  0.00    -0.392 OA
ATOM     12  H36 ZIN A   1      21.442  -3.647  12.024  0.00  0.00     0.210 HD
ENDBRANCH   2  11
ENDBRANCH   1   2
BRANCH   1  13
ATOM     13  O13 ZIN A   1      18.221  -2.359  10.030  0.00  0.00    -0.348 OA
BRANCH  13  14
ATOM     14  C14 ZIN A   1      18.657  -2.618   8.770  0.00  0.00     0.076 A 
ATOM     15  C19 ZIN A   1      18.733  -1.590   7.840  0.00  0.00    -0.011 A 
ATOM     16  C18 ZIN A   1      19.191  -1.868   6.552  0.00  0.00     0.019 A 
ATOM     17  C20 ZIN A   1      18.320  -0.201   8.247  0.00  0.00     0.043 C 
ATOM     18  C17 ZIN A   1      19.555  -3.172   6.203  0.00  0.00     0.016 A 
ATOM     19  C23 ZIN A   1      19.294  -0.787   5.553  0.00  0.00     0.160 C 
ATOM     20  C16 ZIN A   1      19.467  -4.184   7.135  0.00  0.00     0.004 A 
ATOM     21  C15 ZIN A   1      19.021  -3.908   8.415  0.00  0.00     0.037 A 
ATOM     22  C22 ZIN A   1      18.652   0.543   5.887  0.00  0.00     0.084 C 
ATOM     23  O24 ZIN A   1      19.878  -0.956   4.503  0.00  0.00    -0.292 OA
ATOM     24  C21 ZIN A   1      18.970   0.853   7.355  0.00  0.00     0.012 C 
ENDBRANCH  13  14
ENDBRANCH   1  13
TORSDOF 7
ENDMDL
MODEL 8
REMARK VINA RESULT:      -6.8      3.990      7.079
REMARK  7 active torsions:
REMARK  status: ('A' for Active; 'I' for Inactive)
REMARK    1  A    between atoms: C2_2  and  N5_5 
REMARK    2  A    between atoms: N5_5  and  C8_8 
REMARK    3  A    between atoms: C8_8  and  C9_9 
REMARK    4  A    between atoms: C9_9  and  O11_10 
REMARK    5  A    between atoms: C9_9  and  C12_11 
REMARK    6  A    between atoms: C12_11  and  O13_12 
REMARK    7  A    between atoms: O13_12  and  C14_13 
ROOT
ATOM      1  C12 ZIN A   1      19.268  -1.789   7.141  0.00  0.00     0.209 C 
ENDROOT
BRANCH   1   2
ATOM      2  C9  ZIN A   1      19.232  -3.318   7.086  0.00  0.00     0.168 C 
BRANCH   2   3
ATOM      3  C8  ZIN A   1      18.762  -3.865   8.436  0.00  0.00     0.267 C 
BRANCH   3   4
ATOM      4  N5  ZIN A   1      17.299  -3.997   8.427  0.00  0.00    -0.065 N 
ATOM      5  H6  ZIN A   1      16.976  -4.108   7.477  0.00  0.00     0.278 HD
ATOM      6  H7  ZIN A   1      16.884  -3.170   8.829  0.00  0.00     0.278 HD
BRANCH   4   7
ATOM      7  C2  ZIN A   1      16.909  -5.174   9.216  0.00  0.00     0.115 C 
ATOM      8  C1  ZIN A   1      15.543  -5.675   8.743  0.00  0.00     0.045 C 
ATOM      9  C3  ZIN A   1      16.828  -4.792  10.696  0.00  0.00     0.045 C 
ATOM     10  C4  ZIN A   1      17.950  -6.279   9.032  0.00  0.00     0.045 C 
ENDBRANCH   4   7
ENDBRANCH   3   4
ENDBRANCH   2   3
BRANCH   2  11
ATOM     11  O11 ZIN A   1      20.540  -3.816   6.799  0.00  0.00    -0.392 OA
ATOM     12  H36 ZIN A   1      20.674  -4.058   5.872  0.00  0.00     0.210 HD
ENDBRANCH   2  11
ENDBRANCH   1   2
BRANCH   1  13
ATOM     13  O13 ZIN A   1      18.189  -1.316   7.950  0.00  0.00    -0.348 OA
BRANCH  13  14
ATOM     14  C14 ZIN A   1      18.348  -0.103   8.542  0.00  0.00     0.076 A 
ATOM     15  C19 ZIN A   1      17.990   0.069   9.872  0.00  0.00    -0.011 A 
ATOM     16  C18 ZIN A   1      18.167   1.316  10.470  0.00  0.00     0.019 A 
ATOM     17  C20 ZIN A   1      17.422  -1.097  10.635  0.00  0.00     0.043 C 
ATOM     18  C17 ZIN A   1      18.686   2.383   9.729  0.00  0.00     0.016 A 
ATOM     19  C23 ZIN A   1      17.807   1.517  11.887  0.00  0.00     0.160 C 
ATOM     20  C16 ZIN A   1      19.030   2.199   8.406  0.00  0.00     0.004 A 
ATOM     21  C15 ZIN A   1      18.862   0.959   7.815  0.00  0.00     0.037 A 
ATOM     22  C22 ZIN A   1      17.015   0.424  12.573  0.00  0.00     0.084 C 
ATOM     23  O24 ZIN A   1      18.140   2.520  12.483  0.00  0.00    -0.292 OA
ATOM     24  C21 ZIN A   1      17.613  -0.921  12.138  0.00  0.00     0.012 C 
ENDBRANCH  13  14
ENDBRANCH   1  13
TORSDOF 7
ENDMDL
MODEL 9
REMARK VINA RESULT:      -6.8      1.649      3.431
REMARK  7 active torsions:
REMARK  status: ('A' for Active; 'I' for Inactive)
REMARK    1  A    between atoms: C2_2  and  N5_5 
REMARK    2  A    between atoms: N5_5  and  C8_8 
REMARK    3  A    between atoms: C8_8  and  C9_9 
REMARK    4  A    between atoms: C9_9  and  O11_10 
REMARK    5  A    between atoms: C9_9  and  C12_11 
REMARK    6  A    between atoms: C12_11  and  O13_12 
REMARK    7  A    between atoms: O13_12  and  C14_13 
ROOT
ATOM      1  C12 ZIN A   1      19.020   1.629  12.140  0.00  0.00     0.209 C 
ENDROOT
BRANCH   1   2
ATOM      2  C9  ZIN A   1      19.399   2.843  11.290  0.00  0.00     0.168 C 
BRANCH   2   3
ATOM      3  C8  ZIN A   1      19.032   2.577   9.828  0.00  0.00     0.267 C 
BRANCH   3   4
ATOM      4  N5  ZIN A   1      18.185   1.379   9.748  0.00  0.00    -0.065 N 
ATOM      5  H6  ZIN A   1      17.217   1.656   9.671  0.00  0.00     0.278 HD
ATOM      6  H7  ZIN A   1      18.311   0.822  10.578  0.00  0.00     0.278 HD
BRANCH   4   7
ATOM      7  C2  ZIN A   1      18.563   0.591   8.567  0.00  0.00     0.115 C 
ATOM      8  C1  ZIN A   1      19.132   1.521   7.493  0.00  0.00     0.045 C 
ATOM      9  C3  ZIN A   1      17.329  -0.128   8.017  0.00  0.00     0.045 C 
ATOM     10  C4  ZIN A   1      19.621  -0.441   8.961  0.00  0.00     0.045 C 
ENDBRANCH   4   7
ENDBRANCH   3   4
ENDBRANCH   2   3
BRANCH   2  11
ATOM     11  O11 ZIN A   1      20.805   3.079  11.394  0.00  0.00    -0.392 OA
ATOM     12  H36 ZIN A   1      21.337   2.272  11.421  0.00  0.00     0.210 HD
ENDBRANCH   2  11
ENDBRANCH   1   2
BRANCH   1  13
ATOM     13  O13 ZIN A   1      18.038   2.010  13.106  0.00  0.00    -0.348 OA
BRANCH  13  14
ATOM     14  C14 ZIN A   1      18.491   2.387  14.330  0.00  0.00     0.076 A 
ATOM     15  C19 ZIN A   1      18.602   1.447  15.345  0.00  0.00    -0.011 A 
ATOM     16  C18 ZIN A   1      19.078   1.846  16.595  0.00  0.00     0.019 A 
ATOM     17  C20 ZIN A   1      18.209   0.021  15.070  0.00  0.00     0.043 C 
ATOM     18  C17 ZIN A   1      19.422   3.182  16.821  0.00  0.00     0.016 A 
ATOM     19  C23 ZIN A   1      19.218   0.859  17.684  0.00  0.00     0.160 C 
ATOM     20  C16 ZIN A   1      19.299   4.106  15.805  0.00  0.00     0.004 A 
ATOM     21  C15 ZIN A   1      18.836   3.709  14.563  0.00  0.00     0.037 A 
ATOM     22  C22 ZIN A   1      18.596  -0.507  17.480  0.00  0.00     0.084 C 
ATOM     23  O24 ZIN A   1      19.816   1.131  18.703  0.00  0.00    -0.292 OA
ATOM     24  C21 ZIN A   1      18.894  -0.939  16.039  0.00  0.00     0.012 C 
ENDBRANCH  13  14
ENDBRANCH   1  13
TORSDOF 7
ENDMDL
