MODEL 1
REMARK VINA RESULT:      -8.4      0.000      0.000
REMARK  20 active torsions:
REMARK  status: ('A' for Active; 'I' for Inactive)
REMARK    1  A    between atoms: C2_2  and  C3_3 
REMARK    2  A    between atoms: C2_2  and  O12_12 
REMARK    3  A    between atoms: C3_3  and  C4_4 
REMARK    4  A    between atoms: C4_4  and  C5_5 
REMARK    5  A    between atoms: C5_5  and  C6_6 
REMARK    6  A    between atoms: O12_12  and  C13_13 
REMARK    7  A    between atoms: C13_13  and  C14_14 
REMARK    8  A    between atoms: C14_14  and  C15_15 
REMARK    9  A    between atoms: C14_14  and  O28_28 
REMARK   10  A    between atoms: C15_15  and  O16_16 
REMARK   11  A    between atoms: O16_16  and  C17_17 
REMARK   12  A    between atoms: C17_17  and  C19_19 
REMARK   13  A    between atoms: C19_19  and  C20_20 
REMARK   14  A    between atoms: C20_20  and  C21_21 
REMARK   15  A    between atoms: C21_21  and  C22_22 
REMARK   16  A    between atoms: O28_28  and  C29_29 
REMARK   17  A    between atoms: C29_29  and  C31_31 
REMARK   18  A    between atoms: C31_31  and  C32_32 
REMARK   19  A    between atoms: C32_32  and  C33_33 
REMARK   20  A    between atoms: C33_33  and  C34_34 
ROOT
ATOM      1  C14 ZIN A   1      18.460   3.600  13.455  0.00  0.00     0.180 C 
ENDROOT
BRANCH   1   2
ATOM      2  C13 ZIN A   1      17.375   4.210  12.564  0.00  0.00     0.213 C 
BRANCH   2   3
ATOM      3  O12 ZIN A   1      17.159   3.355  11.411  0.00  0.00    -0.319 OA
BRANCH   3   4
ATOM      4  C2  ZIN A   1      18.034   3.465  10.398  0.00  0.00     0.258 C 
ATOM      5  O1  ZIN A   1      17.936   4.377   9.612  0.00  0.00    -0.265 OA
BRANCH   4   6
ATOM      6  C3  ZIN A   1      19.142   2.455  10.247  0.00  0.00     0.111 C 
BRANCH   6   7
ATOM      7  C4  ZIN A   1      19.190   1.963   8.799  0.00  0.00     0.014 C 
BRANCH   7   8
ATOM      8  C5  ZIN A   1      18.201   0.811   8.618  0.00  0.00     0.039 C 
BRANCH   8   9
ATOM      9  C6  ZIN A   1      18.538   0.051   7.360  0.00  0.00    -0.058 A 
ATOM     10  C11 ZIN A   1      18.360   0.645   6.125  0.00  0.00     0.007 A 
ATOM     11  C10 ZIN A   1      18.673  -0.051   4.973  0.00  0.00     0.001 A 
ATOM     12  C9  ZIN A   1      19.158  -1.343   5.055  0.00  0.00     0.000 A 
ATOM     13  C8  ZIN A   1      19.332  -1.938   6.290  0.00  0.00     0.001 A 
ATOM     14  C7  ZIN A   1      19.022  -1.242   7.443  0.00  0.00     0.007 A 
ENDBRANCH   8   9
ENDBRANCH   7   8
ENDBRANCH   6   7
ENDBRANCH   4   6
ENDBRANCH   3   4
ENDBRANCH   2   3
ENDBRANCH   1   2
BRANCH   1  15
ATOM     15  C15 ZIN A   1      18.960   4.656  14.443  0.00  0.00     0.213 C 
BRANCH  15  16
ATOM     16  O16 ZIN A   1      18.269   4.498  15.710  0.00  0.00    -0.319 OA
BRANCH  16  17
ATOM     17  C17 ZIN A   1      19.007   4.113  16.763  0.00  0.00     0.258 C 
ATOM     18  O18 ZIN A   1      20.182   3.867  16.620  0.00  0.00    -0.265 OA
BRANCH  17  19
ATOM     19  C19 ZIN A   1      18.371   3.986  18.123  0.00  0.00     0.111 C 
BRANCH  19  20
ATOM     20  C20 ZIN A   1      18.813   2.674  18.773  0.00  0.00     0.014 C 
BRANCH  20  21
ATOM     21  C21 ZIN A   1      17.633   1.700  18.807  0.00  0.00     0.039 C 
BRANCH  21  22
ATOM     22  C22 ZIN A   1      17.969   0.476  17.994  0.00  0.00    -0.058 A 
ATOM     23  C27 ZIN A   1      19.224  -0.094  18.088  0.00  0.00     0.007 A 
ATOM     24  C26 ZIN A   1      19.530  -1.220  17.346  0.00  0.00     0.001 A 
ATOM     25  C25 ZIN A   1      18.584  -1.769  16.502  0.00  0.00     0.000 A 
ATOM     26  C24 ZIN A   1      17.330  -1.196  16.403  0.00  0.00     0.001 A 
ATOM     27  C23 ZIN A   1      17.022  -0.074  17.149  0.00  0.00     0.007 A 
ENDBRANCH  21  22
ENDBRANCH  20  21
ENDBRANCH  19  20
ENDBRANCH  17  19
ENDBRANCH  16  17
ENDBRANCH  15  16
ENDBRANCH   1  15
BRANCH   1  28
ATOM     28  O28 ZIN A   1      17.908   2.475  14.187  0.00  0.00    -0.312 OA
BRANCH  28  29
ATOM     29  C29 ZIN A   1      18.529   1.293  14.045  0.00  0.00     0.259 C 
ATOM     30  O30 ZIN A   1      19.568   1.083  14.626  0.00  0.00    -0.265 OA
BRANCH  29  31
ATOM     31  C31 ZIN A   1      17.930   0.228  13.163  0.00  0.00     0.111 C 
BRANCH  31  32
ATOM     32  C32 ZIN A   1      19.049  -0.538  12.456  0.00  0.00     0.014 C 
BRANCH  32  33
ATOM     33  C33 ZIN A   1      19.057  -1.990  12.939  0.00  0.00     0.039 C 
BRANCH  33  34
ATOM     34  C34 ZIN A   1      18.915  -2.914  11.757  0.00  0.00    -0.058 A 
ATOM     35  C39 ZIN A   1      19.899  -3.844  11.484  0.00  0.00     0.007 A 
ATOM     36  C38 ZIN A   1      19.767  -4.694  10.402  0.00  0.00     0.001 A 
ATOM     37  C37 ZIN A   1      18.654  -4.607   9.587  0.00  0.00     0.000 A 
ATOM     38  C36 ZIN A   1      17.671  -3.673   9.857  0.00  0.00     0.001 A 
ATOM     39  C35 ZIN A   1      17.802  -2.825  10.941  0.00  0.00     0.007 A 
ENDBRANCH  33  34
ENDBRANCH  32  33
ENDBRANCH  31  32
ENDBRANCH  29  31
ENDBRANCH  28  29
ENDBRANCH   1  28
TORSDOF 20
ENDMDL
MODEL 2
REMARK VINA RESULT:      -8.3      3.126      7.223
REMARK  20 active torsions:
REMARK  status: ('A' for Active; 'I' for Inactive)
REMARK    1  A    between atoms: C2_2  and  C3_3 
REMARK    2  A    between atoms: C2_2  and  O12_12 
REMARK    3  A    between atoms: C3_3  and  C4_4 
REMARK    4  A    between atoms: C4_4  and  C5_5 
REMARK    5  A    between atoms: C5_5  and  C6_6 
REMARK    6  A    between atoms: O12_12  and  C13_13 
REMARK    7  A    between atoms: C13_13  and  C14_14 
REMARK    8  A    between atoms: C14_14  and  C15_15 
REMARK    9  A    between atoms: C14_14  and  O28_28 
REMARK   10  A    between atoms: C15_15  and  O16_16 
REMARK   11  A    between atoms: O16_16  and  C17_17 
REMARK   12  A    between atoms: C17_17  and  C19_19 
REMARK   13  A    between atoms: C19_19  and  C20_20 
REMARK   14  A    between atoms: C20_20  and  C21_21 
REMARK   15  A    between atoms: C21_21  and  C22_22 
REMARK   16  A    between atoms: O28_28  and  C29_29 
REMARK   17  A    between atoms: C29_29  and  C31_31 
REMARK   18  A    between atoms: C31_31  and  C32_32 
REMARK   19  A    between atoms: C32_32  and  C33_33 
REMARK   20  A    between atoms: C33_33  and  C34_34 
ROOT
ATOM      1  C14 ZIN A   1      16.326   6.892  16.501  0.00  0.00     0.180 C 
ENDROOT
BRANCH   1   2
ATOM      2  C13 ZIN A   1      15.600   6.535  17.801  0.00  0.00     0.213 C 
BRANCH   2   3
ATOM      3  O12 ZIN A   1      16.537   5.924  18.727  0.00  0.00    -0.319 OA
BRANCH   3   4
ATOM      4  C2  ZIN A   1      16.132   4.810  19.358  0.00  0.00     0.258 C 
ATOM      5  O1  ZIN A   1      14.972   4.679  19.666  0.00  0.00    -0.265 OA
BRANCH   4   6
ATOM      6  C3  ZIN A   1      17.124   3.722  19.675  0.00  0.00     0.111 C 
BRANCH   6   7
ATOM      7  C4  ZIN A   1      17.560   3.034  18.379  0.00  0.00     0.014 C 
BRANCH   7   8
ATOM      8  C5  ZIN A   1      18.699   2.059  18.678  0.00  0.00     0.039 C 
BRANCH   8   9
ATOM      9  C6  ZIN A   1      18.449   0.758  17.957  0.00  0.00    -0.058 A 
ATOM     10  C11 ZIN A   1      17.200   0.489  17.431  0.00  0.00     0.007 A 
ATOM     11  C10 ZIN A   1      16.972  -0.702  16.768  0.00  0.00     0.001 A 
ATOM     12  C9  ZIN A   1      17.991  -1.627  16.638  0.00  0.00     0.000 A 
ATOM     13  C8  ZIN A   1      19.239  -1.360  17.168  0.00  0.00     0.001 A 
ATOM     14  C7  ZIN A   1      19.468  -0.168  17.829  0.00  0.00     0.007 A 
ENDBRANCH   8   9
ENDBRANCH   7   8
ENDBRANCH   6   7
ENDBRANCH   4   6
ENDBRANCH   3   4
ENDBRANCH   2   3
ENDBRANCH   1   2
BRANCH   1  15
ATOM     15  C15 ZIN A   1      17.777   7.262  16.814  0.00  0.00     0.213 C 
BRANCH  15  16
ATOM     16  O16 ZIN A   1      18.579   7.130  15.612  0.00  0.00    -0.319 OA
BRANCH  16  17
ATOM     17  C17 ZIN A   1      19.542   6.195  15.621  0.00  0.00     0.258 C 
ATOM     18  O18 ZIN A   1      20.423   6.243  16.448  0.00  0.00    -0.265 OA
BRANCH  17  19
ATOM     19  C19 ZIN A   1      19.526   5.085  14.602  0.00  0.00     0.111 C 
BRANCH  19  20
ATOM     20  C20 ZIN A   1      19.300   3.747  15.307  0.00  0.00     0.014 C 
BRANCH  20  21
ATOM     21  C21 ZIN A   1      18.017   3.103  14.779  0.00  0.00     0.039 C 
BRANCH  21  22
ATOM     22  C22 ZIN A   1      18.330   1.732  14.235  0.00  0.00    -0.058 A 
ATOM     23  C27 ZIN A   1      19.593   1.195  14.400  0.00  0.00     0.007 A 
ATOM     24  C26 ZIN A   1      19.878  -0.064  13.906  0.00  0.00     0.001 A 
ATOM     25  C25 ZIN A   1      18.904  -0.781  13.237  0.00  0.00     0.000 A 
ATOM     26  C24 ZIN A   1      17.643  -0.242  13.068  0.00  0.00     0.001 A 
ATOM     27  C23 ZIN A   1      17.355   1.014  13.567  0.00  0.00     0.007 A 
ENDBRANCH  21  22
ENDBRANCH  20  21
ENDBRANCH  19  20
ENDBRANCH  17  19
ENDBRANCH  16  17
ENDBRANCH  15  16
ENDBRANCH   1  15
BRANCH   1  28
ATOM     28  O28 ZIN A   1      16.300   5.750  15.604  0.00  0.00    -0.312 OA
BRANCH  28  29
ATOM     29  C29 ZIN A   1      15.670   5.914  14.430  0.00  0.00     0.259 C 
ATOM     30  O30 ZIN A   1      14.465   5.851  14.377  0.00  0.00    -0.265 OA
BRANCH  29  31
ATOM     31  C31 ZIN A   1      16.468   6.177  13.178  0.00  0.00     0.111 C 
BRANCH  31  32
ATOM     32  C32 ZIN A   1      16.256   5.030  12.188  0.00  0.00     0.014 C 
BRANCH  32  33
ATOM     33  C33 ZIN A   1      17.205   5.200  11.000  0.00  0.00     0.039 C 
BRANCH  33  34
ATOM     34  C34 ZIN A   1      18.078   3.978  10.876  0.00  0.00    -0.058 A 
ATOM     35  C39 ZIN A   1      17.602   2.850  10.234  0.00  0.00     0.007 A 
ATOM     36  C38 ZIN A   1      18.404   1.731  10.116  0.00  0.00     0.001 A 
ATOM     37  C37 ZIN A   1      19.680   1.736  10.648  0.00  0.00     0.000 A 
ATOM     38  C36 ZIN A   1      20.155   2.862  11.294  0.00  0.00     0.001 A 
ATOM     39  C35 ZIN A   1      19.353   3.983  11.409  0.00  0.00     0.007 A 
ENDBRANCH  33  34
ENDBRANCH  32  33
ENDBRANCH  31  32
ENDBRANCH  29  31
ENDBRANCH  28  29
ENDBRANCH   1  28
TORSDOF 20
ENDMDL
MODEL 3
REMARK VINA RESULT:      -8.2      1.144      5.902
REMARK  20 active torsions:
REMARK  status: ('A' for Active; 'I' for Inactive)
REMARK    1  A    between atoms: C2_2  and  C3_3 
REMARK    2  A    between atoms: C2_2  and  O12_12 
REMARK    3  A    between atoms: C3_3  and  C4_4 
REMARK    4  A    between atoms: C4_4  and  C5_5 
REMARK    5  A    between atoms: C5_5  and  C6_6 
REMARK    6  A    between atoms: O12_12  and  C13_13 
REMARK    7  A    between atoms: C13_13  and  C14_14 
REMARK    8  A    between atoms: C14_14  and  C15_15 
REMARK    9  A    between atoms: C14_14  and  O28_28 
REMARK   10  A    between atoms: C15_15  and  O16_16 
REMARK   11  A    between atoms: O16_16  and  C17_17 
REMARK   12  A    between atoms: C17_17  and  C19_19 
REMARK   13  A    between atoms: C19_19  and  C20_20 
REMARK   14  A    between atoms: C20_20  and  C21_21 
REMARK   15  A    between atoms: C21_21  and  C22_22 
REMARK   16  A    between atoms: O28_28  and  C29_29 
REMARK   17  A    between atoms: C29_29  and  C31_31 
REMARK   18  A    between atoms: C31_31  and  C32_32 
REMARK   19  A    between atoms: C32_32  and  C33_33 
REMARK   20  A    between atoms: C33_33  and  C34_34 
ROOT
ATOM      1  C14 ZIN A   1      18.212   2.906  14.496  0.00  0.00     0.180 C 
ENDROOT
BRANCH   1   2
ATOM      2  C13 ZIN A   1      18.563   3.735  13.258  0.00  0.00     0.213 C 
BRANCH   2   3
ATOM      3  O12 ZIN A   1      17.386   3.875  12.420  0.00  0.00    -0.319 OA
BRANCH   3   4
ATOM      4  C2  ZIN A   1      17.560   3.735  11.096  0.00  0.00     0.258 C 
ATOM      5  O1  ZIN A   1      17.604   4.711  10.386  0.00  0.00    -0.265 OA
BRANCH   4   6
ATOM      6  C3  ZIN A   1      17.707   2.360  10.497  0.00  0.00     0.111 C 
BRANCH   6   7
ATOM      7  C4  ZIN A   1      19.149   2.161  10.025  0.00  0.00     0.014 C 
BRANCH   7   8
ATOM      8  C5  ZIN A   1      19.180   2.082   8.497  0.00  0.00     0.039 C 
BRANCH   8   9
ATOM      9  C6  ZIN A   1      18.945   0.658   8.063  0.00  0.00    -0.058 A 
ATOM     10  C11 ZIN A   1      19.430  -0.387   8.826  0.00  0.00     0.007 A 
ATOM     11  C10 ZIN A   1      19.211  -1.693   8.429  0.00  0.00     0.001 A 
ATOM     12  C9  ZIN A   1      18.513  -1.953   7.264  0.00  0.00     0.000 A 
ATOM     13  C8  ZIN A   1      18.031  -0.908   6.500  0.00  0.00     0.001 A 
ATOM     14  C7  ZIN A   1      18.247   0.397   6.898  0.00  0.00     0.007 A 
ENDBRANCH   8   9
ENDBRANCH   7   8
ENDBRANCH   6   7
ENDBRANCH   4   6
ENDBRANCH   3   4
ENDBRANCH   2   3
ENDBRANCH   1   2
BRANCH   1  15
ATOM     15  C15 ZIN A   1      17.669   1.544  14.059  0.00  0.00     0.213 C 
BRANCH  15  16
ATOM     16  O16 ZIN A   1      18.774   0.678  13.692  0.00  0.00    -0.319 OA
BRANCH  16  17
ATOM     17  C17 ZIN A   1      18.478  -0.416  12.972  0.00  0.00     0.258 C 
ATOM     18  O18 ZIN A   1      17.330  -0.654  12.678  0.00  0.00    -0.265 OA
BRANCH  17  19
ATOM     19  C19 ZIN A   1      19.577  -1.349  12.531  0.00  0.00     0.111 C 
BRANCH  19  20
ATOM     20  C20 ZIN A   1      19.014  -2.762  12.372  0.00  0.00     0.014 C 
BRANCH  20  21
ATOM     21  C21 ZIN A   1      19.987  -3.610  11.551  0.00  0.00     0.039 C 
BRANCH  21  22
ATOM     22  C22 ZIN A   1      19.213  -4.604  10.724  0.00  0.00    -0.058 A 
ATOM     23  C27 ZIN A   1      19.808  -5.206   9.631  0.00  0.00     0.007 A 
ATOM     24  C26 ZIN A   1      19.100  -6.122   8.876  0.00  0.00     0.001 A 
ATOM     25  C25 ZIN A   1      17.793  -6.427   9.206  0.00  0.00     0.000 A 
ATOM     26  C24 ZIN A   1      17.196  -5.821  10.295  0.00  0.00     0.001 A 
ATOM     27  C23 ZIN A   1      17.906  -4.909  11.054  0.00  0.00     0.007 A 
ENDBRANCH  21  22
ENDBRANCH  20  21
ENDBRANCH  19  20
ENDBRANCH  17  19
ENDBRANCH  16  17
ENDBRANCH  15  16
ENDBRANCH   1  15
BRANCH   1  28
ATOM     28  O28 ZIN A   1      19.403   2.715  15.304  0.00  0.00    -0.312 OA
BRANCH  28  29
ATOM     29  C29 ZIN A   1      19.530   3.489  16.393  0.00  0.00     0.259 C 
ATOM     30  O30 ZIN A   1      20.579   4.043  16.622  0.00  0.00    -0.265 OA
BRANCH  29  31
ATOM     31  C31 ZIN A   1      18.362   3.669  17.329  0.00  0.00     0.111 C 
BRANCH  31  32
ATOM     32  C32 ZIN A   1      18.637   2.922  18.636  0.00  0.00     0.014 C 
BRANCH  32  33
ATOM     33  C33 ZIN A   1      17.571   1.843  18.840  0.00  0.00     0.039 C 
BRANCH  33  34
ATOM     34  C34 ZIN A   1      17.925   0.627  18.022  0.00  0.00    -0.058 A 
ATOM     35  C39 ZIN A   1      16.966   0.022  17.232  0.00  0.00     0.007 A 
ATOM     36  C38 ZIN A   1      17.291  -1.090  16.479  0.00  0.00     0.001 A 
ATOM     37  C37 ZIN A   1      18.574  -1.603  16.523  0.00  0.00     0.000 A 
ATOM     38  C36 ZIN A   1      19.532  -1.001  17.316  0.00  0.00     0.001 A 
ATOM     39  C35 ZIN A   1      19.208   0.114  18.067  0.00  0.00     0.007 A 
ENDBRANCH  33  34
ENDBRANCH  32  33
ENDBRANCH  31  32
ENDBRANCH  29  31
ENDBRANCH  28  29
ENDBRANCH   1  28
TORSDOF 20
ENDMDL
MODEL 4
REMARK VINA RESULT:      -8.2      1.338      6.611
REMARK  20 active torsions:
REMARK  status: ('A' for Active; 'I' for Inactive)
REMARK    1  A    between atoms: C2_2  and  C3_3 
REMARK    2  A    between atoms: C2_2  and  O12_12 
REMARK    3  A    between atoms: C3_3  and  C4_4 
REMARK    4  A    between atoms: C4_4  and  C5_5 
REMARK    5  A    between atoms: C5_5  and  C6_6 
REMARK    6  A    between atoms: O12_12  and  C13_13 
REMARK    7  A    between atoms: C13_13  and  C14_14 
REMARK    8  A    between atoms: C14_14  and  C15_15 
REMARK    9  A    between atoms: C14_14  and  O28_28 
REMARK   10  A    between atoms: C15_15  and  O16_16 
REMARK   11  A    between atoms: O16_16  and  C17_17 
REMARK   12  A    between atoms: C17_17  and  C19_19 
REMARK   13  A    between atoms: C19_19  and  C20_20 
REMARK   14  A    between atoms: C20_20  and  C21_21 
REMARK   15  A    between atoms: C21_21  and  C22_22 
REMARK   16  A    between atoms: O28_28  and  C29_29 
REMARK   17  A    between atoms: C29_29  and  C31_31 
REMARK   18  A    between atoms: C31_31  and  C32_32 
REMARK   19  A    between atoms: C32_32  and  C33_33 
REMARK   20  A    between atoms: C33_33  and  C34_34 
ROOT
ATOM      1  C14 ZIN A   1      18.600   4.094  15.094  0.00  0.00     0.180 C 
ENDROOT
BRANCH   1   2
ATOM      2  C13 ZIN A   1      18.419   2.575  15.119  0.00  0.00     0.213 C 
BRANCH   2   3
ATOM      3  O12 ZIN A   1      19.613   1.936  14.596  0.00  0.00    -0.319 OA
BRANCH   3   4
ATOM      4  C2  ZIN A   1      19.435   0.889  13.775  0.00  0.00     0.258 C 
ATOM      5  O1  ZIN A   1      20.390   0.265  13.377  0.00  0.00    -0.265 OA
BRANCH   4   6
ATOM      6  C3  ZIN A   1      18.045   0.487  13.356  0.00  0.00     0.111 C 
BRANCH   6   7
ATOM      7  C4  ZIN A   1      17.957  -1.039  13.276  0.00  0.00     0.014 C 
BRANCH   7   8
ATOM      8  C5  ZIN A   1      17.375  -1.445  11.921  0.00  0.00     0.039 C 
BRANCH   8   9
ATOM      9  C6  ZIN A   1      18.116  -2.649  11.396  0.00  0.00    -0.058 A 
ATOM     10  C11 ZIN A   1      17.496  -3.513  10.515  0.00  0.00     0.007 A 
ATOM     11  C10 ZIN A   1      18.178  -4.614  10.031  0.00  0.00     0.001 A 
ATOM     12  C9  ZIN A   1      19.478  -4.854  10.436  0.00  0.00     0.000 A 
ATOM     13  C8  ZIN A   1      20.096  -3.992  11.321  0.00  0.00     0.001 A 
ATOM     14  C7  ZIN A   1      19.416  -2.890  11.802  0.00  0.00     0.007 A 
ENDBRANCH   8   9
ENDBRANCH   7   8
ENDBRANCH   6   7
ENDBRANCH   4   6
ENDBRANCH   3   4
ENDBRANCH   2   3
ENDBRANCH   1   2
BRANCH   1  15
ATOM     15  C15 ZIN A   1      18.487   4.598  13.654  0.00  0.00     0.213 C 
BRANCH  15  16
ATOM     16  O16 ZIN A   1      17.257   4.102  13.064  0.00  0.00    -0.319 OA
BRANCH  16  17
ATOM     17  C17 ZIN A   1      17.067   4.343  11.757  0.00  0.00     0.258 C 
ATOM     18  O18 ZIN A   1      16.079   4.935  11.390  0.00  0.00    -0.265 OA
BRANCH  17  19
ATOM     19  C19 ZIN A   1      18.083   3.875  10.748  0.00  0.00     0.111 C 
BRANCH  19  20
ATOM     20  C20 ZIN A   1      17.842   2.399  10.428  0.00  0.00     0.014 C 
BRANCH  20  21
ATOM     21  C21 ZIN A   1      19.161   1.746  10.008  0.00  0.00     0.039 C 
BRANCH  21  22
ATOM     22  C22 ZIN A   1      18.873   0.537   9.155  0.00  0.00    -0.058 A 
ATOM     23  C27 ZIN A   1      19.848  -0.425   8.968  0.00  0.00     0.007 A 
ATOM     24  C26 ZIN A   1      19.582  -1.536   8.190  0.00  0.00     0.001 A 
ATOM     25  C25 ZIN A   1      18.346  -1.680   7.589  0.00  0.00     0.000 A 
ATOM     26  C24 ZIN A   1      17.373  -0.715   7.772  0.00  0.00     0.001 A 
ATOM     27  C23 ZIN A   1      17.636   0.394   8.554  0.00  0.00     0.007 A 
ENDBRANCH  21  22
ENDBRANCH  20  21
ENDBRANCH  19  20
ENDBRANCH  17  19
ENDBRANCH  16  17
ENDBRANCH  15  16
ENDBRANCH   1  15
BRANCH   1  28
ATOM     28  O28 ZIN A   1      17.572   4.718  15.908  0.00  0.00    -0.312 OA
BRANCH  28  29
ATOM     29  C29 ZIN A   1      17.966   5.283  17.059  0.00  0.00     0.259 C 
ATOM     30  O30 ZIN A   1      18.633   6.291  17.041  0.00  0.00    -0.265 OA
BRANCH  29  31
ATOM     31  C31 ZIN A   1      17.576   4.662  18.376  0.00  0.00     0.111 C 
BRANCH  31  32
ATOM     32  C32 ZIN A   1      18.367   3.369  18.585  0.00  0.00     0.014 C 
BRANCH  32  33
ATOM     33  C33 ZIN A   1      17.406   2.236  18.947  0.00  0.00     0.039 C 
BRANCH  33  34
ATOM     34  C34 ZIN A   1      17.803   0.984  18.207  0.00  0.00    -0.058 A 
ATOM     35  C39 ZIN A   1      19.109   0.534  18.261  0.00  0.00     0.007 A 
ATOM     36  C38 ZIN A   1      19.472  -0.616  17.586  0.00  0.00     0.001 A 
ATOM     37  C37 ZIN A   1      18.531  -1.311  16.849  0.00  0.00     0.000 A 
ATOM     38  C36 ZIN A   1      17.227  -0.858  16.791  0.00  0.00     0.001 A 
ATOM     39  C35 ZIN A   1      16.862   0.290  17.469  0.00  0.00     0.007 A 
ENDBRANCH  33  34
ENDBRANCH  32  33
ENDBRANCH  31  32
ENDBRANCH  29  31
ENDBRANCH  28  29
ENDBRANCH   1  28
TORSDOF 20
ENDMDL
MODEL 5
REMARK VINA RESULT:      -8.1      1.185      7.915
REMARK  20 active torsions:
REMARK  status: ('A' for Active; 'I' for Inactive)
REMARK    1  A    between atoms: C2_2  and  C3_3 
REMARK    2  A    between atoms: C2_2  and  O12_12 
REMARK    3  A    between atoms: C3_3  and  C4_4 
REMARK    4  A    between atoms: C4_4  and  C5_5 
REMARK    5  A    between atoms: C5_5  and  C6_6 
REMARK    6  A    between atoms: O12_12  and  C13_13 
REMARK    7  A    between atoms: C13_13  and  C14_14 
REMARK    8  A    between atoms: C14_14  and  C15_15 
REMARK    9  A    between atoms: C14_14  and  O28_28 
REMARK   10  A    between atoms: C15_15  and  O16_16 
REMARK   11  A    between atoms: O16_16  and  C17_17 
REMARK   12  A    between atoms: C17_17  and  C19_19 
REMARK   13  A    between atoms: C19_19  and  C20_20 
REMARK   14  A    between atoms: C20_20  and  C21_21 
REMARK   15  A    between atoms: C21_21  and  C22_22 
REMARK   16  A    between atoms: O28_28  and  C29_29 
REMARK   17  A    between atoms: C29_29  and  C31_31 
REMARK   18  A    between atoms: C31_31  and  C32_32 
REMARK   19  A    between atoms: C32_32  and  C33_33 
REMARK   20  A    between atoms: C33_33  and  C34_34 
ROOT
ATOM      1  C14 ZIN A   1      18.291   1.678  13.546  0.00  0.00     0.180 C 
ENDROOT
BRANCH   1   2
ATOM      2  C13 ZIN A   1      18.142   2.457  14.855  0.00  0.00     0.213 C 
BRANCH   2   3
ATOM      3  O12 ZIN A   1      19.427   2.524  15.526  0.00  0.00    -0.319 OA
BRANCH   3   4
ATOM      4  C2  ZIN A   1      19.576   3.472  16.465  0.00  0.00     0.258 C 
ATOM      5  O1  ZIN A   1      20.596   4.118  16.513  0.00  0.00    -0.265 OA
BRANCH   4   6
ATOM      6  C3  ZIN A   1      18.470   3.734  17.454  0.00  0.00     0.111 C 
BRANCH   6   7
ATOM      7  C4  ZIN A   1      18.689   2.879  18.704  0.00  0.00     0.014 C 
BRANCH   7   8
ATOM      8  C5  ZIN A   1      17.548   1.868  18.836  0.00  0.00     0.039 C 
BRANCH   8   9
ATOM      9  C6  ZIN A   1      17.894   0.618  18.068  0.00  0.00    -0.058 A 
ATOM     10  C11 ZIN A   1      19.162   0.078  18.159  0.00  0.00     0.007 A 
ATOM     11  C10 ZIN A   1      19.477  -1.070  17.457  0.00  0.00     0.001 A 
ATOM     12  C9  ZIN A   1      18.524  -1.675  16.657  0.00  0.00     0.000 A 
ATOM     13  C8  ZIN A   1      17.257  -1.133  16.564  0.00  0.00     0.001 A 
ATOM     14  C7  ZIN A   1      16.941   0.014  17.268  0.00  0.00     0.007 A 
ENDBRANCH   8   9
ENDBRANCH   7   8
ENDBRANCH   6   7
ENDBRANCH   4   6
ENDBRANCH   3   4
ENDBRANCH   2   3
ENDBRANCH   1   2
BRANCH   1  15
ATOM     15  C15 ZIN A   1      19.136   2.491  12.562  0.00  0.00     0.213 C 
BRANCH  15  16
ATOM     16  O16 ZIN A   1      18.970   1.954  11.224  0.00  0.00    -0.319 OA
BRANCH  16  17
ATOM     17  C17 ZIN A   1      18.223   2.670  10.368  0.00  0.00     0.258 C 
ATOM     18  O18 ZIN A   1      17.215   3.213  10.755  0.00  0.00    -0.265 OA
BRANCH  17  19
ATOM     19  C19 ZIN A   1      18.641   2.795   8.926  0.00  0.00     0.111 C 
BRANCH  19  20
ATOM     20  C20 ZIN A   1      19.209   1.460   8.441  0.00  0.00     0.014 C 
BRANCH  20  21
ATOM     21  C21 ZIN A   1      18.980   1.326   6.935  0.00  0.00     0.039 C 
BRANCH  21  22
ATOM     22  C22 ZIN A   1      19.078  -0.125   6.539  0.00  0.00    -0.058 A 
ATOM     23  C27 ZIN A   1      19.080  -0.479   5.203  0.00  0.00     0.007 A 
ATOM     24  C26 ZIN A   1      19.174  -1.810   4.841  0.00  0.00     0.001 A 
ATOM     25  C25 ZIN A   1      19.256  -2.787   5.815  0.00  0.00     0.000 A 
ATOM     26  C24 ZIN A   1      19.249  -2.434   7.151  0.00  0.00     0.001 A 
ATOM     27  C23 ZIN A   1      19.159  -1.103   7.514  0.00  0.00     0.007 A 
ENDBRANCH  21  22
ENDBRANCH  20  21
ENDBRANCH  19  20
ENDBRANCH  17  19
ENDBRANCH  16  17
ENDBRANCH  15  16
ENDBRANCH   1  15
BRANCH   1  28
ATOM     28  O28 ZIN A   1      18.942   0.408  13.810  0.00  0.00    -0.312 OA
BRANCH  28  29
ATOM     29  C29 ZIN A   1      18.448  -0.672  13.184  0.00  0.00     0.259 C 
ATOM     30  O30 ZIN A   1      17.348  -0.631  12.687  0.00  0.00    -0.265 OA
BRANCH  29  31
ATOM     31  C31 ZIN A   1      19.267  -1.935  13.101  0.00  0.00     0.111 C 
BRANCH  31  32
ATOM     32  C32 ZIN A   1      19.499  -2.296  11.632  0.00  0.00     0.014 C 
BRANCH  32  33
ATOM     33  C33 ZIN A   1      20.167  -3.669  11.545  0.00  0.00     0.039 C 
BRANCH  33  34
ATOM     34  C34 ZIN A   1      19.250  -4.630  10.832  0.00  0.00    -0.058 A 
ATOM     35  C39 ZIN A   1      19.619  -5.161   9.611  0.00  0.00     0.007 A 
ATOM     36  C38 ZIN A   1      18.780  -6.045   8.959  0.00  0.00     0.001 A 
ATOM     37  C37 ZIN A   1      17.567  -6.390   9.525  0.00  0.00     0.000 A 
ATOM     38  C36 ZIN A   1      17.195  -5.855  10.744  0.00  0.00     0.001 A 
ATOM     39  C35 ZIN A   1      18.036  -4.974  11.398  0.00  0.00     0.007 A 
ENDBRANCH  33  34
ENDBRANCH  32  33
ENDBRANCH  31  32
ENDBRANCH  29  31
ENDBRANCH  28  29
ENDBRANCH   1  28
TORSDOF 20
ENDMDL
MODEL 6
REMARK VINA RESULT:      -7.9      1.372      2.274
REMARK  20 active torsions:
REMARK  status: ('A' for Active; 'I' for Inactive)
REMARK    1  A    between atoms: C2_2  and  C3_3 
REMARK    2  A    between atoms: C2_2  and  O12_12 
REMARK    3  A    between atoms: C3_3  and  C4_4 
REMARK    4  A    between atoms: C4_4  and  C5_5 
REMARK    5  A    between atoms: C5_5  and  C6_6 
REMARK    6  A    between atoms: O12_12  and  C13_13 
REMARK    7  A    between atoms: C13_13  and  C14_14 
REMARK    8  A    between atoms: C14_14  and  C15_15 
REMARK    9  A    between atoms: C14_14  and  O28_28 
REMARK   10  A    between atoms: C15_15  and  O16_16 
REMARK   11  A    between atoms: O16_16  and  C17_17 
REMARK   12  A    between atoms: C17_17  and  C19_19 
REMARK   13  A    between atoms: C19_19  and  C20_20 
REMARK   14  A    between atoms: C20_20  and  C21_21 
REMARK   15  A    between atoms: C21_21  and  C22_22 
REMARK   16  A    between atoms: O28_28  and  C29_29 
REMARK   17  A    between atoms: C29_29  and  C31_31 
REMARK   18  A    between atoms: C31_31  and  C32_32 
REMARK   19  A    between atoms: C32_32  and  C33_33 
REMARK   20  A    between atoms: C33_33  and  C34_34 
ROOT
ATOM      1  C14 ZIN A   1      19.205   2.632  12.547  0.00  0.00     0.180 C 
ENDROOT
BRANCH   1   2
ATOM      2  C13 ZIN A   1      18.471   2.505  11.210  0.00  0.00     0.213 C 
BRANCH   2   3
ATOM      3  O12 ZIN A   1      17.193   1.850  11.419  0.00  0.00    -0.319 OA
BRANCH   3   4
ATOM      4  C2  ZIN A   1      16.956   0.733  10.712  0.00  0.00     0.258 C 
ATOM      5  O1  ZIN A   1      16.154  -0.076  11.113  0.00  0.00    -0.265 OA
BRANCH   4   6
ATOM      6  C3  ZIN A   1      17.684   0.494   9.415  0.00  0.00     0.111 C 
BRANCH   6   7
ATOM      7  C4  ZIN A   1      17.798  -1.011   9.164  0.00  0.00     0.014 C 
BRANCH   7   8
ATOM      8  C5  ZIN A   1      19.211  -1.341   8.679  0.00  0.00     0.039 C 
BRANCH   8   9
ATOM      9  C6  ZIN A   1      19.158  -1.771   7.235  0.00  0.00    -0.058 A 
ATOM     10  C11 ZIN A   1      19.204  -3.113   6.910  0.00  0.00     0.007 A 
ATOM     11  C10 ZIN A   1      19.152  -3.507   5.586  0.00  0.00     0.001 A 
ATOM     12  C9  ZIN A   1      19.062  -2.557   4.586  0.00  0.00     0.000 A 
ATOM     13  C8  ZIN A   1      19.020  -1.214   4.910  0.00  0.00     0.001 A 
ATOM     14  C7  ZIN A   1      19.070  -0.821   6.234  0.00  0.00     0.007 A 
ENDBRANCH   8   9
ENDBRANCH   7   8
ENDBRANCH   6   7
ENDBRANCH   4   6
ENDBRANCH   3   4
ENDBRANCH   2   3
ENDBRANCH   1   2
BRANCH   1  15
ATOM     15  C15 ZIN A   1      18.620   3.803  13.340  0.00  0.00     0.213 C 
BRANCH  15  16
ATOM     16  O16 ZIN A   1      19.465   4.080  14.487  0.00  0.00    -0.319 OA
BRANCH  16  17
ATOM     17  C17 ZIN A   1      18.855   4.218  15.675  0.00  0.00     0.258 C 
ATOM     18  O18 ZIN A   1      17.774   4.755  15.739  0.00  0.00    -0.265 OA
BRANCH  17  19
ATOM     19  C19 ZIN A   1      19.518   3.706  16.927  0.00  0.00     0.111 C 
BRANCH  19  20
ATOM     20  C20 ZIN A   1      18.459   3.106  17.855  0.00  0.00     0.014 C 
BRANCH  20  21
ATOM     21  C21 ZIN A   1      19.048   1.898  18.586  0.00  0.00     0.039 C 
BRANCH  21  22
ATOM     22  C22 ZIN A   1      18.632   0.633  17.881  0.00  0.00    -0.058 A 
ATOM     23  C27 ZIN A   1      17.346   0.506  17.388  0.00  0.00     0.007 A 
ATOM     24  C26 ZIN A   1      16.967  -0.652  16.737  0.00  0.00     0.001 A 
ATOM     25  C25 ZIN A   1      17.869  -1.689  16.587  0.00  0.00     0.000 A 
ATOM     26  C24 ZIN A   1      19.152  -1.564  17.084  0.00  0.00     0.001 A 
ATOM     27  C23 ZIN A   1      19.534  -0.404  17.731  0.00  0.00     0.007 A 
ENDBRANCH  21  22
ENDBRANCH  20  21
ENDBRANCH  19  20
ENDBRANCH  17  19
ENDBRANCH  16  17
ENDBRANCH  15  16
ENDBRANCH   1  15
BRANCH   1  28
ATOM     28  O28 ZIN A   1      19.042   1.405  13.306  0.00  0.00    -0.312 OA
BRANCH  28  29
ATOM     29  C29 ZIN A   1      19.905   0.410  13.045  0.00  0.00     0.259 C 
ATOM     30  O30 ZIN A   1      20.876   0.616  12.356  0.00  0.00    -0.265 OA
BRANCH  29  31
ATOM     31  C31 ZIN A   1      19.664  -0.965  13.615  0.00  0.00     0.111 C 
BRANCH  31  32
ATOM     32  C32 ZIN A   1      18.858  -1.797  12.615  0.00  0.00     0.014 C 
BRANCH  32  33
ATOM     33  C33 ZIN A   1      19.740  -2.912  12.052  0.00  0.00     0.039 C 
BRANCH  33  34
ATOM     34  C34 ZIN A   1      18.883  -3.901  11.304  0.00  0.00    -0.058 A 
ATOM     35  C39 ZIN A   1      17.536  -4.008  11.595  0.00  0.00     0.007 A 
ATOM     36  C38 ZIN A   1      16.749  -4.911  10.907  0.00  0.00     0.001 A 
ATOM     37  C37 ZIN A   1      17.312  -5.716   9.934  0.00  0.00     0.000 A 
ATOM     38  C36 ZIN A   1      18.659  -5.614   9.646  0.00  0.00     0.001 A 
ATOM     39  C35 ZIN A   1      19.446  -4.707  10.332  0.00  0.00     0.007 A 
ENDBRANCH  33  34
ENDBRANCH  32  33
ENDBRANCH  31  32
ENDBRANCH  29  31
ENDBRANCH  28  29
ENDBRANCH   1  28
TORSDOF 20
ENDMDL
MODEL 7
REMARK VINA RESULT:      -7.7      2.836      6.992
REMARK  20 active torsions:
REMARK  status: ('A' for Active; 'I' for Inactive)
REMARK    1  A    between atoms: C2_2  and  C3_3 
REMARK    2  A    between atoms: C2_2  and  O12_12 
REMARK    3  A    between atoms: C3_3  and  C4_4 
REMARK    4  A    between atoms: C4_4  and  C5_5 
REMARK    5  A    between atoms: C5_5  and  C6_6 
REMARK    6  A    between atoms: O12_12  and  C13_13 
REMARK    7  A    between atoms: C13_13  and  C14_14 
REMARK    8  A    between atoms: C14_14  and  C15_15 
REMARK    9  A    between atoms: C14_14  and  O28_28 
REMARK   10  A    between atoms: C15_15  and  O16_16 
REMARK   11  A    between atoms: O16_16  and  C17_17 
REMARK   12  A    between atoms: C17_17  and  C19_19 
REMARK   13  A    between atoms: C19_19  and  C20_20 
REMARK   14  A    between atoms: C20_20  and  C21_21 
REMARK   15  A    between atoms: C21_21  and  C22_22 
REMARK   16  A    between atoms: O28_28  and  C29_29 
REMARK   17  A    between atoms: C29_29  and  C31_31 
REMARK   18  A    between atoms: C31_31  and  C32_32 
REMARK   19  A    between atoms: C32_32  and  C33_33 
REMARK   20  A    between atoms: C33_33  and  C34_34 
ROOT
ATOM      1  C14 ZIN A   1      18.507  -0.965   8.103  0.00  0.00     0.180 C 
ENDROOT
BRANCH   1   2
ATOM      2  C13 ZIN A   1      19.333  -2.092   7.478  0.00  0.00     0.213 C 
BRANCH   2   3
ATOM      3  O12 ZIN A   1      18.448  -3.157   7.043  0.00  0.00    -0.319 OA
BRANCH   3   4
ATOM      4  C2  ZIN A   1      18.813  -3.846   5.950  0.00  0.00     0.258 C 
ATOM      5  O1  ZIN A   1      19.510  -3.324   5.113  0.00  0.00    -0.265 OA
BRANCH   4   6
ATOM      6  C3  ZIN A   1      18.360  -5.271   5.771  0.00  0.00     0.111 C 
BRANCH   6   7
ATOM      7  C4  ZIN A   1      17.519  -5.695   6.978  0.00  0.00     0.014 C 
BRANCH   7   8
ATOM      8  C5  ZIN A   1      18.371  -6.547   7.920  0.00  0.00     0.039 C 
BRANCH   8   9
ATOM      9  C6  ZIN A   1      18.363  -5.934   9.297  0.00  0.00    -0.058 A 
ATOM     10  C11 ZIN A   1      17.283  -6.132  10.136  0.00  0.00     0.007 A 
ATOM     11  C10 ZIN A   1      17.279  -5.572  11.400  0.00  0.00     0.001 A 
ATOM     12  C9  ZIN A   1      18.351  -4.807  11.822  0.00  0.00     0.000 A 
ATOM     13  C8  ZIN A   1      19.429  -4.606  10.980  0.00  0.00     0.001 A 
ATOM     14  C7  ZIN A   1      19.435  -5.168   9.718  0.00  0.00     0.007 A 
ENDBRANCH   8   9
ENDBRANCH   7   8
ENDBRANCH   6   7
ENDBRANCH   4   6
ENDBRANCH   3   4
ENDBRANCH   2   3
ENDBRANCH   1   2
BRANCH   1  15
ATOM     15  C15 ZIN A   1      17.797  -1.489   9.354  0.00  0.00     0.213 C 
BRANCH  15  16
ATOM     16  O16 ZIN A   1      18.637  -1.264  10.516  0.00  0.00    -0.319 OA
BRANCH  16  17
ATOM     17  C17 ZIN A   1      18.018  -1.142  11.701  0.00  0.00     0.258 C 
ATOM     18  O18 ZIN A   1      16.811  -1.188  11.760  0.00  0.00    -0.265 OA
BRANCH  17  19
ATOM     19  C19 ZIN A   1      18.827  -0.947  12.957  0.00  0.00     0.111 C 
BRANCH  19  20
ATOM     20  C20 ZIN A   1      17.911  -0.464  14.083  0.00  0.00     0.014 C 
BRANCH  20  21
ATOM     21  C21 ZIN A   1      18.361  -1.083  15.408  0.00  0.00     0.039 C 
BRANCH  21  22
ATOM     22  C22 ZIN A   1      18.518   0.003  16.442  0.00  0.00    -0.058 A 
ATOM     23  C27 ZIN A   1      19.061   1.223  16.087  0.00  0.00     0.007 A 
ATOM     24  C26 ZIN A   1      19.199   2.220  17.034  0.00  0.00     0.001 A 
ATOM     25  C25 ZIN A   1      18.805   1.993  18.339  0.00  0.00     0.000 A 
ATOM     26  C24 ZIN A   1      18.267   0.771  18.696  0.00  0.00     0.001 A 
ATOM     27  C23 ZIN A   1      18.123  -0.224  17.748  0.00  0.00     0.007 A 
ENDBRANCH  21  22
ENDBRANCH  20  21
ENDBRANCH  19  20
ENDBRANCH  17  19
ENDBRANCH  16  17
ENDBRANCH  15  16
ENDBRANCH   1  15
BRANCH   1  28
ATOM     28  O28 ZIN A   1      19.384   0.132   8.468  0.00  0.00    -0.312 OA
BRANCH  28  29
ATOM     29  C29 ZIN A   1      19.123   1.329   7.918  0.00  0.00     0.259 C 
ATOM     30  O30 ZIN A   1      18.854   1.408   6.743  0.00  0.00    -0.265 OA
BRANCH  29  31
ATOM     31  C31 ZIN A   1      19.164   2.573   8.767  0.00  0.00     0.111 C 
BRANCH  31  32
ATOM     32  C32 ZIN A   1      19.052   2.187  10.244  0.00  0.00     0.014 C 
BRANCH  32  33
ATOM     33  C33 ZIN A   1      17.610   2.385  10.715  0.00  0.00     0.039 C 
BRANCH  33  34
ATOM     34  C34 ZIN A   1      17.567   3.466  11.764  0.00  0.00    -0.058 A 
ATOM     35  C39 ZIN A   1      16.829   4.614  11.544  0.00  0.00     0.007 A 
ATOM     36  C38 ZIN A   1      16.787   5.604  12.508  0.00  0.00     0.001 A 
ATOM     37  C37 ZIN A   1      17.491   5.450  13.687  0.00  0.00     0.000 A 
ATOM     38  C36 ZIN A   1      18.233   4.305  13.905  0.00  0.00     0.001 A 
ATOM     39  C35 ZIN A   1      18.273   3.312  12.942  0.00  0.00     0.007 A 
ENDBRANCH  33  34
ENDBRANCH  32  33
ENDBRANCH  31  32
ENDBRANCH  29  31
ENDBRANCH  28  29
ENDBRANCH   1  28
TORSDOF 20
ENDMDL
MODEL 8
REMARK VINA RESULT:      -7.6      2.564      7.435
REMARK  20 active torsions:
REMARK  status: ('A' for Active; 'I' for Inactive)
REMARK    1  A    between atoms: C2_2  and  C3_3 
REMARK    2  A    between atoms: C2_2  and  O12_12 
REMARK    3  A    between atoms: C3_3  and  C4_4 
REMARK    4  A    between atoms: C4_4  and  C5_5 
REMARK    5  A    between atoms: C5_5  and  C6_6 
REMARK    6  A    between atoms: O12_12  and  C13_13 
REMARK    7  A    between atoms: C13_13  and  C14_14 
REMARK    8  A    between atoms: C14_14  and  C15_15 
REMARK    9  A    between atoms: C14_14  and  O28_28 
REMARK   10  A    between atoms: C15_15  and  O16_16 
REMARK   11  A    between atoms: O16_16  and  C17_17 
REMARK   12  A    between atoms: C17_17  and  C19_19 
REMARK   13  A    between atoms: C19_19  and  C20_20 
REMARK   14  A    between atoms: C20_20  and  C21_21 
REMARK   15  A    between atoms: C21_21  and  C22_22 
REMARK   16  A    between atoms: O28_28  and  C29_29 
REMARK   17  A    between atoms: C29_29  and  C31_31 
REMARK   18  A    between atoms: C31_31  and  C32_32 
REMARK   19  A    between atoms: C32_32  and  C33_33 
REMARK   20  A    between atoms: C33_33  and  C34_34 
ROOT
ATOM      1  C14 ZIN A   1      18.005  -1.645   7.693  0.00  0.00     0.180 C 
ENDROOT
BRANCH   1   2
ATOM      2  C13 ZIN A   1      17.580  -2.060   9.104  0.00  0.00     0.213 C 
BRANCH   2   3
ATOM      3  O12 ZIN A   1      18.124  -1.121  10.069  0.00  0.00    -0.319 OA
BRANCH   3   4
ATOM      4  C2  ZIN A   1      17.302  -0.704  11.045  0.00  0.00     0.258 C 
ATOM      5  O1  ZIN A   1      16.285  -0.114  10.766  0.00  0.00    -0.265 OA
BRANCH   4   6
ATOM      6  C3  ZIN A   1      17.644  -0.978  12.486  0.00  0.00     0.111 C 
BRANCH   6   7
ATOM      7  C4  ZIN A   1      18.887  -0.176  12.877  0.00  0.00     0.014 C 
BRANCH   7   8
ATOM      8  C5  ZIN A   1      19.550  -0.825  14.093  0.00  0.00     0.039 C 
BRANCH   8   9
ATOM      9  C6  ZIN A   1      18.890  -0.323  15.353  0.00  0.00    -0.058 A 
ATOM     10  C11 ZIN A   1      19.147   0.957  15.805  0.00  0.00     0.007 A 
ATOM     11  C10 ZIN A   1      18.539   1.418  16.958  0.00  0.00     0.001 A 
ATOM     12  C9  ZIN A   1      17.680   0.595  17.662  0.00  0.00     0.000 A 
ATOM     13  C8  ZIN A   1      17.426  -0.686  17.212  0.00  0.00     0.001 A 
ATOM     14  C7  ZIN A   1      18.032  -1.146  16.058  0.00  0.00     0.007 A 
ENDBRANCH   8   9
ENDBRANCH   7   8
ENDBRANCH   6   7
ENDBRANCH   4   6
ENDBRANCH   3   4
ENDBRANCH   2   3
ENDBRANCH   1   2
BRANCH   1  15
ATOM     15  C15 ZIN A   1      17.808  -0.137   7.525  0.00  0.00     0.213 C 
BRANCH  15  16
ATOM     16  O16 ZIN A   1      19.086   0.536   7.668  0.00  0.00    -0.319 OA
BRANCH  16  17
ATOM     17  C17 ZIN A   1      19.064   1.793   8.137  0.00  0.00     0.258 C 
ATOM     18  O18 ZIN A   1      18.861   2.716   7.382  0.00  0.00    -0.265 OA
BRANCH  17  19
ATOM     19  C19 ZIN A   1      19.291   2.056   9.603  0.00  0.00     0.111 C 
BRANCH  19  20
ATOM     20  C20 ZIN A   1      18.488   3.285  10.032  0.00  0.00     0.014 C 
BRANCH  20  21
ATOM     21  C21 ZIN A   1      17.701   2.963  11.303  0.00  0.00     0.039 C 
BRANCH  21  22
ATOM     22  C22 ZIN A   1      18.277   3.737  12.461  0.00  0.00    -0.058 A 
ATOM     23  C27 ZIN A   1      19.442   4.462  12.297  0.00  0.00     0.007 A 
ATOM     24  C26 ZIN A   1      19.967   5.176  13.357  0.00  0.00     0.001 A 
ATOM     25  C25 ZIN A   1      19.333   5.158  14.585  0.00  0.00     0.000 A 
ATOM     26  C24 ZIN A   1      18.170   4.430  14.751  0.00  0.00     0.001 A 
ATOM     27  C23 ZIN A   1      17.642   3.719  13.689  0.00  0.00     0.007 A 
ENDBRANCH  21  22
ENDBRANCH  20  21
ENDBRANCH  19  20
ENDBRANCH  17  19
ENDBRANCH  16  17
ENDBRANCH  15  16
ENDBRANCH   1  15
BRANCH   1  28
ATOM     28  O28 ZIN A   1      19.404  -1.976   7.492  0.00  0.00    -0.312 OA
BRANCH  28  29
ATOM     29  C29 ZIN A   1      19.692  -2.816   6.486  0.00  0.00     0.259 C 
ATOM     30  O30 ZIN A   1      19.589  -2.445   5.341  0.00  0.00    -0.265 OA
BRANCH  29  31
ATOM     31  C31 ZIN A   1      20.147  -4.222   6.785  0.00  0.00     0.111 C 
BRANCH  31  32
ATOM     32  C32 ZIN A   1      18.927  -5.107   7.048  0.00  0.00     0.014 C 
BRANCH  32  33
ATOM     33  C33 ZIN A   1      19.262  -6.127   8.139  0.00  0.00     0.039 C 
BRANCH  33  34
ATOM     34  C34 ZIN A   1      18.826  -5.590   9.478  0.00  0.00    -0.058 A 
ATOM     35  C39 ZIN A   1      19.680  -4.790  10.213  0.00  0.00     0.007 A 
ATOM     36  C38 ZIN A   1      19.278  -4.294  11.440  0.00  0.00     0.001 A 
ATOM     37  C37 ZIN A   1      18.026  -4.608  11.935  0.00  0.00     0.000 A 
ATOM     38  C36 ZIN A   1      17.175  -5.412  11.203  0.00  0.00     0.001 A 
ATOM     39  C35 ZIN A   1      17.575  -5.905   9.974  0.00  0.00     0.007 A 
ENDBRANCH  33  34
ENDBRANCH  32  33
ENDBRANCH  31  32
ENDBRANCH  29  31
ENDBRANCH  28  29
ENDBRANCH   1  28
TORSDOF 20
ENDMDL
MODEL 9
REMARK VINA RESULT:      -7.6      2.362      9.212
REMARK  20 active torsions:
REMARK  status: ('A' for Active; 'I' for Inactive)
REMARK    1  A    between atoms: C2_2  and  C3_3 
REMARK    2  A    between atoms: C2_2  and  O12_12 
REMARK    3  A    between atoms: C3_3  and  C4_4 
REMARK    4  A    between atoms: C4_4  and  C5_5 
REMARK    5  A    between atoms: C5_5  and  C6_6 
REMARK    6  A    between atoms: O12_12  and  C13_13 
REMARK    7  A    between atoms: C13_13  and  C14_14 
REMARK    8  A    between atoms: C14_14  and  C15_15 
REMARK    9  A    between atoms: C14_14  and  O28_28 
REMARK   10  A    between atoms: C15_15  and  O16_16 
REMARK   11  A    between atoms: O16_16  and  C17_17 
REMARK   12  A    between atoms: C17_17  and  C19_19 
REMARK   13  A    between atoms: C19_19  and  C20_20 
REMARK   14  A    between atoms: C20_20  and  C21_21 
REMARK   15  A    between atoms: C21_21  and  C22_22 
REMARK   16  A    between atoms: O28_28  and  C29_29 
REMARK   17  A    between atoms: C29_29  and  C31_31 
REMARK   18  A    between atoms: C31_31  and  C32_32 
REMARK   19  A    between atoms: C32_32  and  C33_33 
REMARK   20  A    between atoms: C33_33  and  C34_34 
ROOT
ATOM      1  C14 ZIN A   1      18.658   0.679   8.077  0.00  0.00     0.180 C 
ENDROOT
BRANCH   1   2
ATOM      2  C13 ZIN A   1      17.342   0.060   8.552  0.00  0.00     0.213 C 
BRANCH   2   3
ATOM      3  O12 ZIN A   1      17.615  -0.921   9.587  0.00  0.00    -0.319 OA
BRANCH   3   4
ATOM      4  C2  ZIN A   1      17.394  -0.546  10.857  0.00  0.00     0.258 C 
ATOM      5  O1  ZIN A   1      16.354  -0.008  11.155  0.00  0.00    -0.265 OA
BRANCH   4   6
ATOM      6  C3  ZIN A   1      18.438  -0.803  11.911  0.00  0.00     0.111 C 
BRANCH   6   7
ATOM      7  C4  ZIN A   1      17.802  -0.691  13.299  0.00  0.00     0.014 C 
BRANCH   7   8
ATOM      8  C5  ZIN A   1      18.587  -1.551  14.291  0.00  0.00     0.039 C 
BRANCH   8   9
ATOM      9  C6  ZIN A   1      18.427  -0.987  15.680  0.00  0.00    -0.058 A 
ATOM     10  C11 ZIN A   1      19.418  -1.180  16.623  0.00  0.00     0.007 A 
ATOM     11  C10 ZIN A   1      19.272  -0.660  17.895  0.00  0.00     0.001 A 
ATOM     12  C9  ZIN A   1      18.131   0.047  18.227  0.00  0.00     0.000 A 
ATOM     13  C8  ZIN A   1      17.138   0.235  17.285  0.00  0.00     0.001 A 
ATOM     14  C7  ZIN A   1      17.284  -0.282  16.012  0.00  0.00     0.007 A 
ENDBRANCH   8   9
ENDBRANCH   7   8
ENDBRANCH   6   7
ENDBRANCH   4   6
ENDBRANCH   3   4
ENDBRANCH   2   3
ENDBRANCH   1   2
BRANCH   1  15
ATOM     15  C15 ZIN A   1      18.809   0.460   6.570  0.00  0.00     0.213 C 
BRANCH  15  16
ATOM     16  O16 ZIN A   1      18.372  -0.882   6.231  0.00  0.00    -0.319 OA
BRANCH  16  17
ATOM     17  C17 ZIN A   1      19.201  -1.620   5.476  0.00  0.00     0.258 C 
ATOM     18  O18 ZIN A   1      19.900  -1.086   4.647  0.00  0.00    -0.265 OA
BRANCH  17  19
ATOM     19  C19 ZIN A   1      19.259  -3.115   5.660  0.00  0.00     0.111 C 
BRANCH  19  20
ATOM     20  C20 ZIN A   1      19.463  -3.438   7.141  0.00  0.00     0.014 C 
BRANCH  20  21
ATOM     21  C21 ZIN A   1      18.446  -4.494   7.577  0.00  0.00     0.039 C 
BRANCH  21  22
ATOM     22  C22 ZIN A   1      18.299  -4.460   9.077  0.00  0.00    -0.058 A 
ATOM     23  C27 ZIN A   1      17.042  -4.513   9.650  0.00  0.00     0.007 A 
ATOM     24  C26 ZIN A   1      16.908  -4.487  11.025  0.00  0.00     0.001 A 
ATOM     25  C25 ZIN A   1      18.030  -4.398  11.828  0.00  0.00     0.000 A 
ATOM     26  C24 ZIN A   1      19.286  -4.340  11.255  0.00  0.00     0.001 A 
ATOM     27  C23 ZIN A   1      19.421  -4.371   9.880  0.00  0.00     0.007 A 
ENDBRANCH  21  22
ENDBRANCH  20  21
ENDBRANCH  19  20
ENDBRANCH  17  19
ENDBRANCH  16  17
ENDBRANCH  15  16
ENDBRANCH   1  15
BRANCH   1  28
ATOM     28  O28 ZIN A   1      18.652   2.103   8.361  0.00  0.00    -0.312 OA
BRANCH  28  29
ATOM     29  C29 ZIN A   1      18.865   2.471   9.634  0.00  0.00     0.259 C 
ATOM     30  O30 ZIN A   1      19.694   1.895  10.298  0.00  0.00    -0.265 OA
BRANCH  29  31
ATOM     31  C31 ZIN A   1      18.071   3.603  10.234  0.00  0.00     0.111 C 
BRANCH  31  32
ATOM     32  C32 ZIN A   1      18.699   4.015  11.567  0.00  0.00     0.014 C 
BRANCH  32  33
ATOM     33  C33 ZIN A   1      17.617   4.056  12.649  0.00  0.00     0.039 C 
BRANCH  33  34
ATOM     34  C34 ZIN A   1      17.783   5.304  13.478  0.00  0.00    -0.058 A 
ATOM     35  C39 ZIN A   1      18.963   5.529  14.161  0.00  0.00     0.007 A 
ATOM     36  C38 ZIN A   1      19.117   6.675  14.917  0.00  0.00     0.001 A 
ATOM     37  C37 ZIN A   1      18.085   7.592  14.999  0.00  0.00     0.000 A 
ATOM     38  C36 ZIN A   1      16.903   7.365  14.320  0.00  0.00     0.001 A 
ATOM     39  C35 ZIN A   1      16.751   6.220  13.560  0.00  0.00     0.007 A 
ENDBRANCH  33  34
ENDBRANCH  32  33
ENDBRANCH  31  32
ENDBRANCH  29  31
ENDBRANCH  28  29
ENDBRANCH   1  28
TORSDOF 20
ENDMDL
