MODEL 1
REMARK VINA RESULT:      -6.9      0.000      0.000
REMARK  3 active torsions:
REMARK  status: ('A' for Active; 'I' for Inactive)
REMARK    1  A    between atoms: C2_2  and  C4_3 
REMARK    2  A    between atoms: C2_2  and  N13_12 
REMARK    3  A    between atoms: N13_12  and  O14_13 
REMARK       I    between atoms: N13_12  and  C15_14 
REMARK       I    between atoms: C15_14  and  N16_15 
ROOT
ATOM      1  C1  <0> d   1      17.930  -2.003  11.280  0.00  0.00     0.041 C 
ATOM      2  C2  <0> d   1      18.615  -0.772  10.685  0.00  0.00     0.155 C 
ENDROOT
BRANCH   2   3
ATOM      3  C4  <0> d   1      18.687  -0.913   9.186  0.00  0.00     0.009 A 
ATOM      4  S12 <0> d   1      18.667  -2.444   8.336  0.00  0.00    -0.092 SA
ATOM      5  C11 <0> d   1      18.779  -1.653   6.768  0.00  0.00     0.015 A 
ATOM      6  C6  <0> d   1      18.836  -0.267   6.944  0.00  0.00    -0.018 A 
ATOM      7  C10 <0> d   1      18.821  -2.191   5.478  0.00  0.00     0.019 A 
ATOM      8  C5  <0> d   1      18.780   0.101   8.349  0.00  0.00     0.029 A 
ATOM      9  C7  <0> d   1      18.935   0.559   5.805  0.00  0.00     0.013 A 
ATOM     10  C8  <0> d   1      18.975   0.015   4.558  0.00  0.00     0.001 A 
ATOM     11  C9  <0> d   1      18.918  -1.362   4.387  0.00  0.00     0.001 A 
ENDBRANCH   2   3
BRANCH   2  12
ATOM     12  N13 <0> d   1      19.971  -0.655  11.229  0.00  0.00    -0.201 N 
ATOM     13  C15 <0> d   1      20.399   0.524  11.722  0.00  0.00     0.340 C 
ATOM     14  N16 <0> d   1      21.610   0.611  12.306  0.00  0.00    -0.350 N 
ATOM     15  O17 <0> d   1      19.693   1.510  11.639  0.00  0.00    -0.245 OA
ATOM     16  H27 <0> d   1      22.204  -0.156  12.306  0.00  0.00     0.160 HD
ATOM     17  H28 <0> d   1      21.888   1.440  12.727  0.00  0.00     0.160 HD
BRANCH  12  18
ATOM     18  O14 <0> d   1      20.830  -1.779  11.236  0.00  0.00    -0.283 OA
ATOM     19  H26 <0> d   1      21.769  -1.556  11.312  0.00  0.00     0.245 HD
ENDBRANCH  12  18
ENDBRANCH   2  12
TORSDOF 3
ENDMDL
MODEL 2
REMARK VINA RESULT:      -6.7      3.931      5.808
REMARK  3 active torsions:
REMARK  status: ('A' for Active; 'I' for Inactive)
REMARK    1  A    between atoms: C2_2  and  C4_3 
REMARK    2  A    between atoms: C2_2  and  N13_12 
REMARK    3  A    between atoms: N13_12  and  O14_13 
REMARK       I    between atoms: N13_12  and  C15_14 
REMARK       I    between atoms: C15_14  and  N16_15 
ROOT
ATOM      1  C1  <0> d   1      18.947  -2.542   7.754  0.00  0.00     0.041 C 
ATOM      2  C2  <0> d   1      19.120  -1.122   7.212  0.00  0.00     0.155 C 
ENDROOT
BRANCH   2   3
ATOM      3  C4  <0> d   1      18.757  -0.127   8.284  0.00  0.00     0.009 A 
ATOM      4  S12 <0> d   1      18.033  -0.551   9.822  0.00  0.00    -0.092 SA
ATOM      5  C11 <0> d   1      17.989   1.129  10.342  0.00  0.00     0.015 A 
ATOM      6  C6  <0> d   1      18.512   1.946   9.336  0.00  0.00    -0.018 A 
ATOM      7  C10 <0> d   1      17.529   1.701  11.533  0.00  0.00     0.019 A 
ATOM      8  C5  <0> d   1      18.936   1.175   8.179  0.00  0.00     0.029 A 
ATOM      9  C7  <0> d   1      18.563   3.340   9.550  0.00  0.00     0.013 A 
ATOM     10  C8  <0> d   1      18.110   3.877  10.716  0.00  0.00     0.001 A 
ATOM     11  C9  <0> d   1      17.592   3.062  11.714  0.00  0.00     0.001 A 
ENDBRANCH   2   3
BRANCH   2  12
ATOM     12  N13 <0> d   1      18.246  -0.931   6.052  0.00  0.00    -0.201 N 
ATOM     13  C15 <0> d   1      18.763  -0.950   4.808  0.00  0.00     0.340 C 
ATOM     14  N16 <0> d   1      17.949  -0.867   3.738  0.00  0.00    -0.350 N 
ATOM     15  O17 <0> d   1      19.965  -1.041   4.651  0.00  0.00    -0.245 OA
ATOM     16  H27 <0> d   1      16.998  -0.718   3.862  0.00  0.00     0.160 HD
ATOM     17  H28 <0> d   1      18.313  -0.955   2.842  0.00  0.00     0.160 HD
BRANCH  12  18
ATOM     18  O14 <0> d   1      16.858  -0.726   6.238  0.00  0.00    -0.283 OA
ATOM     19  H26 <0> d   1      16.371  -1.526   6.482  0.00  0.00     0.245 HD
ENDBRANCH  12  18
ENDBRANCH   2  12
TORSDOF 3
ENDMDL
MODEL 3
REMARK VINA RESULT:      -6.7      0.909      1.526
REMARK  3 active torsions:
REMARK  status: ('A' for Active; 'I' for Inactive)
REMARK    1  A    between atoms: C2_2  and  C4_3 
REMARK    2  A    between atoms: C2_2  and  N13_12 
REMARK    3  A    between atoms: N13_12  and  O14_13 
REMARK       I    between atoms: N13_12  and  C15_14 
REMARK       I    between atoms: C15_14  and  N16_15 
ROOT
ATOM      1  C1  <0> d   1      18.142  -2.120  11.138  0.00  0.00     0.041 C 
ATOM      2  C2  <0> d   1      18.716  -0.775  10.693  0.00  0.00     0.155 C 
ENDROOT
BRANCH   2   3
ATOM      3  C4  <0> d   1      18.760  -0.720   9.188  0.00  0.00     0.009 A 
ATOM      4  S12 <0> d   1      18.639   0.754   8.249  0.00  0.00    -0.092 SA
ATOM      5  C11 <0> d   1      18.782  -0.121   6.729  0.00  0.00     0.015 A 
ATOM      6  C6  <0> d   1      18.907  -1.490   6.985  0.00  0.00    -0.018 A 
ATOM      7  C10 <0> d   1      18.781   0.341   5.410  0.00  0.00     0.019 A 
ATOM      8  C5  <0> d   1      18.888  -1.777   8.410  0.00  0.00     0.029 A 
ATOM      9  C7  <0> d   1      19.029  -2.377   5.895  0.00  0.00     0.013 A 
ATOM     10  C8  <0> d   1      19.025  -1.906   4.618  0.00  0.00     0.001 A 
ATOM     11  C9  <0> d   1      18.902  -0.547   4.367  0.00  0.00     0.001 A 
ENDBRANCH   2   3
BRANCH   2  12
ATOM     12  N13 <0> d   1      20.072  -0.621  11.227  0.00  0.00    -0.201 N 
ATOM     13  C15 <0> d   1      20.444   0.542  11.797  0.00  0.00     0.340 C 
ATOM     14  N16 <0> d   1      21.658   0.655  12.369  0.00  0.00    -0.350 N 
ATOM     15  O17 <0> d   1      19.683   1.491  11.794  0.00  0.00    -0.245 OA
ATOM     16  H27 <0> d   1      22.294  -0.076  12.307  0.00  0.00     0.160 HD
ATOM     17  H28 <0> d   1      21.898   1.466  12.845  0.00  0.00     0.160 HD
BRANCH  12  18
ATOM     18  O14 <0> d   1      20.992  -1.693  11.142  0.00  0.00    -0.283 OA
ATOM     19  H26 <0> d   1      21.144  -2.149  11.982  0.00  0.00     0.245 HD
ENDBRANCH  12  18
ENDBRANCH   2  12
TORSDOF 3
ENDMDL
MODEL 4
REMARK VINA RESULT:      -6.6      4.488      8.148
REMARK  3 active torsions:
REMARK  status: ('A' for Active; 'I' for Inactive)
REMARK    1  A    between atoms: C2_2  and  C4_3 
REMARK    2  A    between atoms: C2_2  and  N13_12 
REMARK    3  A    between atoms: N13_12  and  O14_13 
REMARK       I    between atoms: N13_12  and  C15_14 
REMARK       I    between atoms: C15_14  and  N16_15 
ROOT
ATOM      1  C1  <0> d   1      17.913   2.091  11.759  0.00  0.00     0.041 C 
ATOM      2  C2  <0> d   1      18.560   0.826  12.325  0.00  0.00     0.155 C 
ENDROOT
BRANCH   2   3
ATOM      3  C4  <0> d   1      18.638   0.929  13.826  0.00  0.00     0.009 A 
ATOM      4  S12 <0> d   1      18.644   2.440  14.713  0.00  0.00    -0.092 SA
ATOM      5  C11 <0> d   1      18.747   1.610  16.261  0.00  0.00     0.015 A 
ATOM      6  C6  <0> d   1      18.782   0.228  16.051  0.00  0.00    -0.018 A 
ATOM      7  C10 <0> d   1      18.801   2.116  17.563  0.00  0.00     0.019 A 
ATOM      8  C5  <0> d   1      18.716  -0.106  14.638  0.00  0.00     0.029 A 
ATOM      9  C7  <0> d   1      18.870  -0.627  17.170  0.00  0.00     0.013 A 
ATOM     10  C8  <0> d   1      18.922  -0.114  18.430  0.00  0.00     0.001 A 
ATOM     11  C9  <0> d   1      18.887   1.259  18.634  0.00  0.00     0.001 A 
ENDBRANCH   2   3
BRANCH   2  12
ATOM     12  N13 <0> d   1      19.911   0.680  11.775  0.00  0.00    -0.201 N 
ATOM     13  C15 <0> d   1      20.302  -0.500  11.255  0.00  0.00     0.340 C 
ATOM     14  N16 <0> d   1      21.509  -0.611  10.667  0.00  0.00    -0.350 N 
ATOM     15  O17 <0> d   1      19.565  -1.466  11.316  0.00  0.00    -0.245 OA
ATOM     16  H27 <0> d   1      22.127   0.137  10.684  0.00  0.00     0.160 HD
ATOM     17  H28 <0> d   1      21.761  -1.438  10.226  0.00  0.00     0.160 HD
BRANCH  12  18
ATOM     18  O14 <0> d   1      20.805   1.777  11.793  0.00  0.00    -0.283 OA
ATOM     19  H26 <0> d   1      20.634   2.412  12.503  0.00  0.00     0.245 HD
ENDBRANCH  12  18
ENDBRANCH   2  12
TORSDOF 3
ENDMDL
MODEL 5
REMARK VINA RESULT:      -6.5      4.981      8.022
REMARK  3 active torsions:
REMARK  status: ('A' for Active; 'I' for Inactive)
REMARK    1  A    between atoms: C2_2  and  C4_3 
REMARK    2  A    between atoms: C2_2  and  N13_12 
REMARK    3  A    between atoms: N13_12  and  O14_13 
REMARK       I    between atoms: N13_12  and  C15_14 
REMARK       I    between atoms: C15_14  and  N16_15 
ROOT
ATOM      1  C1  <0> d   1      18.886   4.749  13.090  0.00  0.00     0.041 C 
ATOM      2  C2  <0> d   1      18.528   3.309  12.720  0.00  0.00     0.155 C 
ENDROOT
BRANCH   2   3
ATOM      3  C4  <0> d   1      18.687   2.424  13.929  0.00  0.00     0.009 A 
ATOM      4  S12 <0> d   1      18.931   3.015  15.561  0.00  0.00    -0.092 SA
ATOM      5  C11 <0> d   1      18.996   1.383  16.215  0.00  0.00     0.015 A 
ATOM      6  C6  <0> d   1      18.841   0.456  15.181  0.00  0.00    -0.018 A 
ATOM      7  C10 <0> d   1      19.175   0.936  17.528  0.00  0.00     0.019 A 
ATOM      8  C5  <0> d   1      18.668   1.107  13.893  0.00  0.00     0.029 A 
ATOM      9  C7  <0> d   1      18.868  -0.920  15.492  0.00  0.00     0.013 A 
ATOM     10  C8  <0> d   1      19.044  -1.335  16.777  0.00  0.00     0.001 A 
ATOM     11  C9  <0> d   1      19.197  -0.411  17.802  0.00  0.00     0.001 A 
ENDBRANCH   2   3
BRANCH   2  12
ATOM     12  N13 <0> d   1      19.419   2.842  11.654  0.00  0.00    -0.201 N 
ATOM     13  C15 <0> d   1      18.901   2.337  10.516  0.00  0.00     0.340 C 
ATOM     14  N16 <0> d   1      19.715   1.994   9.500  0.00  0.00    -0.350 N 
ATOM     15  O17 <0> d   1      17.699   2.192  10.408  0.00  0.00    -0.245 OA
ATOM     16  H27 <0> d   1      20.678   2.039   9.613  0.00  0.00     0.160 HD
ATOM     17  H28 <0> d   1      19.340   1.701   8.654  0.00  0.00     0.160 HD
BRANCH  12  18
ATOM     18  O14 <0> d   1      20.823   2.920  11.819  0.00  0.00    -0.283 OA
ATOM     19  H26 <0> d   1      21.315   2.258  11.314  0.00  0.00     0.245 HD
ENDBRANCH  12  18
ENDBRANCH   2  12
TORSDOF 3
ENDMDL
MODEL 6
REMARK VINA RESULT:      -6.5      1.620      1.759
REMARK  3 active torsions:
REMARK  status: ('A' for Active; 'I' for Inactive)
REMARK    1  A    between atoms: C2_2  and  C4_3 
REMARK    2  A    between atoms: C2_2  and  N13_12 
REMARK    3  A    between atoms: N13_12  and  O14_13 
REMARK       I    between atoms: N13_12  and  C15_14 
REMARK       I    between atoms: C15_14  and  N16_15 
ROOT
ATOM      1  C1  <0> d   1      17.532   0.189  11.453  0.00  0.00     0.041 C 
ATOM      2  C2  <0> d   1      18.159   1.175  10.468  0.00  0.00     0.155 C 
ENDROOT
BRANCH   2   3
ATOM      3  C4  <0> d   1      18.367   0.494   9.140  0.00  0.00     0.009 A 
ATOM      4  S12 <0> d   1      18.252  -1.236   8.887  0.00  0.00    -0.092 SA
ATOM      5  C11 <0> d   1      18.618  -1.079   7.173  0.00  0.00     0.015 A 
ATOM      6  C6  <0> d   1      18.823   0.268   6.858  0.00  0.00    -0.018 A 
ATOM      7  C10 <0> d   1      18.728  -2.051   6.174  0.00  0.00     0.019 A 
ATOM      8  C5  <0> d   1      18.667   1.125   8.022  0.00  0.00     0.029 A 
ATOM      9  C7  <0> d   1      19.136   0.614   5.527  0.00  0.00     0.013 A 
ATOM     10  C8  <0> d   1      19.239  -0.348   4.568  0.00  0.00     0.001 A 
ATOM     11  C9  <0> d   1      19.035  -1.684   4.885  0.00  0.00     0.001 A 
ENDBRANCH   2   3
BRANCH   2  12
ATOM     12  N13 <0> d   1      19.450   1.633  10.989  0.00  0.00    -0.201 N 
ATOM     13  C15 <0> d   1      19.655   2.944  11.224  0.00  0.00     0.340 C 
ATOM     14  N16 <0> d   1      20.807   3.355  11.789  0.00  0.00    -0.350 N 
ATOM     15  O17 <0> d   1      18.801   3.756  10.927  0.00  0.00    -0.245 OA
ATOM     16  H27 <0> d   1      21.519   2.718  11.958  0.00  0.00     0.160 HD
ATOM     17  H28 <0> d   1      20.925   4.289  12.027  0.00  0.00     0.160 HD
BRANCH  12  18
ATOM     18  O14 <0> d   1      20.483   0.698  11.243  0.00  0.00    -0.283 OA
ATOM     19  H26 <0> d   1      21.016   0.481  10.466  0.00  0.00     0.245 HD
ENDBRANCH  12  18
ENDBRANCH   2  12
TORSDOF 3
ENDMDL
MODEL 7
REMARK VINA RESULT:      -6.3      1.927      2.508
REMARK  3 active torsions:
REMARK  status: ('A' for Active; 'I' for Inactive)
REMARK    1  A    between atoms: C2_2  and  C4_3 
REMARK    2  A    between atoms: C2_2  and  N13_12 
REMARK    3  A    between atoms: N13_12  and  O14_13 
REMARK       I    between atoms: N13_12  and  C15_14 
REMARK       I    between atoms: C15_14  and  N16_15 
ROOT
ATOM      1  C1  <0> d   1      18.400   3.295  10.296  0.00  0.00     0.041 C 
ATOM      2  C2  <0> d   1      19.096   1.958  10.556  0.00  0.00     0.155 C 
ENDROOT
BRANCH   2   3
ATOM      3  C4  <0> d   1      19.123   1.150   9.284  0.00  0.00     0.009 A 
ATOM      4  S12 <0> d   1      19.244  -0.596   9.226  0.00  0.00    -0.092 SA
ATOM      5  C11 <0> d   1      19.202  -0.609   7.467  0.00  0.00     0.015 A 
ATOM      6  C6  <0> d   1      19.106   0.702   6.990  0.00  0.00    -0.018 A 
ATOM      7  C10 <0> d   1      19.253  -1.675   6.563  0.00  0.00     0.019 A 
ATOM      8  C5  <0> d   1      19.065   1.669   8.074  0.00  0.00     0.029 A 
ATOM      9  C7  <0> d   1      19.063   0.916   5.596  0.00  0.00     0.013 A 
ATOM     10  C8  <0> d   1      19.115  -0.135   4.733  0.00  0.00     0.001 A 
ATOM     11  C9  <0> d   1      19.210  -1.436   5.210  0.00  0.00     0.001 A 
ENDBRANCH   2   3
BRANCH   2  12
ATOM     12  N13 <0> d   1      18.365   1.218  11.588  0.00  0.00    -0.201 N 
ATOM     13  C15 <0> d   1      19.028   0.693  12.638  0.00  0.00     0.340 C 
ATOM     14  N16 <0> d   1      18.346   0.093  13.633  0.00  0.00    -0.350 N 
ATOM     15  O17 <0> d   1      20.240   0.761  12.686  0.00  0.00    -0.245 OA
ATOM     16  H27 <0> d   1      17.386  -0.028  13.560  0.00  0.00     0.160 HD
ATOM     17  H28 <0> d   1      18.815  -0.218  14.424  0.00  0.00     0.160 HD
BRANCH  12  18
ATOM     18  O14 <0> d   1      16.963   1.054  11.482  0.00  0.00    -0.283 OA
ATOM     19  H26 <0> d   1      16.496   1.104  12.328  0.00  0.00     0.245 HD
ENDBRANCH  12  18
ENDBRANCH   2  12
TORSDOF 3
ENDMDL
MODEL 8
REMARK VINA RESULT:      -6.2      3.316      4.328
REMARK  3 active torsions:
REMARK  status: ('A' for Active; 'I' for Inactive)
REMARK    1  A    between atoms: C2_2  and  C4_3 
REMARK    2  A    between atoms: C2_2  and  N13_12 
REMARK    3  A    between atoms: N13_12  and  O14_13 
REMARK       I    between atoms: N13_12  and  C15_14 
REMARK       I    between atoms: C15_14  and  N16_15 
ROOT
ATOM      1  C1  <0> d   1      20.297   4.060  11.847  0.00  0.00     0.041 C 
ATOM      2  C2  <0> d   1      19.304   2.963  12.233  0.00  0.00     0.155 C 
ENDROOT
BRANCH   2   3
ATOM      3  C4  <0> d   1      18.897   2.197  11.001  0.00  0.00     0.009 A 
ATOM      4  S12 <0> d   1      17.862   0.783  11.014  0.00  0.00    -0.092 SA
ATOM      5  C11 <0> d   1      17.955   0.615   9.264  0.00  0.00     0.015 A 
ATOM      6  C6  <0> d   1      18.769   1.623   8.739  0.00  0.00    -0.018 A 
ATOM      7  C10 <0> d   1      17.372  -0.324   8.409  0.00  0.00     0.019 A 
ATOM      8  C5  <0> d   1      19.282   2.501   9.778  0.00  0.00     0.029 A 
ATOM      9  C7  <0> d   1      18.981   1.667   7.345  0.00  0.00     0.013 A 
ATOM     10  C8  <0> d   1      18.405   0.742   6.528  0.00  0.00     0.001 A 
ATOM     11  C9  <0> d   1      17.597  -0.257   7.054  0.00  0.00     0.001 A 
ENDBRANCH   2   3
BRANCH   2  12
ATOM     12  N13 <0> d   1      18.117   3.570  12.844  0.00  0.00    -0.201 N 
ATOM     13  C15 <0> d   1      18.051   3.723  14.181  0.00  0.00     0.340 C 
ATOM     14  N16 <0> d   1      17.003   4.363  14.735  0.00  0.00    -0.350 N 
ATOM     15  O17 <0> d   1      18.938   3.284  14.887  0.00  0.00    -0.245 OA
ATOM     16  H27 <0> d   1      16.260   4.648  14.180  0.00  0.00     0.160 HD
ATOM     17  H28 <0> d   1      16.991   4.540  15.689  0.00  0.00     0.160 HD
BRANCH  12  18
ATOM     18  O14 <0> d   1      17.040   3.992  12.029  0.00  0.00    -0.283 OA
ATOM     19  H26 <0> d   1      17.299   4.592  11.315  0.00  0.00     0.245 HD
ENDBRANCH  12  18
ENDBRANCH   2  12
TORSDOF 3
ENDMDL
MODEL 9
REMARK VINA RESULT:      -6.0      3.609      5.839
REMARK  3 active torsions:
REMARK  status: ('A' for Active; 'I' for Inactive)
REMARK    1  A    between atoms: C2_2  and  C4_3 
REMARK    2  A    between atoms: C2_2  and  N13_12 
REMARK    3  A    between atoms: N13_12  and  O14_13 
REMARK       I    between atoms: N13_12  and  C15_14 
REMARK       I    between atoms: C15_14  and  N16_15 
ROOT
ATOM      1  C1  <0> d   1      18.826  -0.929   4.411  0.00  0.00     0.041 C 
ATOM      2  C2  <0> d   1      18.179  -1.552   5.649  0.00  0.00     0.155 C 
ENDROOT
BRANCH   2   3
ATOM      3  C4  <0> d   1      18.234  -0.571   6.792  0.00  0.00     0.009 A 
ATOM      4  S12 <0> d   1      19.065   0.971   6.732  0.00  0.00    -0.092 SA
ATOM      5  C11 <0> d   1      18.602   1.361   8.384  0.00  0.00     0.015 A 
ATOM      6  C6  <0> d   1      17.848   0.314   8.921  0.00  0.00    -0.018 A 
ATOM      7  C10 <0> d   1      18.877   2.489   9.163  0.00  0.00     0.019 A 
ATOM      8  C5  <0> d   1      17.667  -0.767   7.966  0.00  0.00     0.029 A 
ATOM      9  C7  <0> d   1      17.378   0.424  10.247  0.00  0.00     0.013 A 
ATOM     10  C8  <0> d   1      17.657   1.531  10.989  0.00  0.00     0.001 A 
ATOM     11  C9  <0> d   1      18.407   2.570  10.453  0.00  0.00     0.001 A 
ENDBRANCH   2   3
BRANCH   2  12
ATOM     12  N13 <0> d   1      18.904  -2.771   6.019  0.00  0.00    -0.201 N 
ATOM     13  C15 <0> d   1      18.450  -3.973   5.612  0.00  0.00     0.340 C 
ATOM     14  N16 <0> d   1      19.164  -5.086   5.872  0.00  0.00    -0.350 N 
ATOM     15  O17 <0> d   1      17.397  -4.054   5.009  0.00  0.00    -0.245 OA
ATOM     16  H27 <0> d   1      19.965  -5.032   6.416  0.00  0.00     0.160 HD
ATOM     17  H28 <0> d   1      18.877  -5.942   5.515  0.00  0.00     0.160 HD
BRANCH  12  18
ATOM     18  O14 <0> d   1      20.078  -2.687   6.805  0.00  0.00    -0.283 OA
ATOM     19  H26 <0> d   1      20.807  -2.220   6.373  0.00  0.00     0.245 HD
ENDBRANCH  12  18
ENDBRANCH   2  12
TORSDOF 3
ENDMDL
