MODEL 1
REMARK VINA RESULT:       6.4      0.000      0.000
REMARK  9 active torsions:
REMARK  status: ('A' for Active; 'I' for Inactive)
REMARK    1  A    between atoms: O2_2  and  C3_3 
REMARK    2  A    between atoms: C17_16  and  O18_17 
REMARK    3  A    between atoms: C31_29  and  O33_30 
REMARK    4  A    between atoms: C37_33  and  O39_34 
REMARK    5  A    between atoms: C43_37  and  O45_38 
REMARK    6  A    between atoms: O45_38  and  C46_39 
REMARK    7  A    between atoms: C52_44  and  C53_45 
REMARK    8  A    between atoms: N54_46  and  N55_47 
REMARK    9  A    between atoms: C62_54  and  O63_55 
ROOT
ATOM      1  C3  ZIN A   1      18.445  -1.031  16.074  0.00  0.00     0.151 C 
ATOM      2  C5  ZIN A   1      18.907  -0.625  14.697  0.00  0.00     0.029 C 
ATOM      3  C6  ZIN A   1      18.510  -1.270  13.616  0.00  0.00     0.137 C 
ATOM      4  O7  ZIN A   1      18.991  -0.911  12.394  0.00  0.00    -0.319 OA
ATOM      5  C8  ZIN A   1      19.008   0.445  12.022  0.00  0.00     0.237 C 
ATOM      6  C9  ZIN A   1      20.366   1.094  12.313  0.00  0.00     0.089 C 
ATOM      7  O10 ZIN A   1      18.707   0.681  10.623  0.00  0.00    -0.305 OA
ATOM      8  C11 ZIN A   1      18.323   1.997  10.587  0.00  0.00     0.097 C 
ATOM      9  C12 ZIN A   1      18.390   2.932   9.558  0.00  0.00     0.010 C 
ATOM     10  C13 ZIN A   1      18.881   2.502   8.201  0.00  0.00     0.054 C 
ATOM     11  C14 ZIN A   1      18.042   4.256   9.749  0.00  0.00     0.130 C 
ATOM     12  O15 ZIN A   1      18.168   5.113   8.706  0.00  0.00    -0.190 OA
ATOM     13  C16 ZIN A   1      17.543   4.717  10.985  0.00  0.00     0.051 C 
ATOM     14  C17 ZIN A   1      17.369   6.087  11.289  0.00  0.00     0.107 C 
ATOM     15  C19 ZIN A   1      16.782   6.478  12.475  0.00  0.00     0.084 C 
ATOM     16  N20 ZIN A   1      16.690   7.806  12.878  0.00  0.00    -0.320 N 
ATOM     17  C21 ZIN A   1      17.117   8.235  14.050  0.00  0.00     0.251 C 
ATOM     18  O22 ZIN A   1      18.318   8.231  14.239  0.00  0.00    -0.268 OA
ATOM     19  C23 ZIN A   1      16.350   8.698  15.179  0.00  0.00     0.006 C 
ATOM     20  C24 ZIN A   1      14.934   9.192  14.995  0.00  0.00     0.054 C 
ATOM     21  C25 ZIN A   1      16.858   8.697  16.432  0.00  0.00     0.012 C 
ATOM     22  C26 ZIN A   1      18.233   8.438  16.783  0.00  0.00    -0.003 C 
ATOM     23  C27 ZIN A   1      18.691   7.511  17.594  0.00  0.00    -0.020 C 
ATOM     24  C28 ZIN A   1      17.827   6.479  18.276  0.00  0.00     0.033 C 
ATOM     25  C30 ZIN A   1      17.594   6.916  19.728  0.00  0.00     0.017 C 
ATOM     26  C31 ZIN A   1      18.584   5.151  18.262  0.00  0.00     0.131 C 
ATOM     27  C34 ZIN A   1      17.662   3.931  18.383  0.00  0.00     0.040 C 
ATOM     28  C36 ZIN A   1      16.637   3.964  17.243  0.00  0.00     0.015 C 
ATOM     29  C37 ZIN A   1      18.516   2.667  18.250  0.00  0.00     0.130 C 
ATOM     30  C40 ZIN A   1      17.987   1.468  19.010  0.00  0.00     0.041 C 
ATOM     31  C42 ZIN A   1      16.534   1.591  19.454  0.00  0.00     0.015 C 
ATOM     32  C43 ZIN A   1      18.222   0.155  18.268  0.00  0.00     0.144 C 
ATOM     33  C49 ZIN A   1      17.851   0.195  16.793  0.00  0.00     0.044 C 
ATOM     34  C51 ZIN A   1      16.327   0.122  16.622  0.00  0.00     0.015 C 
ATOM     35  C52 ZIN A   1      16.216   5.477  13.311  0.00  0.00     0.047 C 
ATOM     36  C62 ZIN A   1      16.532   4.136  13.106  0.00  0.00     0.092 C 
ATOM     37  C64 ZIN A   1      17.258   3.742  11.982  0.00  0.00     0.031 C 
ATOM     38  C65 ZIN A   1      17.786   2.383  11.832  0.00  0.00     0.064 C 
ATOM     39  C66 ZIN A   1      17.909   1.264  12.700  0.00  0.00     0.225 C 
ATOM     40  O67 ZIN A   1      17.290   1.019  13.704  0.00  0.00    -0.286 OA
ATOM     41  H80 ZIN A   1      16.283   8.451  12.257  0.00  0.00     0.169 HD
ENDROOT
BRANCH  35  42
ATOM     42  C53 ZIN A   1      15.289   5.820  14.399  0.00  0.00     0.155 C 
ATOM     43  N54 ZIN A   1      14.011   5.868  14.174  0.00  0.00    -0.189 NA
BRANCH  43  44
ATOM     44  N55 ZIN A   1      13.139   6.314  15.174  0.00  0.00    -0.302 N 
ATOM     45  C61 ZIN A   1      11.888   7.007  14.831  0.00  0.00     0.174 C 
ATOM     46  C60 ZIN A   1      11.813   8.308  15.629  0.00  0.00     0.293 C 
ATOM     47  N58 ZIN A   1      11.990   8.017  17.058  0.00  0.00     0.087 N 
ATOM     48  C57 ZIN A   1      13.318   7.448  17.325  0.00  0.00     0.293 C 
ATOM     49  C59 ZIN A   1      11.757   9.216  17.873  0.00  0.00     0.310 C 
ATOM     50  C56 ZIN A   1      13.453   6.107  16.597  0.00  0.00     0.174 C 
ENDBRANCH  43  44
ENDBRANCH  35  42
BRANCH  36  51
ATOM     51  O63 ZIN A   1      16.055   3.209  13.977  0.00  0.00    -0.359 OA
ATOM     52 6H11 ZIN A   1      15.094   3.232  14.088  0.00  0.00     0.217 HD
ENDBRANCH  36  51
BRANCH  14  53
ATOM     53  O18 ZIN A   1      17.770   7.031  10.398  0.00  0.00    -0.357 OA
ATOM     54  H79 ZIN A   1      17.115   7.232   9.715  0.00  0.00     0.217 HD
ENDBRANCH  14  53
BRANCH  26  55
ATOM     55  O33 ZIN A   1      19.342   5.051  17.053  0.00  0.00    -0.394 OA
ATOM     56  H90 ZIN A   1      19.518   5.901  16.627  0.00  0.00     0.210 HD
ENDBRANCH  26  55
BRANCH   1  57
ATOM     57  O2  ZIN A   1      17.435  -2.036  15.967  0.00  0.00    -0.386 OA
ATOM     58  C1  ZIN A   1      17.702  -3.213  16.732  0.00  0.00     0.202 C 
ENDBRANCH   1  57
BRANCH  29  59
ATOM     59  O39 ZIN A   1      19.844   2.955  18.740  0.00  0.00    -0.395 OA
ATOM     60  H94 ZIN A   1      19.869   3.623  19.439  0.00  0.00     0.210 HD
ENDBRANCH  29  59
BRANCH  32  61
ATOM     61  O45 ZIN A   1      19.635  -0.193  18.397  0.00  0.00    -0.315 OA
BRANCH  61  62
ATOM     62  C46 ZIN A   1      19.927  -1.485  18.615  0.00  0.00     0.255 C 
ATOM     63  C47 ZIN A   1      20.754  -2.250  17.615  0.00  0.00     0.126 C 
ATOM     64  O48 ZIN A   1      19.527  -2.035  19.614  0.00  0.00    -0.266 OA
ENDBRANCH  61  62
ENDBRANCH  32  61
TORSDOF 9
ENDMDL
