MODEL 1
REMARK VINA RESULT:      -7.6      0.000      0.000
REMARK  1 active torsions:
REMARK  status: ('A' for Active; 'I' for Inactive)
REMARK    1  A    between atoms: C23_20  and  O24_21 
ROOT
ATOM      1  C1  ZIN A   1      18.059  -1.188   7.501  0.00  0.00     0.310 C 
ATOM      2  N2  ZIN A   1      18.652  -1.227   8.844  0.00  0.00     0.089 N 
ATOM      3  C3  ZIN A   1      19.876  -0.419   8.904  0.00  0.00     0.273 C 
ATOM      4  C4  ZIN A   1      20.535  -0.572  10.280  0.00  0.00     0.048 C 
ATOM      5  C5  ZIN A   1      19.524  -0.161  11.347  0.00  0.00     0.031 C 
ATOM      6  C6  ZIN A   1      19.057   1.251  11.090  0.00  0.00    -0.003 C 
ATOM      7  C7  ZIN A   1      19.803   2.095  11.899  0.00  0.00     0.110 C 
ATOM      8  O8  ZIN A   1      20.631   1.377  12.688  0.00  0.00    -0.334 OA
ATOM      9  C9  ZIN A   1      20.172  -0.008  12.716  0.00  0.00     0.212 C 
ATOM     10  C11 ZIN A   1      19.193  -0.132  13.845  0.00  0.00     0.157 C 
ATOM     11  O12 ZIN A   1      19.452   0.405  14.896  0.00  0.00    -0.295 OA
ATOM     12  C13 ZIN A   1      17.903  -0.889  13.730  0.00  0.00     0.081 C 
ATOM     13  C14 ZIN A   1      17.266  -0.630  12.363  0.00  0.00     0.015 C 
ATOM     14  C15 ZIN A   1      18.281  -1.033  11.254  0.00  0.00     0.036 C 
ATOM     15  C17 ZIN A   1      17.675  -0.825   9.863  0.00  0.00     0.232 C 
ATOM     16  C19 ZIN A   1      17.207   0.596   9.594  0.00  0.00     0.075 C 
ATOM     17  C20 ZIN A   1      18.008   1.636  10.286  0.00  0.00    -0.046 C 
ATOM     18  C21 ZIN A   1      17.798   2.999  10.177  0.00  0.00     0.011 C 
ATOM     19  C22 ZIN A   1      18.557   3.885  10.925  0.00  0.00     0.040 C 
ATOM     20  C23 ZIN A   1      19.568   3.472  11.803  0.00  0.00     0.099 C 
ENDROOT
BRANCH  20  21
ATOM     21  O24 ZIN A   1      20.271   4.366  12.547  0.00  0.00    -0.358 OA
ATOM     22  H40 ZIN A   1      19.724   5.034  12.982  0.00  0.00     0.217 HD
ENDBRANCH  20  21
TORSDOF 1
ENDMDL
MODEL 2
REMARK VINA RESULT:      -7.3      2.597      4.960
REMARK  1 active torsions:
REMARK  status: ('A' for Active; 'I' for Inactive)
REMARK    1  A    between atoms: C23_20  and  O24_21 
ROOT
ATOM      1  C1  ZIN A   1      18.736   0.612  15.468  0.00  0.00     0.310 C 
ATOM      2  N2  ZIN A   1      19.237   1.033  14.152  0.00  0.00     0.089 N 
ATOM      3  C3  ZIN A   1      20.243   0.091  13.647  0.00  0.00     0.273 C 
ATOM      4  C4  ZIN A   1      20.832   0.615  12.331  0.00  0.00     0.048 C 
ATOM      5  C5  ZIN A   1      19.690   0.821  11.340  0.00  0.00     0.031 C 
ATOM      6  C6  ZIN A   1      18.936  -0.473  11.154  0.00  0.00    -0.003 C 
ATOM      7  C7  ZIN A   1      19.422  -1.083  10.007  0.00  0.00     0.110 C 
ATOM      8  O8  ZIN A   1      20.338  -0.291   9.408  0.00  0.00    -0.334 OA
ATOM      9  C9  ZIN A   1      20.201   1.066   9.926  0.00  0.00     0.212 C 
ATOM     10  C11 ZIN A   1      19.204   1.776   9.059  0.00  0.00     0.157 C 
ATOM     11  O12 ZIN A   1      19.271   1.627   7.862  0.00  0.00    -0.295 OA
ATOM     12  C13 ZIN A   1      18.127   2.663   9.608  0.00  0.00     0.081 C 
ATOM     13  C14 ZIN A   1      17.535   2.042  10.875  0.00  0.00     0.015 C 
ATOM     14  C15 ZIN A   1      18.682   1.812  11.902  0.00  0.00     0.036 C 
ATOM     15  C17 ZIN A   1      18.133   1.223  13.205  0.00  0.00     0.232 C 
ATOM     16  C19 ZIN A   1      17.377  -0.083  13.027  0.00  0.00     0.075 C 
ATOM     17  C20 ZIN A   1      17.880  -0.925  11.912  0.00  0.00    -0.046 C 
ATOM     18  C21 ZIN A   1      17.377  -2.168  11.570  0.00  0.00     0.011 C 
ATOM     19  C22 ZIN A   1      17.871  -2.840  10.463  0.00  0.00     0.040 C 
ATOM     20  C23 ZIN A   1      18.891  -2.328   9.652  0.00  0.00     0.099 C 
ENDROOT
BRANCH  20  21
ATOM     21  O24 ZIN A   1      19.329  -2.999   8.553  0.00  0.00    -0.358 OA
ATOM     22  H40 ZIN A   1      19.662  -3.887   8.740  0.00  0.00     0.217 HD
ENDBRANCH  20  21
TORSDOF 1
ENDMDL
MODEL 3
REMARK VINA RESULT:      -7.2      1.988      4.243
REMARK  1 active torsions:
REMARK  status: ('A' for Active; 'I' for Inactive)
REMARK    1  A    between atoms: C23_20  and  O24_21 
ROOT
ATOM      1  C1  ZIN A   1      18.950  -3.760  10.684  0.00  0.00     0.310 C 
ATOM      2  N2  ZIN A   1      18.642  -2.327  10.782  0.00  0.00     0.089 N 
ATOM      3  C3  ZIN A   1      17.371  -2.109  11.484  0.00  0.00     0.273 C 
ATOM      4  C4  ZIN A   1      17.017  -0.617  11.469  0.00  0.00     0.048 C 
ATOM      5  C5  ZIN A   1      18.167   0.158  12.109  0.00  0.00     0.031 C 
ATOM      6  C6  ZIN A   1      18.413  -0.357  13.505  0.00  0.00    -0.003 C 
ATOM      7  C7  ZIN A   1      17.753   0.484  14.388  0.00  0.00     0.110 C 
ATOM      8  O8  ZIN A   1      17.182   1.509  13.719  0.00  0.00    -0.334 OA
ATOM      9  C9  ZIN A   1      17.787   1.605  12.394  0.00  0.00     0.212 C 
ATOM     10  C11 ZIN A   1      18.978   2.510  12.512  0.00  0.00     0.157 C 
ATOM     11  O12 ZIN A   1      18.872   3.520  13.166  0.00  0.00    -0.295 OA
ATOM     12  C13 ZIN A   1      20.295   2.217  11.858  0.00  0.00     0.081 C 
ATOM     13  C14 ZIN A   1      20.618   0.726  11.978  0.00  0.00     0.015 C 
ATOM     14  C15 ZIN A   1      19.455  -0.089  11.340  0.00  0.00     0.036 C 
ATOM     15  C17 ZIN A   1      19.749  -1.591  11.403  0.00  0.00     0.232 C 
ATOM     16  C19 ZIN A   1      19.994  -2.119  12.807  0.00  0.00     0.075 C 
ATOM     17  C20 ZIN A   1      19.234  -1.403  13.862  0.00  0.00    -0.046 C 
ATOM     18  C21 ZIN A   1      19.267  -1.714  15.210  0.00  0.00     0.011 C 
ATOM     19  C22 ZIN A   1      18.575  -0.934  16.123  0.00  0.00     0.040 C 
ATOM     20  C23 ZIN A   1      17.810   0.178  15.752  0.00  0.00     0.099 C 
ENDROOT
BRANCH  20  21
ATOM     21  O24 ZIN A   1      17.172   0.942  16.678  0.00  0.00    -0.358 OA
ATOM     22  H40 ZIN A   1      17.404   1.880  16.643  0.00  0.00     0.217 HD
ENDBRANCH  20  21
TORSDOF 1
ENDMDL
MODEL 4
REMARK VINA RESULT:      -7.1      3.460      5.074
REMARK  1 active torsions:
REMARK  status: ('A' for Active; 'I' for Inactive)
REMARK    1  A    between atoms: C23_20  and  O24_21 
ROOT
ATOM      1  C1  ZIN A   1      19.140   1.277  13.571  0.00  0.00     0.310 C 
ATOM      2  N2  ZIN A   1      18.672  -0.052  13.158  0.00  0.00     0.089 N 
ATOM      3  C3  ZIN A   1      17.510   0.053  12.267  0.00  0.00     0.273 C 
ATOM      4  C4  ZIN A   1      16.972  -1.347  11.946  0.00  0.00     0.048 C 
ATOM      5  C5  ZIN A   1      18.099  -2.166  11.323  0.00  0.00     0.031 C 
ATOM      6  C6  ZIN A   1      18.625  -1.460  10.098  0.00  0.00    -0.003 C 
ATOM      7  C7  ZIN A   1      18.009  -2.024   8.990  0.00  0.00     0.110 C 
ATOM      8  O8  ZIN A   1      17.215  -3.049   9.367  0.00  0.00    -0.334 OA
ATOM      9  C9  ZIN A   1      17.589  -3.466  10.715  0.00  0.00     0.212 C 
ATOM     10  C11 ZIN A   1      18.659  -4.508  10.580  0.00  0.00     0.157 C 
ATOM     11  O12 ZIN A   1      18.530  -5.361   9.735  0.00  0.00    -0.295 OA
ATOM     12  C13 ZIN A   1      19.884  -4.540  11.445  0.00  0.00     0.081 C 
ATOM     13  C14 ZIN A   1      20.408  -3.118  11.660  0.00  0.00     0.015 C 
ATOM     14  C15 ZIN A   1      19.273  -2.257  12.287  0.00  0.00     0.036 C 
ATOM     15  C17 ZIN A   1      19.761  -0.830  12.555  0.00  0.00     0.232 C 
ATOM     16  C19 ZIN A   1      20.287  -0.111  11.325  0.00  0.00     0.075 C 
ATOM     17  C20 ZIN A   1      19.618  -0.507  10.061  0.00  0.00    -0.046 C 
ATOM     18  C21 ZIN A   1      19.900   0.025   8.815  0.00  0.00     0.011 C 
ATOM     19  C22 ZIN A   1      19.267  -0.469   7.685  0.00  0.00     0.040 C 
ATOM     20  C23 ZIN A   1      18.318  -1.498   7.730  0.00  0.00     0.099 C 
ENDROOT
BRANCH  20  21
ATOM     21  O24 ZIN A   1      17.741  -1.982   6.598  0.00  0.00    -0.358 OA
ATOM     22  H40 ZIN A   1      18.339  -2.502   6.043  0.00  0.00     0.217 HD
ENDBRANCH  20  21
TORSDOF 1
ENDMDL
MODEL 5
REMARK VINA RESULT:      -7.0      2.492      4.809
REMARK  1 active torsions:
REMARK  status: ('A' for Active; 'I' for Inactive)
REMARK    1  A    between atoms: C23_20  and  O24_21 
ROOT
ATOM      1  C1  ZIN A   1      17.677   3.481  13.398  0.00  0.00     0.310 C 
ATOM      2  N2  ZIN A   1      18.216   2.952  12.138  0.00  0.00     0.089 N 
ATOM      3  C3  ZIN A   1      19.593   2.475  12.313  0.00  0.00     0.273 C 
ATOM      4  C4  ZIN A   1      20.169   2.038  10.961  0.00  0.00     0.048 C 
ATOM      5  C5  ZIN A   1      19.260   0.961  10.375  0.00  0.00     0.031 C 
ATOM      6  C6  ZIN A   1      19.142  -0.189  11.345  0.00  0.00    -0.003 C 
ATOM      7  C7  ZIN A   1      20.047  -1.164  10.955  0.00  0.00     0.110 C 
ATOM      8  O8  ZIN A   1      20.667  -0.797   9.813  0.00  0.00    -0.334 OA
ATOM      9  C9  ZIN A   1      19.898   0.268   9.178  0.00  0.00     0.212 C 
ATOM     10  C11 ZIN A   1      18.893  -0.383   8.275  0.00  0.00     0.157 C 
ATOM     11  O12 ZIN A   1      19.249  -1.314   7.593  0.00  0.00    -0.295 OA
ATOM     12  C13 ZIN A   1      17.465   0.066   8.182  0.00  0.00     0.081 C 
ATOM     13  C14 ZIN A   1      16.935   0.413   9.575  0.00  0.00     0.015 C 
ATOM     14  C15 ZIN A   1      17.851   1.505  10.200  0.00  0.00     0.036 C 
ATOM     15  C17 ZIN A   1      17.338   1.913  11.585  0.00  0.00     0.232 C 
ATOM     16  C19 ZIN A   1      17.221   0.762  12.569  0.00  0.00     0.075 C 
ATOM     17  C20 ZIN A   1      18.228  -0.310  12.368  0.00  0.00    -0.046 C 
ATOM     18  C21 ZIN A   1      18.344  -1.444  13.151  0.00  0.00     0.011 C 
ATOM     19  C22 ZIN A   1      19.274  -2.421  12.832  0.00  0.00     0.040 C 
ATOM     20  C23 ZIN A   1      20.142  -2.321  11.737  0.00  0.00     0.099 C 
ENDROOT
BRANCH  20  21
ATOM     21  O24 ZIN A   1      21.018  -3.314  11.432  0.00  0.00    -0.358 OA
ATOM     22  H40 ZIN A   1      20.599  -4.160  11.225  0.00  0.00     0.217 HD
ENDBRANCH  20  21
TORSDOF 1
ENDMDL
MODEL 6
REMARK VINA RESULT:      -6.9      2.960      4.573
REMARK  1 active torsions:
REMARK  status: ('A' for Active; 'I' for Inactive)
REMARK    1  A    between atoms: C23_20  and  O24_21 
ROOT
ATOM      1  C1  ZIN A   1      18.895   3.876  12.331  0.00  0.00     0.310 C 
ATOM      2  N2  ZIN A   1      18.596   2.441  12.244  0.00  0.00     0.089 N 
ATOM      3  C3  ZIN A   1      17.320   2.210  11.555  0.00  0.00     0.273 C 
ATOM      4  C4  ZIN A   1      16.977   0.715  11.581  0.00  0.00     0.048 C 
ATOM      5  C5  ZIN A   1      18.126  -0.055  10.934  0.00  0.00     0.031 C 
ATOM      6  C6  ZIN A   1      18.355   0.455   9.533  0.00  0.00    -0.003 C 
ATOM      7  C7  ZIN A   1      17.692  -0.396   8.661  0.00  0.00     0.110 C 
ATOM      8  O8  ZIN A   1      17.135  -1.421   9.341  0.00  0.00    -0.334 OA
ATOM      9  C9  ZIN A   1      17.754  -1.506  10.660  0.00  0.00     0.212 C 
ATOM     10  C11 ZIN A   1      18.950  -2.402  10.535  0.00  0.00     0.157 C 
ATOM     11  O12 ZIN A   1      18.845  -3.417   9.888  0.00  0.00    -0.295 OA
ATOM     12  C13 ZIN A   1      20.271  -2.097  11.175  0.00  0.00     0.081 C 
ATOM     13  C14 ZIN A   1      20.582  -0.605  11.044  0.00  0.00     0.015 C 
ATOM     14  C15 ZIN A   1      19.420   0.206  11.689  0.00  0.00     0.036 C 
ATOM     15  C17 ZIN A   1      19.703   1.710  11.615  0.00  0.00     0.232 C 
ATOM     16  C19 ZIN A   1      19.930   2.232  10.206  0.00  0.00     0.075 C 
ATOM     17  C20 ZIN A   1      19.165   1.505   9.163  0.00  0.00    -0.046 C 
ATOM     18  C21 ZIN A   1      19.182   1.809   7.813  0.00  0.00     0.011 C 
ATOM     19  C22 ZIN A   1      18.487   1.020   6.910  0.00  0.00     0.040 C 
ATOM     20  C23 ZIN A   1      17.733  -0.096   7.294  0.00  0.00     0.099 C 
ENDROOT
BRANCH  20  21
ATOM     21  O24 ZIN A   1      17.092  -0.870   6.379  0.00  0.00    -0.358 OA
ATOM     22  H40 ZIN A   1      17.290  -0.639   5.461  0.00  0.00     0.217 HD
ENDBRANCH  20  21
TORSDOF 1
ENDMDL
MODEL 7
REMARK VINA RESULT:      -6.9      2.451      4.650
REMARK  1 active torsions:
REMARK  status: ('A' for Active; 'I' for Inactive)
REMARK    1  A    between atoms: C23_20  and  O24_21 
ROOT
ATOM      1  C1  ZIN A   1      18.728   0.300   6.180  0.00  0.00     0.310 C 
ATOM      2  N2  ZIN A   1      18.520   0.456   7.626  0.00  0.00     0.089 N 
ATOM      3  C3  ZIN A   1      17.197  -0.041   8.024  0.00  0.00     0.273 C 
ATOM      4  C4  ZIN A   1      16.961   0.241   9.512  0.00  0.00     0.048 C 
ATOM      5  C5  ZIN A   1      18.084  -0.416  10.311  0.00  0.00     0.031 C 
ATOM      6  C6  ZIN A   1      18.128  -1.893  10.008  0.00  0.00    -0.003 C 
ATOM      7  C7  ZIN A   1      17.436  -2.551  11.014  0.00  0.00     0.110 C 
ATOM      8  O8  ZIN A   1      17.025  -1.670  11.952  0.00  0.00    -0.334 OA
ATOM      9  C9  ZIN A   1      17.785  -0.433  11.804  0.00  0.00     0.212 C 
ATOM     10  C11 ZIN A   1      19.019  -0.564  12.647  0.00  0.00     0.157 C 
ATOM     11  O12 ZIN A   1      18.915  -1.041  13.752  0.00  0.00    -0.295 OA
ATOM     12  C13 ZIN A   1      20.377  -0.131  12.180  0.00  0.00     0.081 C 
ATOM     13  C14 ZIN A   1      20.570  -0.511  10.711  0.00  0.00     0.015 C 
ATOM     14  C15 ZIN A   1      19.431   0.139   9.873  0.00  0.00     0.036 C 
ATOM     15  C17 ZIN A   1      19.601  -0.183   8.385  0.00  0.00     0.232 C 
ATOM     16  C19 ZIN A   1      19.641  -1.670   8.071  0.00  0.00     0.075 C 
ATOM     17  C20 ZIN A   1      18.821  -2.502   8.986  0.00  0.00    -0.046 C 
ATOM     18  C21 ZIN A   1      18.674  -3.874   8.889  0.00  0.00     0.011 C 
ATOM     19  C22 ZIN A   1      17.942  -4.568   9.841  0.00  0.00     0.040 C 
ATOM     20  C23 ZIN A   1      17.311  -3.942  10.923  0.00  0.00     0.099 C 
ENDROOT
BRANCH  20  21
ATOM     21  O24 ZIN A   1      16.630  -4.656  11.858  0.00  0.00    -0.358 OA
ATOM     22  H40 ZIN A   1      16.612  -5.608  11.690  0.00  0.00     0.217 HD
ENDBRANCH  20  21
TORSDOF 1
ENDMDL
MODEL 8
REMARK VINA RESULT:      -6.8      3.312      5.686
REMARK  1 active torsions:
REMARK  status: ('A' for Active; 'I' for Inactive)
REMARK    1  A    between atoms: C23_20  and  O24_21 
ROOT
ATOM      1  C1  ZIN A   1      19.236   1.180  13.051  0.00  0.00     0.310 C 
ATOM      2  N2  ZIN A   1      19.419   0.833  11.635  0.00  0.00     0.089 N 
ATOM      3  C3  ZIN A   1      20.384  -0.263  11.483  0.00  0.00     0.273 C 
ATOM      4  C4  ZIN A   1      20.643  -0.525   9.994  0.00  0.00     0.048 C 
ATOM      5  C5  ZIN A   1      19.309  -0.838   9.320  0.00  0.00     0.031 C 
ATOM      6  C6  ZIN A   1      18.657  -2.014  10.003  0.00  0.00    -0.003 C 
ATOM      7  C7  ZIN A   1      18.954  -3.149   9.264  0.00  0.00     0.110 C 
ATOM      8  O8  ZIN A   1      19.653  -2.817   8.157  0.00  0.00    -0.334 OA
ATOM      9  C9  ZIN A   1      19.498  -1.386   7.912  0.00  0.00     0.212 C 
ATOM     10  C11 ZIN A   1      18.286  -1.209   7.047  0.00  0.00     0.157 C 
ATOM     11  O12 ZIN A   1      18.122  -1.967   6.121  0.00  0.00    -0.295 OA
ATOM     12  C13 ZIN A   1      17.265  -0.135   7.280  0.00  0.00     0.081 C 
ATOM     13  C14 ZIN A   1      17.002   0.019   8.779  0.00  0.00     0.015 C 
ATOM     14  C15 ZIN A   1      18.350   0.329   9.494  0.00  0.00     0.036 C 
ATOM     15  C17 ZIN A   1      18.133   0.528  10.997  0.00  0.00     0.232 C 
ATOM     16  C19 ZIN A   1      17.480  -0.654  11.693  0.00  0.00     0.075 C 
ATOM     17  C20 ZIN A   1      17.822  -1.970  11.097  0.00  0.00    -0.046 C 
ATOM     18  C21 ZIN A   1      17.377  -3.192  11.569  0.00  0.00     0.011 C 
ATOM     19  C22 ZIN A   1      17.696  -4.359  10.893  0.00  0.00     0.040 C 
ATOM     20  C23 ZIN A   1      18.479  -4.380   9.732  0.00  0.00     0.099 C 
ENDROOT
BRANCH  20  21
ATOM     21  O24 ZIN A   1      18.745  -5.540   9.075  0.00  0.00    -0.358 OA
ATOM     22  H40 ZIN A   1      19.510  -5.492   8.486  0.00  0.00     0.217 HD
ENDBRANCH  20  21
TORSDOF 1
ENDMDL
MODEL 9
REMARK VINA RESULT:      -6.8      2.213      4.148
REMARK  1 active torsions:
REMARK  status: ('A' for Active; 'I' for Inactive)
REMARK    1  A    between atoms: C23_20  and  O24_21 
ROOT
ATOM      1  C1  ZIN A   1      19.439  -1.220  14.992  0.00  0.00     0.310 C 
ATOM      2  N2  ZIN A   1      18.849  -1.185  13.647  0.00  0.00     0.089 N 
ATOM      3  C3  ZIN A   1      17.663  -0.320  13.615  0.00  0.00     0.273 C 
ATOM      4  C4  ZIN A   1      17.002  -0.393  12.233  0.00  0.00     0.048 C 
ATOM      5  C5  ZIN A   1      18.034   0.010  11.183  0.00  0.00     0.031 C 
ATOM      6  C6  ZIN A   1      18.563   1.389  11.491  0.00  0.00    -0.003 C 
ATOM      7  C7  ZIN A   1      17.859   2.294  10.712  0.00  0.00     0.110 C 
ATOM      8  O8  ZIN A   1      17.002   1.643   9.896  0.00  0.00    -0.334 OA
ATOM      9  C9  ZIN A   1      17.397   0.240   9.819  0.00  0.00     0.212 C 
ATOM     10  C11 ZIN A   1      18.374   0.113   8.688  0.00  0.00     0.157 C 
ATOM     11  O12 ZIN A   1      18.142   0.697   7.657  0.00  0.00    -0.295 OA
ATOM     12  C13 ZIN A   1      19.627  -0.706   8.778  0.00  0.00     0.081 C 
ATOM     13  C14 ZIN A   1      20.271  -0.525  10.154  0.00  0.00     0.015 C 
ATOM     14  C15 ZIN A   1      19.235  -0.921  11.246  0.00  0.00     0.036 C 
ATOM     15  C17 ZIN A   1      19.846  -0.791  12.645  0.00  0.00     0.232 C 
ATOM     16  C19 ZIN A   1      20.377   0.597  12.965  0.00  0.00     0.075 C 
ATOM     17  C20 ZIN A   1      19.626   1.696  12.310  0.00  0.00    -0.046 C 
ATOM     18  C21 ZIN A   1      19.898   3.044  12.467  0.00  0.00     0.011 C 
ATOM     19  C22 ZIN A   1      19.181   3.989  11.751  0.00  0.00     0.040 C 
ATOM     20  C23 ZIN A   1      18.156   3.654  10.858  0.00  0.00     0.099 C 
ENDROOT
BRANCH  20  21
ATOM     21  O24 ZIN A   1      17.496   4.605  10.144  0.00  0.00    -0.358 OA
ATOM     22  H40 ZIN A   1      16.701   4.943  10.579  0.00  0.00     0.217 HD
ENDBRANCH  20  21
TORSDOF 1
ENDMDL
