MODEL 1
REMARK VINA RESULT:      -9.1      0.000      0.000
REMARK  8 active torsions:
REMARK  status: ('A' for Active; 'I' for Inactive)
REMARK    1  A    between atoms: C4_4  and  N5_5 
REMARK    2  A    between atoms: N5_5  and  C6_6 
REMARK    3  A    between atoms: C9_9  and  C10_10 
REMARK       I    between atoms: C10_10  and  N12_12 
REMARK    4  A    between atoms: N12_12  and  C13_13 
REMARK    5  A    between atoms: C23_23  and  N24_24 
REMARK    6  A    between atoms: N27_27  and  C28_28 
REMARK    7  A    between atoms: C28_28  and  C29_29 
REMARK    8  A    between atoms: C29_29  and  O30_30 
ROOT
ATOM      1  N5  RES d   1      18.926   2.357   8.667  0.00  0.00    -0.203 NA
ENDROOT
BRANCH   1   2
ATOM      2  C4  RES d   1      18.964   1.150   7.979  0.00  0.00     0.157 A 
ATOM      3  N3  RES d   1      18.929   1.130   6.648  0.00  0.00    -0.214 NA
ATOM      4  C2  RES d   1      18.965  -0.009   5.988  0.00  0.00     0.127 A 
ATOM      5  C1  RES d   1      18.923   0.016   4.482  0.00  0.00     0.093 C 
ATOM      6  N33 RES d   1      19.030  -1.171   6.606  0.00  0.00    -0.216 NA
ATOM      7  C23 RES d   1      19.074  -1.236   7.935  0.00  0.00     0.131 A 
ATOM      8  C22 RES d   1      19.039  -0.054   8.671  0.00  0.00     0.102 A 
BRANCH   7   9
ATOM      9  N24 RES d   1      19.149  -2.462   8.578  0.00  0.00    -0.362 N 
ATOM     10  C32 RES d   1      19.033  -3.719   7.824  0.00  0.00     0.154 C 
ATOM     11  C31 RES d   1      17.979  -4.598   8.494  0.00  0.00     0.292 C 
ATOM     12  N27 RES d   1      18.307  -4.756   9.917  0.00  0.00     0.093 N 
ATOM     13  C26 RES d   1      18.270  -3.466  10.618  0.00  0.00     0.292 C 
ATOM     14  C25 RES d   1      19.342  -2.539  10.034  0.00  0.00     0.154 C 
BRANCH  12  15
ATOM     15  C28 RES d   1      17.415  -5.730  10.559  0.00  0.00     0.298 C 
BRANCH  15  16
ATOM     16  C29 RES d   1      17.278  -5.396  12.046  0.00  0.00     0.194 C 
BRANCH  16  17
ATOM     17  O30 RES d   1      17.467  -6.582  12.819  0.00  0.00    -0.399 OA
ATOM     18  H54 RES d   1      17.150  -7.388  12.387  0.00  0.00     0.209 HD
ENDBRANCH  16  17
ENDBRANCH  15  16
ENDBRANCH  12  15
ENDBRANCH   7   9
ENDBRANCH   1   2
BRANCH   1  19
ATOM     19  C6  RES d   1      18.982   2.367  10.046  0.00  0.00     0.195 A 
ATOM     20  S21 RES d   1      17.965   1.450  11.069  0.00  0.00    -0.043 SA
ATOM     21  C9  RES d   1      18.772   2.113  12.487  0.00  0.00     0.094 A 
ATOM     22  C8  RES d   1      19.737   2.978  12.053  0.00  0.00     0.144 A 
ATOM     23  N7  RES d   1      19.812   3.081  10.750  0.00  0.00    -0.234 NA
BRANCH  21  24
ATOM     24  C10 RES d   1      18.461   1.800  13.881  0.00  0.00     0.264 C 
ATOM     25  O11 RES d   1      17.334   1.976  14.309  0.00  0.00    -0.267 OA
ATOM     26  N12 RES d   1      19.422   1.318  14.695  0.00  0.00    -0.320 N 
ATOM     27  H38 RES d   1      20.305   1.128  14.342  0.00  0.00     0.169 HD
BRANCH  26  28
ATOM     28  C13 RES d   1      19.146   1.090  16.047  0.00  0.00     0.062 A 
ATOM     29  C19 RES d   1      19.295   2.119  16.971  0.00  0.00     0.061 A 
ATOM     30  C18 RES d   1      19.016   1.893  18.305  0.00  0.00     0.026 A 
ATOM     31 Cl20 RES d   1      19.818   3.690  16.446  0.00  0.00    -0.082 Cl
ATOM     32  C17 RES d   1      18.599   0.642  18.723  0.00  0.00     0.002 A 
ATOM     33  C16 RES d   1      18.457  -0.384  17.808  0.00  0.00     0.009 A 
ATOM     34  C14 RES d   1      18.728  -0.163  16.471  0.00  0.00    -0.034 A 
ATOM     35  C15 RES d   1      18.571  -1.283  15.474  0.00  0.00     0.050 C 
ENDBRANCH  26  28
ENDBRANCH  21  24
ENDBRANCH   1  19
TORSDOF 8
ENDMDL
MODEL 2
REMARK VINA RESULT:      -9.1      1.629      2.107
REMARK  8 active torsions:
REMARK  status: ('A' for Active; 'I' for Inactive)
REMARK    1  A    between atoms: C4_4  and  N5_5 
REMARK    2  A    between atoms: N5_5  and  C6_6 
REMARK    3  A    between atoms: C9_9  and  C10_10 
REMARK       I    between atoms: C10_10  and  N12_12 
REMARK    4  A    between atoms: N12_12  and  C13_13 
REMARK    5  A    between atoms: C23_23  and  N24_24 
REMARK    6  A    between atoms: N27_27  and  C28_28 
REMARK    7  A    between atoms: C28_28  and  C29_29 
REMARK    8  A    between atoms: C29_29  and  O30_30 
ROOT
ATOM      1  N5  RES d   1      19.413   1.973   8.618  0.00  0.00    -0.203 NA
ENDROOT
BRANCH   1   2
ATOM      2  C4  RES d   1      19.211   0.846   7.830  0.00  0.00     0.157 A 
ATOM      3  N3  RES d   1      19.086   0.959   6.510  0.00  0.00    -0.214 NA
ATOM      4  C2  RES d   1      18.894  -0.104   5.755  0.00  0.00     0.127 A 
ATOM      5  C1  RES d   1      18.758   0.072   4.265  0.00  0.00     0.093 C 
ATOM      6  N33 RES d   1      18.813  -1.316   6.266  0.00  0.00    -0.216 NA
ATOM      7  C23 RES d   1      18.933  -1.513   7.578  0.00  0.00     0.131 A 
ATOM      8  C22 RES d   1      19.137  -0.415   8.410  0.00  0.00     0.102 A 
BRANCH   7   9
ATOM      9  N24 RES d   1      18.853  -2.792   8.107  0.00  0.00    -0.362 N 
ATOM     10  C32 RES d   1      18.982  -3.976   7.245  0.00  0.00     0.154 C 
ATOM     11  C31 RES d   1      17.802  -4.909   7.513  0.00  0.00     0.292 C 
ATOM     12  N27 RES d   1      17.722  -5.194   8.952  0.00  0.00     0.093 N 
ATOM     13  C26 RES d   1      17.460  -3.971   9.723  0.00  0.00     0.292 C 
ATOM     14  C25 RES d   1      18.632  -2.999   9.547  0.00  0.00     0.154 C 
BRANCH  12  15
ATOM     15  C28 RES d   1      16.707  -6.219   9.230  0.00  0.00     0.298 C 
BRANCH  15  16
ATOM     16  C29 RES d   1      15.636  -6.187   8.138  0.00  0.00     0.194 C 
BRANCH  16  17
ATOM     17  O30 RES d   1      14.493  -5.473   8.615  0.00  0.00    -0.399 OA
ATOM     18  H54 RES d   1      14.315  -5.600   9.557  0.00  0.00     0.209 HD
ENDBRANCH  16  17
ENDBRANCH  15  16
ENDBRANCH  12  15
ENDBRANCH   7   9
ENDBRANCH   1   2
BRANCH   1  19
ATOM     19  C6  RES d   1      18.940   2.002   9.914  0.00  0.00     0.195 A 
ATOM     20  S21 RES d   1      19.586   1.090  11.208  0.00  0.00    -0.043 SA
ATOM     21  C9  RES d   1      18.397   1.782  12.307  0.00  0.00     0.094 A 
ATOM     22  C8  RES d   1      17.611   2.638  11.587  0.00  0.00     0.144 A 
ATOM     23  N7  RES d   1      17.936   2.724  10.322  0.00  0.00    -0.234 NA
BRANCH  21  24
ATOM     24  C10 RES d   1      18.267   1.487  13.733  0.00  0.00     0.264 C 
ATOM     25  O11 RES d   1      17.174   1.228  14.206  0.00  0.00    -0.267 OA
ATOM     26  N12 RES d   1      19.357   1.504  14.527  0.00  0.00    -0.320 N 
ATOM     27  H38 RES d   1      20.234   1.657  14.142  0.00  0.00     0.169 HD
BRANCH  26  28
ATOM     28  C13 RES d   1      19.223   1.298  15.904  0.00  0.00     0.062 A 
ATOM     29  C19 RES d   1      19.096   0.007  16.406  0.00  0.00     0.061 A 
ATOM     30  C18 RES d   1      18.970  -0.193  17.767  0.00  0.00     0.026 A 
ATOM     31 Cl20 RES d   1      19.109  -1.352  15.325  0.00  0.00    -0.082 Cl
ATOM     32  C17 RES d   1      18.960   0.889  18.628  0.00  0.00     0.002 A 
ATOM     33  C16 RES d   1      19.080   2.173  18.131  0.00  0.00     0.009 A 
ATOM     34  C14 RES d   1      19.212   2.381  16.771  0.00  0.00    -0.034 A 
ATOM     35  C15 RES d   1      19.345   3.782  16.231  0.00  0.00     0.050 C 
ENDBRANCH  26  28
ENDBRANCH  21  24
ENDBRANCH   1  19
TORSDOF 8
ENDMDL
MODEL 3
REMARK VINA RESULT:      -8.9      3.225      9.684
REMARK  8 active torsions:
REMARK  status: ('A' for Active; 'I' for Inactive)
REMARK    1  A    between atoms: C4_4  and  N5_5 
REMARK    2  A    between atoms: N5_5  and  C6_6 
REMARK    3  A    between atoms: C9_9  and  C10_10 
REMARK       I    between atoms: C10_10  and  N12_12 
REMARK    4  A    between atoms: N12_12  and  C13_13 
REMARK    5  A    between atoms: C23_23  and  N24_24 
REMARK    6  A    between atoms: N27_27  and  C28_28 
REMARK    7  A    between atoms: C28_28  and  C29_29 
REMARK    8  A    between atoms: C29_29  and  O30_30 
ROOT
ATOM      1  N5  RES d   1      19.624  -1.408  14.331  0.00  0.00    -0.203 NA
ENDROOT
BRANCH   1   2
ATOM      2  C4  RES d   1      19.268  -0.366  15.178  0.00  0.00     0.157 A 
ATOM      3  N3  RES d   1      19.038  -0.594  16.469  0.00  0.00    -0.214 NA
ATOM      4  C2  RES d   1      18.700   0.387  17.280  0.00  0.00     0.127 A 
ATOM      5  C1  RES d   1      18.449   0.082  18.734  0.00  0.00     0.093 C 
ATOM      6  N33 RES d   1      18.571   1.629  16.855  0.00  0.00    -0.216 NA
ATOM      7  C23 RES d   1      18.788   1.940  15.579  0.00  0.00     0.131 A 
ATOM      8  C22 RES d   1      19.148   0.930  14.689  0.00  0.00     0.102 A 
BRANCH   7   9
ATOM      9  N24 RES d   1      18.656   3.248  15.141  0.00  0.00    -0.362 N 
ATOM     10  C32 RES d   1      18.582   4.361  16.099  0.00  0.00     0.154 C 
ATOM     11  C31 RES d   1      17.362   5.218  15.763  0.00  0.00     0.292 C 
ATOM     12  N27 RES d   1      17.420   5.617  14.350  0.00  0.00     0.093 N 
ATOM     13  C26 RES d   1      17.356   4.447  13.463  0.00  0.00     0.292 C 
ATOM     14  C25 RES d   1      18.581   3.559  13.705  0.00  0.00     0.154 C 
BRANCH  12  15
ATOM     15  C28 RES d   1      16.357   6.579  14.030  0.00  0.00     0.298 C 
BRANCH  15  16
ATOM     16  C29 RES d   1      15.173   6.364  14.976  0.00  0.00     0.194 C 
BRANCH  16  17
ATOM     17  O30 RES d   1      14.112   5.718  14.270  0.00  0.00    -0.399 OA
ATOM     18  H54 RES d   1      14.231   4.764  14.170  0.00  0.00     0.209 HD
ENDBRANCH  16  17
ENDBRANCH  15  16
ENDBRANCH  12  15
ENDBRANCH   7   9
ENDBRANCH   1   2
BRANCH   1  19
ATOM     19  C6  RES d   1      19.098  -1.471  13.056  0.00  0.00     0.195 A 
ATOM     20  S21 RES d   1      19.759  -0.684  11.689  0.00  0.00    -0.043 SA
ATOM     21  C9  RES d   1      18.476  -1.339  10.676  0.00  0.00     0.094 A 
ATOM     22  C8  RES d   1      17.658  -2.091  11.471  0.00  0.00     0.144 A 
ATOM     23  N7  RES d   1      18.027  -2.133  12.726  0.00  0.00    -0.234 NA
BRANCH  21  24
ATOM     24  C10 RES d   1      18.312  -1.113   9.240  0.00  0.00     0.264 C 
ATOM     25  O11 RES d   1      17.201  -0.932   8.775  0.00  0.00    -0.267 OA
ATOM     26  N12 RES d   1      19.390  -1.107   8.431  0.00  0.00    -0.320 N 
ATOM     27  H38 RES d   1      20.279  -1.198   8.807  0.00  0.00     0.169 HD
BRANCH  26  28
ATOM     28  C13 RES d   1      19.227  -0.967   7.048  0.00  0.00     0.062 A 
ATOM     29  C19 RES d   1      19.059   0.295   6.491  0.00  0.00     0.061 A 
ATOM     30  C18 RES d   1      18.904   0.430   5.124  0.00  0.00     0.026 A 
ATOM     31 Cl20 RES d   1      19.058   1.702   7.508  0.00  0.00    -0.082 Cl
ATOM     32  C17 RES d   1      18.905  -0.691   4.314  0.00  0.00     0.002 A 
ATOM     33  C16 RES d   1      19.065  -1.948   4.866  0.00  0.00     0.009 A 
ATOM     34  C14 RES d   1      19.227  -2.089   6.232  0.00  0.00    -0.034 A 
ATOM     35  C15 RES d   1      19.403  -3.460   6.832  0.00  0.00     0.050 C 
ENDBRANCH  26  28
ENDBRANCH  21  24
ENDBRANCH   1  19
TORSDOF 8
ENDMDL
MODEL 4
REMARK VINA RESULT:      -8.9      3.508      9.803
REMARK  8 active torsions:
REMARK  status: ('A' for Active; 'I' for Inactive)
REMARK    1  A    between atoms: C4_4  and  N5_5 
REMARK    2  A    between atoms: N5_5  and  C6_6 
REMARK    3  A    between atoms: C9_9  and  C10_10 
REMARK       I    between atoms: C10_10  and  N12_12 
REMARK    4  A    between atoms: N12_12  and  C13_13 
REMARK    5  A    between atoms: C23_23  and  N24_24 
REMARK    6  A    between atoms: N27_27  and  C28_28 
REMARK    7  A    between atoms: C28_28  and  C29_29 
REMARK    8  A    between atoms: C29_29  and  O30_30 
ROOT
ATOM      1  N5  RES d   1      19.741  -1.414  14.334  0.00  0.00    -0.203 NA
ENDROOT
BRANCH   1   2
ATOM      2  C4  RES d   1      19.354  -0.375  15.172  0.00  0.00     0.157 A 
ATOM      3  N3  RES d   1      19.114  -0.602  16.462  0.00  0.00    -0.214 NA
ATOM      4  C2  RES d   1      18.745   0.376  17.263  0.00  0.00     0.127 A 
ATOM      5  C1  RES d   1      18.484   0.073  18.716  0.00  0.00     0.093 C 
ATOM      6  N33 RES d   1      18.594   1.612  16.830  0.00  0.00    -0.216 NA
ATOM      7  C23 RES d   1      18.821   1.922  15.555  0.00  0.00     0.131 A 
ATOM      8  C22 RES d   1      19.212   0.916  14.675  0.00  0.00     0.102 A 
BRANCH   7   9
ATOM      9  N24 RES d   1      18.665   3.225  15.109  0.00  0.00    -0.362 N 
ATOM     10  C32 RES d   1      18.599   4.346  16.059  0.00  0.00     0.154 C 
ATOM     11  C31 RES d   1      17.364   5.186  15.740  0.00  0.00     0.292 C 
ATOM     12  N27 RES d   1      17.389   5.573  14.323  0.00  0.00     0.093 N 
ATOM     13  C26 RES d   1      17.319   4.396  13.448  0.00  0.00     0.292 C 
ATOM     14  C25 RES d   1      18.558   3.522  13.672  0.00  0.00     0.154 C 
BRANCH  12  15
ATOM     15  C28 RES d   1      16.309   6.521  14.017  0.00  0.00     0.298 C 
BRANCH  15  16
ATOM     16  C29 RES d   1      15.145   6.299  14.984  0.00  0.00     0.194 C 
BRANCH  16  17
ATOM     17  O30 RES d   1      14.033   5.753  14.271  0.00  0.00    -0.399 OA
ATOM     18  H54 RES d   1      13.398   6.416  13.966  0.00  0.00     0.209 HD
ENDBRANCH  16  17
ENDBRANCH  15  16
ENDBRANCH  12  15
ENDBRANCH   7   9
ENDBRANCH   1   2
BRANCH   1  19
ATOM     19  C6  RES d   1      19.194  -1.523  13.072  0.00  0.00     0.195 A 
ATOM     20  S21 RES d   1      19.855  -0.822  11.659  0.00  0.00    -0.043 SA
ATOM     21  C9  RES d   1      18.539  -1.488  10.697  0.00  0.00     0.094 A 
ATOM     22  C8  RES d   1      17.713  -2.177  11.540  0.00  0.00     0.144 A 
ATOM     23  N7  RES d   1      18.100  -2.169  12.790  0.00  0.00    -0.234 NA
BRANCH  21  24
ATOM     24  C10 RES d   1      18.359  -1.327   9.255  0.00  0.00     0.264 C 
ATOM     25  O11 RES d   1      17.238  -1.336   8.776  0.00  0.00    -0.267 OA
ATOM     26  N12 RES d   1      19.432  -1.171   8.454  0.00  0.00    -0.320 N 
ATOM     27  H38 RES d   1      20.320  -1.111   8.840  0.00  0.00     0.169 HD
BRANCH  26  28
ATOM     28  C13 RES d   1      19.266  -1.094   7.068  0.00  0.00     0.062 A 
ATOM     29  C19 RES d   1      19.297  -2.251   6.298  0.00  0.00     0.061 A 
ATOM     30  C18 RES d   1      19.126  -2.172   4.929  0.00  0.00     0.026 A 
ATOM     31 Cl20 RES d   1      19.533  -3.795   7.056  0.00  0.00    -0.082 Cl
ATOM     32  C17 RES d   1      18.937  -0.942   4.324  0.00  0.00     0.002 A 
ATOM     33  C16 RES d   1      18.913   0.210   5.087  0.00  0.00     0.009 A 
ATOM     34  C14 RES d   1      19.076   0.138   6.457  0.00  0.00    -0.034 A 
ATOM     35  C15 RES d   1      19.048   1.396   7.287  0.00  0.00     0.050 C 
ENDBRANCH  26  28
ENDBRANCH  21  24
ENDBRANCH   1  19
TORSDOF 8
ENDMDL
MODEL 5
REMARK VINA RESULT:      -8.8      3.351      9.566
REMARK  8 active torsions:
REMARK  status: ('A' for Active; 'I' for Inactive)
REMARK    1  A    between atoms: C4_4  and  N5_5 
REMARK    2  A    between atoms: N5_5  and  C6_6 
REMARK    3  A    between atoms: C9_9  and  C10_10 
REMARK       I    between atoms: C10_10  and  N12_12 
REMARK    4  A    between atoms: N12_12  and  C13_13 
REMARK    5  A    between atoms: C23_23  and  N24_24 
REMARK    6  A    between atoms: N27_27  and  C28_28 
REMARK    7  A    between atoms: C28_28  and  C29_29 
REMARK    8  A    between atoms: C29_29  and  O30_30 
ROOT
ATOM      1  N5  RES d   1      18.707  -2.027  14.460  0.00  0.00    -0.203 NA
ENDROOT
BRANCH   1   2
ATOM      2  C4  RES d   1      18.710  -0.826  15.158  0.00  0.00     0.157 A 
ATOM      3  N3  RES d   1      18.731  -0.819  16.489  0.00  0.00    -0.214 NA
ATOM      4  C2  RES d   1      18.733   0.315  17.160  0.00  0.00     0.127 A 
ATOM      5  C1  RES d   1      18.758   0.274  18.666  0.00  0.00     0.093 C 
ATOM      6  N33 RES d   1      18.710   1.484  16.552  0.00  0.00    -0.216 NA
ATOM      7  C23 RES d   1      18.693   1.562  15.222  0.00  0.00     0.131 A 
ATOM      8  C22 RES d   1      18.690   0.386  14.476  0.00  0.00     0.102 A 
BRANCH   7   9
ATOM      9  N24 RES d   1      18.674   2.795  14.591  0.00  0.00    -0.362 N 
ATOM     10  C32 RES d   1      18.210   3.999  15.296  0.00  0.00     0.154 C 
ATOM     11  C31 RES d   1      17.162   4.700  14.433  0.00  0.00     0.292 C 
ATOM     12  N27 RES d   1      17.714   4.940  13.093  0.00  0.00     0.093 N 
ATOM     13  C26 RES d   1      18.027   3.677  12.412  0.00  0.00     0.292 C 
ATOM     14  C25 RES d   1      19.115   2.934  13.194  0.00  0.00     0.154 C 
BRANCH  12  15
ATOM     15  C28 RES d   1      16.802   5.761  12.286  0.00  0.00     0.298 C 
BRANCH  15  16
ATOM     16  C29 RES d   1      16.808   5.262  10.840  0.00  0.00     0.194 C 
BRANCH  16  17
ATOM     17  O30 RES d   1      17.453   6.227  10.007  0.00  0.00    -0.399 OA
ATOM     18  H54 RES d   1      16.946   7.042   9.884  0.00  0.00     0.209 HD
ENDBRANCH  16  17
ENDBRANCH  15  16
ENDBRANCH  12  15
ENDBRANCH   7   9
ENDBRANCH   1   2
BRANCH   1  19
ATOM     19  C6  RES d   1      18.868  -2.028  13.089  0.00  0.00     0.195 A 
ATOM     20  S21 RES d   1      17.737  -1.393  11.975  0.00  0.00    -0.043 SA
ATOM     21  C9  RES d   1      18.786  -1.843  10.634  0.00  0.00     0.094 A 
ATOM     22  C8  RES d   1      19.898  -2.443  11.155  0.00  0.00     0.144 A 
ATOM     23  N7  RES d   1      19.898  -2.519  12.462  0.00  0.00    -0.234 NA
BRANCH  21  24
ATOM     24  C10 RES d   1      18.513  -1.621   9.214  0.00  0.00     0.264 C 
ATOM     25  O11 RES d   1      17.379  -1.737   8.786  0.00  0.00    -0.267 OA
ATOM     26  N12 RES d   1      19.518  -1.290   8.378  0.00  0.00    -0.320 N 
ATOM     27  H38 RES d   1      20.411  -1.146   8.727  0.00  0.00     0.169 HD
BRANCH  26  28
ATOM     28  C13 RES d   1      19.272  -1.153   7.008  0.00  0.00     0.062 A 
ATOM     29  C19 RES d   1      19.316  -2.268   6.178  0.00  0.00     0.061 A 
ATOM     30  C18 RES d   1      19.067  -2.130   4.826  0.00  0.00     0.026 A 
ATOM     31 Cl20 RES d   1      19.668  -3.833   6.841  0.00  0.00    -0.082 Cl
ATOM     32  C17 RES d   1      18.787  -0.883   4.297  0.00  0.00     0.002 A 
ATOM     33  C16 RES d   1      18.750   0.228   5.119  0.00  0.00     0.009 A 
ATOM     34  C14 RES d   1      18.991   0.096   6.473  0.00  0.00    -0.034 A 
ATOM     35  C15 RES d   1      18.948   1.308   7.368  0.00  0.00     0.050 C 
ENDBRANCH  26  28
ENDBRANCH  21  24
ENDBRANCH   1  19
TORSDOF 8
ENDMDL
MODEL 6
REMARK VINA RESULT:      -8.7      3.133      8.497
REMARK  8 active torsions:
REMARK  status: ('A' for Active; 'I' for Inactive)
REMARK    1  A    between atoms: C4_4  and  N5_5 
REMARK    2  A    between atoms: N5_5  and  C6_6 
REMARK    3  A    between atoms: C9_9  and  C10_10 
REMARK       I    between atoms: C10_10  and  N12_12 
REMARK    4  A    between atoms: N12_12  and  C13_13 
REMARK    5  A    between atoms: C23_23  and  N24_24 
REMARK    6  A    between atoms: N27_27  and  C28_28 
REMARK    7  A    between atoms: C28_28  and  C29_29 
REMARK    8  A    between atoms: C29_29  and  O30_30 
ROOT
ATOM      1  N5  RES d   1      19.347   1.883   8.777  0.00  0.00    -0.203 NA
ENDROOT
BRANCH   1   2
ATOM      2  C4  RES d   1      18.883   2.372   9.992  0.00  0.00     0.157 A 
ATOM      3  N3  RES d   1      18.034   3.397  10.027  0.00  0.00    -0.214 NA
ATOM      4  C2  RES d   1      17.589   3.868  11.174  0.00  0.00     0.127 A 
ATOM      5  C1  RES d   1      16.628   5.028  11.165  0.00  0.00     0.093 C 
ATOM      6  N33 RES d   1      17.963   3.356  12.329  0.00  0.00    -0.216 NA
ATOM      7  C23 RES d   1      18.806   2.326  12.379  0.00  0.00     0.131 A 
ATOM      8  C22 RES d   1      19.300   1.799  11.188  0.00  0.00     0.102 A 
BRANCH   7   9
ATOM      9  N24 RES d   1      19.190   1.790  13.598  0.00  0.00    -0.362 N 
ATOM     10  C32 RES d   1      19.916   0.512  13.666  0.00  0.00     0.154 C 
ATOM     11  C31 RES d   1      19.204  -0.404  14.660  0.00  0.00     0.292 C 
ATOM     12  N27 RES d   1      19.051   0.294  15.944  0.00  0.00     0.093 N 
ATOM     13  C26 RES d   1      18.203   1.485  15.806  0.00  0.00     0.292 C 
ATOM     14  C25 RES d   1      18.879   2.482  14.858  0.00  0.00     0.154 C 
BRANCH  12  15
ATOM     15  C28 RES d   1      18.525  -0.611  16.975  0.00  0.00     0.298 C 
BRANCH  15  16
ATOM     16  C29 RES d   1      18.716   0.022  18.355  0.00  0.00     0.194 C 
BRANCH  16  17
ATOM     17  O30 RES d   1      20.053   0.512  18.472  0.00  0.00    -0.399 OA
ATOM     18  H54 RES d   1      20.519   0.588  17.628  0.00  0.00     0.209 HD
ENDBRANCH  16  17
ENDBRANCH  15  16
ENDBRANCH  12  15
ENDBRANCH   7   9
ENDBRANCH   1   2
BRANCH   1  19
ATOM     19  C6  RES d   1      18.989   0.617   8.361  0.00  0.00     0.195 A 
ATOM     20  S21 RES d   1      19.667  -0.834   8.961  0.00  0.00    -0.043 SA
ATOM     21  C9  RES d   1      18.631  -1.775   7.892  0.00  0.00     0.094 A 
ATOM     22  C8  RES d   1      17.868  -0.899   7.171  0.00  0.00     0.144 A 
ATOM     23  N7  RES d   1      18.092   0.359   7.453  0.00  0.00    -0.234 NA
BRANCH  21  24
ATOM     24  C10 RES d   1      18.596  -3.233   7.789  0.00  0.00     0.264 C 
ATOM     25  O11 RES d   1      19.617  -3.880   7.948  0.00  0.00    -0.267 OA
ATOM     26  N12 RES d   1      17.436  -3.863   7.517  0.00  0.00    -0.320 N 
ATOM     27  H38 RES d   1      16.614  -3.353   7.443  0.00  0.00     0.169 HD
BRANCH  26  28
ATOM     28  C13 RES d   1      17.416  -5.251   7.343  0.00  0.00     0.062 A 
ATOM     29  C19 RES d   1      17.152  -6.085   8.424  0.00  0.00     0.061 A 
ATOM     30  C18 RES d   1      17.127  -7.455   8.246  0.00  0.00     0.026 A 
ATOM     31 Cl20 RES d   1      16.838  -5.405   9.990  0.00  0.00    -0.082 Cl
ATOM     32  C17 RES d   1      17.377  -7.996   6.999  0.00  0.00     0.002 A 
ATOM     33  C16 RES d   1      17.646  -7.170   5.924  0.00  0.00     0.009 A 
ATOM     34  C14 RES d   1      17.666  -5.798   6.092  0.00  0.00    -0.034 A 
ATOM     35  C15 RES d   1      17.959  -4.899   4.919  0.00  0.00     0.050 C 
ENDBRANCH  26  28
ENDBRANCH  21  24
ENDBRANCH   1  19
TORSDOF 8
ENDMDL
MODEL 7
REMARK VINA RESULT:      -8.7      3.512      8.495
REMARK  8 active torsions:
REMARK  status: ('A' for Active; 'I' for Inactive)
REMARK    1  A    between atoms: C4_4  and  N5_5 
REMARK    2  A    between atoms: N5_5  and  C6_6 
REMARK    3  A    between atoms: C9_9  and  C10_10 
REMARK       I    between atoms: C10_10  and  N12_12 
REMARK    4  A    between atoms: N12_12  and  C13_13 
REMARK    5  A    between atoms: C23_23  and  N24_24 
REMARK    6  A    between atoms: N27_27  and  C28_28 
REMARK    7  A    between atoms: C28_28  and  C29_29 
REMARK    8  A    between atoms: C29_29  and  O30_30 
ROOT
ATOM      1  N5  RES d   1      19.529   1.668   8.738  0.00  0.00    -0.203 NA
ENDROOT
BRANCH   1   2
ATOM      2  C4  RES d   1      18.820   2.227   9.794  0.00  0.00     0.157 A 
ATOM      3  N3  RES d   1      18.283   3.440   9.679  0.00  0.00    -0.214 NA
ATOM      4  C2  RES d   1      17.609   3.979  10.675  0.00  0.00     0.127 A 
ATOM      5  C1  RES d   1      17.019   5.354  10.500  0.00  0.00     0.093 C 
ATOM      6  N33 RES d   1      17.439   3.351  11.821  0.00  0.00    -0.216 NA
ATOM      7  C23 RES d   1      17.941   2.132  12.013  0.00  0.00     0.131 A 
ATOM      8  C22 RES d   1      18.660   1.528  10.985  0.00  0.00     0.102 A 
BRANCH   7   9
ATOM      9  N24 RES d   1      17.753   1.476  13.220  0.00  0.00    -0.362 N 
ATOM     10  C32 RES d   1      17.916   2.184  14.498  0.00  0.00     0.154 C 
ATOM     11  C31 RES d   1      18.857   1.377  15.390  0.00  0.00     0.292 C 
ATOM     12  N27 RES d   1      18.360  -0.002  15.502  0.00  0.00     0.093 N 
ATOM     13  C26 RES d   1      18.356  -0.674  14.197  0.00  0.00     0.292 C 
ATOM     14  C25 RES d   1      17.389   0.051  13.254  0.00  0.00     0.154 C 
BRANCH  12  15
ATOM     15  C28 RES d   1      19.141  -0.764  16.485  0.00  0.00     0.298 C 
BRANCH  15  16
ATOM     16  C29 RES d   1      18.857  -0.228  17.890  0.00  0.00     0.194 C 
BRANCH  16  17
ATOM     17  O30 RES d   1      20.035   0.395  18.407  0.00  0.00    -0.399 OA
ATOM     18  H54 RES d   1      20.704  -0.229  18.722  0.00  0.00     0.209 HD
ENDBRANCH  16  17
ENDBRANCH  15  16
ENDBRANCH  12  15
ENDBRANCH   7   9
ENDBRANCH   1   2
BRANCH   1  19
ATOM     19  C6  RES d   1      19.179   0.424   8.254  0.00  0.00     0.195 A 
ATOM     20  S21 RES d   1      19.650  -1.063   8.957  0.00  0.00    -0.043 SA
ATOM     21  C9  RES d   1      18.773  -1.944   7.709  0.00  0.00     0.094 A 
ATOM     22  C8  RES d   1      18.209  -1.027   6.867  0.00  0.00     0.144 A 
ATOM     23  N7  RES d   1      18.451   0.217   7.195  0.00  0.00    -0.234 NA
BRANCH  21  24
ATOM     24  C10 RES d   1      18.673  -3.398   7.590  0.00  0.00     0.264 C 
ATOM     25  O11 RES d   1      19.682  -4.080   7.577  0.00  0.00    -0.267 OA
ATOM     26  N12 RES d   1      17.462  -3.985   7.494  0.00  0.00    -0.320 N 
ATOM     27  H38 RES d   1      16.657  -3.448   7.558  0.00  0.00     0.169 HD
BRANCH  26  28
ATOM     28  C13 RES d   1      17.368  -5.367   7.304  0.00  0.00     0.062 A 
ATOM     29  C19 RES d   1      17.531  -5.908   6.033  0.00  0.00     0.061 A 
ATOM     30  C18 RES d   1      17.443  -7.274   5.849  0.00  0.00     0.026 A 
ATOM     31 Cl20 RES d   1      17.862  -4.869   4.682  0.00  0.00    -0.082 Cl
ATOM     32  C17 RES d   1      17.180  -8.102   6.925  0.00  0.00     0.002 A 
ATOM     33  C16 RES d   1      17.010  -7.567   8.188  0.00  0.00     0.009 A 
ATOM     34  C14 RES d   1      17.104  -6.201   8.381  0.00  0.00    -0.034 A 
ATOM     35  C15 RES d   1      16.920  -5.620   9.759  0.00  0.00     0.050 C 
ENDBRANCH  26  28
ENDBRANCH  21  24
ENDBRANCH   1  19
TORSDOF 8
ENDMDL
MODEL 8
REMARK VINA RESULT:      -8.1      3.122      4.942
REMARK  8 active torsions:
REMARK  status: ('A' for Active; 'I' for Inactive)
REMARK    1  A    between atoms: C4_4  and  N5_5 
REMARK    2  A    between atoms: N5_5  and  C6_6 
REMARK    3  A    between atoms: C9_9  and  C10_10 
REMARK       I    between atoms: C10_10  and  N12_12 
REMARK    4  A    between atoms: N12_12  and  C13_13 
REMARK    5  A    between atoms: C23_23  and  N24_24 
REMARK    6  A    between atoms: N27_27  and  C28_28 
REMARK    7  A    between atoms: C28_28  and  C29_29 
REMARK    8  A    between atoms: C29_29  and  O30_30 
ROOT
ATOM      1  N5  RES d   1      19.575  -1.653   4.800  0.00  0.00    -0.203 NA
ENDROOT
BRANCH   1   2
ATOM      2  C4  RES d   1      18.911  -2.873   4.794  0.00  0.00     0.157 A 
ATOM      3  N3  RES d   1      18.438  -3.379   3.656  0.00  0.00    -0.214 NA
ATOM      4  C2  RES d   1      17.807  -4.534   3.641  0.00  0.00     0.127 A 
ATOM      5  C1  RES d   1      17.288  -5.067   2.331  0.00  0.00     0.093 C 
ATOM      6  N33 RES d   1      17.612  -5.237   4.739  0.00  0.00    -0.216 NA
ATOM      7  C23 RES d   1      18.059  -4.803   5.916  0.00  0.00     0.131 A 
ATOM      8  C22 RES d   1      18.732  -3.584   5.975  0.00  0.00     0.102 A 
BRANCH   7   9
ATOM      9  N24 RES d   1      17.856  -5.549   7.065  0.00  0.00    -0.362 N 
ATOM     10  C32 RES d   1      16.498  -5.815   7.563  0.00  0.00     0.154 C 
ATOM     11  C31 RES d   1      16.434  -5.436   9.042  0.00  0.00     0.292 C 
ATOM     12  N27 RES d   1      17.508  -6.125   9.769  0.00  0.00     0.093 N 
ATOM     13  C26 RES d   1      18.831  -5.700   9.294  0.00  0.00     0.292 C 
ATOM     14  C25 RES d   1      18.993  -6.094   7.822  0.00  0.00     0.154 C 
BRANCH  12  15
ATOM     15  C28 RES d   1      17.378  -5.921  11.218  0.00  0.00     0.298 C 
BRANCH  15  16
ATOM     16  C29 RES d   1      17.043  -4.455  11.499  0.00  0.00     0.194 C 
BRANCH  16  17
ATOM     17  O30 RES d   1      18.135  -3.841  12.187  0.00  0.00    -0.399 OA
ATOM     18  H54 RES d   1      18.153  -2.877  12.115  0.00  0.00     0.209 HD
ENDBRANCH  16  17
ENDBRANCH  15  16
ENDBRANCH  12  15
ENDBRANCH   7   9
ENDBRANCH   1   2
BRANCH   1  19
ATOM     19  C6  RES d   1      19.296  -0.720   5.778  0.00  0.00     0.195 A 
ATOM     20  S21 RES d   1      19.131  -1.074   7.443  0.00  0.00    -0.043 SA
ATOM     21  C9  RES d   1      18.815   0.624   7.786  0.00  0.00     0.094 A 
ATOM     22  C8  RES d   1      18.857   1.305   6.601  0.00  0.00     0.144 A 
ATOM     23  N7  RES d   1      19.115   0.551   5.563  0.00  0.00    -0.234 NA
BRANCH  21  24
ATOM     24  C10 RES d   1      18.549   1.203   9.102  0.00  0.00     0.264 C 
ATOM     25  O11 RES d   1      17.535   0.901   9.707  0.00  0.00    -0.267 OA
ATOM     26  N12 RES d   1      19.425   2.071   9.647  0.00  0.00    -0.320 N 
ATOM     27  H38 RES d   1      20.257   2.271   9.190  0.00  0.00     0.169 HD
BRANCH  26  28
ATOM     28  C13 RES d   1      19.135   2.684  10.870  0.00  0.00     0.062 A 
ATOM     29  C19 RES d   1      19.532   2.084  12.060  0.00  0.00     0.061 A 
ATOM     30  C18 RES d   1      19.249   2.695  13.267  0.00  0.00     0.026 A 
ATOM     31 Cl20 RES d   1      20.396   0.578  12.030  0.00  0.00    -0.082 Cl
ATOM     32  C17 RES d   1      18.562   3.894  13.292  0.00  0.00     0.002 A 
ATOM     33  C16 RES d   1      18.159   4.489  12.111  0.00  0.00     0.009 A 
ATOM     34  C14 RES d   1      18.444   3.887  10.900  0.00  0.00    -0.034 A 
ATOM     35  C15 RES d   1      18.007   4.537   9.613  0.00  0.00     0.050 C 
ENDBRANCH  26  28
ENDBRANCH  21  24
ENDBRANCH   1  19
TORSDOF 8
ENDMDL
MODEL 9
REMARK VINA RESULT:      -8.1      3.425      5.537
REMARK  8 active torsions:
REMARK  status: ('A' for Active; 'I' for Inactive)
REMARK    1  A    between atoms: C4_4  and  N5_5 
REMARK    2  A    between atoms: N5_5  and  C6_6 
REMARK    3  A    between atoms: C9_9  and  C10_10 
REMARK       I    between atoms: C10_10  and  N12_12 
REMARK    4  A    between atoms: N12_12  and  C13_13 
REMARK    5  A    between atoms: C23_23  and  N24_24 
REMARK    6  A    between atoms: N27_27  and  C28_28 
REMARK    7  A    between atoms: C28_28  and  C29_29 
REMARK    8  A    between atoms: C29_29  and  O30_30 
ROOT
ATOM      1  N5  RES d   1      19.467  -1.635  13.164  0.00  0.00    -0.203 NA
ENDROOT
BRANCH   1   2
ATOM      2  C4  RES d   1      18.898  -2.229  12.044  0.00  0.00     0.157 A 
ATOM      3  N3  RES d   1      18.085  -3.275  12.175  0.00  0.00    -0.214 NA
ATOM      4  C2  RES d   1      17.542  -3.845  11.119  0.00  0.00     0.127 A 
ATOM      5  C1  RES d   1      16.628  -5.027  11.314  0.00  0.00     0.093 C 
ATOM      6  N33 RES d   1      17.778  -3.415   9.896  0.00  0.00    -0.216 NA
ATOM      7  C23 RES d   1      18.576  -2.371   9.681  0.00  0.00     0.131 A 
ATOM      8  C22 RES d   1      19.171  -1.739  10.772  0.00  0.00     0.102 A 
BRANCH   7   9
ATOM      9  N24 RES d   1      18.816  -1.921   8.393  0.00  0.00    -0.362 N 
ATOM     10  C32 RES d   1      18.371  -0.586   7.964  0.00  0.00     0.154 C 
ATOM     11  C31 RES d   1      17.586  -0.725   6.660  0.00  0.00     0.292 C 
ATOM     12  N27 RES d   1      18.398  -1.455   5.677  0.00  0.00     0.093 N 
ATOM     13  C26 RES d   1      18.682  -2.823   6.132  0.00  0.00     0.292 C 
ATOM     14  C25 RES d   1      19.517  -2.768   7.416  0.00  0.00     0.154 C 
BRANCH  12  15
ATOM     15  C28 RES d   1      17.748  -1.463   4.360  0.00  0.00     0.298 C 
BRANCH  15  16
ATOM     16  C29 RES d   1      17.379  -2.898   3.980  0.00  0.00     0.194 C 
BRANCH  16  17
ATOM     17  O30 RES d   1      15.958  -3.043   3.996  0.00  0.00    -0.399 OA
ATOM     18  H54 RES d   1      15.647  -3.902   3.677  0.00  0.00     0.209 HD
ENDBRANCH  16  17
ENDBRANCH  15  16
ENDBRANCH  12  15
ENDBRANCH   7   9
ENDBRANCH   1   2
BRANCH   1  19
ATOM     19  C6  RES d   1      19.025  -0.398  13.588  0.00  0.00     0.195 A 
ATOM     20  S21 RES d   1      19.689   1.097  13.088  0.00  0.00    -0.043 SA
ATOM     21  C9  RES d   1      18.534   1.962  14.098  0.00  0.00     0.094 A 
ATOM     22  C8  RES d   1      17.753   1.034  14.730  0.00  0.00     0.144 A 
ATOM     23  N7  RES d   1      18.050  -0.205  14.428  0.00  0.00    -0.234 NA
BRANCH  21  24
ATOM     24  C10 RES d   1      18.432   3.413  14.242  0.00  0.00     0.264 C 
ATOM     25  O11 RES d   1      19.300   4.134  13.782  0.00  0.00    -0.267 OA
ATOM     26  N12 RES d   1      17.377   3.955  14.884  0.00  0.00    -0.320 N 
ATOM     27  H38 RES d   1      16.660   3.386  15.204  0.00  0.00     0.169 HD
BRANCH  26  28
ATOM     28  C13 RES d   1      17.317   5.337  15.089  0.00  0.00     0.062 A 
ATOM     29  C19 RES d   1      16.814   6.167  14.094  0.00  0.00     0.061 A 
ATOM     30  C18 RES d   1      16.750   7.532  14.302  0.00  0.00     0.026 A 
ATOM     31 Cl20 RES d   1      16.252   5.489  12.597  0.00  0.00    -0.082 Cl
ATOM     32  C17 RES d   1      17.197   8.073  15.494  0.00  0.00     0.002 A 
ATOM     33  C16 RES d   1      17.704   7.250  16.482  0.00  0.00     0.009 A 
ATOM     34  C14 RES d   1      17.765   5.884  16.284  0.00  0.00    -0.034 A 
ATOM     35  C15 RES d   1      18.316   4.988  17.363  0.00  0.00     0.050 C 
ENDBRANCH  26  28
ENDBRANCH  21  24
ENDBRANCH   1  19
TORSDOF 8
ENDMDL
