MODEL 1
REMARK VINA RESULT:      -8.6      0.000      0.000
REMARK  4 active torsions:
REMARK  status: ('A' for Active; 'I' for Inactive)
REMARK    1  A    between atoms: S2_2  and  C3_3 
REMARK    2  A    between atoms: N14_14  and  C15_15 
REMARK    3  A    between atoms: C15_15  and  C16_16 
REMARK    4  A    between atoms: C16_16  and  C17_17 
ROOT
ATOM      1  C3  <0> d   1      18.619   2.819  10.615  0.00  0.00     0.002 A 
ATOM      2  C4  <0> d   1      18.842   2.809   9.245  0.00  0.00     0.020 A 
ATOM      3  C5  <0> d   1      18.950   1.606   8.573  0.00  0.00     0.022 A 
ATOM      4  C6  <0> d   1      18.836   0.406   9.263  0.00  0.00     0.032 A 
ATOM      5  S7  <0> d   1      18.969  -1.111   8.377  0.00  0.00    -0.086 SA
ATOM      6  C8  <0> d   1      18.266  -2.290   9.480  0.00  0.00     0.032 A 
ATOM      7  C9  <0> d   1      17.867  -3.525   8.989  0.00  0.00     0.021 A 
ATOM      8  C10 <0> d   1      17.312  -4.465   9.839  0.00  0.00     0.002 A 
ATOM      9  C11 <0> d   1      17.154  -4.175  11.179  0.00  0.00     0.002 A 
ATOM     10  C12 <0> d   1      17.549  -2.946  11.676  0.00  0.00     0.031 A 
ATOM     11  C13 <0> d   1      18.111  -1.995  10.831  0.00  0.00     0.052 A 
ATOM     12  N14 <0> d   1      18.506  -0.772  11.366  0.00  0.00    -0.345 N 
ATOM     13  C26 <0> d   1      18.617   0.409  10.637  0.00  0.00     0.053 A 
ATOM     14  C27 <0> d   1      18.512   1.622  11.309  0.00  0.00     0.049 A 
ENDROOT
BRANCH  12  15
ATOM     15  C15 <0> d   1      18.824  -0.724  12.796  0.00  0.00     0.131 C 
BRANCH  15  16
ATOM     16  C16 <0> d   1      17.637  -0.141  13.563  0.00  0.00     0.053 C 
BRANCH  16  17
ATOM     17  C17 <0> d   1      17.741  -0.531  15.040  0.00  0.00     0.189 C 
ATOM     18  N23 <0> d   1      17.577   0.666  15.873  0.00  0.00    -0.071 N 
ATOM     19  C22 <0> d   1      17.599   0.291  17.293  0.00  0.00     0.235 C 
ATOM     20  H24 <0> d   1      16.696   1.107  15.657  0.00  0.00     0.279 HD
ATOM     21  C25 <0> d   1      18.673   1.606  15.600  0.00  0.00     0.270 C 
ATOM     22  C21 <0> d   1      18.964  -0.305  17.645  0.00  0.00     0.028 C 
ATOM     23  C20 <0> d   1      19.211  -1.546  16.783  0.00  0.00     0.004 C 
ATOM     24  C19 <0> d   1      19.112  -1.157  15.305  0.00  0.00     0.033 C 
ENDBRANCH  16  17
ENDBRANCH  15  16
ENDBRANCH  12  15
BRANCH   1  25
ATOM     25  S2  <0> d   1      18.476   4.352  11.473  0.00  0.00    -0.134 SA
ATOM     26  C1  <0> d   1      16.997   5.097  10.734  0.00  0.00     0.095 C 
ENDBRANCH   1  25
TORSDOF 4
ENDMDL
MODEL 2
REMARK VINA RESULT:      -8.6      2.681      5.288
REMARK  4 active torsions:
REMARK  status: ('A' for Active; 'I' for Inactive)
REMARK    1  A    between atoms: S2_2  and  C3_3 
REMARK    2  A    between atoms: N14_14  and  C15_15 
REMARK    3  A    between atoms: C15_15  and  C16_16 
REMARK    4  A    between atoms: C16_16  and  C17_17 
ROOT
ATOM      1  C3  <0> d   1      19.223  -1.806  12.282  0.00  0.00     0.002 A 
ATOM      2  C4  <0> d   1      19.409  -3.133  11.921  0.00  0.00     0.020 A 
ATOM      3  C5  <0> d   1      19.283  -3.511  10.597  0.00  0.00     0.022 A 
ATOM      4  C6  <0> d   1      18.972  -2.568   9.626  0.00  0.00     0.032 A 
ATOM      5  S7  <0> d   1      18.828  -3.079   7.947  0.00  0.00    -0.086 SA
ATOM      6  C8  <0> d   1      18.954  -1.570   7.048  0.00  0.00     0.032 A 
ATOM      7  C9  <0> d   1      19.248  -1.609   5.693  0.00  0.00     0.021 A 
ATOM      8  C10 <0> d   1      19.352  -0.435   4.970  0.00  0.00     0.002 A 
ATOM      9  C11 <0> d   1      19.165   0.781   5.597  0.00  0.00     0.002 A 
ATOM     10  C12 <0> d   1      18.872   0.828   6.948  0.00  0.00     0.031 A 
ATOM     11  C13 <0> d   1      18.763  -0.347   7.683  0.00  0.00     0.052 A 
ATOM     12  N14 <0> d   1      18.459  -0.263   9.040  0.00  0.00    -0.345 N 
ATOM     13  C26 <0> d   1      18.780  -1.237   9.982  0.00  0.00     0.053 A 
ATOM     14  C27 <0> d   1      18.904  -0.862  11.316  0.00  0.00     0.049 A 
ENDROOT
BRANCH  12  15
ATOM     15  C15 <0> d   1      17.754   0.933   9.508  0.00  0.00     0.131 C 
BRANCH  15  16
ATOM     16  C16 <0> d   1      18.758   2.069   9.714  0.00  0.00     0.053 C 
BRANCH  16  17
ATOM     17  C17 <0> d   1      18.511   2.728  11.073  0.00  0.00     0.189 C 
ATOM     18  N23 <0> d   1      17.385   3.664  10.963  0.00  0.00    -0.071 N 
ATOM     19  C22 <0> d   1      17.091   4.244  12.280  0.00  0.00     0.235 C 
ATOM     20  H24 <0> d   1      16.572   3.172  10.626  0.00  0.00     0.279 HD
ATOM     21  C25 <0> d   1      17.731   4.738  10.023  0.00  0.00     0.270 C 
ATOM     22  C21 <0> d   1      18.293   5.060  12.761  0.00  0.00     0.028 C 
ATOM     23  C20 <0> d   1      19.515   4.144  12.867  0.00  0.00     0.004 C 
ATOM     24  C19 <0> d   1      19.767   3.486  11.507  0.00  0.00     0.033 C 
ENDBRANCH  16  17
ENDBRANCH  15  16
ENDBRANCH  12  15
BRANCH   1  25
ATOM     25  S2  <0> d   1      19.387  -1.321  13.968  0.00  0.00    -0.134 SA
ATOM     26  C1  <0> d   1      19.815   0.437  13.846  0.00  0.00     0.095 C 
ENDBRANCH   1  25
TORSDOF 4
ENDMDL
MODEL 3
REMARK VINA RESULT:      -8.5      2.192      6.098
REMARK  4 active torsions:
REMARK  status: ('A' for Active; 'I' for Inactive)
REMARK    1  A    between atoms: S2_2  and  C3_3 
REMARK    2  A    between atoms: N14_14  and  C15_15 
REMARK    3  A    between atoms: C15_15  and  C16_16 
REMARK    4  A    between atoms: C16_16  and  C17_17 
ROOT
ATOM      1  C3  <0> d   1      18.057  -0.022  15.344  0.00  0.00     0.002 A 
ATOM      2  C4  <0> d   1      18.731   1.183  15.489  0.00  0.00     0.020 A 
ATOM      3  C5  <0> d   1      19.277   1.804  14.381  0.00  0.00     0.022 A 
ATOM      4  C6  <0> d   1      19.155   1.228  13.123  0.00  0.00     0.032 A 
ATOM      5  S7  <0> d   1      19.854   2.049  11.731  0.00  0.00    -0.086 SA
ATOM      6  C8  <0> d   1      19.045   1.292  10.362  0.00  0.00     0.032 A 
ATOM      7  C9  <0> d   1      19.067   1.923   9.126  0.00  0.00     0.021 A 
ATOM      8  C10 <0> d   1      18.437   1.345   8.039  0.00  0.00     0.002 A 
ATOM      9  C11 <0> d   1      17.782   0.137   8.183  0.00  0.00     0.002 A 
ATOM     10  C12 <0> d   1      17.755  -0.497   9.412  0.00  0.00     0.031 A 
ATOM     11  C13 <0> d   1      18.388   0.074  10.510  0.00  0.00     0.052 A 
ATOM     12  N14 <0> d   1      18.348  -0.596  11.730  0.00  0.00    -0.345 N 
ATOM     13  C26 <0> d   1      18.485   0.019  12.973  0.00  0.00     0.053 A 
ATOM     14  C27 <0> d   1      17.940  -0.605  14.090  0.00  0.00     0.049 A 
ENDROOT
BRANCH  12  15
ATOM     15  C15 <0> d   1      18.147  -2.047  11.705  0.00  0.00     0.131 C 
BRANCH  15  16
ATOM     16  C16 <0> d   1      19.468  -2.739  11.362  0.00  0.00     0.053 C 
BRANCH  16  17
ATOM     17  C17 <0> d   1      19.197  -4.197  10.983  0.00  0.00     0.189 C 
ATOM     18  N23 <0> d   1      19.757  -4.467   9.653  0.00  0.00    -0.071 N 
ATOM     19  C22 <0> d   1      19.570  -5.883   9.313  0.00  0.00     0.235 C 
ATOM     20  H24 <0> d   1      20.741  -4.250   9.653  0.00  0.00     0.279 HD
ATOM     21  C25 <0> d   1      19.073  -3.632   8.656  0.00  0.00     0.270 C 
ATOM     22  C21 <0> d   1      18.075  -6.198   9.231  0.00  0.00     0.028 C 
ATOM     23  C20 <0> d   1      17.422  -5.907  10.585  0.00  0.00     0.004 C 
ATOM     24  C19 <0> d   1      17.687  -4.447  10.965  0.00  0.00     0.033 C 
ENDBRANCH  16  17
ENDBRANCH  15  16
ENDBRANCH  12  15
BRANCH   1  25
ATOM     25  S2  <0> d   1      17.356  -0.814  16.753  0.00  0.00    -0.134 SA
ATOM     26  C1  <0> d   1      18.298  -0.103  18.131  0.00  0.00     0.095 C 
ENDBRANCH   1  25
TORSDOF 4
ENDMDL
MODEL 4
REMARK VINA RESULT:      -8.4      2.886      7.736
REMARK  4 active torsions:
REMARK  status: ('A' for Active; 'I' for Inactive)
REMARK    1  A    between atoms: S2_2  and  C3_3 
REMARK    2  A    between atoms: N14_14  and  C15_15 
REMARK    3  A    between atoms: C15_15  and  C16_16 
REMARK    4  A    between atoms: C16_16  and  C17_17 
ROOT
ATOM      1  C3  <0> d   1      17.939  -3.031  11.213  0.00  0.00     0.002 A 
ATOM      2  C4  <0> d   1      18.908  -3.133  12.201  0.00  0.00     0.020 A 
ATOM      3  C5  <0> d   1      19.621  -2.012  12.585  0.00  0.00     0.022 A 
ATOM      4  C6  <0> d   1      19.373  -0.784  11.986  0.00  0.00     0.032 A 
ATOM      5  S7  <0> d   1      20.291   0.627  12.503  0.00  0.00    -0.086 SA
ATOM      6  C8  <0> d   1      19.334   1.979  11.906  0.00  0.00     0.032 A 
ATOM      7  C9  <0> d   1      19.546   3.246  12.431  0.00  0.00     0.021 A 
ATOM      8  C10 <0> d   1      18.804   4.320  11.975  0.00  0.00     0.002 A 
ATOM      9  C11 <0> d   1      17.848   4.133  10.997  0.00  0.00     0.002 A 
ATOM     10  C12 <0> d   1      17.630   2.874  10.470  0.00  0.00     0.031 A 
ATOM     11  C13 <0> d   1      18.372   1.787  10.919  0.00  0.00     0.052 A 
ATOM     12  N14 <0> d   1      18.132   0.534  10.360  0.00  0.00    -0.345 N 
ATOM     13  C26 <0> d   1      18.406  -0.677  10.991  0.00  0.00     0.053 A 
ATOM     14  C27 <0> d   1      17.693  -1.807  10.605  0.00  0.00     0.049 A 
ENDROOT
BRANCH  12  15
ATOM     15  C15 <0> d   1      17.551   0.487   9.016  0.00  0.00     0.131 C 
BRANCH  15  16
ATOM     16  C16 <0> d   1      18.660   0.639   7.974  0.00  0.00     0.053 C 
BRANCH  16  17
ATOM     17  C17 <0> d   1      18.200   0.036   6.645  0.00  0.00     0.189 C 
ATOM     18  N23 <0> d   1      18.117  -1.424   6.775  0.00  0.00    -0.071 N 
ATOM     19  C22 <0> d   1      17.601  -2.006   5.529  0.00  0.00     0.235 C 
ATOM     20  H24 <0> d   1      17.497  -1.658   7.535  0.00  0.00     0.279 HD
ATOM     21  C25 <0> d   1      19.454  -1.967   7.051  0.00  0.00     0.270 C 
ATOM     22  C21 <0> d   1      18.580  -1.723   4.388  0.00  0.00     0.028 C 
ATOM     23  C20 <0> d   1      18.735  -0.209   4.219  0.00  0.00     0.004 C 
ATOM     24  C19 <0> d   1      19.201   0.397   5.547  0.00  0.00     0.033 C 
ENDBRANCH  16  17
ENDBRANCH  15  16
ENDBRANCH  12  15
BRANCH   1  25
ATOM     25  S2  <0> d   1      17.026  -4.456  10.724  0.00  0.00    -0.134 SA
ATOM     26  C1  <0> d   1      17.288  -4.513   8.930  0.00  0.00     0.095 C 
ENDBRANCH   1  25
TORSDOF 4
ENDMDL
MODEL 5
REMARK VINA RESULT:      -8.4      2.379      7.581
REMARK  4 active torsions:
REMARK  status: ('A' for Active; 'I' for Inactive)
REMARK    1  A    between atoms: S2_2  and  C3_3 
REMARK    2  A    between atoms: N14_14  and  C15_15 
REMARK    3  A    between atoms: C15_15  and  C16_16 
REMARK    4  A    between atoms: C16_16  and  C17_17 
ROOT
ATOM      1  C3  <0> d   1      18.465  -2.022  12.467  0.00  0.00     0.002 A 
ATOM      2  C4  <0> d   1      18.677  -1.805  13.822  0.00  0.00     0.020 A 
ATOM      3  C5  <0> d   1      18.771  -0.514  14.306  0.00  0.00     0.022 A 
ATOM      4  C6  <0> d   1      18.654   0.569  13.445  0.00  0.00     0.032 A 
ATOM      5  S7  <0> d   1      18.768   2.202  14.094  0.00  0.00    -0.086 SA
ATOM      6  C8  <0> d   1      18.066   3.197  12.823  0.00  0.00     0.032 A 
ATOM      7  C9  <0> d   1      17.653   4.488  13.121  0.00  0.00     0.021 A 
ATOM      8  C10 <0> d   1      17.099   5.286  12.137  0.00  0.00     0.002 A 
ATOM      9  C11 <0> d   1      16.953   4.797  10.853  0.00  0.00     0.002 A 
ATOM     10  C12 <0> d   1      17.362   3.511  10.549  0.00  0.00     0.031 A 
ATOM     11  C13 <0> d   1      17.923   2.703  11.530  0.00  0.00     0.052 A 
ATOM     12  N14 <0> d   1      18.332   1.416  11.186  0.00  0.00    -0.345 N 
ATOM     13  C26 <0> d   1      18.446   0.358  12.085  0.00  0.00     0.053 A 
ATOM     14  C27 <0> d   1      18.355  -0.943  11.601  0.00  0.00     0.049 A 
ENDROOT
BRANCH  12  15
ATOM     15  C15 <0> d   1      18.662   1.158   9.782  0.00  0.00     0.131 C 
BRANCH  15  16
ATOM     16  C16 <0> d   1      17.546   0.333   9.139  0.00  0.00     0.053 C 
BRANCH  16  17
ATOM     17  C17 <0> d   1      17.737   0.310   7.621  0.00  0.00     0.189 C 
ATOM     18  N23 <0> d   1      17.756  -1.081   7.153  0.00  0.00    -0.071 N 
ATOM     19  C22 <0> d   1      17.862  -1.111   5.688  0.00  0.00     0.235 C 
ATOM     20  H24 <0> d   1      16.905  -1.541   7.436  0.00  0.00     0.279 HD
ATOM     21  C25 <0> d   1      18.908  -1.779   7.740  0.00  0.00     0.270 C 
ATOM     22  C21 <0> d   1      19.190  -0.486   5.257  0.00  0.00     0.028 C 
ATOM     23  C20 <0> d   1      19.248   0.965   5.744  0.00  0.00     0.004 C 
ATOM     24  C19 <0> d   1      19.061   0.990   7.264  0.00  0.00     0.033 C 
ENDBRANCH  16  17
ENDBRANCH  15  16
ENDBRANCH  12  15
BRANCH   1  25
ATOM     25  S2  <0> d   1      18.341  -3.666  11.847  0.00  0.00    -0.134 SA
ATOM     26  C1  <0> d   1      20.042  -4.042  11.345  0.00  0.00     0.095 C 
ENDBRANCH   1  25
TORSDOF 4
ENDMDL
MODEL 6
REMARK VINA RESULT:      -8.4      1.589      5.688
REMARK  4 active torsions:
REMARK  status: ('A' for Active; 'I' for Inactive)
REMARK    1  A    between atoms: S2_2  and  C3_3 
REMARK    2  A    between atoms: N14_14  and  C15_15 
REMARK    3  A    between atoms: C15_15  and  C16_16 
REMARK    4  A    between atoms: C16_16  and  C17_17 
ROOT
ATOM      1  C3  <0> d   1      18.874   1.787   9.766  0.00  0.00     0.002 A 
ATOM      2  C4  <0> d   1      18.666   3.074  10.241  0.00  0.00     0.020 A 
ATOM      3  C5  <0> d   1      18.359   3.275  11.574  0.00  0.00     0.022 A 
ATOM      4  C6  <0> d   1      18.258   2.194  12.440  0.00  0.00     0.032 A 
ATOM      5  S7  <0> d   1      17.875   2.484  14.135  0.00  0.00    -0.086 SA
ATOM      6  C8  <0> d   1      18.353   0.984  14.923  0.00  0.00     0.032 A 
ATOM      7  C9  <0> d   1      18.539   0.969  16.299  0.00  0.00     0.021 A 
ATOM      8  C10 <0> d   1      18.915  -0.200  16.937  0.00  0.00     0.002 A 
ATOM      9  C11 <0> d   1      19.108  -1.355  16.204  0.00  0.00     0.002 A 
ATOM     10  C12 <0> d   1      18.925  -1.347  14.834  0.00  0.00     0.031 A 
ATOM     11  C13 <0> d   1      18.544  -0.179  14.183  0.00  0.00     0.052 A 
ATOM     12  N14 <0> d   1      18.360  -0.210  12.803  0.00  0.00    -0.345 N 
ATOM     13  C26 <0> d   1      18.461   0.901  11.969  0.00  0.00     0.053 A 
ATOM     14  C27 <0> d   1      18.766   0.703  10.626  0.00  0.00     0.049 A 
ENDROOT
BRANCH  12  15
ATOM     15  C15 <0> d   1      18.041  -1.500  12.186  0.00  0.00     0.131 C 
BRANCH  15  16
ATOM     16  C16 <0> d   1      19.326  -2.152  11.672  0.00  0.00     0.053 C 
BRANCH  16  17
ATOM     17  C17 <0> d   1      19.068  -3.633  11.386  0.00  0.00     0.189 C 
ATOM     18  N23 <0> d   1      19.542  -3.958  10.035  0.00  0.00    -0.071 N 
ATOM     19  C22 <0> d   1      19.369  -5.394   9.779  0.00  0.00     0.235 C 
ATOM     20  H24 <0> d   1      20.518  -3.719   9.956  0.00  0.00     0.279 HD
ATOM     21  C25 <0> d   1      18.770  -3.190   9.048  0.00  0.00     0.270 C 
ATOM     22  C21 <0> d   1      17.881  -5.746   9.818  0.00  0.00     0.028 C 
ATOM     23  C20 <0> d   1      17.315  -5.401  11.198  0.00  0.00     0.004 C 
ATOM     24  C19 <0> d   1      17.568  -3.917  11.485  0.00  0.00     0.033 C 
ENDBRANCH  16  17
ENDBRANCH  15  16
ENDBRANCH  12  15
BRANCH   1  25
ATOM     25  S2  <0> d   1      19.269   1.528   8.068  0.00  0.00    -0.134 SA
ATOM     26  C1  <0> d   1      18.105   0.230   7.572  0.00  0.00     0.095 C 
ENDBRANCH   1  25
TORSDOF 4
ENDMDL
MODEL 7
REMARK VINA RESULT:      -8.1      1.510      4.829
REMARK  4 active torsions:
REMARK  status: ('A' for Active; 'I' for Inactive)
REMARK    1  A    between atoms: S2_2  and  C3_3 
REMARK    2  A    between atoms: N14_14  and  C15_15 
REMARK    3  A    between atoms: C15_15  and  C16_16 
REMARK    4  A    between atoms: C16_16  and  C17_17 
ROOT
ATOM      1  C3  <0> d   1      19.155  -3.492  10.050  0.00  0.00     0.002 A 
ATOM      2  C4  <0> d   1      18.591  -3.237   8.808  0.00  0.00     0.020 A 
ATOM      3  C5  <0> d   1      18.132  -1.969   8.507  0.00  0.00     0.022 A 
ATOM      4  C6  <0> d   1      18.233  -0.946   9.441  0.00  0.00     0.032 A 
ATOM      5  S7  <0> d   1      17.649   0.662   9.023  0.00  0.00    -0.086 SA
ATOM      6  C8  <0> d   1      18.421   1.700  10.218  0.00  0.00     0.032 A 
ATOM      7  C9  <0> d   1      18.488   3.067   9.987  0.00  0.00     0.021 A 
ATOM      8  C10 <0> d   1      19.091   3.899  10.913  0.00  0.00     0.002 A 
ATOM      9  C11 <0> d   1      19.628   3.370  12.070  0.00  0.00     0.002 A 
ATOM     10  C12 <0> d   1      19.565   2.009  12.306  0.00  0.00     0.031 A 
ATOM     11  C13 <0> d   1      18.959   1.164  11.383  0.00  0.00     0.052 A 
ATOM     12  N14 <0> d   1      18.905  -0.201  11.658  0.00  0.00    -0.345 N 
ATOM     13  C26 <0> d   1      18.793  -1.196  10.690  0.00  0.00     0.053 A 
ATOM     14  C27 <0> d   1      19.250  -2.475  10.991  0.00  0.00     0.049 A 
ENDROOT
BRANCH  12  15
ATOM     15  C15 <0> d   1      18.973  -0.618  13.061  0.00  0.00     0.131 C 
BRANCH  15  16
ATOM     16  C16 <0> d   1      17.638  -0.323  13.745  0.00  0.00     0.053 C 
BRANCH  16  17
ATOM     17  C17 <0> d   1      17.748  -0.641  15.238  0.00  0.00     0.189 C 
ATOM     18  N23 <0> d   1      17.480   0.574  16.017  0.00  0.00    -0.071 N 
ATOM     19  C22 <0> d   1      17.508   0.262  17.452  0.00  0.00     0.235 C 
ATOM     20  H24 <0> d   1      16.572   0.937  15.771  0.00  0.00     0.279 HD
ATOM     21  C25 <0> d   1      18.506   1.582  15.717  0.00  0.00     0.270 C 
ATOM     22  C21 <0> d   1      18.908  -0.212  17.847  0.00  0.00     0.028 C 
ATOM     23  C20 <0> d   1      19.262  -1.466  17.043  0.00  0.00     0.004 C 
ATOM     24  C19 <0> d   1      19.157  -1.149  15.548  0.00  0.00     0.033 C 
ENDBRANCH  16  17
ENDBRANCH  15  16
ENDBRANCH  12  15
BRANCH   1  25
ATOM     25  S2  <0> d   1      19.744  -5.107  10.436  0.00  0.00    -0.134 SA
ATOM     26  C1  <0> d   1      20.226  -5.763   8.816  0.00  0.00     0.095 C 
ENDBRANCH   1  25
TORSDOF 4
ENDMDL
MODEL 8
REMARK VINA RESULT:      -7.9      2.357      5.138
REMARK  4 active torsions:
REMARK  status: ('A' for Active; 'I' for Inactive)
REMARK    1  A    between atoms: S2_2  and  C3_3 
REMARK    2  A    between atoms: N14_14  and  C15_15 
REMARK    3  A    between atoms: C15_15  and  C16_16 
REMARK    4  A    between atoms: C16_16  and  C17_17 
ROOT
ATOM      1  C3  <0> d   1      17.937  -0.639   8.995  0.00  0.00     0.002 A 
ATOM      2  C4  <0> d   1      18.614  -1.849   9.050  0.00  0.00     0.020 A 
ATOM      3  C5  <0> d   1      19.106  -2.309  10.257  0.00  0.00     0.022 A 
ATOM      4  C6  <0> d   1      18.926  -1.566  11.416  0.00  0.00     0.032 A 
ATOM      5  S7  <0> d   1      19.557  -2.184  12.940  0.00  0.00    -0.086 SA
ATOM      6  C8  <0> d   1      18.685  -1.249  14.151  0.00  0.00     0.032 A 
ATOM      7  C9  <0> d   1      18.648  -1.703  15.462  0.00  0.00     0.021 A 
ATOM      8  C10 <0> d   1      17.968  -0.983  16.428  0.00  0.00     0.002 A 
ATOM      9  C11 <0> d   1      17.324   0.190  16.089  0.00  0.00     0.002 A 
ATOM     10  C12 <0> d   1      17.356   0.648  14.784  0.00  0.00     0.031 A 
ATOM     11  C13 <0> d   1      18.039  -0.066  13.807  0.00  0.00     0.052 A 
ATOM     12  N14 <0> d   1      18.059   0.430  12.505  0.00  0.00    -0.345 N 
ATOM     13  C26 <0> d   1      18.253  -0.350  11.367  0.00  0.00     0.053 A 
ATOM     14  C27 <0> d   1      17.762   0.111  10.150  0.00  0.00     0.049 A 
ENDROOT
BRANCH  12  15
ATOM     15  C15 <0> d   1      17.860   1.870  12.320  0.00  0.00     0.131 C 
BRANCH  15  16
ATOM     16  C16 <0> d   1      19.183   2.601  12.555  0.00  0.00     0.053 C 
BRANCH  16  17
ATOM     17  C17 <0> d   1      18.906   4.079  12.839  0.00  0.00     0.189 C 
ATOM     18  N23 <0> d   1      19.618   4.483  14.058  0.00  0.00    -0.071 N 
ATOM     19  C22 <0> d   1      19.421   5.919  14.296  0.00  0.00     0.235 C 
ATOM     20  H24 <0> d   1      20.602   4.294  13.949  0.00  0.00     0.279 HD
ATOM     21  C25 <0> d   1      19.098   3.723  15.202  0.00  0.00     0.270 C 
ATOM     22  C21 <0> d   1      17.937   6.199  14.542  0.00  0.00     0.028 C 
ATOM     23  C20 <0> d   1      17.131   5.769  13.313  0.00  0.00     0.004 C 
ATOM     24  C19 <0> d   1      17.402   4.288  13.029  0.00  0.00     0.033 C 
ENDBRANCH  16  17
ENDBRANCH  15  16
ENDBRANCH  12  15
BRANCH   1  25
ATOM     25  S2  <0> d   1      17.305  -0.051   7.459  0.00  0.00    -0.134 SA
ATOM     26  C1  <0> d   1      18.782   0.010   6.407  0.00  0.00     0.095 C 
ENDBRANCH   1  25
TORSDOF 4
ENDMDL
MODEL 9
REMARK VINA RESULT:      -7.8      1.569      2.230
REMARK  4 active torsions:
REMARK  status: ('A' for Active; 'I' for Inactive)
REMARK    1  A    between atoms: S2_2  and  C3_3 
REMARK    2  A    between atoms: N14_14  and  C15_15 
REMARK    3  A    between atoms: C15_15  and  C16_16 
REMARK    4  A    between atoms: C16_16  and  C17_17 
ROOT
ATOM      1  C3  <0> d   1      17.360   4.588  12.075  0.00  0.00     0.002 A 
ATOM      2  C4  <0> d   1      17.577   4.995  10.766  0.00  0.00     0.020 A 
ATOM      3  C5  <0> d   1      18.147   4.122   9.859  0.00  0.00     0.022 A 
ATOM      4  C6  <0> d   1      18.504   2.838  10.250  0.00  0.00     0.032 A 
ATOM      5  S7  <0> d   1      19.219   1.746   9.068  0.00  0.00    -0.086 SA
ATOM      6  C8  <0> d   1      19.022   0.160   9.806  0.00  0.00     0.032 A 
ATOM      7  C9  <0> d   1      19.135  -0.975   9.016  0.00  0.00     0.021 A 
ATOM      8  C10 <0> d   1      18.984  -2.230   9.577  0.00  0.00     0.002 A 
ATOM      9  C11 <0> d   1      18.718  -2.356  10.926  0.00  0.00     0.002 A 
ATOM     10  C12 <0> d   1      18.604  -1.229  11.720  0.00  0.00     0.031 A 
ATOM     11  C13 <0> d   1      18.757   0.037  11.166  0.00  0.00     0.052 A 
ATOM     12  N14 <0> d   1      18.644   1.150  11.996  0.00  0.00    -0.345 N 
ATOM     13  C26 <0> d   1      18.293   2.426  11.562  0.00  0.00     0.053 A 
ATOM     14  C27 <0> d   1      17.722   3.308  12.473  0.00  0.00     0.049 A 
ENDROOT
BRANCH  12  15
ATOM     15  C15 <0> d   1      18.911   0.965  13.425  0.00  0.00     0.131 C 
BRANCH  15  16
ATOM     16  C16 <0> d   1      17.594   1.018  14.201  0.00  0.00     0.053 C 
BRANCH  16  17
ATOM     17  C17 <0> d   1      17.733   0.219  15.499  0.00  0.00     0.189 C 
ATOM     18  N23 <0> d   1      17.908   1.145  16.625  0.00  0.00    -0.071 N 
ATOM     19  C22 <0> d   1      17.965   0.391  17.884  0.00  0.00     0.235 C 
ATOM     20  H24 <0> d   1      17.131   1.787  16.655  0.00  0.00     0.279 HD
ATOM     21  C25 <0> d   1      19.157   1.897  16.450  0.00  0.00     0.270 C 
ATOM     22  C21 <0> d   1      19.190  -0.527  17.878  0.00  0.00     0.028 C 
ATOM     23  C20 <0> d   1      19.084  -1.502  16.702  0.00  0.00     0.004 C 
ATOM     24  C19 <0> d   1      18.949  -0.705  15.401  0.00  0.00     0.033 C 
ENDBRANCH  16  17
ENDBRANCH  15  16
ENDBRANCH  12  15
BRANCH   1  25
ATOM     25  S2  <0> d   1      16.630   5.697  13.233  0.00  0.00    -0.134 SA
ATOM     26  C1  <0> d   1      17.697   5.526  14.690  0.00  0.00     0.095 C 
ENDBRANCH   1  25
TORSDOF 4
ENDMDL
