MODEL 1
REMARK VINA RESULT:      -8.1      0.000      0.000
REMARK  8 active torsions:
REMARK  status: ('A' for Active; 'I' for Inactive)
REMARK    1  A    between atoms: C3_3  and  C4_4 
REMARK    2  A    between atoms: C4_4  and  C5_5 
REMARK    3  A    between atoms: C5_5  and  N6_6 
REMARK    4  A    between atoms: N6_6  and  C9_9 
REMARK    5  A    between atoms: C9_9  and  C10_10 
REMARK    6  A    between atoms: C13_13  and  C14_14 
REMARK    7  A    between atoms: C15_15  and  C16_16 
REMARK       I    between atoms: C16_16  and  N18_18 
REMARK    8  A    between atoms: N18_18  and  O19_19 
ROOT
ATOM      1  N6  <0> d   1      18.741   3.372  12.990  0.00  0.00    -0.071 N 
ATOM      2  H7  <0> d   1      19.138   4.287  13.139  0.00  0.00     0.277 HD
ATOM      3  H8  <0> d   1      19.447   2.754  12.620  0.00  0.00     0.277 HD
ENDROOT
BRANCH   1   4
ATOM      4  C5  <0> d   1      18.244   2.839  14.266  0.00  0.00     0.237 C 
BRANCH   4   5
ATOM      5  C4  <0> d   1      19.275   1.869  14.848  0.00  0.00     0.069 C 
BRANCH   5   6
ATOM      6  C3  <0> d   1      19.013   0.482  14.321  0.00  0.00    -0.022 A 
ATOM      7  C2  <0> d   1      18.222  -0.448  14.877  0.00  0.00     0.013 A 
ATOM      8  C1  <0> d   1      17.440  -0.268  16.153  0.00  0.00     0.068 C 
ATOM      9  N28 <0> d   1      18.235  -1.587  14.119  0.00  0.00    -0.359 N 
ATOM     10  C27 <0> d   1      19.049  -1.410  13.023  0.00  0.00     0.043 A 
ATOM     11  H50 <0> d   1      17.743  -2.398  14.322  0.00  0.00     0.166 HD
ATOM     12  C22 <0> d   1      19.576  -0.107  13.102  0.00  0.00    -0.001 A 
ATOM     13  C26 <0> d   1      19.408  -2.225  11.954  0.00  0.00     0.030 A 
ATOM     14  C23 <0> d   1      20.448   0.353  12.116  0.00  0.00     0.014 A 
ATOM     15  C24 <0> d   1      20.788  -0.466  11.075  0.00  0.00     0.001 A 
ATOM     16  C25 <0> d   1      20.271  -1.750  10.990  0.00  0.00     0.002 A 
ENDBRANCH   5   6
ENDBRANCH   4   5
ENDBRANCH   1   4
BRANCH   1  17
ATOM     17  C9  <0> d   1      17.628   3.471  12.035  0.00  0.00     0.270 C 
BRANCH  17  18
ATOM     18  C10 <0> d   1      17.867   2.527  10.885  0.00  0.00    -0.033 A 
ATOM     19  C21 <0> d   1      18.729   2.890   9.864  0.00  0.00     0.009 A 
ATOM     20  C20 <0> d   1      18.957   2.031   8.811  0.00  0.00     0.012 A 
ATOM     21  C13 <0> d   1      18.307   0.793   8.770  0.00  0.00    -0.036 A 
ATOM     22  C12 <0> d   1      17.433   0.436   9.802  0.00  0.00     0.012 A 
ATOM     23  C11 <0> d   1      17.220   1.305  10.851  0.00  0.00     0.009 A 
BRANCH  21  24
ATOM     24  C14 <0> d   1      18.540  -0.128   7.646  0.00  0.00     0.017 C 
ATOM     25  C15 <0> d   1      18.663   0.354   6.393  0.00  0.00     0.077 C 
BRANCH  25  26
ATOM     26  C16 <0> d   1      18.895  -0.562   5.276  0.00  0.00     0.264 C 
ATOM     27  O17 <0> d   1      19.978  -0.582   4.719  0.00  0.00    -0.266 OA
ATOM     28  N18 <0> d   1      17.910  -1.384   4.863  0.00  0.00    -0.234 N 
ATOM     29  H42 <0> d   1      17.048  -1.369   5.306  0.00  0.00     0.197 HD
BRANCH  28  30
ATOM     30  O19 <0> d   1      18.135  -2.271   3.781  0.00  0.00    -0.287 OA
ATOM     31  H43 <0> d   1      18.014  -1.868   2.910  0.00  0.00     0.244 HD
ENDBRANCH  28  30
ENDBRANCH  25  26
ENDBRANCH  21  24
ENDBRANCH  17  18
ENDBRANCH   1  17
TORSDOF 8
ENDMDL
MODEL 2
REMARK VINA RESULT:      -7.9      2.886      4.777
REMARK  8 active torsions:
REMARK  status: ('A' for Active; 'I' for Inactive)
REMARK    1  A    between atoms: C3_3  and  C4_4 
REMARK    2  A    between atoms: C4_4  and  C5_5 
REMARK    3  A    between atoms: C5_5  and  N6_6 
REMARK    4  A    between atoms: N6_6  and  C9_9 
REMARK    5  A    between atoms: C9_9  and  C10_10 
REMARK    6  A    between atoms: C13_13  and  C14_14 
REMARK    7  A    between atoms: C15_15  and  C16_16 
REMARK       I    between atoms: C16_16  and  N18_18 
REMARK    8  A    between atoms: N18_18  and  O19_19 
ROOT
ATOM      1  N6  <0> d   1      19.137   2.479  14.695  0.00  0.00    -0.071 N 
ATOM      2  H7  <0> d   1      19.782   1.995  14.090  0.00  0.00     0.277 HD
ATOM      3  H8  <0> d   1      19.631   2.827  15.503  0.00  0.00     0.277 HD
ENDROOT
BRANCH   1   4
ATOM      4  C5  <0> d   1      18.533   3.604  13.969  0.00  0.00     0.237 C 
BRANCH   4   5
ATOM      5  C4  <0> d   1      19.455   4.025  12.823  0.00  0.00     0.069 C 
BRANCH   5   6
ATOM      6  C3  <0> d   1      19.083   3.266  11.575  0.00  0.00    -0.022 A 
ATOM      7  C2  <0> d   1      18.210   3.656  10.634  0.00  0.00     0.013 A 
ATOM      8  C1  <0> d   1      17.431   4.946  10.658  0.00  0.00     0.068 C 
ATOM      9  N28 <0> d   1      18.127   2.706   9.653  0.00  0.00    -0.359 N 
ATOM     10  C27 <0> d   1      18.973   1.659   9.941  0.00  0.00     0.043 A 
ATOM     11  H50 <0> d   1      17.558   2.762   8.869  0.00  0.00     0.166 HD
ATOM     12  C22 <0> d   1      19.607   1.962  11.161  0.00  0.00    -0.001 A 
ATOM     13  C26 <0> d   1      19.275   0.465   9.296  0.00  0.00     0.030 A 
ATOM     14  C23 <0> d   1      20.526   1.067  11.709  0.00  0.00     0.014 A 
ATOM     15  C24 <0> d   1      20.807  -0.101  11.057  0.00  0.00     0.001 A 
ATOM     16  C25 <0> d   1      20.186  -0.405   9.854  0.00  0.00     0.002 A 
ENDBRANCH   5   6
ENDBRANCH   4   5
ENDBRANCH   1   4
BRANCH   1  17
ATOM     17  C9  <0> d   1      18.082   1.552  15.128  0.00  0.00     0.270 C 
BRANCH  17  18
ATOM     18  C10 <0> d   1      18.069   0.348  14.221  0.00  0.00    -0.033 A 
ATOM     19  C21 <0> d   1      17.235   0.328  13.117  0.00  0.00     0.009 A 
ATOM     20  C20 <0> d   1      17.220  -0.767  12.280  0.00  0.00     0.012 A 
ATOM     21  C13 <0> d   1      18.044  -1.863  12.553  0.00  0.00    -0.036 A 
ATOM     22  C12 <0> d   1      18.880  -1.838  13.674  0.00  0.00     0.012 A 
ATOM     23  C11 <0> d   1      18.887  -0.733  14.499  0.00  0.00     0.009 A 
BRANCH  21  24
ATOM     24  C14 <0> d   1      18.029  -3.040  11.668  0.00  0.00     0.017 C 
ATOM     25  C15 <0> d   1      19.190  -3.598  11.270  0.00  0.00     0.077 C 
BRANCH  25  26
ATOM     26  C16 <0> d   1      19.176  -4.768  10.391  0.00  0.00     0.264 C 
ATOM     27  O17 <0> d   1      18.205  -5.502  10.370  0.00  0.00    -0.266 OA
ATOM     28  N18 <0> d   1      20.237  -5.032   9.603  0.00  0.00    -0.234 N 
ATOM     29  H42 <0> d   1      21.010  -4.447   9.619  0.00  0.00     0.197 HD
BRANCH  28  30
ATOM     30  O19 <0> d   1      20.224  -6.164   8.752  0.00  0.00    -0.287 OA
ATOM     31  H43 <0> d   1      19.943  -6.980   9.188  0.00  0.00     0.244 HD
ENDBRANCH  28  30
ENDBRANCH  25  26
ENDBRANCH  21  24
ENDBRANCH  17  18
ENDBRANCH   1  17
TORSDOF 8
ENDMDL
MODEL 3
REMARK VINA RESULT:      -7.7      3.504      6.067
REMARK  8 active torsions:
REMARK  status: ('A' for Active; 'I' for Inactive)
REMARK    1  A    between atoms: C3_3  and  C4_4 
REMARK    2  A    between atoms: C4_4  and  C5_5 
REMARK    3  A    between atoms: C5_5  and  N6_6 
REMARK    4  A    between atoms: N6_6  and  C9_9 
REMARK    5  A    between atoms: C9_9  and  C10_10 
REMARK    6  A    between atoms: C13_13  and  C14_14 
REMARK    7  A    between atoms: C15_15  and  C16_16 
REMARK       I    between atoms: C16_16  and  N18_18 
REMARK    8  A    between atoms: N18_18  and  O19_19 
ROOT
ATOM      1  N6  <0> d   1      19.334  -1.708   7.455  0.00  0.00    -0.071 N 
ATOM      2  H7  <0> d   1      19.970  -1.368   8.161  0.00  0.00     0.277 HD
ATOM      3  H8  <0> d   1      19.858  -2.003   6.645  0.00  0.00     0.277 HD
ENDROOT
BRANCH   1   4
ATOM      4  C5  <0> d   1      18.573  -2.846   7.987  0.00  0.00     0.237 C 
BRANCH   4   5
ATOM      5  C4  <0> d   1      19.345  -3.479   9.147  0.00  0.00     0.069 C 
BRANCH   5   6
ATOM      6  C3  <0> d   1      18.878  -2.879  10.448  0.00  0.00    -0.022 A 
ATOM      7  C2  <0> d   1      17.851  -3.303  11.200  0.00  0.00     0.013 A 
ATOM      8  C1  <0> d   1      16.965  -4.477  10.870  0.00  0.00     0.068 C 
ATOM      9  N28 <0> d   1      17.723  -2.509  12.306  0.00  0.00    -0.359 N 
ATOM     10  C27 <0> d   1      18.695  -1.534  12.298  0.00  0.00     0.043 A 
ATOM     11  H50 <0> d   1      17.048  -2.617  12.995  0.00  0.00     0.166 HD
ATOM     12  C22 <0> d   1      19.460  -1.720  11.131  0.00  0.00    -0.001 A 
ATOM     13  C26 <0> d   1      19.016  -0.493  13.163  0.00  0.00     0.030 A 
ATOM     14  C23 <0> d   1      20.526  -0.864  10.853  0.00  0.00     0.014 A 
ATOM     15  C24 <0> d   1      20.823   0.153  11.717  0.00  0.00     0.001 A 
ATOM     16  C25 <0> d   1      20.073   0.341  12.869  0.00  0.00     0.002 A 
ENDBRANCH   5   6
ENDBRANCH   4   5
ENDBRANCH   1   4
BRANCH   1  17
ATOM     17  C9  <0> d   1      18.407  -0.633   7.075  0.00  0.00     0.270 C 
BRANCH  17  18
ATOM     18  C10 <0> d   1      18.328   0.380   8.188  0.00  0.00    -0.033 A 
ATOM     19  C21 <0> d   1      19.205   1.450   8.208  0.00  0.00     0.009 A 
ATOM     20  C20 <0> d   1      19.137   2.383   9.219  0.00  0.00     0.012 A 
ATOM     21  C13 <0> d   1      18.184   2.242  10.233  0.00  0.00    -0.036 A 
ATOM     22  C12 <0> d   1      17.305   1.155  10.209  0.00  0.00     0.012 A 
ATOM     23  C11 <0> d   1      17.383   0.232   9.187  0.00  0.00     0.009 A 
BRANCH  21  24
ATOM     24  C14 <0> d   1      18.108   3.231  11.321  0.00  0.00     0.017 C 
ATOM     25  C15 <0> d   1      19.236   3.786  11.807  0.00  0.00     0.077 C 
BRANCH  25  26
ATOM     26  C16 <0> d   1      19.160   4.770  12.888  0.00  0.00     0.264 C 
ATOM     27  O17 <0> d   1      18.101   5.316  13.141  0.00  0.00    -0.266 OA
ATOM     28  N18 <0> d   1      20.261   5.071  13.603  0.00  0.00    -0.234 N 
ATOM     29  H42 <0> d   1      21.104   4.636  13.403  0.00  0.00     0.197 HD
BRANCH  28  30
ATOM     30  O19 <0> d   1      20.188   6.023  14.650  0.00  0.00    -0.287 OA
ATOM     31  H43 <0> d   1      20.690   6.833  14.481  0.00  0.00     0.244 HD
ENDBRANCH  28  30
ENDBRANCH  25  26
ENDBRANCH  21  24
ENDBRANCH  17  18
ENDBRANCH   1  17
TORSDOF 8
ENDMDL
MODEL 4
REMARK VINA RESULT:      -7.7      1.653      2.607
REMARK  8 active torsions:
REMARK  status: ('A' for Active; 'I' for Inactive)
REMARK    1  A    between atoms: C3_3  and  C4_4 
REMARK    2  A    between atoms: C4_4  and  C5_5 
REMARK    3  A    between atoms: C5_5  and  N6_6 
REMARK    4  A    between atoms: N6_6  and  C9_9 
REMARK    5  A    between atoms: C9_9  and  C10_10 
REMARK    6  A    between atoms: C13_13  and  C14_14 
REMARK    7  A    between atoms: C15_15  and  C16_16 
REMARK       I    between atoms: C16_16  and  N18_18 
REMARK    8  A    between atoms: N18_18  and  O19_19 
ROOT
ATOM      1  N6  <0> d   1      17.378   1.467  12.703  0.00  0.00    -0.071 N 
ATOM      2  H7  <0> d   1      17.099   0.631  12.212  0.00  0.00     0.277 HD
ATOM      3  H8  <0> d   1      16.613   1.791  13.275  0.00  0.00     0.277 HD
ENDROOT
BRANCH   1   4
ATOM      4  C5  <0> d   1      18.537   1.171  13.557  0.00  0.00     0.237 C 
BRANCH   4   5
ATOM      5  C4  <0> d   1      18.690  -0.345  13.700  0.00  0.00     0.069 C 
BRANCH   5   6
ATOM      6  C3  <0> d   1      19.177  -0.926  12.397  0.00  0.00    -0.022 A 
ATOM      7  C2  <0> d   1      20.234  -0.510  11.684  0.00  0.00     0.013 A 
ATOM      8  C1  <0> d   1      21.140   0.633  12.065  0.00  0.00     0.068 C 
ATOM      9  N28 <0> d   1      20.366  -1.273  10.556  0.00  0.00    -0.359 N 
ATOM     10  C27 <0> d   1      19.375  -2.229  10.520  0.00  0.00     0.043 A 
ATOM     11  H50 <0> d   1      21.055  -1.160   9.883  0.00  0.00     0.166 HD
ATOM     12  C22 <0> d   1      18.584  -2.051  11.670  0.00  0.00    -0.001 A 
ATOM     13  C26 <0> d   1      19.053  -3.241   9.622  0.00  0.00     0.030 A 
ATOM     14  C23 <0> d   1      17.489  -2.886  11.898  0.00  0.00     0.014 A 
ATOM     15  C24 <0> d   1      17.190  -3.873  11.002  0.00  0.00     0.001 A 
ATOM     16  C25 <0> d   1      17.967  -4.054   9.867  0.00  0.00     0.002 A 
ENDBRANCH   5   6
ENDBRANCH   4   5
ENDBRANCH   1   4
BRANCH   1  17
ATOM     17  C9  <0> d   1      17.739   2.508  11.731  0.00  0.00     0.270 C 
BRANCH  17  18
ATOM     18  C10 <0> d   1      17.987   1.876  10.386  0.00  0.00    -0.033 A 
ATOM     19  C21 <0> d   1      18.977   2.380   9.560  0.00  0.00     0.009 A 
ATOM     20  C20 <0> d   1      19.213   1.804   8.331  0.00  0.00     0.012 A 
ATOM     21  C13 <0> d   1      18.443   0.714   7.913  0.00  0.00    -0.036 A 
ATOM     22  C12 <0> d   1      17.441   0.214   8.751  0.00  0.00     0.012 A 
ATOM     23  C11 <0> d   1      17.220   0.798   9.980  0.00  0.00     0.009 A 
BRANCH  21  24
ATOM     24  C14 <0> d   1      18.685   0.097   6.598  0.00  0.00     0.017 C 
ATOM     25  C15 <0> d   1      18.903  -1.230   6.507  0.00  0.00     0.077 C 
BRANCH  25  26
ATOM     26  C16 <0> d   1      19.143  -1.843   5.199  0.00  0.00     0.264 C 
ATOM     27  O17 <0> d   1      19.908  -1.319   4.411  0.00  0.00    -0.266 OA
ATOM     28  N18 <0> d   1      18.515  -2.989   4.868  0.00  0.00    -0.234 N 
ATOM     29  H42 <0> d   1      17.906  -3.407   5.495  0.00  0.00     0.197 HD
BRANCH  28  30
ATOM     30  O19 <0> d   1      18.747  -3.583   3.603  0.00  0.00    -0.287 OA
ATOM     31  H43 <0> d   1      18.443  -4.499   3.537  0.00  0.00     0.244 HD
ENDBRANCH  28  30
ENDBRANCH  25  26
ENDBRANCH  21  24
ENDBRANCH  17  18
ENDBRANCH   1  17
TORSDOF 8
ENDMDL
MODEL 5
REMARK VINA RESULT:      -7.6      4.528      7.865
REMARK  8 active torsions:
REMARK  status: ('A' for Active; 'I' for Inactive)
REMARK    1  A    between atoms: C3_3  and  C4_4 
REMARK    2  A    between atoms: C4_4  and  C5_5 
REMARK    3  A    between atoms: C5_5  and  N6_6 
REMARK    4  A    between atoms: N6_6  and  C9_9 
REMARK    5  A    between atoms: C9_9  and  C10_10 
REMARK    6  A    between atoms: C13_13  and  C14_14 
REMARK    7  A    between atoms: C15_15  and  C16_16 
REMARK       I    between atoms: C16_16  and  N18_18 
REMARK    8  A    between atoms: N18_18  and  O19_19 
ROOT
ATOM      1  N6  <0> d   1      18.712  -3.028   9.758  0.00  0.00    -0.071 N 
ATOM      2  H7  <0> d   1      19.031  -3.975   9.626  0.00  0.00     0.277 HD
ATOM      3  H8  <0> d   1      19.429  -2.492  10.222  0.00  0.00     0.277 HD
ENDROOT
BRANCH   1   4
ATOM      4  C5  <0> d   1      18.418  -2.423   8.452  0.00  0.00     0.237 C 
BRANCH   4   5
ATOM      5  C4  <0> d   1      19.592  -1.540   8.023  0.00  0.00     0.069 C 
BRANCH   5   6
ATOM      6  C3  <0> d   1      19.323  -0.114   8.431  0.00  0.00    -0.022 A 
ATOM      7  C2  <0> d   1      18.724   0.829   7.688  0.00  0.00     0.013 A 
ATOM      8  C1  <0> d   1      18.204   0.627   6.288  0.00  0.00     0.068 C 
ATOM      9  N28 <0> d   1      18.661   2.004   8.387  0.00  0.00    -0.359 N 
ATOM     10  C27 <0> d   1      19.224   1.838   9.632  0.00  0.00     0.043 A 
ATOM     11  H50 <0> d   1      18.275   2.830   8.055  0.00  0.00     0.166 HD
ATOM     12  C22 <0> d   1      19.668   0.505   9.713  0.00  0.00    -0.001 A 
ATOM     13  C26 <0> d   1      19.415   2.686  10.718  0.00  0.00     0.030 A 
ATOM     14  C23 <0> d   1      20.292   0.048  10.875  0.00  0.00     0.014 A 
ATOM     15  C24 <0> d   1      20.469   0.899  11.929  0.00  0.00     0.001 A 
ATOM     16  C25 <0> d   1      20.033   2.214  11.855  0.00  0.00     0.002 A 
ENDBRANCH   5   6
ENDBRANCH   4   5
ENDBRANCH   1   4
BRANCH   1  17
ATOM     17  C9  <0> d   1      17.494  -3.033  10.580  0.00  0.00     0.270 C 
BRANCH  17  18
ATOM     18  C10 <0> d   1      17.694  -2.141  11.779  0.00  0.00    -0.033 A 
ATOM     19  C21 <0> d   1      18.581  -2.514  12.774  0.00  0.00     0.009 A 
ATOM     20  C20 <0> d   1      18.773  -1.703  13.871  0.00  0.00     0.012 A 
ATOM     21  C13 <0> d   1      18.061  -0.504  13.983  0.00  0.00    -0.036 A 
ATOM     22  C12 <0> d   1      17.162  -0.137  12.976  0.00  0.00     0.012 A 
ATOM     23  C11 <0> d   1      16.985  -0.957  11.882  0.00  0.00     0.009 A 
BRANCH  21  24
ATOM     24  C14 <0> d   1      18.255   0.366  15.155  0.00  0.00     0.017 C 
ATOM     25  C15 <0> d   1      17.973  -0.094  16.390  0.00  0.00     0.077 C 
BRANCH  25  26
ATOM     26  C16 <0> d   1      18.167   0.771  17.555  0.00  0.00     0.264 C 
ATOM     27  O17 <0> d   1      17.222   1.055  18.266  0.00  0.00    -0.266 OA
ATOM     28  N18 <0> d   1      19.394   1.252  17.839  0.00  0.00    -0.234 N 
ATOM     29  H42 <0> d   1      20.147   1.025  17.273  0.00  0.00     0.197 HD
BRANCH  28  30
ATOM     30  O19 <0> d   1      19.582   2.089  18.967  0.00  0.00    -0.287 OA
ATOM     31  H43 <0> d   1      18.758   2.395  19.371  0.00  0.00     0.244 HD
ENDBRANCH  28  30
ENDBRANCH  25  26
ENDBRANCH  21  24
ENDBRANCH  17  18
ENDBRANCH   1  17
TORSDOF 8
ENDMDL
MODEL 6
REMARK VINA RESULT:      -7.5      4.409      6.934
REMARK  8 active torsions:
REMARK  status: ('A' for Active; 'I' for Inactive)
REMARK    1  A    between atoms: C3_3  and  C4_4 
REMARK    2  A    between atoms: C4_4  and  C5_5 
REMARK    3  A    between atoms: C5_5  and  N6_6 
REMARK    4  A    between atoms: N6_6  and  C9_9 
REMARK    5  A    between atoms: C9_9  and  C10_10 
REMARK    6  A    between atoms: C13_13  and  C14_14 
REMARK    7  A    between atoms: C15_15  and  C16_16 
REMARK       I    between atoms: C16_16  and  N18_18 
REMARK    8  A    between atoms: N18_18  and  O19_19 
ROOT
ATOM      1  N6  <0> d   1      18.101   0.241   9.097  0.00  0.00    -0.071 N 
ATOM      2  H7  <0> d   1      17.633   0.178   8.205  0.00  0.00     0.277 HD
ATOM      3  H8  <0> d   1      17.431   0.481   9.811  0.00  0.00     0.277 HD
ENDROOT
BRANCH   1   4
ATOM      4  C5  <0> d   1      18.719  -1.052   9.419  0.00  0.00     0.237 C 
BRANCH   4   5
ATOM      5  C4  <0> d   1      17.873  -1.773  10.471  0.00  0.00     0.069 C 
BRANCH   5   6
ATOM      6  C3  <0> d   1      18.549  -1.672  11.814  0.00  0.00    -0.022 A 
ATOM      7  C2  <0> d   1      19.520  -2.471  12.282  0.00  0.00     0.013 A 
ATOM      8  C1  <0> d   1      20.119  -3.634  11.533  0.00  0.00     0.068 C 
ATOM      9  N28 <0> d   1      19.882  -2.078  13.541  0.00  0.00    -0.359 N 
ATOM     10  C27 <0> d   1      19.140  -0.982  13.921  0.00  0.00     0.043 A 
ATOM     11  H50 <0> d   1      20.562  -2.506  14.085  0.00  0.00     0.166 HD
ATOM     12  C22 <0> d   1      18.269  -0.682  12.857  0.00  0.00    -0.001 A 
ATOM     13  C26 <0> d   1      19.105  -0.200  15.071  0.00  0.00     0.030 A 
ATOM     14  C23 <0> d   1      17.383   0.391  12.964  0.00  0.00     0.014 A 
ATOM     15  C24 <0> d   1      17.366   1.146  14.104  0.00  0.00     0.001 A 
ATOM     16  C25 <0> d   1      18.223   0.855  15.155  0.00  0.00     0.002 A 
ENDBRANCH   5   6
ENDBRANCH   4   5
ENDBRANCH   1   4
BRANCH   1  17
ATOM     17  C9  <0> d   1      19.140   1.278   9.032  0.00  0.00     0.270 C 
BRANCH  17  18
ATOM     18  C10 <0> d   1      18.954   2.248  10.171  0.00  0.00    -0.033 A 
ATOM     19  C21 <0> d   1      17.812   3.027  10.232  0.00  0.00     0.009 A 
ATOM     20  C20 <0> d   1      17.632   3.912  11.272  0.00  0.00     0.012 A 
ATOM     21  C13 <0> d   1      18.611   4.030  12.263  0.00  0.00    -0.036 A 
ATOM     22  C12 <0> d   1      19.766   3.243  12.192  0.00  0.00     0.012 A 
ATOM     23  C11 <0> d   1      19.929   2.358  11.147  0.00  0.00     0.009 A 
BRANCH  21  24
ATOM     24  C14 <0> d   1      18.430   4.978  13.375  0.00  0.00     0.017 C 
ATOM     25  C15 <0> d   1      19.440   5.205  14.238  0.00  0.00     0.077 C 
BRANCH  25  26
ATOM     26  C16 <0> d   1      19.260   6.148  15.343  0.00  0.00     0.264 C 
ATOM     27  O17 <0> d   1      19.170   7.341  15.117  0.00  0.00    -0.266 OA
ATOM     28  N18 <0> d   1      19.193   5.696  16.611  0.00  0.00    -0.234 N 
ATOM     29  H42 <0> d   1      19.264   4.746  16.792  0.00  0.00     0.197 HD
BRANCH  28  30
ATOM     30  O19 <0> d   1      19.018   6.609  17.680  0.00  0.00    -0.287 OA
ATOM     31  H43 <0> d   1      19.777   7.190  17.829  0.00  0.00     0.244 HD
ENDBRANCH  28  30
ENDBRANCH  25  26
ENDBRANCH  21  24
ENDBRANCH  17  18
ENDBRANCH   1  17
TORSDOF 8
ENDMDL
MODEL 7
REMARK VINA RESULT:      -7.4      4.263      7.883
REMARK  8 active torsions:
REMARK  status: ('A' for Active; 'I' for Inactive)
REMARK    1  A    between atoms: C3_3  and  C4_4 
REMARK    2  A    between atoms: C4_4  and  C5_5 
REMARK    3  A    between atoms: C5_5  and  N6_6 
REMARK    4  A    between atoms: N6_6  and  C9_9 
REMARK    5  A    between atoms: C9_9  and  C10_10 
REMARK    6  A    between atoms: C13_13  and  C14_14 
REMARK    7  A    between atoms: C15_15  and  C16_16 
REMARK       I    between atoms: C16_16  and  N18_18 
REMARK    8  A    between atoms: N18_18  and  O19_19 
ROOT
ATOM      1  N6  <0> d   1      19.570  -2.050   8.693  0.00  0.00    -0.071 N 
ATOM      2  H7  <0> d   1      20.510  -2.276   8.403  0.00  0.00     0.277 HD
ATOM      3  H8  <0> d   1      19.550  -1.116   9.071  0.00  0.00     0.277 HD
ENDROOT
BRANCH   1   4
ATOM      4  C5  <0> d   1      18.668  -2.130   7.536  0.00  0.00     0.237 C 
BRANCH   4   5
ATOM      5  C4  <0> d   1      17.527  -1.125   7.709  0.00  0.00     0.069 C 
BRANCH   5   6
ATOM      6  C3  <0> d   1      18.099   0.235   8.018  0.00  0.00    -0.022 A 
ATOM      7  C2  <0> d   1      18.833   0.998   7.194  0.00  0.00     0.013 A 
ATOM      8  C1  <0> d   1      19.223   0.624   5.787  0.00  0.00     0.068 C 
ATOM      9  N28 <0> d   1      19.180   2.163   7.822  0.00  0.00    -0.359 N 
ATOM     10  C27 <0> d   1      18.657   2.182   9.095  0.00  0.00     0.043 A 
ATOM     11  H50 <0> d   1      19.714   2.871   7.428  0.00  0.00     0.166 HD
ATOM     12  C22 <0> d   1      17.959   0.973   9.276  0.00  0.00    -0.001 A 
ATOM     13  C26 <0> d   1      18.700   3.105  10.135  0.00  0.00     0.030 A 
ATOM     14  C23 <0> d   1      17.323   0.711  10.489  0.00  0.00     0.014 A 
ATOM     15  C24 <0> d   1      17.379   1.632  11.498  0.00  0.00     0.001 A 
ATOM     16  C25 <0> d   1      18.064   2.826  11.325  0.00  0.00     0.002 A 
ENDBRANCH   5   6
ENDBRANCH   4   5
ENDBRANCH   1   4
BRANCH   1  17
ATOM     17  C9  <0> d   1      19.133  -3.005   9.721  0.00  0.00     0.270 C 
BRANCH  17  18
ATOM     18  C10 <0> d   1      19.060  -2.307  11.055  0.00  0.00    -0.033 A 
ATOM     19  C21 <0> d   1      20.018  -1.368  11.394  0.00  0.00     0.009 A 
ATOM     20  C20 <0> d   1      19.955  -0.722  12.610  0.00  0.00     0.012 A 
ATOM     21  C13 <0> d   1      18.925  -1.024  13.506  0.00  0.00    -0.036 A 
ATOM     22  C12 <0> d   1      17.964  -1.979  13.159  0.00  0.00     0.012 A 
ATOM     23  C11 <0> d   1      18.038  -2.613  11.936  0.00  0.00     0.009 A 
BRANCH  21  24
ATOM     24  C14 <0> d   1      18.854  -0.344  14.810  0.00  0.00     0.017 C 
ATOM     25  C15 <0> d   1      18.062  -0.834  15.784  0.00  0.00     0.077 C 
BRANCH  25  26
ATOM     26  C16 <0> d   1      17.992  -0.158  17.080  0.00  0.00     0.264 C 
ATOM     27  O17 <0> d   1      18.773  -0.454  17.965  0.00  0.00    -0.266 OA
ATOM     28  N18 <0> d   1      17.062   0.794  17.294  0.00  0.00    -0.234 N 
ATOM     29  H42 <0> d   1      16.439   1.031  16.590  0.00  0.00     0.197 HD
BRANCH  28  30
ATOM     30  O19 <0> d   1      16.994   1.449  18.548  0.00  0.00    -0.287 OA
ATOM     31  H43 <0> d   1      17.855   1.718  18.899  0.00  0.00     0.244 HD
ENDBRANCH  28  30
ENDBRANCH  25  26
ENDBRANCH  21  24
ENDBRANCH  17  18
ENDBRANCH   1  17
TORSDOF 8
ENDMDL
MODEL 8
REMARK VINA RESULT:      -7.3      2.282      4.498
REMARK  8 active torsions:
REMARK  status: ('A' for Active; 'I' for Inactive)
REMARK    1  A    between atoms: C3_3  and  C4_4 
REMARK    2  A    between atoms: C4_4  and  C5_5 
REMARK    3  A    between atoms: C5_5  and  N6_6 
REMARK    4  A    between atoms: N6_6  and  C9_9 
REMARK    5  A    between atoms: C9_9  and  C10_10 
REMARK    6  A    between atoms: C13_13  and  C14_14 
REMARK    7  A    between atoms: C15_15  and  C16_16 
REMARK       I    between atoms: C16_16  and  N18_18 
REMARK    8  A    between atoms: N18_18  and  O19_19 
ROOT
ATOM      1  N6  <0> d   1      19.606   2.932  15.661  0.00  0.00    -0.071 N 
ATOM      2  H7  <0> d   1      19.941   2.940  14.710  0.00  0.00     0.277 HD
ATOM      3  H8  <0> d   1      20.391   2.897  16.294  0.00  0.00     0.277 HD
ENDROOT
BRANCH   1   4
ATOM      4  C5  <0> d   1      18.825   4.151  15.916  0.00  0.00     0.237 C 
BRANCH   4   5
ATOM      5  C4  <0> d   1      19.182   5.212  14.873  0.00  0.00     0.069 C 
BRANCH   5   6
ATOM      6  C3  <0> d   1      18.293   5.048  13.667  0.00  0.00    -0.022 A 
ATOM      7  C2  <0> d   1      17.084   5.601  13.485  0.00  0.00     0.013 A 
ATOM      8  C1  <0> d   1      16.386   6.499  14.474  0.00  0.00     0.068 C 
ATOM      9  N28 <0> d   1      16.575   5.222  12.273  0.00  0.00    -0.359 N 
ATOM     10  C27 <0> d   1      17.472   4.404  11.624  0.00  0.00     0.043 A 
ATOM     11  H50 <0> d   1      15.712   5.492  11.922  0.00  0.00     0.166 HD
ATOM     12  C22 <0> d   1      18.587   4.255  12.470  0.00  0.00    -0.001 A 
ATOM     13  C26 <0> d   1      17.461   3.757  10.393  0.00  0.00     0.030 A 
ATOM     14  C23 <0> d   1      19.664   3.464  12.070  0.00  0.00     0.014 A 
ATOM     15  C24 <0> d   1      19.632   2.838  10.856  0.00  0.00     0.001 A 
ATOM     16  C25 <0> d   1      18.536   2.981  10.017  0.00  0.00     0.002 A 
ENDBRANCH   5   6
ENDBRANCH   4   5
ENDBRANCH   1   4
BRANCH   1  17
ATOM     17  C9  <0> d   1      18.755   1.753  15.871  0.00  0.00     0.270 C 
BRANCH  17  18
ATOM     18  C10 <0> d   1      18.635   0.984  14.580  0.00  0.00    -0.033 A 
ATOM     19  C21 <0> d   1      19.695   0.213  14.137  0.00  0.00     0.009 A 
ATOM     20  C20 <0> d   1      19.592  -0.497  12.961  0.00  0.00     0.012 A 
ATOM     21  C13 <0> d   1      18.416  -0.429  12.208  0.00  0.00    -0.036 A 
ATOM     22  C12 <0> d   1      17.351   0.357  12.659  0.00  0.00     0.012 A 
ATOM     23  C11 <0> d   1      17.468   1.058  13.841  0.00  0.00     0.009 A 
BRANCH  21  24
ATOM     24  C14 <0> d   1      18.299  -1.179  10.946  0.00  0.00     0.017 C 
ATOM     25  C15 <0> d   1      18.813  -0.670   9.810  0.00  0.00     0.077 C 
BRANCH  25  26
ATOM     26  C16 <0> d   1      18.698  -1.416   8.556  0.00  0.00     0.264 C 
ATOM     27  O17 <0> d   1      19.418  -1.139   7.614  0.00  0.00    -0.266 OA
ATOM     28  N18 <0> d   1      17.795  -2.410   8.444  0.00  0.00    -0.234 N 
ATOM     29  H42 <0> d   1      17.222  -2.631   9.194  0.00  0.00     0.197 HD
BRANCH  28  30
ATOM     30  O19 <0> d   1      17.684  -3.133   7.231  0.00  0.00    -0.287 OA
ATOM     31  H43 <0> d   1      17.715  -2.579   6.439  0.00  0.00     0.244 HD
ENDBRANCH  28  30
ENDBRANCH  25  26
ENDBRANCH  21  24
ENDBRANCH  17  18
ENDBRANCH   1  17
TORSDOF 8
ENDMDL
MODEL 9
REMARK VINA RESULT:      -7.0      2.843      5.158
REMARK  8 active torsions:
REMARK  status: ('A' for Active; 'I' for Inactive)
REMARK    1  A    between atoms: C3_3  and  C4_4 
REMARK    2  A    between atoms: C4_4  and  C5_5 
REMARK    3  A    between atoms: C5_5  and  N6_6 
REMARK    4  A    between atoms: N6_6  and  C9_9 
REMARK    5  A    between atoms: C9_9  and  C10_10 
REMARK    6  A    between atoms: C13_13  and  C14_14 
REMARK    7  A    between atoms: C15_15  and  C16_16 
REMARK       I    between atoms: C16_16  and  N18_18 
REMARK    8  A    between atoms: N18_18  and  O19_19 
ROOT
ATOM      1  N6  <0> d   1      19.986  -1.114  13.238  0.00  0.00    -0.071 N 
ATOM      2  H7  <0> d   1      20.601  -1.438  12.508  0.00  0.00     0.277 HD
ATOM      3  H8  <0> d   1      20.506  -1.014  14.096  0.00  0.00     0.277 HD
ENDROOT
BRANCH   1   4
ATOM      4  C5  <0> d   1      19.414   0.185  12.857  0.00  0.00     0.237 C 
BRANCH   4   5
ATOM      5  C4  <0> d   1      20.367   0.899  11.897  0.00  0.00     0.069 C 
BRANCH   5   6
ATOM      6  C3  <0> d   1      19.622   1.288  10.646  0.00  0.00    -0.022 A 
ATOM      7  C2  <0> d   1      19.078   2.485  10.380  0.00  0.00     0.013 A 
ATOM      8  C1  <0> d   1      19.118   3.677  11.301  0.00  0.00     0.068 C 
ATOM      9  N28 <0> d   1      18.478   2.463   9.150  0.00  0.00    -0.359 N 
ATOM     10  C27 <0> d   1      18.632   1.220   8.577  0.00  0.00     0.043 A 
ATOM     11  H50 <0> d   1      18.015   3.211   8.742  0.00  0.00     0.166 HD
ATOM     12  C22 <0> d   1      19.352   0.428   9.490  0.00  0.00    -0.001 A 
ATOM     13  C26 <0> d   1      18.231   0.668   7.366  0.00  0.00     0.030 A 
ATOM     14  C23 <0> d   1      19.654  -0.897   9.175  0.00  0.00     0.014 A 
ATOM     15  C24 <0> d   1      19.249  -1.420   7.979  0.00  0.00     0.001 A 
ATOM     16  C25 <0> d   1      18.540  -0.643   7.074  0.00  0.00     0.002 A 
ENDBRANCH   5   6
ENDBRANCH   4   5
ENDBRANCH   1   4
BRANCH   1  17
ATOM     17  C9  <0> d   1      18.903  -2.088  13.433  0.00  0.00     0.270 C 
BRANCH  17  18
ATOM     18  C10 <0> d   1      18.754  -2.929  12.191  0.00  0.00    -0.033 A 
ATOM     19  C21 <0> d   1      17.557  -2.926  11.497  0.00  0.00     0.009 A 
ATOM     20  C20 <0> d   1      17.414  -3.689  10.358  0.00  0.00     0.012 A 
ATOM     21  C13 <0> d   1      18.480  -4.476   9.910  0.00  0.00    -0.036 A 
ATOM     22  C12 <0> d   1      19.685  -4.479  10.621  0.00  0.00     0.012 A 
ATOM     23  C11 <0> d   1      19.813  -3.706  11.756  0.00  0.00     0.009 A 
BRANCH  21  24
ATOM     24  C14 <0> d   1      18.334  -5.299   8.698  0.00  0.00     0.017 C 
ATOM     25  C15 <0> d   1      17.694  -4.804   7.620  0.00  0.00     0.077 C 
BRANCH  25  26
ATOM     26  C16 <0> d   1      17.550  -5.622   6.415  0.00  0.00     0.264 C 
ATOM     27  O17 <0> d   1      16.442  -5.869   5.975  0.00  0.00    -0.266 OA
ATOM     28  N18 <0> d   1      18.644  -6.102   5.792  0.00  0.00    -0.234 N 
ATOM     29  H42 <0> d   1      19.527  -5.906   6.142  0.00  0.00     0.197 HD
BRANCH  28  30
ATOM     30  O19 <0> d   1      18.505  -6.894   4.626  0.00  0.00    -0.287 OA
ATOM     31  H43 <0> d   1      18.297  -7.821   4.802  0.00  0.00     0.244 HD
ENDBRANCH  28  30
ENDBRANCH  25  26
ENDBRANCH  21  24
ENDBRANCH  17  18
ENDBRANCH   1  17
TORSDOF 8
ENDMDL
