MODEL 1
REMARK VINA RESULT:      -9.6      0.000      0.000
REMARK  4 active torsions:
REMARK  status: ('A' for Active; 'I' for Inactive)
REMARK    1  A    between atoms: C3_3  and  C4_4 
REMARK    2  A    between atoms: C4_4  and  C5_5 
REMARK    3  A    between atoms: C5_5  and  N6_6 
REMARK    4  A    between atoms: C9_9  and  C10_10 
ROOT
ATOM      1  N6  ZIN A   1      17.839   2.221  10.621  0.00  0.00     0.088 N 
ATOM      2  C7  ZIN A   1      17.550   0.783  10.564  0.00  0.00     0.273 C 
ATOM      3  C8  ZIN A   1      17.575   0.313   9.107  0.00  0.00     0.041 C 
ATOM      4  C9  ZIN A   1      18.954   0.600   8.507  0.00  0.00     0.044 C 
ATOM      5  C20 ZIN A   1      19.251   2.098   8.623  0.00  0.00     0.041 C 
ATOM      6  C21 ZIN A   1      19.178   2.516  10.093  0.00  0.00     0.273 C 
ENDROOT
BRANCH   1   7
ATOM      7  C5  ZIN A   1      17.687   2.735  11.988  0.00  0.00     0.277 C 
BRANCH   7   8
ATOM      8  C4  ZIN A   1      19.067   2.900  12.627  0.00  0.00     0.076 C 
BRANCH   8   9
ATOM      9  C3  ZIN A   1      18.979   2.596  14.101  0.00  0.00     0.036 A 
ATOM     10  C2  ZIN A   1      18.877   3.599  15.017  0.00  0.00     0.044 A 
ATOM     11  C1  ZIN A   1      18.841   5.037  14.567  0.00  0.00     0.071 C 
ATOM     12  N30 ZIN A   1      18.814   3.301  16.313  0.00  0.00    -0.239 NA
ATOM     13  C29 ZIN A   1      18.827   2.062  16.755  0.00  0.00     0.109 A 
ATOM     14  N24 ZIN A   1      18.905   1.031  15.901  0.00  0.00    -0.302 N 
ATOM     15  C28 ZIN A   1      18.757   1.878  18.252  0.00  0.00     0.079 C 
ATOM     16  C22 ZIN A   1      19.000   1.269  14.567  0.00  0.00     0.257 A 
ATOM     17  C25 ZIN A   1      18.881  -0.372  16.321  0.00  0.00     0.133 C 
ATOM     18  O23 ZIN A   1      19.104   0.342  13.782  0.00  0.00    -0.267 OA
ATOM     19  C26 ZIN A   1      19.235  -0.510  17.798  0.00  0.00     0.021 C 
ATOM     20  C27 ZIN A   1      18.344   0.449  18.598  0.00  0.00     0.009 C 
ENDBRANCH   8   9
ENDBRANCH   7   8
ENDBRANCH   1   7
BRANCH   4  21
ATOM     21  C10 ZIN A   1      18.966   0.195   7.055  0.00  0.00     0.079 A 
ATOM     22  C19 ZIN A   1      18.827  -1.167   6.534  0.00  0.00     0.027 A 
ATOM     23  C13 ZIN A   1      18.893  -1.065   5.134  0.00  0.00     0.116 A 
ATOM     24  C18 ZIN A   1      18.640  -2.416   7.133  0.00  0.00     0.019 A 
ATOM     25  O12 ZIN A   1      19.067   0.240   4.840  0.00  0.00    -0.212 OA
ATOM     26  C14 ZIN A   1      18.785  -2.213   4.359  0.00  0.00     0.082 A 
ATOM     27  N11 ZIN A   1      19.108   0.987   6.039  0.00  0.00    -0.131 NA
ATOM     28  C15 ZIN A   1      18.607  -3.438   4.970  0.00  0.00     0.119 A 
ATOM     29  F16 ZIN A   1      18.502  -4.553   4.215  0.00  0.00    -0.206 F 
ATOM     30  C17 ZIN A   1      18.536  -3.534   6.355  0.00  0.00     0.043 A 
ENDBRANCH   4  21
TORSDOF 4
ENDMDL
MODEL 2
REMARK VINA RESULT:      -9.6      1.009      1.794
REMARK  4 active torsions:
REMARK  status: ('A' for Active; 'I' for Inactive)
REMARK    1  A    between atoms: C3_3  and  C4_4 
REMARK    2  A    between atoms: C4_4  and  C5_5 
REMARK    3  A    between atoms: C5_5  and  N6_6 
REMARK    4  A    between atoms: C9_9  and  C10_10 
ROOT
ATOM      1  N6  ZIN A   1      17.860   2.234  10.642  0.00  0.00     0.088 N 
ATOM      2  C7  ZIN A   1      17.481   0.819  10.544  0.00  0.00     0.273 C 
ATOM      3  C8  ZIN A   1      17.518   0.380   9.077  0.00  0.00     0.041 C 
ATOM      4  C9  ZIN A   1      18.929   0.589   8.522  0.00  0.00     0.044 C 
ATOM      5  C20 ZIN A   1      19.319   2.061   8.681  0.00  0.00     0.041 C 
ATOM      6  C21 ZIN A   1      19.230   2.451  10.159  0.00  0.00     0.273 C 
ENDROOT
BRANCH   1   7
ATOM      7  C5  ZIN A   1      17.702   2.726  12.016  0.00  0.00     0.277 C 
BRANCH   7   8
ATOM      8  C4  ZIN A   1      19.067   2.759  12.707  0.00  0.00     0.076 C 
BRANCH   8   9
ATOM      9  C3  ZIN A   1      19.024   1.904  13.947  0.00  0.00     0.036 A 
ATOM     10  C2  ZIN A   1      19.427   0.603  13.914  0.00  0.00     0.044 A 
ATOM     11  C1  ZIN A   1      19.934  -0.002  12.631  0.00  0.00     0.071 C 
ATOM     12  N30 ZIN A   1      19.365  -0.132  15.022  0.00  0.00    -0.239 NA
ATOM     13  C29 ZIN A   1      18.943   0.354  16.170  0.00  0.00     0.109 A 
ATOM     14  N24 ZIN A   1      18.552   1.633  16.271  0.00  0.00    -0.302 N 
ATOM     15  C28 ZIN A   1      18.921  -0.600  17.341  0.00  0.00     0.079 C 
ATOM     16  C22 ZIN A   1      18.565   2.428  15.169  0.00  0.00     0.257 A 
ATOM     17  C25 ZIN A   1      18.113   2.249  17.524  0.00  0.00     0.133 C 
ATOM     18  O23 ZIN A   1      18.182   3.583  15.239  0.00  0.00    -0.267 OA
ATOM     19  C26 ZIN A   1      17.704   1.191  18.544  0.00  0.00     0.021 C 
ATOM     20  C27 ZIN A   1      18.843   0.169  18.658  0.00  0.00     0.009 C 
ENDBRANCH   8   9
ENDBRANCH   7   8
ENDBRANCH   1   7
BRANCH   4  21
ATOM     21  C10 ZIN A   1      18.957   0.215   7.063  0.00  0.00     0.079 A 
ATOM     22  C19 ZIN A   1      18.827  -1.136   6.511  0.00  0.00     0.027 A 
ATOM     23  C13 ZIN A   1      18.908  -1.004   5.114  0.00  0.00     0.116 A 
ATOM     24  C18 ZIN A   1      18.639  -2.398   7.082  0.00  0.00     0.019 A 
ATOM     25  O12 ZIN A   1      19.081   0.307   4.850  0.00  0.00    -0.212 OA
ATOM     26  C14 ZIN A   1      18.811  -2.135   4.314  0.00  0.00     0.082 A 
ATOM     27  N11 ZIN A   1      19.107   1.029   6.065  0.00  0.00    -0.131 NA
ATOM     28  C15 ZIN A   1      18.631  -3.374   4.897  0.00  0.00     0.119 A 
ATOM     29  F16 ZIN A   1      18.537  -4.473   4.117  0.00  0.00    -0.206 F 
ATOM     30  C17 ZIN A   1      18.546  -3.499   6.279  0.00  0.00     0.043 A 
ENDBRANCH   4  21
TORSDOF 4
ENDMDL
MODEL 3
REMARK VINA RESULT:      -9.4      3.532      9.104
REMARK  4 active torsions:
REMARK  status: ('A' for Active; 'I' for Inactive)
REMARK    1  A    between atoms: C3_3  and  C4_4 
REMARK    2  A    between atoms: C4_4  and  C5_5 
REMARK    3  A    between atoms: C5_5  and  N6_6 
REMARK    4  A    between atoms: C9_9  and  C10_10 
ROOT
ATOM      1  N6  ZIN A   1      19.119   1.580   9.627  0.00  0.00     0.088 N 
ATOM      2  C7  ZIN A   1      19.995   0.671  10.378  0.00  0.00     0.273 C 
ATOM      3  C8  ZIN A   1      20.075   1.127  11.837  0.00  0.00     0.041 C 
ATOM      4  C9  ZIN A   1      18.670   1.129  12.444  0.00  0.00     0.044 C 
ATOM      5  C20 ZIN A   1      17.765   2.045  11.616  0.00  0.00     0.041 C 
ATOM      6  C21 ZIN A   1      17.752   1.563  10.163  0.00  0.00     0.273 C 
ENDROOT
BRANCH   1   7
ATOM      7  C5  ZIN A   1      19.128   1.256   8.195  0.00  0.00     0.277 C 
BRANCH   7   8
ATOM      8  C4  ZIN A   1      17.988   0.285   7.885  0.00  0.00     0.076 C 
BRANCH   8   9
ATOM      9  C3  ZIN A   1      18.550  -1.094   7.655  0.00  0.00     0.036 A 
ATOM     10  C2  ZIN A   1      19.140  -1.421   6.472  0.00  0.00     0.044 A 
ATOM     11  C1  ZIN A   1      19.248  -0.399   5.370  0.00  0.00     0.071 C 
ATOM     12  N30 ZIN A   1      19.615  -2.651   6.292  0.00  0.00    -0.239 NA
ATOM     13  C29 ZIN A   1      19.558  -3.575   7.228  0.00  0.00     0.109 A 
ATOM     14  N24 ZIN A   1      19.008  -3.308   8.422  0.00  0.00    -0.302 N 
ATOM     15  C28 ZIN A   1      20.132  -4.928   6.878  0.00  0.00     0.079 C 
ATOM     16  C22 ZIN A   1      18.479  -2.079   8.657  0.00  0.00     0.257 A 
ATOM     17  C25 ZIN A   1      18.949  -4.274   9.520  0.00  0.00     0.133 C 
ATOM     18  O23 ZIN A   1      17.947  -1.832   9.726  0.00  0.00    -0.267 OA
ATOM     19  C26 ZIN A   1      19.134  -5.699   9.010  0.00  0.00     0.021 C 
ATOM     20  C27 ZIN A   1      20.399  -5.739   8.144  0.00  0.00     0.009 C 
ENDBRANCH   8   9
ENDBRANCH   7   8
ENDBRANCH   1   7
BRANCH   4  21
ATOM     21  C10 ZIN A   1      18.734   1.634  13.863  0.00  0.00     0.079 A 
ATOM     22  C19 ZIN A   1      18.833   0.812  15.072  0.00  0.00     0.027 A 
ATOM     23  C13 ZIN A   1      18.868   1.705  16.157  0.00  0.00     0.116 A 
ATOM     24  C18 ZIN A   1      18.908  -0.565  15.301  0.00  0.00     0.019 A 
ATOM     25  O12 ZIN A   1      18.788   2.951  15.647  0.00  0.00    -0.212 OA
ATOM     26  C14 ZIN A   1      18.964   1.206  17.450  0.00  0.00     0.082 A 
ATOM     27  N11 ZIN A   1      18.707   2.874  14.238  0.00  0.00    -0.131 NA
ATOM     28  C15 ZIN A   1      19.031  -0.158  17.654  0.00  0.00     0.119 A 
ATOM     29  F16 ZIN A   1      19.125  -0.641  18.913  0.00  0.00    -0.206 F 
ATOM     30  C17 ZIN A   1      19.002  -1.037  16.579  0.00  0.00     0.043 A 
ENDBRANCH   4  21
TORSDOF 4
ENDMDL
MODEL 4
REMARK VINA RESULT:      -9.4      2.269      3.967
REMARK  4 active torsions:
REMARK  status: ('A' for Active; 'I' for Inactive)
REMARK    1  A    between atoms: C3_3  and  C4_4 
REMARK    2  A    between atoms: C4_4  and  C5_5 
REMARK    3  A    between atoms: C5_5  and  N6_6 
REMARK    4  A    between atoms: C9_9  and  C10_10 
ROOT
ATOM      1  N6  ZIN A   1      19.199  -1.361  13.319  0.00  0.00     0.088 N 
ATOM      2  C7  ZIN A   1      20.068  -0.493  12.516  0.00  0.00     0.273 C 
ATOM      3  C8  ZIN A   1      20.100  -0.996  11.070  0.00  0.00     0.041 C 
ATOM      4  C9  ZIN A   1      18.678  -0.994  10.502  0.00  0.00     0.044 C 
ATOM      5  C20 ZIN A   1      17.782  -1.867  11.385  0.00  0.00     0.041 C 
ATOM      6  C21 ZIN A   1      17.817  -1.338  12.821  0.00  0.00     0.273 C 
ENDROOT
BRANCH   1   7
ATOM      7  C5  ZIN A   1      19.253  -0.992  14.739  0.00  0.00     0.277 C 
BRANCH   7   8
ATOM      8  C4  ZIN A   1      18.060  -0.097  15.079  0.00  0.00     0.076 C 
BRANCH   8   9
ATOM      9  C3  ZIN A   1      18.547   1.297  15.382  0.00  0.00     0.036 A 
ATOM     10  C2  ZIN A   1      19.080   1.603  16.598  0.00  0.00     0.044 A 
ATOM     11  C1  ZIN A   1      19.200   0.543  17.662  0.00  0.00     0.071 C 
ATOM     12  N30 ZIN A   1      19.489   2.846  16.842  0.00  0.00    -0.239 NA
ATOM     13  C29 ZIN A   1      19.419   3.803  15.942  0.00  0.00     0.109 A 
ATOM     14  N24 ZIN A   1      18.923   3.559  14.719  0.00  0.00    -0.302 N 
ATOM     15  C28 ZIN A   1      19.915   5.166  16.363  0.00  0.00     0.079 C 
ATOM     16  C22 ZIN A   1      18.462   2.317  14.417  0.00  0.00     0.257 A 
ATOM     17  C25 ZIN A   1      18.855   4.565  13.658  0.00  0.00     0.133 C 
ATOM     18  O23 ZIN A   1      17.980   2.089  13.321  0.00  0.00    -0.267 OA
ATOM     19  C26 ZIN A   1      18.953   5.975  14.228  0.00  0.00     0.021 C 
ATOM     20  C27 ZIN A   1      20.185   6.040  15.140  0.00  0.00     0.009 C 
ENDBRANCH   8   9
ENDBRANCH   7   8
ENDBRANCH   1   7
BRANCH   4  21
ATOM     21  C10 ZIN A   1      18.695  -1.545   9.100  0.00  0.00     0.079 A 
ATOM     22  C19 ZIN A   1      18.818  -0.768   7.864  0.00  0.00     0.027 A 
ATOM     23  C13 ZIN A   1      18.790  -1.695   6.808  0.00  0.00     0.116 A 
ATOM     24  C18 ZIN A   1      18.962   0.595   7.591  0.00  0.00     0.019 A 
ATOM     25  O12 ZIN A   1      18.651  -2.918   7.358  0.00  0.00    -0.212 OA
ATOM     26  C14 ZIN A   1      18.893  -1.242   5.499  0.00  0.00     0.082 A 
ATOM     27  N11 ZIN A   1      18.596  -2.794   8.765  0.00  0.00    -0.131 NA
ATOM     28  C15 ZIN A   1      19.029   0.109   5.250  0.00  0.00     0.119 A 
ATOM     29  F16 ZIN A   1      19.129   0.547   3.975  0.00  0.00    -0.206 F 
ATOM     30  C17 ZIN A   1      19.062   1.022   6.297  0.00  0.00     0.043 A 
ENDBRANCH   4  21
TORSDOF 4
ENDMDL
MODEL 5
REMARK VINA RESULT:      -9.4      1.132      1.256
REMARK  4 active torsions:
REMARK  status: ('A' for Active; 'I' for Inactive)
REMARK    1  A    between atoms: C3_3  and  C4_4 
REMARK    2  A    between atoms: C4_4  and  C5_5 
REMARK    3  A    between atoms: C5_5  and  N6_6 
REMARK    4  A    between atoms: C9_9  and  C10_10 
ROOT
ATOM      1  N6  ZIN A   1      17.951   2.119   9.624  0.00  0.00     0.088 N 
ATOM      2  C7  ZIN A   1      17.425   0.752   9.729  0.00  0.00     0.273 C 
ATOM      3  C8  ZIN A   1      17.490   0.072   8.359  0.00  0.00     0.041 C 
ATOM      4  C9  ZIN A   1      18.942   0.044   7.877  0.00  0.00     0.044 C 
ATOM      5  C20 ZIN A   1      19.482   1.476   7.823  0.00  0.00     0.041 C 
ATOM      6  C21 ZIN A   1      19.359   2.116   9.208  0.00  0.00     0.273 C 
ENDROOT
BRANCH   1   7
ATOM      7  C5  ZIN A   1      17.776   2.848  10.886  0.00  0.00     0.277 C 
BRANCH   7   8
ATOM      8  C4  ZIN A   1      19.078   2.800  11.688  0.00  0.00     0.076 C 
BRANCH   8   9
ATOM      9  C3  ZIN A   1      18.808   2.223  13.053  0.00  0.00     0.036 A 
ATOM     10  C2  ZIN A   1      18.465   3.027  14.098  0.00  0.00     0.044 A 
ATOM     11  C1  ZIN A   1      18.342   4.516  13.900  0.00  0.00     0.071 C 
ATOM     12  N30 ZIN A   1      18.246   2.490  15.296  0.00  0.00    -0.239 NA
ATOM     13  C29 ZIN A   1      18.326   1.195  15.516  0.00  0.00     0.109 A 
ATOM     14  N24 ZIN A   1      18.639   0.349  14.523  0.00  0.00    -0.302 N 
ATOM     15  C28 ZIN A   1      18.058   0.731  16.928  0.00  0.00     0.079 C 
ATOM     16  C22 ZIN A   1      18.903   0.838  13.283  0.00  0.00     0.257 A 
ATOM     17  C25 ZIN A   1      18.705  -1.104  14.688  0.00  0.00     0.133 C 
ATOM     18  O23 ZIN A   1      19.220   0.084  12.379  0.00  0.00    -0.267 OA
ATOM     19  C26 ZIN A   1      18.851  -1.485  16.157  0.00  0.00     0.021 C 
ATOM     20  C27 ZIN A   1      17.754  -0.765  16.952  0.00  0.00     0.009 C 
ENDBRANCH   8   9
ENDBRANCH   7   8
ENDBRANCH   1   7
BRANCH   4  21
ATOM     21  C10 ZIN A   1      19.005  -0.570   6.502  0.00  0.00     0.079 A 
ATOM     22  C19 ZIN A   1      18.745  -1.972   6.166  0.00  0.00     0.027 A 
ATOM     23  C13 ZIN A   1      18.917  -2.086   4.776  0.00  0.00     0.116 A 
ATOM     24  C18 ZIN A   1      18.375  -3.092   6.916  0.00  0.00     0.019 A 
ATOM     25  O12 ZIN A   1      19.260  -0.864   4.318  0.00  0.00    -0.212 OA
ATOM     26  C14 ZIN A   1      18.729  -3.317   4.162  0.00  0.00     0.082 A 
ATOM     27  N11 ZIN A   1      19.306   0.044   5.400  0.00  0.00    -0.131 NA
ATOM     28  C15 ZIN A   1      18.370  -4.413   4.921  0.00  0.00     0.119 A 
ATOM     29  F16 ZIN A   1      18.188  -5.611   4.323  0.00  0.00    -0.206 F 
ATOM     30  C17 ZIN A   1      18.195  -4.295   6.295  0.00  0.00     0.043 A 
ENDBRANCH   4  21
TORSDOF 4
ENDMDL
MODEL 6
REMARK VINA RESULT:      -9.3      3.824      9.613
REMARK  4 active torsions:
REMARK  status: ('A' for Active; 'I' for Inactive)
REMARK    1  A    between atoms: C3_3  and  C4_4 
REMARK    2  A    between atoms: C4_4  and  C5_5 
REMARK    3  A    between atoms: C5_5  and  N6_6 
REMARK    4  A    between atoms: C9_9  and  C10_10 
ROOT
ATOM      1  N6  ZIN A   1      18.909   1.212  11.262  0.00  0.00     0.088 N 
ATOM      2  C7  ZIN A   1      20.023   0.326  11.621  0.00  0.00     0.273 C 
ATOM      3  C8  ZIN A   1      20.148   0.251  13.145  0.00  0.00     0.041 C 
ATOM      4  C9  ZIN A   1      18.839  -0.281  13.733  0.00  0.00     0.044 C 
ATOM      5  C20 ZIN A   1      17.687   0.632  13.305  0.00  0.00     0.041 C 
ATOM      6  C21 ZIN A   1      17.633   0.697  11.777  0.00  0.00     0.273 C 
ENDROOT
BRANCH   1   7
ATOM      7  C5  ZIN A   1      18.846   1.418   9.810  0.00  0.00     0.277 C 
BRANCH   7   8
ATOM      8  C4  ZIN A   1      17.697   0.593   9.227  0.00  0.00     0.076 C 
BRANCH   8   9
ATOM      9  C3  ZIN A   1      18.256  -0.585   8.473  0.00  0.00     0.036 A 
ATOM     10  C2  ZIN A   1      18.724  -0.445   7.201  0.00  0.00     0.044 A 
ATOM     11  C1  ZIN A   1      18.697   0.903   6.528  0.00  0.00     0.071 C 
ATOM     12  N30 ZIN A   1      19.199  -1.507   6.554  0.00  0.00    -0.239 NA
ATOM     13  C29 ZIN A   1      19.257  -2.701   7.103  0.00  0.00     0.109 A 
ATOM     14  N24 ZIN A   1      18.831  -2.899   8.360  0.00  0.00    -0.302 N 
ATOM     15  C28 ZIN A   1      19.814  -3.813   6.246  0.00  0.00     0.079 C 
ATOM     16  C22 ZIN A   1      18.308  -1.861   9.063  0.00  0.00     0.257 A 
ATOM     17  C25 ZIN A   1      18.905  -4.191   9.045  0.00  0.00     0.133 C 
ATOM     18  O23 ZIN A   1      17.888  -2.034  10.194  0.00  0.00    -0.267 OA
ATOM     19  C26 ZIN A   1      19.060  -5.335   8.049  0.00  0.00     0.021 C 
ATOM     20  C27 ZIN A   1      20.228  -5.001   7.112  0.00  0.00     0.009 C 
ENDBRANCH   8   9
ENDBRANCH   7   8
ENDBRANCH   1   7
BRANCH   4  21
ATOM     21  C10 ZIN A   1      18.933  -0.301  15.237  0.00  0.00     0.079 A 
ATOM     22  C19 ZIN A   1      18.960   0.869  16.120  0.00  0.00     0.027 A 
ATOM     23  C13 ZIN A   1      19.051   0.374  17.432  0.00  0.00     0.116 A 
ATOM     24  C18 ZIN A   1      18.899   2.247  15.898  0.00  0.00     0.019 A 
ATOM     25  O12 ZIN A   1      19.086  -0.972  17.346  0.00  0.00    -0.212 OA
ATOM     26  C14 ZIN A   1      19.092   1.264  18.497  0.00  0.00     0.082 A 
ATOM     27  N11 ZIN A   1      19.012  -1.355  15.987  0.00  0.00    -0.131 NA
ATOM     28  C15 ZIN A   1      19.036   2.623  18.257  0.00  0.00     0.119 A 
ATOM     29  F16 ZIN A   1      19.075   3.487  19.294  0.00  0.00    -0.206 F 
ATOM     30  C17 ZIN A   1      18.940   3.108  16.958  0.00  0.00     0.043 A 
ENDBRANCH   4  21
TORSDOF 4
ENDMDL
MODEL 7
REMARK VINA RESULT:      -9.1      3.893     10.032
REMARK  4 active torsions:
REMARK  status: ('A' for Active; 'I' for Inactive)
REMARK    1  A    between atoms: C3_3  and  C4_4 
REMARK    2  A    between atoms: C4_4  and  C5_5 
REMARK    3  A    between atoms: C5_5  and  N6_6 
REMARK    4  A    between atoms: C9_9  and  C10_10 
ROOT
ATOM      1  N6  ZIN A   1      18.040  -2.950  11.740  0.00  0.00     0.088 N 
ATOM      2  C7  ZIN A   1      17.339  -1.738  11.300  0.00  0.00     0.273 C 
ATOM      3  C8  ZIN A   1      17.373  -0.692  12.417  0.00  0.00     0.041 C 
ATOM      4  C9  ZIN A   1      18.828  -0.366  12.761  0.00  0.00     0.044 C 
ATOM      5  C20 ZIN A   1      19.549  -1.653  13.170  0.00  0.00     0.041 C 
ATOM      6  C21 ZIN A   1      19.453  -2.671  12.031  0.00  0.00     0.273 C 
ENDROOT
BRANCH   1   7
ATOM      7  C5  ZIN A   1      17.909  -4.025  10.748  0.00  0.00     0.277 C 
BRANCH   7   8
ATOM      8  C4  ZIN A   1      19.196  -4.120   9.926  0.00  0.00     0.076 C 
BRANCH   8   9
ATOM      9  C3  ZIN A   1      18.911  -3.730   8.499  0.00  0.00     0.036 A 
ATOM     10  C2  ZIN A   1      18.459  -4.648   7.599  0.00  0.00     0.044 A 
ATOM     11  C1  ZIN A   1      18.228  -6.076   8.024  0.00  0.00     0.071 C 
ATOM     12  N30 ZIN A   1      18.229  -4.278   6.342  0.00  0.00    -0.239 NA
ATOM     13  C29 ZIN A   1      18.402  -3.042   5.925  0.00  0.00     0.109 A 
ATOM     14  N24 ZIN A   1      18.825  -2.088   6.768  0.00  0.00    -0.302 N 
ATOM     15  C28 ZIN A   1      18.108  -2.771   4.469  0.00  0.00     0.079 C 
ATOM     16  C22 ZIN A   1      19.105  -2.408   8.059  0.00  0.00     0.257 A 
ATOM     17  C25 ZIN A   1      18.998  -0.686   6.383  0.00  0.00     0.133 C 
ATOM     18  O23 ZIN A   1      19.520  -1.558   8.827  0.00  0.00    -0.267 OA
ATOM     19  C26 ZIN A   1      19.108  -0.541   4.869  0.00  0.00     0.021 C 
ATOM     20  C27 ZIN A   1      17.923  -1.275   4.229  0.00  0.00     0.009 C 
ENDBRANCH   8   9
ENDBRANCH   7   8
ENDBRANCH   1   7
BRANCH   4  21
ATOM     21  C10 ZIN A   1      18.868   0.618  13.901  0.00  0.00     0.079 A 
ATOM     22  C19 ZIN A   1      18.519   0.343  15.297  0.00  0.00     0.027 A 
ATOM     23  C13 ZIN A   1      18.708   1.546  15.999  0.00  0.00     0.116 A 
ATOM     24  C18 ZIN A   1      18.091  -0.801  15.978  0.00  0.00     0.019 A 
ATOM     25  O12 ZIN A   1      19.124   2.465  15.103  0.00  0.00    -0.212 OA
ATOM     26  C14 ZIN A   1      18.455   1.588  17.363  0.00  0.00     0.082 A 
ATOM     27  N11 ZIN A   1      19.213   1.866  13.826  0.00  0.00    -0.131 NA
ATOM     28  C15 ZIN A   1      18.028   0.449  18.016  0.00  0.00     0.119 A 
ATOM     29  F16 ZIN A   1      17.782   0.492  19.344  0.00  0.00    -0.206 F 
ATOM     30  C17 ZIN A   1      17.847  -0.740  17.320  0.00  0.00     0.043 A 
ENDBRANCH   4  21
TORSDOF 4
ENDMDL
MODEL 8
REMARK VINA RESULT:      -9.1      3.755      8.827
REMARK  4 active torsions:
REMARK  status: ('A' for Active; 'I' for Inactive)
REMARK    1  A    between atoms: C3_3  and  C4_4 
REMARK    2  A    between atoms: C4_4  and  C5_5 
REMARK    3  A    between atoms: C5_5  and  N6_6 
REMARK    4  A    between atoms: C9_9  and  C10_10 
ROOT
ATOM      1  N6  ZIN A   1      18.707   2.094  10.910  0.00  0.00     0.088 N 
ATOM      2  C7  ZIN A   1      17.698   1.422  11.738  0.00  0.00     0.273 C 
ATOM      3  C8  ZIN A   1      18.150   1.427  13.201  0.00  0.00     0.041 C 
ATOM      4  C9  ZIN A   1      18.339   2.873  13.667  0.00  0.00     0.044 C 
ATOM      5  C20 ZIN A   1      19.358   3.565  12.758  0.00  0.00     0.041 C 
ATOM      6  C21 ZIN A   1      18.871   3.498  11.308  0.00  0.00     0.273 C 
ENDROOT
BRANCH   1   7
ATOM      7  C5  ZIN A   1      18.374   1.987   9.484  0.00  0.00     0.277 C 
BRANCH   7   8
ATOM      8  C4  ZIN A   1      19.413   1.110   8.782  0.00  0.00     0.076 C 
BRANCH   8   9
ATOM      9  C3  ZIN A   1      19.032  -0.340   8.932  0.00  0.00     0.036 A 
ATOM     10  C2  ZIN A   1      18.129  -0.917   8.091  0.00  0.00     0.044 A 
ATOM     11  C1  ZIN A   1      17.500  -0.110   6.984  0.00  0.00     0.071 C 
ATOM     12  N30 ZIN A   1      17.800  -2.196   8.256  0.00  0.00    -0.239 NA
ATOM     13  C29 ZIN A   1      18.331  -2.946   9.198  0.00  0.00     0.109 A 
ATOM     14  N24 ZIN A   1      19.242  -2.441  10.044  0.00  0.00    -0.302 N 
ATOM     15  C28 ZIN A   1      17.857  -4.378   9.270  0.00  0.00     0.079 C 
ATOM     16  C22 ZIN A   1      19.598  -1.134   9.946  0.00  0.00     0.257 A 
ATOM     17  C25 ZIN A   1      19.902  -3.229  11.086  0.00  0.00     0.133 C 
ATOM     18  O23 ZIN A   1      20.399  -0.654  10.729  0.00  0.00    -0.267 OA
ATOM     19  C26 ZIN A   1      19.116  -4.498  11.399  0.00  0.00     0.021 C 
ATOM     20  C27 ZIN A   1      18.835  -5.227  10.079  0.00  0.00     0.009 C 
ENDBRANCH   8   9
ENDBRANCH   7   8
ENDBRANCH   1   7
BRANCH   4  21
ATOM     21  C10 ZIN A   1      18.841   2.883  15.087  0.00  0.00     0.079 A 
ATOM     22  C19 ZIN A   1      18.611   1.845  16.096  0.00  0.00     0.027 A 
ATOM     23  C13 ZIN A   1      19.265   2.275  17.264  0.00  0.00     0.116 A 
ATOM     24  C18 ZIN A   1      17.937   0.621  16.086  0.00  0.00     0.019 A 
ATOM     25  O12 ZIN A   1      19.829   3.468  16.985  0.00  0.00    -0.212 OA
ATOM     26  C14 ZIN A   1      19.222   1.481  18.402  0.00  0.00     0.082 A 
ATOM     27  N11 ZIN A   1      19.552   3.814  15.643  0.00  0.00    -0.131 NA
ATOM     28  C15 ZIN A   1      18.546   0.278  18.373  0.00  0.00     0.119 A 
ATOM     29  F16 ZIN A   1      18.506  -0.494  19.482  0.00  0.00    -0.206 F 
ATOM     30  C17 ZIN A   1      17.905  -0.146  17.215  0.00  0.00     0.043 A 
ENDBRANCH   4  21
TORSDOF 4
ENDMDL
MODEL 9
REMARK VINA RESULT:      -9.1      3.899      9.923
REMARK  4 active torsions:
REMARK  status: ('A' for Active; 'I' for Inactive)
REMARK    1  A    between atoms: C3_3  and  C4_4 
REMARK    2  A    between atoms: C4_4  and  C5_5 
REMARK    3  A    between atoms: C5_5  and  N6_6 
REMARK    4  A    between atoms: C9_9  and  C10_10 
ROOT
ATOM      1  N6  ZIN A   1      19.490  -1.754  12.469  0.00  0.00     0.088 N 
ATOM      2  C7  ZIN A   1      18.184  -1.763  13.139  0.00  0.00     0.273 C 
ATOM      3  C8  ZIN A   1      18.297  -1.049  14.489  0.00  0.00     0.041 C 
ATOM      4  C9  ZIN A   1      18.765   0.390  14.263  0.00  0.00     0.044 C 
ATOM      5  C20 ZIN A   1      20.104   0.373  13.520  0.00  0.00     0.041 C 
ATOM      6  C21 ZIN A   1      19.939  -0.381  12.198  0.00  0.00     0.273 C 
ENDROOT
BRANCH   1   7
ATOM      7  C5  ZIN A   1      19.453  -2.549  11.235  0.00  0.00     0.277 C 
BRANCH   7   8
ATOM      8  C4  ZIN A   1      18.049  -2.491  10.631  0.00  0.00     0.076 C 
BRANCH   8   9
ATOM      9  C3  ZIN A   1      18.092  -1.737   9.327  0.00  0.00     0.036 A 
ATOM     10  C2  ZIN A   1      17.586  -0.476   9.230  0.00  0.00     0.044 A 
ATOM     11  C1  ZIN A   1      16.979   0.192  10.437  0.00  0.00     0.071 C 
ATOM     12  N30 ZIN A   1      17.626   0.160   8.062  0.00  0.00    -0.239 NA
ATOM     13  C29 ZIN A   1      18.158  -0.375   6.983  0.00  0.00     0.109 A 
ATOM     14  N24 ZIN A   1      18.691  -1.605   7.020  0.00  0.00    -0.302 N 
ATOM     15  C28 ZIN A   1      18.125   0.462   5.727  0.00  0.00     0.079 C 
ATOM     16  C22 ZIN A   1      18.655  -2.318   8.176  0.00  0.00     0.257 A 
ATOM     17  C25 ZIN A   1      19.335  -2.243   5.871  0.00  0.00     0.133 C 
ATOM     18  O23 ZIN A   1      19.107  -3.449   8.216  0.00  0.00    -0.267 OA
ATOM     19  C26 ZIN A   1      18.914  -1.578   4.565  0.00  0.00     0.021 C 
ATOM     20  C27 ZIN A   1      19.129  -0.065   4.705  0.00  0.00     0.009 C 
ENDBRANCH   8   9
ENDBRANCH   7   8
ENDBRANCH   1   7
BRANCH   4  21
ATOM     21  C10 ZIN A   1      18.936   1.080  15.592  0.00  0.00     0.079 A 
ATOM     22  C19 ZIN A   1      18.712   2.502  15.867  0.00  0.00     0.027 A 
ATOM     23  C13 ZIN A   1      18.989   2.691  17.231  0.00  0.00     0.116 A 
ATOM     24  C18 ZIN A   1      18.294   3.582  15.084  0.00  0.00     0.019 A 
ATOM     25  O12 ZIN A   1      19.357   1.493  17.730  0.00  0.00    -0.212 OA
ATOM     26  C14 ZIN A   1      18.857   3.957  17.786  0.00  0.00     0.082 A 
ATOM     27  N11 ZIN A   1      19.315   0.525  16.701  0.00  0.00    -0.131 NA
ATOM     28  C15 ZIN A   1      18.449   5.013  16.995  0.00  0.00     0.119 A 
ATOM     29  F16 ZIN A   1      18.321   6.244  17.537  0.00  0.00    -0.206 F 
ATOM     30  C17 ZIN A   1      18.170   4.820  15.647  0.00  0.00     0.043 A 
ENDBRANCH   4  21
TORSDOF 4
ENDMDL
