MODEL 1
REMARK VINA RESULT:      -7.0      0.000      0.000
REMARK  9 active torsions:
REMARK  status: ('A' for Active; 'I' for Inactive)
REMARK    1  A    between atoms: C2_2  and  O4_3 
REMARK    2  A    between atoms: C2_2  and  C5_4 
REMARK    3  A    between atoms: C5_4  and  N6_5 
REMARK    4  A    between atoms: N9_8  and  C11_10 
REMARK    5  A    between atoms: C11_10  and  C12_11 
REMARK    6  A    between atoms: N17_16  and  C18_17 
REMARK    7  A    between atoms: C18_17  and  C19_18 
REMARK    8  A    between atoms: N24_23  and  C26_25 
REMARK    9  A    between atoms: C26_25  and  C27_26 
ROOT
ATOM      1  N6  ZIN A   1      18.746   0.219  11.903  0.00  0.00     0.094 N 
ATOM      2  C7  ZIN A   1      18.393  -0.357  13.230  0.00  0.00     0.300 C 
ATOM      3  C8  ZIN A   1      19.140   0.336  14.357  0.00  0.00     0.265 C 
ATOM      4  N9  ZIN A   1      18.201   0.876  15.357  0.00  0.00    -0.058 N 
ATOM      5  H10 ZIN A   1      17.478   1.388  14.891  0.00  0.00     0.280 HD
ATOM      6  C15 ZIN A   1      18.949   1.762  16.269  0.00  0.00     0.265 C 
ATOM      7  C16 ZIN A   1      18.192   3.058  16.503  0.00  0.00     0.300 C 
ATOM      8  N17 ZIN A   1      18.707   4.152  15.610  0.00  0.00     0.101 N 
ATOM      9  C22 ZIN A   1      18.942   3.493  14.283  0.00  0.00     0.300 C 
ATOM     10  C23 ZIN A   1      19.145   4.571  13.225  0.00  0.00     0.265 C 
ATOM     11  N24 ZIN A   1      18.935   4.033  11.880  0.00  0.00    -0.058 N 
ATOM     12  H25 ZIN A   1      19.499   4.596  11.233  0.00  0.00     0.280 HD
ATOM     13  C30 ZIN A   1      19.398   2.643  11.772  0.00  0.00     0.265 C 
ATOM     14  C31 ZIN A   1      18.280   1.627  11.897  0.00  0.00     0.300 C 
ENDROOT
BRANCH   1  15
ATOM     15  C5  ZIN A   1      20.213   0.134  11.729  0.00  0.00     0.303 C 
BRANCH  15  16
ATOM     16  C2  ZIN A   1      20.537  -0.861  10.612  0.00  0.00     0.142 C 
ATOM     17  C1  ZIN A   1      19.360  -0.935   9.638  0.00  0.00     0.041 C 
BRANCH  16  18
ATOM     18  O4  ZIN A   1      20.769  -2.153  11.178  0.00  0.00    -0.394 OA
ATOM     19  H35 ZIN A   1      20.642  -2.192  12.136  0.00  0.00     0.210 HD
ENDBRANCH  16  18
ENDBRANCH  15  16
ENDBRANCH   1  15
BRANCH  11  20
ATOM     20  C26 ZIN A   1      17.532   4.187  11.487  0.00  0.00     0.347 C 
BRANCH  20  21
ATOM     21  C27 ZIN A   1      17.432   5.176  10.354  0.00  0.00     0.199 C 
ATOM     22  O28 ZIN A   1      16.989   6.292  10.558  0.00  0.00    -0.647 OA
ATOM     23  O29 ZIN A   1      17.793   4.858   9.234  0.00  0.00    -0.647 OA
ENDBRANCH  20  21
ENDBRANCH  11  20
BRANCH   4  24
ATOM     24  C11 ZIN A   1      17.628  -0.229  16.140  0.00  0.00     0.347 C 
BRANCH  24  25
ATOM     25  C12 ZIN A   1      18.668  -0.761  17.092  0.00  0.00     0.199 C 
ATOM     26  O13 ZIN A   1      18.745  -0.312  18.224  0.00  0.00    -0.647 OA
ATOM     27  O14 ZIN A   1      19.430  -1.642  16.733  0.00  0.00    -0.647 OA
ENDBRANCH  24  25
ENDBRANCH   4  24
BRANCH   8  28
ATOM     28  C18 ZIN A   1      20.086   4.457  16.137  0.00  0.00     0.385 C 
BRANCH  28  29
ATOM     29  C19 ZIN A   1      20.364   5.931  15.994  0.00  0.00     0.202 C 
ATOM     30  O20 ZIN A   1      21.453   6.310  15.600  0.00  0.00    -0.647 OA
ATOM     31  O21 ZIN A   1      19.499   6.744  16.269  0.00  0.00    -0.647 OA
ENDBRANCH  28  29
ENDBRANCH   8  28
TORSDOF 9
ENDMDL
MODEL 2
REMARK VINA RESULT:      -6.6      1.075      5.528
REMARK  9 active torsions:
REMARK  status: ('A' for Active; 'I' for Inactive)
REMARK    1  A    between atoms: C2_2  and  O4_3 
REMARK    2  A    between atoms: C2_2  and  C5_4 
REMARK    3  A    between atoms: C5_4  and  N6_5 
REMARK    4  A    between atoms: N9_8  and  C11_10 
REMARK    5  A    between atoms: C11_10  and  C12_11 
REMARK    6  A    between atoms: N17_16  and  C18_17 
REMARK    7  A    between atoms: C18_17  and  C19_18 
REMARK    8  A    between atoms: N24_23  and  C26_25 
REMARK    9  A    between atoms: C26_25  and  C27_26 
ROOT
ATOM      1  N6  ZIN A   1      19.082   0.466  15.601  0.00  0.00     0.094 N 
ATOM      2  C7  ZIN A   1      19.612  -0.180  14.369  0.00  0.00     0.300 C 
ATOM      3  C8  ZIN A   1      18.875   0.294  13.128  0.00  0.00     0.265 C 
ATOM      4  N9  ZIN A   1      19.813   0.861  12.142  0.00  0.00    -0.058 N 
ATOM      5  H10 ZIN A   1      20.424   1.510  12.598  0.00  0.00     0.280 HD
ATOM      6  C15 ZIN A   1      19.033   1.546  11.094  0.00  0.00     0.265 C 
ATOM      7  C16 ZIN A   1      19.631   2.906  10.776  0.00  0.00     0.300 C 
ATOM      8  N17 ZIN A   1      18.907   3.997  11.513  0.00  0.00     0.101 N 
ATOM      9  C22 ZIN A   1      18.654   3.441  12.883  0.00  0.00     0.300 C 
ATOM     10  C23 ZIN A   1      18.228   4.577  13.807  0.00  0.00     0.265 C 
ATOM     11  N24 ZIN A   1      18.397   4.203  15.212  0.00  0.00    -0.058 N 
ATOM     12  H25 ZIN A   1      17.714   4.741  15.757  0.00  0.00     0.280 HD
ATOM     13  C30 ZIN A   1      18.112   2.779  15.433  0.00  0.00     0.265 C 
ATOM     14  C31 ZIN A   1      19.359   1.919  15.491  0.00  0.00     0.300 C 
ENDROOT
BRANCH   1  15
ATOM     15  C5  ZIN A   1      17.629   0.197  15.684  0.00  0.00     0.303 C 
BRANCH  15  16
ATOM     16  C2  ZIN A   1      17.342  -0.681  16.905  0.00  0.00     0.142 C 
ATOM     17  C1  ZIN A   1      18.177  -0.192  18.091  0.00  0.00     0.041 C 
BRANCH  16  18
ATOM     18  O4  ZIN A   1      17.685  -2.036  16.608  0.00  0.00    -0.394 OA
ATOM     19  H35 ZIN A   1      18.368  -2.404  17.184  0.00  0.00     0.210 HD
ENDBRANCH  16  18
ENDBRANCH  15  16
ENDBRANCH   1  15
BRANCH  11  20
ATOM     20  C26 ZIN A   1      19.732   4.584  15.680  0.00  0.00     0.347 C 
BRANCH  20  21
ATOM     21  C27 ZIN A   1      19.865   6.085  15.650  0.00  0.00     0.199 C 
ATOM     22  O28 ZIN A   1      19.161   6.773  16.367  0.00  0.00    -0.647 OA
ATOM     23  O29 ZIN A   1      20.677   6.611  14.908  0.00  0.00    -0.647 OA
ENDBRANCH  20  21
ENDBRANCH  11  20
BRANCH   4  24
ATOM     24  C11 ZIN A   1      20.587  -0.223  11.519  0.00  0.00     0.347 C 
BRANCH  24  25
ATOM     25  C12 ZIN A   1      19.793  -0.817  10.383  0.00  0.00     0.199 C 
ATOM     26  O13 ZIN A   1      20.006  -0.457   9.237  0.00  0.00    -0.647 OA
ATOM     27  O14 ZIN A   1      18.940  -1.658  10.609  0.00  0.00    -0.647 OA
ENDBRANCH  24  25
ENDBRANCH   4  24
BRANCH   8  28
ATOM     28  C18 ZIN A   1      17.547   4.058  10.866  0.00  0.00     0.385 C 
BRANCH  28  29
ATOM     29  C19 ZIN A   1      17.477   5.258   9.955  0.00  0.00     0.202 C 
ATOM     30  O20 ZIN A   1      17.846   5.165   8.797  0.00  0.00    -0.647 OA
ATOM     31  O21 ZIN A   1      17.051   6.319  10.376  0.00  0.00    -0.647 OA
ENDBRANCH  28  29
ENDBRANCH   8  28
TORSDOF 9
ENDMDL
MODEL 3
REMARK VINA RESULT:      -6.5      4.060      8.830
REMARK  9 active torsions:
REMARK  status: ('A' for Active; 'I' for Inactive)
REMARK    1  A    between atoms: C2_2  and  O4_3 
REMARK    2  A    between atoms: C2_2  and  C5_4 
REMARK    3  A    between atoms: C5_4  and  N6_5 
REMARK    4  A    between atoms: N9_8  and  C11_10 
REMARK    5  A    between atoms: C11_10  and  C12_11 
REMARK    6  A    between atoms: N17_16  and  C18_17 
REMARK    7  A    between atoms: C18_17  and  C19_18 
REMARK    8  A    between atoms: N24_23  and  C26_25 
REMARK    9  A    between atoms: C26_25  and  C27_26 
ROOT
ATOM      1  N6  ZIN A   1      18.033  -1.848  12.575  0.00  0.00     0.094 N 
ATOM      2  C7  ZIN A   1      17.883  -0.469  12.036  0.00  0.00     0.300 C 
ATOM      3  C8  ZIN A   1      18.701  -0.271  10.771  0.00  0.00     0.265 C 
ATOM      4  N9  ZIN A   1      17.846   0.176   9.656  0.00  0.00    -0.058 N 
ATOM      5  H10 ZIN A   1      17.037  -0.410   9.601  0.00  0.00     0.280 HD
ATOM      6  C15 ZIN A   1      18.625   0.088   8.406  0.00  0.00     0.265 C 
ATOM      7  C16 ZIN A   1      17.804  -0.556   7.302  0.00  0.00     0.300 C 
ATOM      8  N17 ZIN A   1      18.126  -2.018   7.174  0.00  0.00     0.101 N 
ATOM      9  C22 ZIN A   1      18.255  -2.514   8.584  0.00  0.00     0.300 C 
ATOM     10  C23 ZIN A   1      18.250  -4.038   8.574  0.00  0.00     0.265 C 
ATOM     11  N24 ZIN A   1      17.926  -4.571   9.899  0.00  0.00    -0.058 N 
ATOM     12  H25 ZIN A   1      18.366  -5.495   9.974  0.00  0.00     0.280 HD
ATOM     13  C30 ZIN A   1      18.478  -3.732  10.972  0.00  0.00     0.265 C 
ATOM     14  C31 ZIN A   1      17.463  -2.778  11.570  0.00  0.00     0.300 C 
ENDROOT
BRANCH   1  15
ATOM     15  C5  ZIN A   1      19.473  -2.110  12.800  0.00  0.00     0.303 C 
BRANCH  15  16
ATOM     16  C2  ZIN A   1      19.892  -1.528  14.152  0.00  0.00     0.142 C 
ATOM     17  C1  ZIN A   1      18.676  -1.465  15.079  0.00  0.00     0.041 C 
BRANCH  16  18
ATOM     18  O4  ZIN A   1      20.414  -0.212  13.962  0.00  0.00    -0.394 OA
ATOM     19  H35 ZIN A   1      20.413   0.083  13.041  0.00  0.00     0.210 HD
ENDBRANCH  16  18
ENDBRANCH  15  16
ENDBRANCH   1  15
BRANCH  11  20
ATOM     20  C26 ZIN A   1      16.479  -4.761  10.028  0.00  0.00     0.347 C 
BRANCH  20  21
ATOM     21  C27 ZIN A   1      16.033  -5.866   9.105  0.00  0.00     0.199 C 
ATOM     22  O28 ZIN A   1      15.043  -5.717   8.411  0.00  0.00    -0.647 OA
ATOM     23  O29 ZIN A   1      16.661  -6.909   9.055  0.00  0.00    -0.647 OA
ENDBRANCH  20  21
ENDBRANCH  11  20
BRANCH   4  24
ATOM     24  C11 ZIN A   1      17.454   1.577   9.867  0.00  0.00     0.347 C 
BRANCH  24  25
ATOM     25  C12 ZIN A   1      18.647   2.472   9.640  0.00  0.00     0.199 C 
ATOM     26  O13 ZIN A   1      19.370   2.773  10.575  0.00  0.00    -0.647 OA
ATOM     27  O14 ZIN A   1      18.889   2.892   8.522  0.00  0.00    -0.647 OA
ENDBRANCH  24  25
ENDBRANCH   4  24
BRANCH   8  28
ATOM     28  C18 ZIN A   1      19.530  -2.052   6.625  0.00  0.00     0.385 C 
BRANCH  28  29
ATOM     29  C19 ZIN A   1      19.486  -1.932   5.123  0.00  0.00     0.202 C 
ATOM     30  O20 ZIN A   1      19.904  -0.924   4.581  0.00  0.00    -0.647 OA
ATOM     31  O21 ZIN A   1      19.034  -2.843   4.452  0.00  0.00    -0.647 OA
ENDBRANCH  28  29
ENDBRANCH   8  28
TORSDOF 9
ENDMDL
MODEL 4
REMARK VINA RESULT:      -6.3      4.247      9.612
REMARK  9 active torsions:
REMARK  status: ('A' for Active; 'I' for Inactive)
REMARK    1  A    between atoms: C2_2  and  O4_3 
REMARK    2  A    between atoms: C2_2  and  C5_4 
REMARK    3  A    between atoms: C5_4  and  N6_5 
REMARK    4  A    between atoms: N9_8  and  C11_10 
REMARK    5  A    between atoms: C11_10  and  C12_11 
REMARK    6  A    between atoms: N17_16  and  C18_17 
REMARK    7  A    between atoms: C18_17  and  C19_18 
REMARK    8  A    between atoms: N24_23  and  C26_25 
REMARK    9  A    between atoms: C26_25  and  C27_26 
ROOT
ATOM      1  N6  ZIN A   1      17.986   0.477  10.551  0.00  0.00     0.094 N 
ATOM      2  C7  ZIN A   1      17.733   0.727   9.106  0.00  0.00     0.300 C 
ATOM      3  C8  ZIN A   1      18.699  -0.049   8.227  0.00  0.00     0.265 C 
ATOM      4  N9  ZIN A   1      17.971  -0.907   7.275  0.00  0.00    -0.058 N 
ATOM      5  H10 ZIN A   1      17.267  -1.424   7.763  0.00  0.00     0.280 HD
ATOM      6  C15 ZIN A   1      18.936  -1.829   6.645  0.00  0.00     0.265 C 
ATOM      7  C16 ZIN A   1      18.388  -3.246   6.613  0.00  0.00     0.300 C 
ATOM      8  N17 ZIN A   1      18.922  -4.056   7.761  0.00  0.00     0.101 N 
ATOM      9  C22 ZIN A   1      18.901  -3.126   8.937  0.00  0.00     0.300 C 
ATOM     10  C23 ZIN A   1      19.105  -3.937  10.212  0.00  0.00     0.265 C 
ATOM     11  N24 ZIN A   1      18.659  -3.188  11.388  0.00  0.00    -0.058 N 
ATOM     12  H25 ZIN A   1      19.204  -3.524  12.191  0.00  0.00     0.280 HD
ATOM     13  C30 ZIN A   1      18.922  -1.749  11.249  0.00  0.00     0.265 C 
ATOM     14  C31 ZIN A   1      17.708  -0.958  10.806  0.00  0.00     0.300 C 
ENDROOT
BRANCH   1  15
ATOM     15  C5  ZIN A   1      19.397   0.815  10.847  0.00  0.00     0.303 C 
BRANCH  15  16
ATOM     16  C2  ZIN A   1      19.452   1.769  12.043  0.00  0.00     0.142 C 
ATOM     17  C1  ZIN A   1      19.940   3.142  11.578  0.00  0.00     0.041 C 
BRANCH  16  18
ATOM     18  O4  ZIN A   1      20.353   1.250  13.023  0.00  0.00    -0.394 OA
ATOM     19  H35 ZIN A   1      19.921   0.759  13.735  0.00  0.00     0.210 HD
ENDBRANCH  16  18
ENDBRANCH  15  16
ENDBRANCH   1  15
BRANCH  11  20
ATOM     20  C26 ZIN A   1      17.249  -3.473  11.665  0.00  0.00     0.347 C 
BRANCH  20  21
ATOM     21  C27 ZIN A   1      17.016  -4.961  11.608  0.00  0.00     0.199 C 
ATOM     22  O28 ZIN A   1      17.398  -5.673  12.520  0.00  0.00    -0.647 OA
ATOM     23  O29 ZIN A   1      16.447  -5.453  10.648  0.00  0.00    -0.647 OA
ENDBRANCH  20  21
ENDBRANCH  11  20
BRANCH   4  24
ATOM     24  C11 ZIN A   1      17.365  -0.074   6.226  0.00  0.00     0.347 C 
BRANCH  24  25
ATOM     25  C12 ZIN A   1      18.396   0.234   5.171  0.00  0.00     0.199 C 
ATOM     26  O13 ZIN A   1      19.294   1.024   5.408  0.00  0.00    -0.647 OA
ATOM     27  O14 ZIN A   1      18.334  -0.308   4.080  0.00  0.00    -0.647 OA
ENDBRANCH  24  25
ENDBRANCH   4  24
BRANCH   8  28
ATOM     28  C18 ZIN A   1      20.384  -4.244   7.447  0.00  0.00     0.385 C 
BRANCH  28  29
ATOM     29  C19 ZIN A   1      20.799  -5.647   7.810  0.00  0.00     0.202 C 
ATOM     30  O20 ZIN A   1      19.975  -6.433   8.245  0.00  0.00    -0.647 OA
ATOM     31  O21 ZIN A   1      21.958  -5.997   7.667  0.00  0.00    -0.647 OA
ENDBRANCH  28  29
ENDBRANCH   8  28
TORSDOF 9
ENDMDL
MODEL 5
REMARK VINA RESULT:      -6.3      3.113      7.086
REMARK  9 active torsions:
REMARK  status: ('A' for Active; 'I' for Inactive)
REMARK    1  A    between atoms: C2_2  and  O4_3 
REMARK    2  A    between atoms: C2_2  and  C5_4 
REMARK    3  A    between atoms: C5_4  and  N6_5 
REMARK    4  A    between atoms: N9_8  and  C11_10 
REMARK    5  A    between atoms: C11_10  and  C12_11 
REMARK    6  A    between atoms: N17_16  and  C18_17 
REMARK    7  A    between atoms: C18_17  and  C19_18 
REMARK    8  A    between atoms: N24_23  and  C26_25 
REMARK    9  A    between atoms: C26_25  and  C27_26 
ROOT
ATOM      1  N6  ZIN A   1      18.725   2.392  10.538  0.00  0.00     0.094 N 
ATOM      2  C7  ZIN A   1      19.315   1.910  11.817  0.00  0.00     0.300 C 
ATOM      3  C8  ZIN A   1      18.618   0.656  12.316  0.00  0.00     0.265 C 
ATOM      4  N9  ZIN A   1      19.584  -0.442  12.509  0.00  0.00    -0.058 N 
ATOM      5  H10 ZIN A   1      20.164  -0.521  11.698  0.00  0.00     0.280 HD
ATOM      6  C15 ZIN A   1      18.832  -1.693  12.724  0.00  0.00     0.265 C 
ATOM      7  C16 ZIN A   1      19.417  -2.824  11.896  0.00  0.00     0.300 C 
ATOM      8  N17 ZIN A   1      18.646  -3.011  10.620  0.00  0.00     0.101 N 
ATOM      9  C22 ZIN A   1      18.349  -1.623  10.136  0.00  0.00     0.300 C 
ATOM     10  C23 ZIN A   1      17.866  -1.694   8.692  0.00  0.00     0.265 C 
ATOM     11  N24 ZIN A   1      17.987  -0.393   8.032  0.00  0.00    -0.058 N 
ATOM     12  H25 ZIN A   1      17.274  -0.355   7.295  0.00  0.00     0.280 HD
ATOM     13  C30 ZIN A   1      17.720   0.714   8.960  0.00  0.00     0.265 C 
ATOM     14  C31 ZIN A   1      18.979   1.350   9.514  0.00  0.00     0.300 C 
ENDROOT
BRANCH   1  15
ATOM     15  C5  ZIN A   1      17.275   2.609  10.741  0.00  0.00     0.303 C 
BRANCH  15  16
ATOM     16  C2  ZIN A   1      17.002   4.105  10.910  0.00  0.00     0.142 C 
ATOM     17  C1  ZIN A   1      17.868   4.895   9.927  0.00  0.00     0.041 C 
BRANCH  16  18
ATOM     18  O4  ZIN A   1      17.318   4.500  12.246  0.00  0.00    -0.394 OA
ATOM     19  H35 ZIN A   1      16.562   4.490  12.849  0.00  0.00     0.210 HD
ENDBRANCH  16  18
ENDBRANCH  15  16
ENDBRANCH   1  15
BRANCH  11  20
ATOM     20  C26 ZIN A   1      19.296  -0.274   7.383  0.00  0.00     0.347 C 
BRANCH  20  21
ATOM     21  C27 ZIN A   1      19.153  -0.549   5.908  0.00  0.00     0.199 C 
ATOM     22  O28 ZIN A   1      19.676  -1.535   5.420  0.00  0.00    -0.647 OA
ATOM     23  O29 ZIN A   1      18.516   0.216   5.205  0.00  0.00    -0.647 OA
ENDBRANCH  20  21
ENDBRANCH  11  20
BRANCH   4  24
ATOM     24  C11 ZIN A   1      20.401  -0.173  13.702  0.00  0.00     0.347 C 
BRANCH  24  25
ATOM     25  C12 ZIN A   1      19.502  -0.037  14.905  0.00  0.00     0.199 C 
ATOM     26  O13 ZIN A   1      19.113  -1.033  15.491  0.00  0.00    -0.647 OA
ATOM     27  O14 ZIN A   1      19.167   1.069  15.293  0.00  0.00    -0.647 OA
ENDBRANCH  24  25
ENDBRANCH   4  24
BRANCH   8  28
ATOM     28  C18 ZIN A   1      17.311  -3.558  11.058  0.00  0.00     0.385 C 
BRANCH  28  29
ATOM     29  C19 ZIN A   1      17.075  -4.894  10.400  0.00  0.00     0.202 C 
ATOM     30  O20 ZIN A   1      15.939  -5.258  10.150  0.00  0.00    -0.647 OA
ATOM     31  O21 ZIN A   1      18.020  -5.609  10.116  0.00  0.00    -0.647 OA
ENDBRANCH  28  29
ENDBRANCH   8  28
TORSDOF 9
ENDMDL
MODEL 6
REMARK VINA RESULT:      -6.1      2.708      6.407
REMARK  9 active torsions:
REMARK  status: ('A' for Active; 'I' for Inactive)
REMARK    1  A    between atoms: C2_2  and  O4_3 
REMARK    2  A    between atoms: C2_2  and  C5_4 
REMARK    3  A    between atoms: C5_4  and  N6_5 
REMARK    4  A    between atoms: N9_8  and  C11_10 
REMARK    5  A    between atoms: C11_10  and  C12_11 
REMARK    6  A    between atoms: N17_16  and  C18_17 
REMARK    7  A    between atoms: C18_17  and  C19_18 
REMARK    8  A    between atoms: N24_23  and  C26_25 
REMARK    9  A    between atoms: C26_25  and  C27_26 
ROOT
ATOM      1  N6  ZIN A   1      18.667  -2.361  11.590  0.00  0.00     0.094 N 
ATOM      2  C7  ZIN A   1      19.163  -1.833  10.290  0.00  0.00     0.300 C 
ATOM      3  C8  ZIN A   1      18.391  -0.599   9.856  0.00  0.00     0.265 C 
ATOM      4  N9  ZIN A   1      19.299   0.539   9.630  0.00  0.00    -0.058 N 
ATOM      5  H10 ZIN A   1      19.921   0.628  10.409  0.00  0.00     0.280 HD
ATOM      6  C15 ZIN A   1      18.488   1.763   9.483  0.00  0.00     0.265 C 
ATOM      7  C16 ZIN A   1      19.075   2.901  10.300  0.00  0.00     0.300 C 
ATOM      8  N17 ZIN A   1      18.370   3.035  11.621  0.00  0.00     0.101 N 
ATOM      9  C22 ZIN A   1      18.157   1.627  12.093  0.00  0.00     0.300 C 
ATOM     10  C23 ZIN A   1      17.755   1.654  13.563  0.00  0.00     0.265 C 
ATOM     11  N24 ZIN A   1      17.964   0.347  14.189  0.00  0.00    -0.058 N 
ATOM     12  H25 ZIN A   1      17.296   0.267  14.964  0.00  0.00     0.280 HD
ATOM     13  C30 ZIN A   1      17.688  -0.753  13.255  0.00  0.00     0.265 C 
ATOM     14  C31 ZIN A   1      18.938  -1.328  12.618  0.00  0.00     0.300 C 
ENDROOT
BRANCH   1  15
ATOM     15  C5  ZIN A   1      17.217  -2.633  11.464  0.00  0.00     0.303 C 
BRANCH  15  16
ATOM     16  C2  ZIN A   1      16.998  -4.129  11.225  0.00  0.00     0.142 C 
ATOM     17  C1  ZIN A   1      18.165  -4.917  11.821  0.00  0.00     0.041 C 
BRANCH  16  18
ATOM     18  O4  ZIN A   1      16.921  -4.380   9.820  0.00  0.00    -0.394 OA
ATOM     19  H35 ZIN A   1      16.051  -4.205   9.436  0.00  0.00     0.210 HD
ENDBRANCH  16  18
ENDBRANCH  15  16
ENDBRANCH   1  15
BRANCH  11  20
ATOM     20  C26 ZIN A   1      19.311   0.270  14.760  0.00  0.00     0.347 C 
BRANCH  20  21
ATOM     21  C27 ZIN A   1      19.223  -0.164  16.200  0.00  0.00     0.199 C 
ATOM     22  O28 ZIN A   1      19.170  -1.350  16.477  0.00  0.00    -0.647 OA
ATOM     23  O29 ZIN A   1      19.202   0.670  17.089  0.00  0.00    -0.647 OA
ENDBRANCH  20  21
ENDBRANCH  11  20
BRANCH   4  24
ATOM     24  C11 ZIN A   1      20.057   0.325   8.388  0.00  0.00     0.347 C 
BRANCH  24  25
ATOM     25  C12 ZIN A   1      19.119   0.397   7.210  0.00  0.00     0.199 C 
ATOM     26  O13 ZIN A   1      18.535  -0.605   6.834  0.00  0.00    -0.647 OA
ATOM     27  O14 ZIN A   1      18.943   1.457   6.634  0.00  0.00    -0.647 OA
ENDBRANCH  24  25
ENDBRANCH   4  24
BRANCH   8  28
ATOM     28  C18 ZIN A   1      16.992   3.535  11.270  0.00  0.00     0.385 C 
BRANCH  28  29
ATOM     29  C19 ZIN A   1      16.994   5.042  11.254  0.00  0.00     0.202 C 
ATOM     30  O20 ZIN A   1      17.074   5.640  10.194  0.00  0.00    -0.647 OA
ATOM     31  O21 ZIN A   1      16.915   5.664  12.299  0.00  0.00    -0.647 OA
ENDBRANCH  28  29
ENDBRANCH   8  28
TORSDOF 9
ENDMDL
MODEL 7
REMARK VINA RESULT:      -6.0      2.708      6.704
REMARK  9 active torsions:
REMARK  status: ('A' for Active; 'I' for Inactive)
REMARK    1  A    between atoms: C2_2  and  O4_3 
REMARK    2  A    between atoms: C2_2  and  C5_4 
REMARK    3  A    between atoms: C5_4  and  N6_5 
REMARK    4  A    between atoms: N9_8  and  C11_10 
REMARK    5  A    between atoms: C11_10  and  C12_11 
REMARK    6  A    between atoms: N17_16  and  C18_17 
REMARK    7  A    between atoms: C18_17  and  C19_18 
REMARK    8  A    between atoms: N24_23  and  C26_25 
REMARK    9  A    between atoms: C26_25  and  C27_26 
ROOT
ATOM      1  N6  ZIN A   1      19.057  -0.123   8.446  0.00  0.00     0.094 N 
ATOM      2  C7  ZIN A   1      19.576   1.126   9.068  0.00  0.00     0.300 C 
ATOM      3  C8  ZIN A   1      18.844   1.453  10.358  0.00  0.00     0.265 C 
ATOM      4  N9  ZIN A   1      19.789   1.577  11.483  0.00  0.00    -0.058 N 
ATOM      5  H10 ZIN A   1      20.409   0.792  11.485  0.00  0.00     0.280 HD
ATOM      6  C15 ZIN A   1      19.016   1.621  12.740  0.00  0.00     0.265 C 
ATOM      7  C16 ZIN A   1      19.633   0.707  13.785  0.00  0.00     0.300 C 
ATOM      8  N17 ZIN A   1      18.925  -0.618  13.826  0.00  0.00     0.101 N 
ATOM      9  C22 ZIN A   1      18.666  -0.966  12.390  0.00  0.00     0.300 C 
ATOM     10  C23 ZIN A   1      18.257  -2.432  12.302  0.00  0.00     0.265 C 
ATOM     11  N24 ZIN A   1      18.423  -2.944  10.940  0.00  0.00    -0.058 N 
ATOM     12  H25 ZIN A   1      17.749  -3.707  10.815  0.00  0.00     0.280 HD
ATOM     13  C30 ZIN A   1      18.119  -1.918   9.934  0.00  0.00     0.265 C 
ATOM     14  C31 ZIN A   1      19.354  -1.237   9.378  0.00  0.00     0.300 C 
ENDROOT
BRANCH   1  15
ATOM     15  C5  ZIN A   1      17.600   0.030   8.231  0.00  0.00     0.303 C 
BRANCH  15  16
ATOM     16  C2  ZIN A   1      17.255  -0.345   6.788  0.00  0.00     0.142 C 
ATOM     17  C1  ZIN A   1      18.124   0.469   5.828  0.00  0.00     0.041 C 
BRANCH  16  18
ATOM     18  O4  ZIN A   1      15.877  -0.062   6.539  0.00  0.00    -0.394 OA
ATOM     19  H35 ZIN A   1      15.269  -0.494   7.155  0.00  0.00     0.210 HD
ENDBRANCH  16  18
ENDBRANCH  15  16
ENDBRANCH   1  15
BRANCH  11  20
ATOM     20  C26 ZIN A   1      19.764  -3.510  10.772  0.00  0.00     0.347 C 
BRANCH  20  21
ATOM     21  C27 ZIN A   1      19.664  -4.842  10.075  0.00  0.00     0.199 C 
ATOM     22  O28 ZIN A   1      20.527  -5.182   9.285  0.00  0.00    -0.647 OA
ATOM     23  O29 ZIN A   1      18.719  -5.579  10.301  0.00  0.00    -0.647 OA
ENDBRANCH  20  21
ENDBRANCH  11  20
BRANCH   4  24
ATOM     24  C11 ZIN A   1      20.546   2.831  11.354  0.00  0.00     0.347 C 
BRANCH  24  25
ATOM     25  C12 ZIN A   1      19.687   3.985  11.805  0.00  0.00     0.199 C 
ATOM     26  O13 ZIN A   1      19.986   4.612  12.807  0.00  0.00    -0.647 OA
ATOM     27  O14 ZIN A   1      18.694   4.292  11.168  0.00  0.00    -0.647 OA
ENDBRANCH  24  25
ENDBRANCH   4  24
BRANCH   8  28
ATOM     28  C18 ZIN A   1      17.565  -0.308  14.397  0.00  0.00     0.385 C 
BRANCH  28  29
ATOM     29  C19 ZIN A   1      17.542  -0.667  15.861  0.00  0.00     0.202 C 
ATOM     30  O20 ZIN A   1      16.807  -0.064  16.624  0.00  0.00    -0.647 OA
ATOM     31  O21 ZIN A   1      18.256  -1.559  16.282  0.00  0.00    -0.647 OA
ENDBRANCH  28  29
ENDBRANCH   8  28
TORSDOF 9
ENDMDL
MODEL 8
REMARK VINA RESULT:      -6.0      6.983     12.004
REMARK  9 active torsions:
REMARK  status: ('A' for Active; 'I' for Inactive)
REMARK    1  A    between atoms: C2_2  and  O4_3 
REMARK    2  A    between atoms: C2_2  and  C5_4 
REMARK    3  A    between atoms: C5_4  and  N6_5 
REMARK    4  A    between atoms: N9_8  and  C11_10 
REMARK    5  A    between atoms: C11_10  and  C12_11 
REMARK    6  A    between atoms: N17_16  and  C18_17 
REMARK    7  A    between atoms: C18_17  and  C19_18 
REMARK    8  A    between atoms: N24_23  and  C26_25 
REMARK    9  A    between atoms: C26_25  and  C27_26 
ROOT
ATOM      1  N6  ZIN A   1      18.012  -3.648   9.757  0.00  0.00     0.094 N 
ATOM      2  C7  ZIN A   1      18.508  -2.698   8.724  0.00  0.00     0.300 C 
ATOM      3  C8  ZIN A   1      19.053  -3.428   7.509  0.00  0.00     0.265 C 
ATOM      4  N9  ZIN A   1      18.366  -2.991   6.279  0.00  0.00    -0.058 N 
ATOM      5  H10 ZIN A   1      17.377  -3.006   6.428  0.00  0.00     0.280 HD
ATOM      6  C15 ZIN A   1      18.732  -3.912   5.187  0.00  0.00     0.265 C 
ATOM      7  C16 ZIN A   1      17.505  -4.319   4.389  0.00  0.00     0.300 C 
ATOM      8  N17 ZIN A   1      16.985  -5.653   4.845  0.00  0.00     0.101 N 
ATOM      9  C22 ZIN A   1      17.097  -5.625   6.340  0.00  0.00     0.300 C 
ATOM     10  C23 ZIN A   1      16.294  -6.785   6.919  0.00  0.00     0.265 C 
ATOM     11  N24 ZIN A   1      15.996  -6.563   8.335  0.00  0.00    -0.058 N 
ATOM     12  H25 ZIN A   1      15.893  -7.484   8.775  0.00  0.00     0.280 HD
ATOM     13  C30 ZIN A   1      17.095  -5.869   9.020  0.00  0.00     0.265 C 
ATOM     14  C31 ZIN A   1      16.863  -4.379   9.170  0.00  0.00     0.300 C 
ENDROOT
BRANCH   1  15
ATOM     15  C5  ZIN A   1      19.114  -4.570  10.115  0.00  0.00     0.303 C 
BRANCH  15  16
ATOM     16  C2  ZIN A   1      19.682  -4.181  11.482  0.00  0.00     0.142 C 
ATOM     17  C1  ZIN A   1      18.648  -3.350  12.245  0.00  0.00     0.041 C 
BRANCH  16  18
ATOM     18  O4  ZIN A   1      20.872  -3.411  11.301  0.00  0.00    -0.394 OA
ATOM     19  H35 ZIN A   1      20.765  -2.654  10.710  0.00  0.00     0.210 HD
ENDBRANCH  16  18
ENDBRANCH  15  16
ENDBRANCH   1  15
BRANCH  11  20
ATOM     20  C26 ZIN A   1      14.718  -5.861   8.479  0.00  0.00     0.347 C 
BRANCH  20  21
ATOM     21  C27 ZIN A   1      13.623  -6.674   7.837  0.00  0.00     0.199 C 
ATOM     22  O28 ZIN A   1      12.816  -6.135   7.100  0.00  0.00    -0.647 OA
ATOM     23  O29 ZIN A   1      13.544  -7.871   8.056  0.00  0.00    -0.647 OA
ENDBRANCH  20  21
ENDBRANCH  11  20
BRANCH   4  24
ATOM     24  C11 ZIN A   1      18.813  -1.637   5.922  0.00  0.00     0.347 C 
BRANCH  24  25
ATOM     25  C12 ZIN A   1      17.655  -0.863   5.344  0.00  0.00     0.199 C 
ATOM     26  O13 ZIN A   1      17.468  -0.854   4.139  0.00  0.00    -0.647 OA
ATOM     27  O14 ZIN A   1      16.905  -0.247   6.081  0.00  0.00    -0.647 OA
ENDBRANCH  24  25
ENDBRANCH   4  24
BRANCH   8  28
ATOM     28  C18 ZIN A   1      18.030  -6.644   4.400  0.00  0.00     0.385 C 
BRANCH  28  29
ATOM     29  C19 ZIN A   1      17.415  -7.622   3.432  0.00  0.00     0.202 C 
ATOM     30  O20 ZIN A   1      16.304  -7.413   2.978  0.00  0.00    -0.647 OA
ATOM     31  O21 ZIN A   1      18.030  -8.621   3.102  0.00  0.00    -0.647 OA
ENDBRANCH  28  29
ENDBRANCH   8  28
TORSDOF 9
ENDMDL
MODEL 9
REMARK VINA RESULT:      -6.0      9.075     12.404
REMARK  9 active torsions:
REMARK  status: ('A' for Active; 'I' for Inactive)
REMARK    1  A    between atoms: C2_2  and  O4_3 
REMARK    2  A    between atoms: C2_2  and  C5_4 
REMARK    3  A    between atoms: C5_4  and  N6_5 
REMARK    4  A    between atoms: N9_8  and  C11_10 
REMARK    5  A    between atoms: C11_10  and  C12_11 
REMARK    6  A    between atoms: N17_16  and  C18_17 
REMARK    7  A    between atoms: C18_17  and  C19_18 
REMARK    8  A    between atoms: N24_23  and  C26_25 
REMARK    9  A    between atoms: C26_25  and  C27_26 
ROOT
ATOM      1  N6  ZIN A   1      14.908  -7.220   6.872  0.00  0.00     0.094 N 
ATOM      2  C7  ZIN A   1      14.932  -7.231   5.384  0.00  0.00     0.300 C 
ATOM      3  C8  ZIN A   1      15.202  -5.847   4.819  0.00  0.00     0.265 C 
ATOM      4  N9  ZIN A   1      16.381  -5.860   3.934  0.00  0.00    -0.058 N 
ATOM      5  H10 ZIN A   1      17.135  -6.332   4.392  0.00  0.00     0.280 HD
ATOM      6  C15 ZIN A   1      16.758  -4.464   3.637  0.00  0.00     0.265 C 
ATOM      7  C16 ZIN A   1      18.259  -4.269   3.775  0.00  0.00     0.300 C 
ATOM      8  N17 ZIN A   1      18.605  -3.690   5.118  0.00  0.00     0.101 N 
ATOM      9  C22 ZIN A   1      17.714  -4.403   6.091  0.00  0.00     0.300 C 
ATOM     10  C23 ZIN A   1      18.213  -4.135   7.507  0.00  0.00     0.265 C 
ATOM     11  N24 ZIN A   1      17.687  -5.127   8.446  0.00  0.00    -0.058 N 
ATOM     12  H25 ZIN A   1      17.645  -4.683   9.370  0.00  0.00     0.280 HD
ATOM     13  C30 ZIN A   1      16.322  -5.539   8.094  0.00  0.00     0.265 C 
ATOM     14  C31 ZIN A   1      16.268  -6.849   7.333  0.00  0.00     0.300 C 
ENDROOT
BRANCH   1  15
ATOM     15  C5  ZIN A   1      13.897  -6.234   7.318  0.00  0.00     0.303 C 
BRANCH  15  16
ATOM     16  C2  ZIN A   1      12.928  -6.904   8.295  0.00  0.00     0.142 C 
ATOM     17  C1  ZIN A   1      12.186  -8.036   7.582  0.00  0.00     0.041 C 
BRANCH  16  18
ATOM     18  O4  ZIN A   1      11.985  -5.939   8.766  0.00  0.00    -0.394 OA
ATOM     19  H35 ZIN A   1      11.136  -5.959   8.304  0.00  0.00     0.210 HD
ENDBRANCH  16  18
ENDBRANCH  15  16
ENDBRANCH   1  15
BRANCH  11  20
ATOM     20  C26 ZIN A   1      18.605  -6.265   8.547  0.00  0.00     0.347 C 
BRANCH  20  21
ATOM     21  C27 ZIN A   1      19.937  -5.792   9.070  0.00  0.00     0.199 C 
ATOM     22  O28 ZIN A   1      19.989  -5.127  10.090  0.00  0.00    -0.647 OA
ATOM     23  O29 ZIN A   1      20.962  -6.073   8.472  0.00  0.00    -0.647 OA
ENDBRANCH  20  21
ENDBRANCH  11  20
BRANCH   4  24
ATOM     24  C11 ZIN A   1      16.042  -6.533   2.672  0.00  0.00     0.347 C 
BRANCH  24  25
ATOM     25  C12 ZIN A   1      17.035  -7.636   2.409  0.00  0.00     0.199 C 
ATOM     26  O13 ZIN A   1      16.879  -8.383   1.457  0.00  0.00    -0.647 OA
ATOM     27  O14 ZIN A   1      17.995  -7.782   3.146  0.00  0.00    -0.647 OA
ENDBRANCH  24  25
ENDBRANCH   4  24
BRANCH   8  28
ATOM     28  C18 ZIN A   1      18.076  -2.280   5.074  0.00  0.00     0.385 C 
BRANCH  28  29
ATOM     29  C19 ZIN A   1      19.192  -1.314   5.382  0.00  0.00     0.202 C 
ATOM     30  O20 ZIN A   1      19.966  -0.977   4.502  0.00  0.00    -0.647 OA
ATOM     31  O21 ZIN A   1      19.320  -0.870   6.509  0.00  0.00    -0.647 OA
ENDBRANCH  28  29
ENDBRANCH   8  28
TORSDOF 9
ENDMDL
