MODEL 1
REMARK VINA RESULT:      -4.4      0.000      0.000
REMARK  6 active torsions:
REMARK  status: ('A' for Active; 'I' for Inactive)
REMARK    1  A    between atoms: C2_2  and  C4_4 
REMARK    2  A    between atoms: C4_4  and  C5_5 
REMARK    3  A    between atoms: C5_5  and  O6_6 
REMARK    4  A    between atoms: C5_5  and  C7_7 
REMARK    5  A    between atoms: C5_5  and  C11_11 
REMARK    6  A    between atoms: C7_7  and  C8_8 
ROOT
ATOM      1  C5  ZIN A   1      18.000   3.271  10.839  0.00  0.00     0.164 C 
ENDROOT
BRANCH   1   2
ATOM      2  C4  ZIN A   1      18.678   2.776   9.560  0.00  0.00     0.163 C 
BRANCH   2   3
ATOM      3  C2  ZIN A   1      18.576   1.274   9.487  0.00  0.00     0.176 C 
ATOM      4  O1  ZIN A   1      19.377   0.578  10.088  0.00  0.00    -0.648 OA
ATOM      5  O3  ZIN A   1      17.689   0.754   8.832  0.00  0.00    -0.648 OA
ENDBRANCH   2   3
ENDBRANCH   1   2
BRANCH   1   6
ATOM      6  O6  ZIN A   1      17.129   2.255  11.340  0.00  0.00    -0.378 OA
ATOM      7  H16 ZIN A   1      17.562   1.619  11.925  0.00  0.00     0.211 HD
ENDBRANCH   1   6
BRANCH   1   8
ATOM      8  C7  ZIN A   1      19.064   3.594  11.888  0.00  0.00     0.163 C 
BRANCH   8   9
ATOM      9  C8  ZIN A   1      18.791   2.803  13.141  0.00  0.00     0.176 C 
ATOM     10  O9  ZIN A   1      18.060   3.262  14.004  0.00  0.00    -0.648 OA
ATOM     11  O10 ZIN A   1      19.298   1.705  13.293  0.00  0.00    -0.648 OA
ENDBRANCH   8   9
ENDBRANCH   1   8
BRANCH   1  12
ATOM     12  C11 ZIN A   1      17.200   4.513  10.535  0.00  0.00     0.210 C 
ATOM     13  O12 ZIN A   1      17.555   5.263   9.642  0.00  0.00    -0.646 OA
ATOM     14  O13 ZIN A   1      16.199   4.766  11.184  0.00  0.00    -0.646 OA
ENDBRANCH   1  12
TORSDOF 6
ENDMDL
MODEL 2
REMARK VINA RESULT:      -4.4      2.287      4.171
REMARK  6 active torsions:
REMARK  status: ('A' for Active; 'I' for Inactive)
REMARK    1  A    between atoms: C2_2  and  C4_4 
REMARK    2  A    between atoms: C4_4  and  C5_5 
REMARK    3  A    between atoms: C5_5  and  O6_6 
REMARK    4  A    between atoms: C5_5  and  C7_7 
REMARK    5  A    between atoms: C5_5  and  C11_11 
REMARK    6  A    between atoms: C7_7  and  C8_8 
ROOT
ATOM      1  C5  ZIN A   1      18.977   0.849  11.406  0.00  0.00     0.164 C 
ENDROOT
BRANCH   1   2
ATOM      2  C4  ZIN A   1      18.088   0.295  12.521  0.00  0.00     0.163 C 
BRANCH   2   3
ATOM      3  C2  ZIN A   1      16.936  -0.463  11.914  0.00  0.00     0.176 C 
ATOM      4  O1  ZIN A   1      15.922   0.128  11.585  0.00  0.00    -0.648 OA
ATOM      5  O3  ZIN A   1      17.020  -1.669  11.747  0.00  0.00    -0.648 OA
ENDBRANCH   2   3
ENDBRANCH   1   2
BRANCH   1   6
ATOM      6  O6  ZIN A   1      18.392   0.549  10.137  0.00  0.00    -0.378 OA
ATOM      7  H16 ZIN A   1      18.850   0.953   9.388  0.00  0.00     0.211 HD
ENDBRANCH   1   6
BRANCH   1   8
ATOM      8  C7  ZIN A   1      19.107   2.365  11.562  0.00  0.00     0.163 C 
BRANCH   8   9
ATOM      9  C8  ZIN A   1      18.144   3.051  10.628  0.00  0.00     0.176 C 
ATOM     10  O9  ZIN A   1      16.998   3.264  10.984  0.00  0.00    -0.648 OA
ATOM     11  O10 ZIN A   1      18.511   3.394   9.517  0.00  0.00    -0.648 OA
ENDBRANCH   8   9
ENDBRANCH   1   8
BRANCH   1  12
ATOM     12  C11 ZIN A   1      20.343   0.216  11.492  0.00  0.00     0.210 C 
ATOM     13  O12 ZIN A   1      21.155   0.627  12.302  0.00  0.00    -0.646 OA
ATOM     14  O13 ZIN A   1      20.635  -0.706  10.749  0.00  0.00    -0.646 OA
ENDBRANCH   1  12
TORSDOF 6
ENDMDL
MODEL 3
REMARK VINA RESULT:      -4.3      2.167      4.273
REMARK  6 active torsions:
REMARK  status: ('A' for Active; 'I' for Inactive)
REMARK    1  A    between atoms: C2_2  and  C4_4 
REMARK    2  A    between atoms: C4_4  and  C5_5 
REMARK    3  A    between atoms: C5_5  and  O6_6 
REMARK    4  A    between atoms: C5_5  and  C7_7 
REMARK    5  A    between atoms: C5_5  and  C11_11 
REMARK    6  A    between atoms: C7_7  and  C8_8 
ROOT
ATOM      1  C5  ZIN A   1      18.937   0.962  11.161  0.00  0.00     0.164 C 
ENDROOT
BRANCH   1   2
ATOM      2  C4  ZIN A   1      19.090   2.258  10.362  0.00  0.00     0.163 C 
BRANCH   2   3
ATOM      3  C2  ZIN A   1      18.290   3.351  11.022  0.00  0.00     0.176 C 
ATOM      4  O1  ZIN A   1      18.853   4.206  11.683  0.00  0.00    -0.648 OA
ATOM      5  O3  ZIN A   1      17.078   3.384  10.889  0.00  0.00    -0.648 OA
ENDBRANCH   2   3
ENDBRANCH   1   2
BRANCH   1   6
ATOM      6  O6  ZIN A   1      18.395   1.257  12.450  0.00  0.00    -0.378 OA
ATOM      7  H16 ZIN A   1      19.045   1.593  13.082  0.00  0.00     0.211 HD
ENDBRANCH   1   6
BRANCH   1   8
ATOM      8  C7  ZIN A   1      17.994   0.013  10.417  0.00  0.00     0.163 C 
BRANCH   8   9
ATOM      9  C8  ZIN A   1      16.919  -0.465  11.357  0.00  0.00     0.176 C 
ATOM     10  O9  ZIN A   1      17.070  -1.505  11.977  0.00  0.00    -0.648 OA
ATOM     11  O10 ZIN A   1      15.898   0.186  11.499  0.00  0.00    -0.648 OA
ENDBRANCH   8   9
ENDBRANCH   1   8
BRANCH   1  12
ATOM     12  C11 ZIN A   1      20.285   0.307  11.321  0.00  0.00     0.210 C 
ATOM     13  O12 ZIN A   1      20.625  -0.582  10.559  0.00  0.00    -0.646 OA
ATOM     14  O13 ZIN A   1      21.035   0.666  12.213  0.00  0.00    -0.646 OA
ENDBRANCH   1  12
TORSDOF 6
ENDMDL
MODEL 4
REMARK VINA RESULT:      -4.3      3.739      5.815
REMARK  6 active torsions:
REMARK  status: ('A' for Active; 'I' for Inactive)
REMARK    1  A    between atoms: C2_2  and  C4_4 
REMARK    2  A    between atoms: C4_4  and  C5_5 
REMARK    3  A    between atoms: C5_5  and  O6_6 
REMARK    4  A    between atoms: C5_5  and  C7_7 
REMARK    5  A    between atoms: C5_5  and  C11_11 
REMARK    6  A    between atoms: C7_7  and  C8_8 
ROOT
ATOM      1  C5  ZIN A   1      18.427  -0.084   7.179  0.00  0.00     0.164 C 
ENDROOT
BRANCH   1   2
ATOM      2  C4  ZIN A   1      18.988   0.470   5.868  0.00  0.00     0.163 C 
BRANCH   2   3
ATOM      3  C2  ZIN A   1      18.887  -0.581   4.794  0.00  0.00     0.176 C 
ATOM      4  O1  ZIN A   1      19.892  -1.142   4.392  0.00  0.00    -0.648 OA
ATOM      5  O3  ZIN A   1      17.798  -0.876   4.330  0.00  0.00    -0.648 OA
ENDBRANCH   2   3
ENDBRANCH   1   2
BRANCH   1   6
ATOM      6  O6  ZIN A   1      17.086  -0.534   6.970  0.00  0.00    -0.378 OA
ATOM      7  H16 ZIN A   1      16.768  -1.149   7.644  0.00  0.00     0.211 HD
ENDBRANCH   1   6
BRANCH   1   8
ATOM      8  C7  ZIN A   1      19.290  -1.256   7.648  0.00  0.00     0.163 C 
BRANCH   8   9
ATOM      9  C8  ZIN A   1      18.417  -2.461   7.886  0.00  0.00     0.176 C 
ATOM     10  O9  ZIN A   1      18.288  -3.302   7.012  0.00  0.00    -0.648 OA
ATOM     11  O10 ZIN A   1      17.839  -2.595   8.951  0.00  0.00    -0.648 OA
ENDBRANCH   8   9
ENDBRANCH   1   8
BRANCH   1  12
ATOM     12  C11 ZIN A   1      18.436   0.998   8.228  0.00  0.00     0.210 C 
ATOM     13  O12 ZIN A   1      19.142   1.981   8.083  0.00  0.00    -0.646 OA
ATOM     14  O13 ZIN A   1      17.737   0.891   9.221  0.00  0.00    -0.646 OA
ENDBRANCH   1  12
TORSDOF 6
ENDMDL
MODEL 5
REMARK VINA RESULT:      -4.3      1.957      4.219
REMARK  6 active torsions:
REMARK  status: ('A' for Active; 'I' for Inactive)
REMARK    1  A    between atoms: C2_2  and  C4_4 
REMARK    2  A    between atoms: C4_4  and  C5_5 
REMARK    3  A    between atoms: C5_5  and  O6_6 
REMARK    4  A    between atoms: C5_5  and  C7_7 
REMARK    5  A    between atoms: C5_5  and  C11_11 
REMARK    6  A    between atoms: C7_7  and  C8_8 
ROOT
ATOM      1  C5  ZIN A   1      18.674   1.335   9.943  0.00  0.00     0.164 C 
ENDROOT
BRANCH   1   2
ATOM      2  C4  ZIN A   1      18.800   0.430  11.170  0.00  0.00     0.163 C 
BRANCH   2   3
ATOM      3  C2  ZIN A   1      20.252   0.105  11.406  0.00  0.00     0.176 C 
ATOM      4  O1  ZIN A   1      20.785  -0.798  10.784  0.00  0.00    -0.648 OA
ATOM      5  O3  ZIN A   1      20.897   0.749  12.217  0.00  0.00    -0.648 OA
ENDBRANCH   2   3
ENDBRANCH   1   2
BRANCH   1   6
ATOM      6  O6  ZIN A   1      19.977   1.644   9.443  0.00  0.00    -0.378 OA
ATOM      7  H16 ZIN A   1      20.033   1.666   8.478  0.00  0.00     0.211 HD
ENDBRANCH   1   6
BRANCH   1   8
ATOM      8  C7  ZIN A   1      17.870   0.616   8.859  0.00  0.00     0.163 C 
BRANCH   8   9
ATOM      9  C8  ZIN A   1      18.772   0.284   7.699  0.00  0.00     0.176 C 
ATOM     10  O9  ZIN A   1      18.869   1.059   6.762  0.00  0.00    -0.648 OA
ATOM     11  O10 ZIN A   1      19.406  -0.757   7.697  0.00  0.00    -0.648 OA
ENDBRANCH   8   9
ENDBRANCH   1   8
BRANCH   1  12
ATOM     12  C11 ZIN A   1      17.969   2.611  10.329  0.00  0.00     0.210 C 
ATOM     13  O12 ZIN A   1      17.117   2.596  11.200  0.00  0.00    -0.646 OA
ATOM     14  O13 ZIN A   1      18.251   3.656   9.768  0.00  0.00    -0.646 OA
ENDBRANCH   1  12
TORSDOF 6
ENDMDL
MODEL 6
REMARK VINA RESULT:      -4.3      5.997      8.421
REMARK  6 active torsions:
REMARK  status: ('A' for Active; 'I' for Inactive)
REMARK    1  A    between atoms: C2_2  and  C4_4 
REMARK    2  A    between atoms: C4_4  and  C5_5 
REMARK    3  A    between atoms: C5_5  and  O6_6 
REMARK    4  A    between atoms: C5_5  and  C7_7 
REMARK    5  A    between atoms: C5_5  and  C11_11 
REMARK    6  A    between atoms: C7_7  and  C8_8 
ROOT
ATOM      1  C5  ZIN A   1      19.071  -3.209   7.137  0.00  0.00     0.164 C 
ENDROOT
BRANCH   1   2
ATOM      2  C4  ZIN A   1      18.310  -4.497   7.461  0.00  0.00     0.163 C 
BRANCH   2   3
ATOM      3  C2  ZIN A   1      19.221  -5.681   7.261  0.00  0.00     0.176 C 
ATOM      4  O1  ZIN A   1      19.976  -6.027   8.154  0.00  0.00    -0.648 OA
ATOM      5  O3  ZIN A   1      19.199  -6.297   6.209  0.00  0.00    -0.648 OA
ENDBRANCH   2   3
ENDBRANCH   1   2
BRANCH   1   6
ATOM      6  O6  ZIN A   1      20.365  -3.536   6.627  0.00  0.00    -0.378 OA
ATOM      7  H16 ZIN A   1      20.521  -3.228   5.724  0.00  0.00     0.211 HD
ENDBRANCH   1   6
BRANCH   1   8
ATOM      8  C7  ZIN A   1      18.296  -2.410   6.088  0.00  0.00     0.163 C 
BRANCH   8   9
ATOM      9  C8  ZIN A   1      18.992  -2.521   4.756  0.00  0.00     0.176 C 
ATOM     10  O9  ZIN A   1      19.772  -1.654   4.402  0.00  0.00    -0.648 OA
ATOM     11  O10 ZIN A   1      18.776  -3.479   4.033  0.00  0.00    -0.648 OA
ENDBRANCH   8   9
ENDBRANCH   1   8
BRANCH   1  12
ATOM     12  C11 ZIN A   1      19.218  -2.384   8.389  0.00  0.00     0.210 C 
ATOM     13  O12 ZIN A   1      19.038  -2.895   9.481  0.00  0.00    -0.646 OA
ATOM     14  O13 ZIN A   1      19.518  -1.204   8.310  0.00  0.00    -0.646 OA
ENDBRANCH   1  12
TORSDOF 6
ENDMDL
MODEL 7
REMARK VINA RESULT:      -4.2      2.869      5.361
REMARK  6 active torsions:
REMARK  status: ('A' for Active; 'I' for Inactive)
REMARK    1  A    between atoms: C2_2  and  C4_4 
REMARK    2  A    between atoms: C4_4  and  C5_5 
REMARK    3  A    between atoms: C5_5  and  O6_6 
REMARK    4  A    between atoms: C5_5  and  C7_7 
REMARK    5  A    between atoms: C5_5  and  C11_11 
REMARK    6  A    between atoms: C7_7  and  C8_8 
ROOT
ATOM      1  C5  ZIN A   1      18.256  -0.553   9.352  0.00  0.00     0.164 C 
ENDROOT
BRANCH   1   2
ATOM      2  C4  ZIN A   1      18.235  -0.362  10.870  0.00  0.00     0.163 C 
BRANCH   2   3
ATOM      3  C2  ZIN A   1      17.059   0.501  11.251  0.00  0.00     0.176 C 
ATOM      4  O1  ZIN A   1      17.166   1.715  11.247  0.00  0.00    -0.648 OA
ATOM      5  O3  ZIN A   1      15.997  -0.016  11.556  0.00  0.00    -0.648 OA
ENDBRANCH   2   3
ENDBRANCH   1   2
BRANCH   1   6
ATOM      6  O6  ZIN A   1      17.142   0.127   8.771  0.00  0.00    -0.378 OA
ATOM      7  H16 ZIN A   1      17.023   1.032   9.090  0.00  0.00     0.211 HD
ENDBRANCH   1   6
BRANCH   1   8
ATOM      8  C7  ZIN A   1      19.556   0.020   8.785  0.00  0.00     0.163 C 
BRANCH   8   9
ATOM      9  C8  ZIN A   1      19.257   1.283   8.020  0.00  0.00     0.176 C 
ATOM     10  O9  ZIN A   1      19.131   1.246   6.808  0.00  0.00    -0.648 OA
ATOM     11  O10 ZIN A   1      19.140   2.342   8.614  0.00  0.00    -0.648 OA
ENDBRANCH   8   9
ENDBRANCH   1   8
BRANCH   1  12
ATOM     12  C11 ZIN A   1      18.171  -2.023   9.030  0.00  0.00     0.210 C 
ATOM     13  O12 ZIN A   1      17.798  -2.813   9.880  0.00  0.00    -0.646 OA
ATOM     14  O13 ZIN A   1      18.476  -2.422   7.919  0.00  0.00    -0.646 OA
ENDBRANCH   1  12
TORSDOF 6
ENDMDL
MODEL 8
REMARK VINA RESULT:      -4.2      2.672      3.563
REMARK  6 active torsions:
REMARK  status: ('A' for Active; 'I' for Inactive)
REMARK    1  A    between atoms: C2_2  and  C4_4 
REMARK    2  A    between atoms: C4_4  and  C5_5 
REMARK    3  A    between atoms: C5_5  and  O6_6 
REMARK    4  A    between atoms: C5_5  and  C7_7 
REMARK    5  A    between atoms: C5_5  and  C11_11 
REMARK    6  A    between atoms: C7_7  and  C8_8 
ROOT
ATOM      1  C5  ZIN A   1      18.537   0.492   9.700  0.00  0.00     0.164 C 
ENDROOT
BRANCH   1   2
ATOM      2  C4  ZIN A   1      19.710  -0.412   9.316  0.00  0.00     0.163 C 
BRANCH   2   3
ATOM      3  C2  ZIN A   1      19.240  -1.452   8.331  0.00  0.00     0.176 C 
ATOM      4  O1  ZIN A   1      18.782  -2.508   8.731  0.00  0.00    -0.648 OA
ATOM      5  O3  ZIN A   1      19.313  -1.234   7.133  0.00  0.00    -0.648 OA
ENDBRANCH   2   3
ENDBRANCH   1   2
BRANCH   1   6
ATOM      6  O6  ZIN A   1      17.367   0.084   8.987  0.00  0.00    -0.378 OA
ATOM      7  H16 ZIN A   1      16.548   0.475   9.318  0.00  0.00     0.211 HD
ENDBRANCH   1   6
BRANCH   1   8
ATOM      8  C7  ZIN A   1      18.281   0.384  11.204  0.00  0.00     0.163 C 
BRANCH   8   9
ATOM      9  C8  ZIN A   1      17.022  -0.408  11.444  0.00  0.00     0.176 C 
ATOM     10  O9  ZIN A   1      15.950   0.166  11.536  0.00  0.00    -0.648 OA
ATOM     11  O10 ZIN A   1      17.074  -1.622  11.544  0.00  0.00    -0.648 OA
ENDBRANCH   8   9
ENDBRANCH   1   8
BRANCH   1  12
ATOM     12  C11 ZIN A   1      18.867   1.920   9.347  0.00  0.00     0.210 C 
ATOM     13  O12 ZIN A   1      19.129   2.219   8.195  0.00  0.00    -0.646 OA
ATOM     14  O13 ZIN A   1      18.872   2.776  10.216  0.00  0.00    -0.646 OA
ENDBRANCH   1  12
TORSDOF 6
ENDMDL
MODEL 9
REMARK VINA RESULT:      -4.2      0.913      3.939
REMARK  6 active torsions:
REMARK  status: ('A' for Active; 'I' for Inactive)
REMARK    1  A    between atoms: C2_2  and  C4_4 
REMARK    2  A    between atoms: C4_4  and  C5_5 
REMARK    3  A    between atoms: C5_5  and  O6_6 
REMARK    4  A    between atoms: C5_5  and  C7_7 
REMARK    5  A    between atoms: C5_5  and  C11_11 
REMARK    6  A    between atoms: C7_7  and  C8_8 
ROOT
ATOM      1  C5  ZIN A   1      18.335   3.005  11.784  0.00  0.00     0.164 C 
ENDROOT
BRANCH   1   2
ATOM      2  C4  ZIN A   1      18.209   4.529  11.788  0.00  0.00     0.163 C 
BRANCH   2   3
ATOM      3  C2  ZIN A   1      17.121   4.945  10.832  0.00  0.00     0.176 C 
ATOM      4  O1  ZIN A   1      17.404   5.285   9.696  0.00  0.00    -0.648 OA
ATOM      5  O3  ZIN A   1      15.956   4.936  11.193  0.00  0.00    -0.648 OA
ENDBRANCH   2   3
ENDBRANCH   1   2
BRANCH   1   6
ATOM      6  O6  ZIN A   1      17.192   2.434  11.143  0.00  0.00    -0.378 OA
ATOM      7  H16 ZIN A   1      17.157   2.589  10.190  0.00  0.00     0.211 HD
ENDBRANCH   1   6
BRANCH   1   8
ATOM      8  C7  ZIN A   1      19.600   2.600  11.025  0.00  0.00     0.163 C 
BRANCH   8   9
ATOM      9  C8  ZIN A   1      19.219   1.834   9.785  0.00  0.00     0.176 C 
ATOM     10  O9  ZIN A   1      19.160   0.616   9.815  0.00  0.00    -0.648 OA
ATOM     11  O10 ZIN A   1      18.968   2.431   8.752  0.00  0.00    -0.648 OA
ENDBRANCH   8   9
ENDBRANCH   1   8
BRANCH   1  12
ATOM     12  C11 ZIN A   1      18.418   2.503  13.203  0.00  0.00     0.210 C 
ATOM     13  O12 ZIN A   1      17.851   3.108  14.097  0.00  0.00    -0.646 OA
ATOM     14  O13 ZIN A   1      19.052   1.493  13.457  0.00  0.00    -0.646 OA
ENDBRANCH   1  12
TORSDOF 6
ENDMDL
